# generated using pymatgen
data_Ag2H24C25(N2O3)3
_symmetry_space_group_name_H-M   'P 1'
_cell_length_a   10.03720000
_cell_length_b   10.03720000
_cell_length_c   17.60700000
_cell_angle_alpha   90.00000000
_cell_angle_beta   90.00000000
_cell_angle_gamma   90.00000000
_symmetry_Int_Tables_number   1
_chemical_formula_structural   Ag2H24C25(N2O3)3
_chemical_formula_sum   'Ag4 H48 C50 N12 O18'
_cell_volume   1773.82397327
_cell_formula_units_Z   2
loop_
 _symmetry_equiv_pos_site_id
 _symmetry_equiv_pos_as_xyz
  1  'x, y, z'
loop_
 _atom_site_type_symbol
 _atom_site_label
 _atom_site_symmetry_multiplicity
 _atom_site_fract_x
 _atom_site_fract_y
 _atom_site_fract_z
 _atom_site_occupancy
 _atom_site_charge
  Ag  Ag1  1  0.702140  0.000000  0.250000  1.0  0.2396
  Ag  Ag2  1  0.297860  0.000000  0.250000  1.0  0.242
  Ag  Ag3  1  0.000000  0.297860  0.750000  1.0  0.2408
  Ag  Ag4  1  0.000000  0.702140  0.750000  1.0  0.241
  H  H5  1  0.654200  0.916900  0.923100  1.0  0.1536
  H  H6  1  0.610200  0.600200  0.080900  1.0  0.0696
  H  H7  1  0.458900  0.642200  0.081500  1.0  0.0719
  H  H8  1  0.744300  0.114100  0.971500  1.0  0.1128
  H  H9  1  0.598400  0.801400  0.137700  1.0  0.0951
  H  H10  1  0.759800  0.144700  0.098700  1.0  0.0804
  H  H11  1  0.345800  0.083100  0.923100  1.0  0.154
  H  H12  1  0.389800  0.399800  0.080900  1.0  0.0679
  H  H13  1  0.541100  0.357800  0.081500  1.0  0.0722
  H  H14  1  0.255700  0.885900  0.971500  1.0  0.1133
  H  H15  1  0.401600  0.198600  0.137700  1.0  0.095
  H  H16  1  0.240200  0.855300  0.098700  1.0  0.0804
  H  H17  1  0.916900  0.345800  0.076900  1.0  0.1542
  H  H18  1  0.600200  0.389800  0.919100  1.0  0.0713
  H  H19  1  0.642200  0.541100  0.918500  1.0  0.0714
  H  H20  1  0.114100  0.255700  0.028500  1.0  0.1132
  H  H21  1  0.801400  0.401600  0.862300  1.0  0.0955
  H  H22  1  0.144700  0.240200  0.901300  1.0  0.0799
  H  H23  1  0.083100  0.654200  0.076900  1.0  0.1544
  H  H24  1  0.399800  0.610200  0.919100  1.0  0.0719
  H  H25  1  0.357800  0.458900  0.918500  1.0  0.0713
  H  H26  1  0.885900  0.744300  0.028500  1.0  0.1138
  H  H27  1  0.198600  0.598400  0.862300  1.0  0.0953
  H  H28  1  0.855300  0.759800  0.901300  1.0  0.0806
  H  H29  1  0.345800  0.916900  0.576900  1.0  0.1545
  H  H30  1  0.389800  0.600200  0.419100  1.0  0.0679
  H  H31  1  0.541100  0.642200  0.418500  1.0  0.0715
  H  H32  1  0.255700  0.114100  0.528500  1.0  0.1129
  H  H33  1  0.401600  0.801400  0.362300  1.0  0.0954
  H  H34  1  0.240200  0.144700  0.401300  1.0  0.0806
  H  H35  1  0.654200  0.083100  0.576900  1.0  0.1542
  H  H36  1  0.610200  0.399800  0.419100  1.0  0.0695
  H  H37  1  0.458900  0.357800  0.418500  1.0  0.072
  H  H38  1  0.744300  0.885900  0.528500  1.0  0.1128
  H  H39  1  0.598400  0.198600  0.362300  1.0  0.0953
  H  H40  1  0.759800  0.855300  0.401300  1.0  0.0799
  H  H41  1  0.083100  0.345800  0.423100  1.0  0.1537
  H  H42  1  0.399800  0.389800  0.580900  1.0  0.0731
  H  H43  1  0.357800  0.541100  0.581500  1.0  0.0716
  H  H44  1  0.885900  0.255700  0.471500  1.0  0.1136
  H  H45  1  0.198600  0.401600  0.637700  1.0  0.0954
  H  H46  1  0.855300  0.240200  0.598700  1.0  0.0808
  H  H47  1  0.916900  0.654200  0.423100  1.0  0.1536
  H  H48  1  0.600200  0.610200  0.580900  1.0  0.0714
  H  H49  1  0.642200  0.458900  0.581500  1.0  0.0726
  H  H50  1  0.114100  0.744300  0.471500  1.0  0.113
  H  H51  1  0.801400  0.598400  0.637700  1.0  0.0951
  H  H52  1  0.144700  0.759800  0.598700  1.0  0.0805
  C  C53  1  0.615000  0.840700  0.027600  1.0  0.2928
  C  C54  1  0.660100  0.932100  0.975100  1.0  -0.1948
  C  C55  1  0.533600  0.619300  0.049100  1.0  0.0815
  C  C56  1  0.714400  0.047800  0.004300  1.0  -0.1301
  C  C57  1  0.629500  0.864500  0.103300  1.0  0.1101
  C  C58  1  0.724500  0.065000  0.080800  1.0  0.1992
  C  C59  1  0.385000  0.159300  0.027600  1.0  0.2927
  C  C60  1  0.339900  0.067900  0.975100  1.0  -0.1938
  C  C61  1  0.466400  0.380700  0.049100  1.0  0.0809
  C  C62  1  0.285600  0.952200  0.004300  1.0  -0.1294
  C  C63  1  0.370500  0.135500  0.103300  1.0  0.1095
  C  C64  1  0.275500  0.935000  0.080800  1.0  0.1999
  C  C65  1  0.840700  0.385000  0.972400  1.0  0.2923
  C  C66  1  0.932100  0.339900  0.024900  1.0  -0.1978
  C  C67  1  0.619300  0.466400  0.950900  1.0  0.0807
  C  C68  1  0.047800  0.285600  0.995700  1.0  -0.1272
  C  C69  1  0.864500  0.370500  0.896700  1.0  0.1159
  C  C70  1  0.065000  0.275500  0.919200  1.0  0.1985
  C  C71  1  0.159300  0.615000  0.972400  1.0  0.2932
  C  C72  1  0.067900  0.660100  0.024900  1.0  -0.1986
  C  C73  1  0.380700  0.533600  0.950900  1.0  0.0819
  C  C74  1  0.952200  0.714400  0.995700  1.0  -0.1286
  C  C75  1  0.135500  0.629500  0.896700  1.0  0.1153
  C  C76  1  0.935000  0.724500  0.919200  1.0  0.199
  C  C77  1  0.385000  0.840700  0.472400  1.0  0.2922
  C  C78  1  0.339900  0.932100  0.524900  1.0  -0.1974
  C  C79  1  0.466400  0.619300  0.450900  1.0  0.0812
  C  C80  1  0.285600  0.047800  0.495700  1.0  -0.1295
  C  C81  1  0.370500  0.864500  0.396700  1.0  0.1134
  C  C82  1  0.275500  0.065000  0.419200  1.0  0.2002
  C  C83  1  0.615000  0.159300  0.472400  1.0  0.2918
  C  C84  1  0.660100  0.067900  0.524900  1.0  -0.1982
  C  C85  1  0.533600  0.380700  0.450900  1.0  0.081
  C  C86  1  0.714400  0.952200  0.495700  1.0  -0.1291
  C  C87  1  0.629500  0.135500  0.396700  1.0  0.1123
  C  C88  1  0.724500  0.935000  0.419200  1.0  0.1995
  C  C89  1  0.159300  0.385000  0.527600  1.0  0.294
  C  C90  1  0.067900  0.339900  0.475100  1.0  -0.1948
  C  C91  1  0.380700  0.466400  0.549100  1.0  0.0818
  C  C92  1  0.952200  0.285600  0.504300  1.0  -0.1284
  C  C93  1  0.135500  0.370500  0.603300  1.0  0.1125
  C  C94  1  0.935000  0.275500  0.580800  1.0  0.1995
  C  C95  1  0.840700  0.615000  0.527600  1.0  0.2932
  C  C96  1  0.932100  0.660100  0.475100  1.0  -0.195
  C  C97  1  0.619300  0.533600  0.549100  1.0  0.0811
  C  C98  1  0.047800  0.714400  0.504300  1.0  -0.1286
  C  C99  1  0.864500  0.629500  0.603300  1.0  0.112
  C  C100  1  0.065000  0.724500  0.580800  1.0  0.1987
  C  C101  1  0.500000  0.500000  0.000000  1.0  0.0053
  C  C102  1  0.500000  0.500000  0.500000  1.0  0.0053
  N  N103  1  0.687200  0.976000  0.130300  1.0  -0.3156
  N  N104  1  0.312800  0.024000  0.130300  1.0  -0.318
  N  N105  1  0.976000  0.312800  0.869700  1.0  -0.3167
  N  N106  1  0.024000  0.687200  0.869700  1.0  -0.3154
  N  N107  1  0.312800  0.976000  0.369700  1.0  -0.3149
  N  N108  1  0.687200  0.024000  0.369700  1.0  -0.315
  N  N109  1  0.024000  0.312800  0.630300  1.0  -0.317
  N  N110  1  0.976000  0.687200  0.630300  1.0  -0.3173
  N  N111  1  0.000000  0.876100  0.250000  1.0  0.3735
  N  N112  1  0.000000  0.123900  0.250000  1.0  0.3733
  N  N113  1  0.876100  0.000000  0.750000  1.0  0.3728
  N  N114  1  0.123900  0.000000  0.750000  1.0  0.3719
  O  O115  1  0.562500  0.725400  0.998200  1.0  -0.2686
  O  O116  1  0.437500  0.274600  0.998200  1.0  -0.2693
  O  O117  1  0.725400  0.437500  0.001800  1.0  -0.2688
  O  O118  1  0.274600  0.562500  0.001800  1.0  -0.269
  O  O119  1  0.437500  0.725400  0.501800  1.0  -0.2695
  O  O120  1  0.562500  0.274600  0.501800  1.0  -0.2693
  O  O121  1  0.274600  0.437500  0.498200  1.0  -0.268
  O  O122  1  0.725400  0.562500  0.498200  1.0  -0.2688
  O  O123  1  0.908000  0.794000  0.256000  1.0  -0.5366
  O  O124  1  0.092000  0.206000  0.256000  1.0  -0.5361
  O  O125  1  0.092000  0.794000  0.244000  1.0  -0.5358
  O  O126  1  0.908000  0.206000  0.244000  1.0  -0.5352
  O  O127  1  0.000000  0.000000  0.250000  1.0  -0.5249
  O  O128  1  0.794000  0.092000  0.744000  1.0  -0.5396
  O  O129  1  0.206000  0.908000  0.744000  1.0  -0.5395
  O  O130  1  0.206000  0.092000  0.756000  1.0  -0.5393
  O  O131  1  0.794000  0.908000  0.756000  1.0  -0.539
  O  O132  1  0.000000  0.000000  0.750000  1.0  -0.5249
