# generated using pymatgen
data_CoH17C25N3O4
_symmetry_space_group_name_H-M   'P 1'
_cell_length_a   20.57000000
_cell_length_b   9.90100000
_cell_length_c   27.21100000
_cell_angle_alpha   90.00000000
_cell_angle_beta   108.52600000
_cell_angle_gamma   90.00000000
_symmetry_Int_Tables_number   1
_chemical_formula_structural   CoH17C25N3O4
_chemical_formula_sum   'Co8 H136 C200 N24 O32'
_cell_volume   5254.70630742
_cell_formula_units_Z   8
loop_
 _symmetry_equiv_pos_site_id
 _symmetry_equiv_pos_as_xyz
  1  'x, y, z'
loop_
 _atom_site_type_symbol
 _atom_site_label
 _atom_site_symmetry_multiplicity
 _atom_site_fract_x
 _atom_site_fract_y
 _atom_site_fract_z
 _atom_site_occupancy
 _atom_site_charge
  Co  Co1  1  0.136100  0.555920  0.174280  1.0  0.808
  Co  Co2  1  0.636100  0.055920  0.174280  1.0  0.8082
  Co  Co3  1  0.136100  0.444080  0.674280  1.0  0.8094
  Co  Co4  1  0.636100  0.944080  0.674280  1.0  0.8094
  Co  Co5  1  0.863900  0.555920  0.325720  1.0  0.8101
  Co  Co6  1  0.363900  0.055920  0.325720  1.0  0.8103
  Co  Co7  1  0.863900  0.444080  0.825720  1.0  0.8075
  Co  Co8  1  0.363900  0.944080  0.825720  1.0  0.8075
  H  H9  1  0.959800  0.849600  0.174800  1.0  0.1024
  H  H10  1  0.130300  0.044200  0.168000  1.0  0.1044
  H  H11  1  0.968900  0.258600  0.181800  1.0  0.1007
  H  H12  1  0.769800  0.878500  0.216600  1.0  0.0796
  H  H13  1  0.880600  0.868200  0.212800  1.0  0.1188
  H  H14  1  0.858000  0.251800  0.158900  1.0  0.1181
  H  H15  1  0.747900  0.250400  0.163800  1.0  0.0887
  H  H16  1  0.197600  0.590200  0.441000  1.0  0.1038
  H  H17  1  0.248500  0.604700  0.286200  1.0  0.0814
  H  H18  1  0.254700  0.605400  0.372700  1.0  0.1305
  H  H19  1  0.050200  0.534700  0.328000  1.0  0.1244
  H  H20  1  0.050300  0.532900  0.243400  1.0  0.0928
  H  H21  1  0.065400  0.482400  0.407400  1.0  0.0896
  H  H22  1  0.050600  0.331000  0.565700  1.0  0.0917
  H  H23  1  0.038100  0.355600  0.478400  1.0  0.1354
  H  H24  1  0.184900  0.644300  0.517500  1.0  0.1258
  H  H25  1  0.192200  0.613600  0.603100  1.0  0.0779
  H  H26  1  0.459800  0.349600  0.174800  1.0  0.1024
  H  H27  1  0.630300  0.544200  0.168000  1.0  0.1044
  H  H28  1  0.468900  0.758600  0.181800  1.0  0.1007
  H  H29  1  0.269800  0.378500  0.216600  1.0  0.0796
  H  H30  1  0.380600  0.368200  0.212800  1.0  0.1188
  H  H31  1  0.358000  0.751800  0.158900  1.0  0.1181
  H  H32  1  0.247900  0.750400  0.163800  1.0  0.0887
  H  H33  1  0.697600  0.090200  0.441000  1.0  0.1038
  H  H34  1  0.748500  0.104700  0.286200  1.0  0.0814
  H  H35  1  0.754700  0.105400  0.372700  1.0  0.1305
  H  H36  1  0.550200  0.034700  0.328000  1.0  0.1244
  H  H37  1  0.550300  0.032900  0.243400  1.0  0.0928
  H  H38  1  0.565400  0.982400  0.407400  1.0  0.0896
  H  H39  1  0.550600  0.831000  0.565700  1.0  0.0917
  H  H40  1  0.538100  0.855600  0.478400  1.0  0.1354
  H  H41  1  0.684900  0.144300  0.517500  1.0  0.1258
  H  H42  1  0.692200  0.113600  0.603100  1.0  0.0779
  H  H43  1  0.959800  0.150400  0.674800  1.0  0.1026
  H  H44  1  0.130300  0.955800  0.668000  1.0  0.1045
  H  H45  1  0.968900  0.741400  0.681800  1.0  0.1009
  H  H46  1  0.769800  0.121500  0.716600  1.0  0.0797
  H  H47  1  0.880600  0.131800  0.712800  1.0  0.1188
  H  H48  1  0.858000  0.748200  0.658900  1.0  0.1179
  H  H49  1  0.747900  0.749600  0.663800  1.0  0.0875
  H  H50  1  0.197600  0.409800  0.941000  1.0  0.1037
  H  H51  1  0.248500  0.395300  0.786200  1.0  0.0816
  H  H52  1  0.254700  0.394600  0.872700  1.0  0.1305
  H  H53  1  0.050200  0.465300  0.828000  1.0  0.1244
  H  H54  1  0.050300  0.467100  0.743400  1.0  0.0931
  H  H55  1  0.065400  0.517600  0.907400  1.0  0.0896
  H  H56  1  0.050600  0.669000  0.065700  1.0  0.0916
  H  H57  1  0.038100  0.644400  0.978400  1.0  0.136
  H  H58  1  0.184900  0.355700  0.017500  1.0  0.1257
  H  H59  1  0.192200  0.386400  0.103100  1.0  0.0781
  H  H60  1  0.459800  0.650400  0.674800  1.0  0.1026
  H  H61  1  0.630300  0.455800  0.668000  1.0  0.1045
  H  H62  1  0.468900  0.241400  0.681800  1.0  0.1009
  H  H63  1  0.269800  0.621500  0.716600  1.0  0.0797
  H  H64  1  0.380600  0.631800  0.712800  1.0  0.1188
  H  H65  1  0.358000  0.248200  0.658900  1.0  0.1179
  H  H66  1  0.247900  0.249600  0.663800  1.0  0.0875
  H  H67  1  0.697600  0.909800  0.941000  1.0  0.1037
  H  H68  1  0.748500  0.895300  0.786200  1.0  0.0816
  H  H69  1  0.754700  0.894600  0.872700  1.0  0.1305
  H  H70  1  0.550200  0.965300  0.828000  1.0  0.1244
  H  H71  1  0.550300  0.967100  0.743400  1.0  0.0931
  H  H72  1  0.565400  0.017600  0.907400  1.0  0.0896
  H  H73  1  0.550600  0.169000  0.065700  1.0  0.0916
  H  H74  1  0.538100  0.144400  0.978400  1.0  0.136
  H  H75  1  0.684900  0.855700  0.017500  1.0  0.1257
  H  H76  1  0.692200  0.886400  0.103100  1.0  0.0781
  H  H77  1  0.040200  0.849600  0.325200  1.0  0.1025
  H  H78  1  0.869700  0.044200  0.332000  1.0  0.1048
  H  H79  1  0.031100  0.258600  0.318200  1.0  0.1001
  H  H80  1  0.230200  0.878500  0.283400  1.0  0.0793
  H  H81  1  0.119400  0.868200  0.287200  1.0  0.1198
  H  H82  1  0.142000  0.251800  0.341100  1.0  0.1184
  H  H83  1  0.252100  0.250400  0.336200  1.0  0.0876
  H  H84  1  0.802400  0.590200  0.059000  1.0  0.1034
  H  H85  1  0.751500  0.604700  0.213800  1.0  0.0815
  H  H86  1  0.745300  0.605400  0.127300  1.0  0.1305
  H  H87  1  0.949800  0.534700  0.172000  1.0  0.1247
  H  H88  1  0.949700  0.532900  0.256600  1.0  0.0927
  H  H89  1  0.934600  0.482400  0.092600  1.0  0.0902
  H  H90  1  0.949400  0.331000  0.934300  1.0  0.0911
  H  H91  1  0.961900  0.355600  0.021600  1.0  0.1354
  H  H92  1  0.815100  0.644300  0.982500  1.0  0.1261
  H  H93  1  0.807800  0.613600  0.896900  1.0  0.078
  H  H94  1  0.540200  0.349600  0.325200  1.0  0.1025
  H  H95  1  0.369700  0.544200  0.332000  1.0  0.1048
  H  H96  1  0.531100  0.758600  0.318200  1.0  0.1001
  H  H97  1  0.730200  0.378500  0.283400  1.0  0.0793
  H  H98  1  0.619400  0.368200  0.287200  1.0  0.1198
  H  H99  1  0.642000  0.751800  0.341100  1.0  0.1184
  H  H100  1  0.752100  0.750400  0.336200  1.0  0.0876
  H  H101  1  0.302400  0.090200  0.059000  1.0  0.1034
  H  H102  1  0.251500  0.104700  0.213800  1.0  0.0815
  H  H103  1  0.245300  0.105400  0.127300  1.0  0.1305
  H  H104  1  0.449800  0.034700  0.172000  1.0  0.1247
  H  H105  1  0.449700  0.032900  0.256600  1.0  0.0927
  H  H106  1  0.434600  0.982400  0.092600  1.0  0.0902
  H  H107  1  0.449400  0.831000  0.934300  1.0  0.0911
  H  H108  1  0.461900  0.855600  0.021600  1.0  0.1354
  H  H109  1  0.315100  0.144300  0.982500  1.0  0.1261
  H  H110  1  0.307800  0.113600  0.896900  1.0  0.078
  H  H111  1  0.040200  0.150400  0.825200  1.0  0.1021
  H  H112  1  0.869700  0.955800  0.832000  1.0  0.1049
  H  H113  1  0.031100  0.741400  0.818200  1.0  0.1008
  H  H114  1  0.230200  0.121500  0.783400  1.0  0.0796
  H  H115  1  0.119400  0.131800  0.787200  1.0  0.12
  H  H116  1  0.142000  0.748200  0.841100  1.0  0.1183
  H  H117  1  0.252100  0.749600  0.836200  1.0  0.0875
  H  H118  1  0.802400  0.409800  0.559000  1.0  0.1032
  H  H119  1  0.751500  0.395300  0.713800  1.0  0.0815
  H  H120  1  0.745300  0.394600  0.627300  1.0  0.1306
  H  H121  1  0.949800  0.465300  0.672000  1.0  0.1246
  H  H122  1  0.949700  0.467100  0.756600  1.0  0.0927
  H  H123  1  0.934600  0.517600  0.592600  1.0  0.09
  H  H124  1  0.949400  0.669000  0.434300  1.0  0.0906
  H  H125  1  0.961900  0.644400  0.521600  1.0  0.1353
  H  H126  1  0.815100  0.355700  0.482500  1.0  0.1259
  H  H127  1  0.807800  0.386400  0.396900  1.0  0.0781
  H  H128  1  0.540200  0.650400  0.825200  1.0  0.1021
  H  H129  1  0.369700  0.455800  0.832000  1.0  0.1049
  H  H130  1  0.531100  0.241400  0.818200  1.0  0.1008
  H  H131  1  0.730200  0.621500  0.783400  1.0  0.0796
  H  H132  1  0.619400  0.631800  0.787200  1.0  0.12
  H  H133  1  0.642000  0.248200  0.841100  1.0  0.1183
  H  H134  1  0.752100  0.249600  0.836200  1.0  0.0875
  H  H135  1  0.302400  0.909800  0.559000  1.0  0.1032
  H  H136  1  0.251500  0.895300  0.713800  1.0  0.0815
  H  H137  1  0.245300  0.894600  0.627300  1.0  0.1306
  H  H138  1  0.449800  0.965300  0.672000  1.0  0.1246
  H  H139  1  0.449700  0.967100  0.756600  1.0  0.0927
  H  H140  1  0.434600  0.017600  0.592600  1.0  0.09
  H  H141  1  0.449400  0.169000  0.434300  1.0  0.0906
  H  H142  1  0.461900  0.144400  0.521600  1.0  0.1353
  H  H143  1  0.315100  0.855700  0.482500  1.0  0.1259
  H  H144  1  0.307800  0.886400  0.396900  1.0  0.0781
  C  C145  1  0.952850  0.054800  0.179350  1.0  0.0303
  C  C146  1  0.983750  0.931600  0.174660  1.0  -0.0651
  C  C147  1  0.049350  0.927500  0.169790  1.0  -0.1408
  C  C148  1  0.085200  0.047100  0.170270  1.0  0.0027
  C  C149  1  0.055050  0.171100  0.174060  1.0  -0.1272
  C  C150  1  0.989210  0.174200  0.178830  1.0  -0.0607
  C  C151  1  0.787480  0.954600  0.203780  1.0  0.1741
  C  C152  1  0.854290  0.948000  0.201960  1.0  -0.1884
  C  C153  1  0.882660  0.058800  0.184140  1.0  0.0906
  C  C154  1  0.841040  0.172600  0.170310  1.0  -0.1709
  C  C155  1  0.774820  0.170900  0.173120  1.0  0.1825
  C  C156  1  0.156910  0.558700  0.415790  1.0  -0.1422
  C  C157  1  0.207940  0.588300  0.294840  1.0  0.1865
  C  C158  1  0.212020  0.589000  0.346780  1.0  -0.1899
  C  C159  1  0.153380  0.565500  0.360920  1.0  0.119
  C  C160  1  0.091980  0.547000  0.320680  1.0  -0.2054
  C  C161  1  0.092570  0.547000  0.270110  1.0  0.1618
  C  C162  1  0.106770  0.511100  0.432610  1.0  -0.1921
  C  C163  1  0.081800  0.793300  0.166450  1.0  0.6328
  C  C164  1  0.078500  0.395000  0.555800  1.0  0.1719
  C  C165  1  0.070900  0.408600  0.503350  1.0  -0.2034
  C  C166  1  0.111750  0.500600  0.487720  1.0  0.0938
  C  C167  1  0.156970  0.578300  0.526360  1.0  -0.1983
  C  C168  1  0.161050  0.559300  0.577500  1.0  0.1733
  C  C169  1  0.093190  0.301100  0.173920  1.0  0.6829
  C  C170  1  0.452850  0.554800  0.179350  1.0  0.0303
  C  C171  1  0.483750  0.431600  0.174660  1.0  -0.0651
  C  C172  1  0.549350  0.427500  0.169790  1.0  -0.1408
  C  C173  1  0.585200  0.547100  0.170270  1.0  0.0027
  C  C174  1  0.555050  0.671100  0.174060  1.0  -0.1272
  C  C175  1  0.489210  0.674200  0.178830  1.0  -0.0607
  C  C176  1  0.287480  0.454600  0.203780  1.0  0.1741
  C  C177  1  0.354290  0.448000  0.201960  1.0  -0.1884
  C  C178  1  0.382660  0.558800  0.184140  1.0  0.0906
  C  C179  1  0.341040  0.672600  0.170310  1.0  -0.1709
  C  C180  1  0.274820  0.670900  0.173120  1.0  0.1825
  C  C181  1  0.656910  0.058700  0.415790  1.0  -0.1422
  C  C182  1  0.707940  0.088300  0.294840  1.0  0.1865
  C  C183  1  0.712020  0.089000  0.346780  1.0  -0.1899
  C  C184  1  0.653380  0.065500  0.360920  1.0  0.119
  C  C185  1  0.591980  0.047000  0.320680  1.0  -0.2054
  C  C186  1  0.592570  0.047000  0.270110  1.0  0.1618
  C  C187  1  0.606770  0.011100  0.432610  1.0  -0.1921
  C  C188  1  0.581800  0.293300  0.166450  1.0  0.6328
  C  C189  1  0.578500  0.895000  0.555800  1.0  0.1719
  C  C190  1  0.570900  0.908600  0.503350  1.0  -0.2034
  C  C191  1  0.611750  0.000600  0.487720  1.0  0.0938
  C  C192  1  0.656970  0.078300  0.526360  1.0  -0.1983
  C  C193  1  0.661050  0.059300  0.577500  1.0  0.1733
  C  C194  1  0.593190  0.801100  0.173920  1.0  0.6829
  C  C195  1  0.952850  0.945200  0.679350  1.0  0.0303
  C  C196  1  0.983750  0.068400  0.674660  1.0  -0.0663
  C  C197  1  0.049350  0.072500  0.669790  1.0  -0.1392
  C  C198  1  0.085200  0.952900  0.670270  1.0  0.0029
  C  C199  1  0.055050  0.828900  0.674060  1.0  -0.1286
  C  C200  1  0.989210  0.825800  0.678830  1.0  -0.0599
  C  C201  1  0.787480  0.045400  0.703780  1.0  0.1743
  C  C202  1  0.854290  0.052000  0.701960  1.0  -0.1889
  C  C203  1  0.882660  0.941200  0.684140  1.0  0.0906
  C  C204  1  0.841040  0.827400  0.670310  1.0  -0.1705
  C  C205  1  0.774820  0.829100  0.673120  1.0  0.1826
  C  C206  1  0.156910  0.441300  0.915790  1.0  -0.1423
  C  C207  1  0.207940  0.411700  0.794840  1.0  0.1867
  C  C208  1  0.212020  0.411000  0.846780  1.0  -0.1901
  C  C209  1  0.153380  0.434500  0.860920  1.0  0.1191
  C  C210  1  0.091980  0.453000  0.820680  1.0  -0.2053
  C  C211  1  0.092570  0.453000  0.770110  1.0  0.1617
  C  C212  1  0.106770  0.488900  0.932610  1.0  -0.1923
  C  C213  1  0.081800  0.206700  0.666450  1.0  0.6326
  C  C214  1  0.078500  0.605000  0.055800  1.0  0.1714
  C  C215  1  0.070900  0.591400  0.003350  1.0  -0.2031
  C  C216  1  0.111750  0.499400  0.987720  1.0  0.0942
  C  C217  1  0.156970  0.421700  0.026360  1.0  -0.197
  C  C218  1  0.161050  0.440700  0.077500  1.0  0.1734
  C  C219  1  0.093190  0.698900  0.673920  1.0  0.6829
  C  C220  1  0.452850  0.445200  0.679350  1.0  0.0303
  C  C221  1  0.483750  0.568400  0.674660  1.0  -0.0663
  C  C222  1  0.549350  0.572500  0.669790  1.0  -0.1392
  C  C223  1  0.585200  0.452900  0.670270  1.0  0.0029
  C  C224  1  0.555050  0.328900  0.674060  1.0  -0.1286
  C  C225  1  0.489210  0.325800  0.678830  1.0  -0.0599
  C  C226  1  0.287480  0.545400  0.703780  1.0  0.1743
  C  C227  1  0.354290  0.552000  0.701960  1.0  -0.1889
  C  C228  1  0.382660  0.441200  0.684140  1.0  0.0906
  C  C229  1  0.341040  0.327400  0.670310  1.0  -0.1705
  C  C230  1  0.274820  0.329100  0.673120  1.0  0.1826
  C  C231  1  0.656910  0.941300  0.915790  1.0  -0.1423
  C  C232  1  0.707940  0.911700  0.794840  1.0  0.1867
  C  C233  1  0.712020  0.911000  0.846780  1.0  -0.1901
  C  C234  1  0.653380  0.934500  0.860920  1.0  0.1191
  C  C235  1  0.591980  0.953000  0.820680  1.0  -0.2053
  C  C236  1  0.592570  0.953000  0.770110  1.0  0.1617
  C  C237  1  0.606770  0.988900  0.932610  1.0  -0.1923
  C  C238  1  0.581800  0.706700  0.666450  1.0  0.6326
  C  C239  1  0.578500  0.105000  0.055800  1.0  0.1714
  C  C240  1  0.570900  0.091400  0.003350  1.0  -0.2031
  C  C241  1  0.611750  0.999400  0.987720  1.0  0.0942
  C  C242  1  0.656970  0.921700  0.026360  1.0  -0.197
  C  C243  1  0.661050  0.940700  0.077500  1.0  0.1734
  C  C244  1  0.593190  0.198900  0.673920  1.0  0.6829
  C  C245  1  0.047150  0.054800  0.320650  1.0  0.0307
  C  C246  1  0.016250  0.931600  0.325340  1.0  -0.0672
  C  C247  1  0.950650  0.927500  0.330210  1.0  -0.1406
  C  C248  1  0.914800  0.047100  0.329730  1.0  -0.0009
  C  C249  1  0.944950  0.171100  0.325940  1.0  -0.1302
  C  C250  1  0.010790  0.174200  0.321170  1.0  -0.0613
  C  C251  1  0.212520  0.954600  0.296220  1.0  0.1753
  C  C252  1  0.145710  0.948000  0.298040  1.0  -0.1885
  C  C253  1  0.117340  0.058800  0.315860  1.0  0.0905
  C  C254  1  0.158960  0.172600  0.329690  1.0  -0.1706
  C  C255  1  0.225180  0.170900  0.326880  1.0  0.1835
  C  C256  1  0.843090  0.558700  0.084210  1.0  -0.1451
  C  C257  1  0.792060  0.588300  0.205160  1.0  0.1865
  C  C258  1  0.787980  0.589000  0.153220  1.0  -0.1894
  C  C259  1  0.846620  0.565500  0.139080  1.0  0.1179
  C  C260  1  0.908020  0.547000  0.179320  1.0  -0.206
  C  C261  1  0.907430  0.547000  0.229890  1.0  0.1618
  C  C262  1  0.893230  0.511100  0.067390  1.0  -0.1895
  C  C263  1  0.918200  0.793300  0.333550  1.0  0.632
  C  C264  1  0.921500  0.395000  0.944200  1.0  0.1711
  C  C265  1  0.929100  0.408600  0.996650  1.0  -0.2032
  C  C266  1  0.888250  0.500600  0.012280  1.0  0.0934
  C  C267  1  0.843030  0.578300  0.973640  1.0  -0.2004
  C  C268  1  0.838950  0.559300  0.922500  1.0  0.1716
  C  C269  1  0.906810  0.301100  0.326080  1.0  0.6834
  C  C270  1  0.547150  0.554800  0.320650  1.0  0.0307
  C  C271  1  0.516250  0.431600  0.325340  1.0  -0.0672
  C  C272  1  0.450650  0.427500  0.330210  1.0  -0.1406
  C  C273  1  0.414800  0.547100  0.329730  1.0  -0.0009
  C  C274  1  0.444950  0.671100  0.325940  1.0  -0.1302
  C  C275  1  0.510790  0.674200  0.321170  1.0  -0.0613
  C  C276  1  0.712520  0.454600  0.296220  1.0  0.1753
  C  C277  1  0.645710  0.448000  0.298040  1.0  -0.1885
  C  C278  1  0.617340  0.558800  0.315860  1.0  0.0905
  C  C279  1  0.658960  0.672600  0.329690  1.0  -0.1706
  C  C280  1  0.725180  0.670900  0.326880  1.0  0.1835
  C  C281  1  0.343090  0.058700  0.084210  1.0  -0.1451
  C  C282  1  0.292060  0.088300  0.205160  1.0  0.1865
  C  C283  1  0.287980  0.089000  0.153220  1.0  -0.1894
  C  C284  1  0.346620  0.065500  0.139080  1.0  0.1179
  C  C285  1  0.408020  0.047000  0.179320  1.0  -0.206
  C  C286  1  0.407430  0.047000  0.229890  1.0  0.1618
  C  C287  1  0.393230  0.011100  0.067390  1.0  -0.1895
  C  C288  1  0.418200  0.293300  0.333550  1.0  0.632
  C  C289  1  0.421500  0.895000  0.944200  1.0  0.1711
  C  C290  1  0.429100  0.908600  0.996650  1.0  -0.2032
  C  C291  1  0.388250  0.000600  0.012280  1.0  0.0934
  C  C292  1  0.343030  0.078300  0.973640  1.0  -0.2004
  C  C293  1  0.338950  0.059300  0.922500  1.0  0.1716
  C  C294  1  0.406810  0.801100  0.326080  1.0  0.6834
  C  C295  1  0.047150  0.945200  0.820650  1.0  0.0306
  C  C296  1  0.016250  0.068400  0.825340  1.0  -0.0674
  C  C297  1  0.950650  0.072500  0.830210  1.0  -0.1412
  C  C298  1  0.914800  0.952900  0.829730  1.0  -0.0011
  C  C299  1  0.944950  0.828900  0.825940  1.0  -0.1295
  C  C300  1  0.010790  0.825800  0.821170  1.0  -0.0608
  C  C301  1  0.212520  0.045400  0.796220  1.0  0.1756
  C  C302  1  0.145710  0.052000  0.798040  1.0  -0.1885
  C  C303  1  0.117340  0.941200  0.815860  1.0  0.0906
  C  C304  1  0.158960  0.827400  0.829690  1.0  -0.1708
  C  C305  1  0.225180  0.829100  0.826880  1.0  0.1832
  C  C306  1  0.843090  0.441300  0.584210  1.0  -0.1452
  C  C307  1  0.792060  0.411700  0.705160  1.0  0.1864
  C  C308  1  0.787980  0.411000  0.653220  1.0  -0.1897
  C  C309  1  0.846620  0.434500  0.639080  1.0  0.1176
  C  C310  1  0.908020  0.453000  0.679320  1.0  -0.2057
  C  C311  1  0.907430  0.453000  0.729890  1.0  0.1615
  C  C312  1  0.893230  0.488900  0.567390  1.0  -0.1898
  C  C313  1  0.918200  0.206700  0.833550  1.0  0.6329
  C  C314  1  0.921500  0.605000  0.444200  1.0  0.1719
  C  C315  1  0.929100  0.591400  0.496650  1.0  -0.2028
  C  C316  1  0.888250  0.499400  0.512280  1.0  0.0934
  C  C317  1  0.843030  0.421700  0.473640  1.0  -0.1988
  C  C318  1  0.838950  0.440700  0.422500  1.0  0.1717
  C  C319  1  0.906810  0.698900  0.826080  1.0  0.6833
  C  C320  1  0.547150  0.445200  0.820650  1.0  0.0306
  C  C321  1  0.516250  0.568400  0.825340  1.0  -0.0674
  C  C322  1  0.450650  0.572500  0.830210  1.0  -0.1412
  C  C323  1  0.414800  0.452900  0.829730  1.0  -0.0011
  C  C324  1  0.444950  0.328900  0.825940  1.0  -0.1295
  C  C325  1  0.510790  0.325800  0.821170  1.0  -0.0608
  C  C326  1  0.712520  0.545400  0.796220  1.0  0.1756
  C  C327  1  0.645710  0.552000  0.798040  1.0  -0.1885
  C  C328  1  0.617340  0.441200  0.815860  1.0  0.0906
  C  C329  1  0.658960  0.327400  0.829690  1.0  -0.1708
  C  C330  1  0.725180  0.329100  0.826880  1.0  0.1832
  C  C331  1  0.343090  0.941300  0.584210  1.0  -0.1452
  C  C332  1  0.292060  0.911700  0.705160  1.0  0.1864
  C  C333  1  0.287980  0.911000  0.653220  1.0  -0.1897
  C  C334  1  0.346620  0.934500  0.639080  1.0  0.1176
  C  C335  1  0.408020  0.953000  0.679320  1.0  -0.2057
  C  C336  1  0.407430  0.953000  0.729890  1.0  0.1615
  C  C337  1  0.393230  0.988900  0.567390  1.0  -0.1898
  C  C338  1  0.418200  0.706700  0.833550  1.0  0.6329
  C  C339  1  0.421500  0.105000  0.444200  1.0  0.1719
  C  C340  1  0.429100  0.091400  0.496650  1.0  -0.2028
  C  C341  1  0.388250  0.999400  0.512280  1.0  0.0934
  C  C342  1  0.343030  0.921700  0.473640  1.0  -0.1988
  C  C343  1  0.338950  0.940700  0.422500  1.0  0.1717
  C  C344  1  0.406810  0.198900  0.826080  1.0  0.6833
  N  N345  1  0.746730  0.062510  0.188400  1.0  -0.3285
  N  N346  1  0.149460  0.565740  0.256290  1.0  -0.33
  N  N347  1  0.123190  0.467500  0.592990  1.0  -0.335
  N  N348  1  0.246730  0.562510  0.188400  1.0  -0.3285
  N  N349  1  0.649460  0.065740  0.256290  1.0  -0.33
  N  N350  1  0.623190  0.967500  0.592990  1.0  -0.335
  N  N351  1  0.746730  0.937490  0.688400  1.0  -0.329
  N  N352  1  0.149460  0.434260  0.756290  1.0  -0.3298
  N  N353  1  0.123190  0.532500  0.092990  1.0  -0.3354
  N  N354  1  0.246730  0.437490  0.688400  1.0  -0.329
  N  N355  1  0.649460  0.934260  0.756290  1.0  -0.3298
  N  N356  1  0.623190  0.032500  0.092990  1.0  -0.3354
  N  N357  1  0.253270  0.062510  0.311600  1.0  -0.3257
  N  N358  1  0.850540  0.565740  0.243710  1.0  -0.3308
  N  N359  1  0.876810  0.467500  0.907010  1.0  -0.3359
  N  N360  1  0.753270  0.562510  0.311600  1.0  -0.3257
  N  N361  1  0.350540  0.065740  0.243710  1.0  -0.3308
  N  N362  1  0.376810  0.967500  0.907010  1.0  -0.3359
  N  N363  1  0.253270  0.937490  0.811600  1.0  -0.3259
  N  N364  1  0.850540  0.434260  0.743710  1.0  -0.3307
  N  N365  1  0.876810  0.532500  0.407010  1.0  -0.3356
  N  N366  1  0.753270  0.437490  0.811600  1.0  -0.3259
  N  N367  1  0.350540  0.934260  0.743710  1.0  -0.3307
  N  N368  1  0.376810  0.032500  0.407010  1.0  -0.3356
  O  O369  1  0.046720  0.687490  0.161980  1.0  -0.5787
  O  O370  1  0.143980  0.787870  0.169520  1.0  -0.6252
  O  O371  1  0.059040  0.409610  0.166690  1.0  -0.5724
  O  O372  1  0.156030  0.299030  0.180860  1.0  -0.6176
  O  O373  1  0.546720  0.187490  0.161980  1.0  -0.5787
  O  O374  1  0.643980  0.287870  0.169520  1.0  -0.6252
  O  O375  1  0.559040  0.909610  0.166690  1.0  -0.5724
  O  O376  1  0.656030  0.799030  0.180860  1.0  -0.6173
  O  O377  1  0.046720  0.312510  0.661980  1.0  -0.5791
  O  O378  1  0.143980  0.212130  0.669520  1.0  -0.6257
  O  O379  1  0.059040  0.590390  0.666667  1.0  -0.572
  O  O380  1  0.156030  0.700970  0.680860  1.0  -0.6176
  O  O381  1  0.546720  0.812510  0.661980  1.0  -0.5791
  O  O382  1  0.643980  0.712130  0.669520  1.0  -0.6257
  O  O383  1  0.559040  0.090390  0.666667  1.0  -0.572
  O  O384  1  0.656030  0.200970  0.680860  1.0  -0.6176
  O  O385  1  0.953280  0.687490  0.338020  1.0  -0.5782
  O  O386  1  0.856020  0.787870  0.330480  1.0  -0.6273
  O  O387  1  0.940960  0.409610  0.333333  1.0  -0.5726
  O  O388  1  0.843970  0.299030  0.319140  1.0  -0.6159
  O  O389  1  0.453280  0.187490  0.338020  1.0  -0.5782
  O  O390  1  0.356020  0.287870  0.330480  1.0  -0.6273
  O  O391  1  0.440960  0.909610  0.333333  1.0  -0.5726
  O  O392  1  0.343970  0.799030  0.319140  1.0  -0.6159
  O  O393  1  0.953280  0.312510  0.838020  1.0  -0.5779
  O  O394  1  0.856020  0.212130  0.830480  1.0  -0.6271
  O  O395  1  0.940960  0.590390  0.833310  1.0  -0.5726
  O  O396  1  0.843970  0.700970  0.819140  1.0  -0.6163
  O  O397  1  0.453280  0.812510  0.838020  1.0  -0.5779
  O  O398  1  0.356020  0.712130  0.830480  1.0  -0.6271
  O  O399  1  0.440960  0.090390  0.833310  1.0  -0.5726
  O  O400  1  0.343970  0.200970  0.819140  1.0  -0.6164
