# generated using pymatgen
data_Co3H26C46S3(N2O)8
_symmetry_space_group_name_H-M   'P 1'
_cell_length_a   11.79140000
_cell_length_b   17.05040000
_cell_length_c   20.79500000
_cell_angle_alpha   104.72600000
_cell_angle_beta   106.36000000
_cell_angle_gamma   103.48100000
_symmetry_Int_Tables_number   1
_chemical_formula_structural   Co3H26C46S3(N2O)8
_chemical_formula_sum   'Co6 H52 C92 S6 N32 O16'
_cell_volume   3664.61769227
_cell_formula_units_Z   2
loop_
 _symmetry_equiv_pos_site_id
 _symmetry_equiv_pos_as_xyz
  1  'x, y, z'
loop_
 _atom_site_type_symbol
 _atom_site_label
 _atom_site_symmetry_multiplicity
 _atom_site_fract_x
 _atom_site_fract_y
 _atom_site_fract_z
 _atom_site_occupancy
 _atom_site_charge
  Co  Co1  1  0.000070  0.251880  0.248350  1.0  0.5657
  Co  Co2  1  0.999930  0.748120  0.751650  1.0  0.5648
  Co  Co3  1  0.500000  0.500000  0.500000  1.0  0.6092
  Co  Co4  1  0.000000  0.500000  0.500000  1.0  0.9056
  Co  Co5  1  0.000000  0.000000  0.000000  1.0  0.9649
  Co  Co6  1  0.500000  0.000000  0.000000  1.0  0.5435
  H  H7  1  0.321800  0.323400  0.345000  1.0  0.0851
  H  H8  1  0.682800  0.187500  0.146500  1.0  0.087
  H  H9  1  0.525100  0.496600  0.653300  1.0  0.0871
  H  H10  1  0.526300  0.401800  0.717000  1.0  0.1226
  H  H11  1  0.421700  0.208800  0.533100  1.0  0.1217
  H  H12  1  0.427300  0.308900  0.476300  1.0  0.078
  H  H13  1  0.510300  0.228100  0.881300  1.0  0.1323
  H  H14  1  0.526800  0.171500  0.973200  1.0  0.0946
  H  H15  1  0.506900  0.951000  0.847700  1.0  0.0834
  H  H16  1  0.493300  0.001100  0.753400  1.0  0.1351
  H  H17  1  0.145900  0.181800  0.358100  1.0  0.072
  H  H18  1  0.125200  0.067800  0.398500  1.0  0.1261
  H  H19  1  0.757200  0.008200  0.310900  1.0  0.107
  H  H20  1  0.788500  0.123700  0.273200  1.0  0.0793
  H  H21  1  0.103700  0.815500  0.515600  1.0  0.1237
  H  H22  1  0.126300  0.699400  0.549800  1.0  0.0878
  H  H23  1  0.801200  0.550600  0.404700  1.0  0.0882
  H  H24  1  0.767800  0.665000  0.370100  1.0  0.1098
  H  H25  1  0.199700  0.954800  0.099500  1.0  0.0809
  H  H26  1  0.236600  0.843200  0.135200  1.0  0.1066
  H  H27  1  0.910000  0.686300  0.982500  1.0  0.1225
  H  H28  1  0.878700  0.802900  0.952000  1.0  0.0887
  H  H29  1  0.253200  0.491500  0.185100  1.0  0.1173
  H  H30  1  0.215600  0.375900  0.224100  1.0  0.0825
  H  H31  1  0.857000  0.328000  0.141600  1.0  0.0781
  H  H32  1  0.886300  0.440700  0.101200  1.0  0.1252
  H  H33  1  0.678200  0.676600  0.655000  1.0  0.0861
  H  H34  1  0.317200  0.812500  0.853500  1.0  0.0871
  H  H35  1  0.474900  0.503400  0.346700  1.0  0.0866
  H  H36  1  0.473700  0.598200  0.283000  1.0  0.1226
  H  H37  1  0.578300  0.791200  0.466900  1.0  0.1221
  H  H38  1  0.572700  0.691100  0.523700  1.0  0.0771
  H  H39  1  0.489700  0.771900  0.118700  1.0  0.1319
  H  H40  1  0.473200  0.828500  0.026800  1.0  0.0939
  H  H41  1  0.493100  0.049000  0.152300  1.0  0.0832
  H  H42  1  0.506700  0.998900  0.246600  1.0  0.1354
  H  H43  1  0.854100  0.818200  0.641900  1.0  0.072
  H  H44  1  0.874800  0.932200  0.601500  1.0  0.1267
  H  H45  1  0.242800  0.991800  0.689100  1.0  0.1065
  H  H46  1  0.211500  0.876300  0.726800  1.0  0.0796
  H  H47  1  0.896300  0.184500  0.484400  1.0  0.1236
  H  H48  1  0.873700  0.300600  0.450200  1.0  0.0886
  H  H49  1  0.198800  0.449400  0.595300  1.0  0.0881
  H  H50  1  0.232200  0.335000  0.629900  1.0  0.1101
  H  H51  1  0.800300  0.045200  0.900500  1.0  0.0806
  H  H52  1  0.763400  0.156800  0.864800  1.0  0.1049
  H  H53  1  0.090000  0.313700  0.017500  1.0  0.1229
  H  H54  1  0.121300  0.197100  0.048000  1.0  0.0879
  H  H55  1  0.746800  0.508500  0.814900  1.0  0.1165
  H  H56  1  0.784400  0.624100  0.775900  1.0  0.0826
  H  H57  1  0.143000  0.672000  0.858400  1.0  0.0788
  H  H58  1  0.113700  0.559300  0.898800  1.0  0.1243
  C  C59  1  0.275800  0.354900  0.364800  1.0  0.2122
  C  C60  1  0.231900  0.449600  0.433900  1.0  -0.05
  C  C61  1  0.122900  0.394900  0.379200  1.0  -0.0478
  C  C62  1  0.265100  0.525500  0.499100  1.0  0.6619
  C  C63  1  0.989000  0.390000  0.358100  1.0  0.6452
  C  C64  1  0.727700  0.153200  0.128700  1.0  0.2329
  C  C65  1  0.877900  0.107300  0.117500  1.0  -0.0483
  C  C66  1  0.769300  0.053000  0.063600  1.0  -0.0299
  C  C67  1  0.011800  0.112400  0.141000  1.0  0.6452
  C  C68  1  0.733700  0.971400  0.004200  1.0  0.6463
  C  C69  1  0.506300  0.437300  0.628500  1.0  0.1425
  C  C70  1  0.506400  0.381000  0.666900  1.0  -0.2035
  C  C71  1  0.477200  0.294500  0.630700  1.0  0.0778
  C  C72  1  0.445900  0.268000  0.559900  1.0  -0.1742
  C  C73  1  0.449400  0.328700  0.526600  1.0  0.1647
  C  C74  1  0.480800  0.232700  0.669700  1.0  0.1388
  C  C75  1  0.491400  0.154300  0.748800  1.0  0.1222
  C  C76  1  0.500100  0.120000  0.807800  1.0  0.0735
  C  C77  1  0.509300  0.170500  0.873100  1.0  -0.1735
  C  C78  1  0.517100  0.135800  0.927300  1.0  0.1434
  C  C79  1  0.505900  0.008000  0.854500  1.0  0.1552
  C  C80  1  0.498900  0.037400  0.798000  1.0  -0.1777
  C  C81  1  0.064000  0.143900  0.345900  1.0  0.1801
  C  C82  1  0.052800  0.076300  0.371000  1.0  -0.1907
  C  C83  1  0.937700  0.022000  0.355900  1.0  0.0808
  C  C84  1  0.840100  0.042200  0.320200  1.0  -0.1691
  C  C85  1  0.859400  0.110900  0.297200  1.0  0.1575
  C  C86  1  0.914700  0.942300  0.374200  1.0  0.1244
  C  C87  1  0.914200  0.821700  0.410300  1.0  0.1397
  C  C88  1  0.933700  0.751700  0.437700  1.0  0.0647
  C  C89  1  0.039700  0.761200  0.491800  1.0  -0.1959
  C  C90  1  0.053100  0.691300  0.511400  1.0  0.1747
  C  C91  1  0.864300  0.605300  0.427800  1.0  0.157
  C  C92  1  0.844100  0.673300  0.406400  1.0  -0.1459
  C  C93  1  0.139000  0.899100  0.075400  1.0  0.1698
  C  C94  1  0.162000  0.833000  0.096800  1.0  -0.1678
  C  C95  1  0.077300  0.752300  0.062700  1.0  0.0567
  C  C96  1  0.971000  0.741600  0.007900  1.0  -0.1764
  C  C97  1  0.953200  0.811300  0.989700  1.0  0.1693
  C  C98  1  0.101000  0.682200  0.089000  1.0  0.1607
  C  C99  1  0.097800  0.561500  0.124500  1.0  0.1302
  C  C100  1  0.073500  0.483000  0.144000  1.0  0.0775
  C  C101  1  0.169800  0.460000  0.177500  1.0  -0.1648
  C  C102  1  0.146600  0.390700  0.200400  1.0  0.1449
  C  C103  1  0.940200  0.363300  0.152900  1.0  0.1643
  C  C104  1  0.956900  0.430500  0.128800  1.0  -0.1939
  C  C105  1  0.724200  0.645100  0.635200  1.0  0.2118
  C  C106  1  0.768100  0.550400  0.566100  1.0  -0.0517
  C  C107  1  0.877100  0.605100  0.620800  1.0  -0.0465
  C  C108  1  0.734900  0.474500  0.500900  1.0  0.6676
  C  C109  1  0.011000  0.610000  0.641900  1.0  0.6454
  C  C110  1  0.272300  0.846800  0.871300  1.0  0.2321
  C  C111  1  0.122100  0.892700  0.882500  1.0  -0.049
  C  C112  1  0.230700  0.947000  0.936400  1.0  -0.0298
  C  C113  1  0.988200  0.887600  0.859000  1.0  0.6464
  C  C114  1  0.266300  0.028600  0.995800  1.0  0.6468
  C  C115  1  0.493700  0.562700  0.371500  1.0  0.1415
  C  C116  1  0.493600  0.619000  0.333100  1.0  -0.2049
  C  C117  1  0.522800  0.705500  0.369300  1.0  0.0804
  C  C118  1  0.554100  0.732000  0.440100  1.0  -0.174
  C  C119  1  0.550600  0.671300  0.473400  1.0  0.1642
  C  C120  1  0.519200  0.767300  0.330300  1.0  0.1386
  C  C121  1  0.508600  0.845700  0.251200  1.0  0.122
  C  C122  1  0.499900  0.880000  0.192200  1.0  0.0747
  C  C123  1  0.490700  0.829500  0.126900  1.0  -0.1753
  C  C124  1  0.482900  0.864200  0.072700  1.0  0.1428
  C  C125  1  0.494100  0.992000  0.145500  1.0  0.1556
  C  C126  1  0.501100  0.962600  0.202000  1.0  -0.1791
  C  C127  1  0.936000  0.856100  0.654100  1.0  0.1785
  C  C128  1  0.947200  0.923700  0.629000  1.0  -0.1903
  C  C129  1  0.062300  0.978000  0.644100  1.0  0.0794
  C  C130  1  0.159900  0.957800  0.679800  1.0  -0.1682
  C  C131  1  0.140600  0.889100  0.702800  1.0  0.1577
  C  C132  1  0.085300  0.057700  0.625800  1.0  0.1239
  C  C133  1  0.085800  0.178300  0.589700  1.0  0.1376
  C  C134  1  0.066300  0.248300  0.562300  1.0  0.0676
  C  C135  1  0.960300  0.238800  0.508200  1.0  -0.1975
  C  C136  1  0.946900  0.308700  0.488600  1.0  0.174
  C  C137  1  0.135700  0.394700  0.572200  1.0  0.1576
  C  C138  1  0.155900  0.326700  0.593600  1.0  -0.1513
  C  C139  1  0.861000  0.100900  0.924600  1.0  0.1701
  C  C140  1  0.838000  0.167000  0.903200  1.0  -0.1681
  C  C141  1  0.922700  0.247700  0.937300  1.0  0.0559
  C  C142  1  0.029000  0.258400  0.992100  1.0  -0.1738
  C  C143  1  0.046800  0.188700  0.010300  1.0  0.1697
  C  C144  1  0.899000  0.317800  0.911000  1.0  0.1622
  C  C145  1  0.902200  0.438500  0.875500  1.0  0.132
  C  C146  1  0.926500  0.517000  0.856000  1.0  0.0781
  C  C147  1  0.830200  0.540000  0.822500  1.0  -0.1669
  C  C148  1  0.853400  0.609300  0.799600  1.0  0.1439
  C  C149  1  0.059800  0.636700  0.847100  1.0  0.1653
  C  C150  1  0.043100  0.569500  0.871200  1.0  -0.1949
  S  S151  1  0.495300  0.256840  0.756210  1.0  0.0877
  S  S152  1  0.025900  0.915090  0.427630  1.0  0.0478
  S  S153  1  0.983800  0.590220  0.073380  1.0  0.0151
  S  S154  1  0.504700  0.743160  0.243790  1.0  0.0881
  S  S155  1  0.974100  0.084910  0.572370  1.0  0.0455
  S  S156  1  0.016200  0.409780  0.926620  1.0  0.0151
  N  N157  1  0.328300  0.423200  0.423600  1.0  -0.3228
  N  N158  1  0.152600  0.334600  0.336100  1.0  -0.3024
  N  N159  1  0.849800  0.171300  0.159500  1.0  -0.3172
  N  N160  1  0.673000  0.082900  0.070700  1.0  -0.3648
  N  N161  1  0.481200  0.411500  0.559500  1.0  -0.2684
  N  N162  1  0.472600  0.153400  0.639400  1.0  -0.2161
  N  N163  1  0.478900  0.108100  0.684900  1.0  -0.2104
  N  N164  1  0.511300  0.054300  0.917300  1.0  -0.2589
  N  N165  1  0.970400  0.159800  0.306600  1.0  -0.3034
  N  N166  1  0.808500  0.884000  0.347400  1.0  -0.1799
  N  N167  1  0.807500  0.815900  0.369500  1.0  -0.2012
  N  N168  1  0.968600  0.613700  0.479300  1.0  -0.3203
  N  N169  1  0.033100  0.344300  0.191100  1.0  -0.2757
  N  N170  1  0.206300  0.615800  0.147000  1.0  -0.2205
  N  N171  1  0.208600  0.685800  0.126000  1.0  -0.1796
  N  N172  1  0.035700  0.889600  0.022600  1.0  -0.3197
  N  N173  1  0.671700  0.576800  0.576400  1.0  -0.3243
  N  N174  1  0.847400  0.665400  0.663900  1.0  -0.3037
  N  N175  1  0.150200  0.828700  0.840500  1.0  -0.316
  N  N176  1  0.327000  0.917100  0.929300  1.0  -0.3634
  N  N177  1  0.518800  0.588500  0.440500  1.0  -0.2666
  N  N178  1  0.527400  0.846600  0.360600  1.0  -0.2168
  N  N179  1  0.521100  0.891900  0.315100  1.0  -0.2135
  N  N180  1  0.488700  0.945700  0.082700  1.0  -0.2584
  N  N181  1  0.029600  0.840200  0.693400  1.0  -0.3025
  N  N182  1  0.191500  0.116000  0.652600  1.0  -0.1809
  N  N183  1  0.192500  0.184100  0.630500  1.0  -0.1994
  N  N184  1  0.031400  0.386300  0.520700  1.0  -0.3217
  N  N185  1  0.966900  0.655700  0.808900  1.0  -0.2754
  N  N186  1  0.793700  0.384200  0.853000  1.0  -0.2195
  N  N187  1  0.791400  0.314200  0.874000  1.0  -0.1823
  N  N188  1  0.964300  0.110400  0.977400  1.0  -0.3186
  O  O189  1  0.380200  0.558500  0.536500  1.0  -0.5498
  O  O190  1  0.185100  0.554000  0.514700  1.0  -0.5736
  O  O191  1  0.950400  0.441200  0.392200  1.0  -0.5763
  O  O192  1  0.915600  0.329100  0.300200  1.0  -0.5524
  O  O193  1  0.084300  0.174300  0.197400  1.0  -0.5363
  O  O194  1  0.048700  0.059600  0.107400  1.0  -0.5716
  O  O195  1  0.814400  0.944000  0.987300  1.0  -0.5905
  O  O196  1  0.618200  0.932900  0.972600  1.0  -0.5403
  O  O197  1  0.619800  0.441500  0.463500  1.0  -0.5508
  O  O198  1  0.814900  0.446000  0.485300  1.0  -0.5724
  O  O199  1  0.049600  0.558800  0.607800  1.0  -0.5819
  O  O200  1  0.084400  0.670900  0.699800  1.0  -0.5419
  O  O201  1  0.915700  0.825700  0.802600  1.0  -0.539
  O  O202  1  0.951300  0.940400  0.892600  1.0  -0.5704
  O  O203  1  0.185600  0.056000  0.012700  1.0  -0.5904
  O  O204  1  0.381800  0.067100  0.027400  1.0  -0.54
