# generated using pymatgen
data_Cu6H8(C2N)7
_symmetry_space_group_name_H-M   'P 1'
_cell_length_a   42.34700000
_cell_length_b   8.56900000
_cell_length_c   14.49000000
_cell_angle_alpha   90.00000000
_cell_angle_beta   108.75800000
_cell_angle_gamma   90.00000000
_symmetry_Int_Tables_number   1
_chemical_formula_structural   Cu6H8(C2N)7
_chemical_formula_sum   'Cu48 H64 C112 N56'
_cell_volume   4978.72941203
_cell_formula_units_Z   8
loop_
 _symmetry_equiv_pos_site_id
 _symmetry_equiv_pos_as_xyz
  1  'x, y, z'
loop_
 _atom_site_type_symbol
 _atom_site_label
 _atom_site_symmetry_multiplicity
 _atom_site_fract_x
 _atom_site_fract_y
 _atom_site_fract_z
 _atom_site_occupancy
 _atom_site_charge
  Cu  Cu1  1  0.214580  0.122830  0.430990  1.0  0.2798
  Cu  Cu2  1  0.130440  0.736380  0.271900  1.0  0.7863
  Cu  Cu3  1  0.038060  0.403460  0.101730  1.0  0.3616
  Cu  Cu4  1  0.958500  0.061480  0.879170  1.0  0.3671
  Cu  Cu5  1  0.856690  0.755160  0.730850  1.0  0.6356
  Cu  Cu6  1  0.805210  0.667640  0.991460  1.0  0.4221
  Cu  Cu7  1  0.285420  0.622830  0.069010  1.0  0.2794
  Cu  Cu8  1  0.369560  0.236380  0.228100  1.0  0.7849
  Cu  Cu9  1  0.461940  0.903460  0.398270  1.0  0.3622
  Cu  Cu10  1  0.541500  0.561480  0.620830  1.0  0.367
  Cu  Cu11  1  0.643310  0.255160  0.769150  1.0  0.6348
  Cu  Cu12  1  0.694790  0.167640  0.508540  1.0  0.4226
  Cu  Cu13  1  0.285420  0.377170  0.569010  1.0  0.2794
  Cu  Cu14  1  0.369560  0.763620  0.728100  1.0  0.7886
  Cu  Cu15  1  0.461940  0.096540  0.898270  1.0  0.3621
  Cu  Cu16  1  0.541500  0.438520  0.120830  1.0  0.3656
  Cu  Cu17  1  0.643310  0.744840  0.269150  1.0  0.6335
  Cu  Cu18  1  0.694790  0.832360  0.008540  1.0  0.4192
  Cu  Cu19  1  0.214580  0.877170  0.930990  1.0  0.2797
  Cu  Cu20  1  0.130440  0.263620  0.771900  1.0  0.7912
  Cu  Cu21  1  0.038060  0.596540  0.601730  1.0  0.3614
  Cu  Cu22  1  0.958500  0.938520  0.379170  1.0  0.3658
  Cu  Cu23  1  0.856690  0.244840  0.230850  1.0  0.6342
  Cu  Cu24  1  0.805210  0.332360  0.491460  1.0  0.4189
  Cu  Cu25  1  0.714580  0.622830  0.430990  1.0  0.2798
  Cu  Cu26  1  0.630440  0.236380  0.271900  1.0  0.7862
  Cu  Cu27  1  0.538070  0.903460  0.101730  1.0  0.3616
  Cu  Cu28  1  0.458500  0.561480  0.879170  1.0  0.3658
  Cu  Cu29  1  0.356690  0.255160  0.730850  1.0  0.6356
  Cu  Cu30  1  0.305210  0.167640  0.991460  1.0  0.4221
  Cu  Cu31  1  0.785420  0.122830  0.069010  1.0  0.2794
  Cu  Cu32  1  0.869560  0.736380  0.228100  1.0  0.7849
  Cu  Cu33  1  0.961940  0.403460  0.398270  1.0  0.362
  Cu  Cu34  1  0.041500  0.061480  0.620830  1.0  0.3657
  Cu  Cu35  1  0.143310  0.755160  0.769150  1.0  0.6348
  Cu  Cu36  1  0.194790  0.667640  0.508540  1.0  0.4226
  Cu  Cu37  1  0.785420  0.877170  0.569010  1.0  0.2794
  Cu  Cu38  1  0.869560  0.263620  0.728100  1.0  0.7886
  Cu  Cu39  1  0.961940  0.596540  0.898270  1.0  0.3591
  Cu  Cu40  1  0.041500  0.938520  0.120830  1.0  0.3663
  Cu  Cu41  1  0.143310  0.244840  0.269150  1.0  0.6335
  Cu  Cu42  1  0.194790  0.332360  0.008540  1.0  0.4192
  Cu  Cu43  1  0.714580  0.377170  0.930990  1.0  0.2797
  Cu  Cu44  1  0.630440  0.763620  0.771900  1.0  0.7912
  Cu  Cu45  1  0.538070  0.096540  0.601730  1.0  0.3585
  Cu  Cu46  1  0.458500  0.438520  0.379170  1.0  0.3667
  Cu  Cu47  1  0.356690  0.744840  0.230850  1.0  0.6342
  Cu  Cu48  1  0.305210  0.832360  0.491460  1.0  0.4189
  H  H49  1  0.161000  0.096000  0.514800  1.0  0.0754
  H  H50  1  0.145400  0.236300  0.554400  1.0  0.0541
  H  H51  1  0.162100  0.098300  0.624000  1.0  0.0599
  H  H52  1  0.244700  0.535000  0.793800  1.0  0.0298
  H  H53  1  0.277300  0.456800  0.786800  1.0  0.0436
  H  H54  1  0.261300  0.597800  0.718900  1.0  0.0424
  H  H55  1  0.195800  0.449400  0.781700  1.0  0.2632
  H  H56  1  0.168300  0.344000  0.725900  1.0  0.2764
  H  H57  1  0.339000  0.596000  0.985200  1.0  0.0749
  H  H58  1  0.354600  0.736300  0.945600  1.0  0.0535
  H  H59  1  0.337900  0.598300  0.876000  1.0  0.0606
  H  H60  1  0.255300  0.035000  0.706200  1.0  0.0306
  H  H61  1  0.222700  0.956800  0.713200  1.0  0.0421
  H  H62  1  0.238700  0.097800  0.781100  1.0  0.0411
  H  H63  1  0.304200  0.949400  0.718300  1.0  0.2638
  H  H64  1  0.331700  0.844000  0.774100  1.0  0.2794
  H  H65  1  0.339000  0.404000  0.485200  1.0  0.0757
  H  H66  1  0.354600  0.263700  0.445600  1.0  0.0535
  H  H67  1  0.337900  0.401700  0.376000  1.0  0.0608
  H  H68  1  0.255300  0.965000  0.206200  1.0  0.0307
  H  H69  1  0.222700  0.043200  0.213200  1.0  0.042
  H  H70  1  0.238700  0.902200  0.281100  1.0  0.0418
  H  H71  1  0.304200  0.050600  0.218300  1.0  0.2624
  H  H72  1  0.331700  0.156000  0.274100  1.0  0.2798
  H  H73  1  0.161000  0.904000  0.014800  1.0  0.0762
  H  H74  1  0.145400  0.763700  0.054400  1.0  0.0541
  H  H75  1  0.162100  0.901700  0.124000  1.0  0.0595
  H  H76  1  0.244700  0.465000  0.293800  1.0  0.0299
  H  H77  1  0.277300  0.543200  0.286800  1.0  0.0433
  H  H78  1  0.261300  0.402200  0.218900  1.0  0.0418
  H  H79  1  0.195800  0.550600  0.281700  1.0  0.2632
  H  H80  1  0.168300  0.656000  0.225900  1.0  0.2766
  H  H81  1  0.661000  0.596000  0.514800  1.0  0.0754
  H  H82  1  0.645400  0.736300  0.554400  1.0  0.0541
  H  H83  1  0.662100  0.598300  0.624000  1.0  0.0599
  H  H84  1  0.744700  0.035000  0.793800  1.0  0.0298
  H  H85  1  0.777300  0.956800  0.786800  1.0  0.0436
  H  H86  1  0.761300  0.097800  0.718900  1.0  0.0424
  H  H87  1  0.695800  0.949400  0.781700  1.0  0.2632
  H  H88  1  0.668300  0.844000  0.725900  1.0  0.2764
  H  H89  1  0.839000  0.096000  0.985200  1.0  0.0749
  H  H90  1  0.854600  0.236300  0.945600  1.0  0.0535
  H  H91  1  0.837900  0.098300  0.876000  1.0  0.0606
  H  H92  1  0.755300  0.535000  0.706200  1.0  0.0306
  H  H93  1  0.722700  0.456800  0.713200  1.0  0.0419
  H  H94  1  0.738700  0.597800  0.781100  1.0  0.0411
  H  H95  1  0.804200  0.449400  0.718300  1.0  0.2639
  H  H96  1  0.831700  0.344000  0.774100  1.0  0.2794
  H  H97  1  0.839000  0.904000  0.485200  1.0  0.0757
  H  H98  1  0.854600  0.763700  0.445600  1.0  0.0535
  H  H99  1  0.837900  0.901700  0.376000  1.0  0.0608
  H  H100  1  0.755300  0.465000  0.206200  1.0  0.0307
  H  H101  1  0.722700  0.543200  0.213200  1.0  0.0419
  H  H102  1  0.738700  0.402200  0.281100  1.0  0.0418
  H  H103  1  0.804200  0.550600  0.218300  1.0  0.2622
  H  H104  1  0.831700  0.656000  0.274100  1.0  0.2798
  H  H105  1  0.661000  0.404000  0.014800  1.0  0.0762
  H  H106  1  0.645400  0.263700  0.054400  1.0  0.0541
  H  H107  1  0.662100  0.401700  0.124000  1.0  0.0595
  H  H108  1  0.744700  0.965000  0.293800  1.0  0.0299
  H  H109  1  0.777300  0.043200  0.286800  1.0  0.0431
  H  H110  1  0.761300  0.902200  0.218900  1.0  0.0418
  H  H111  1  0.695800  0.050600  0.281700  1.0  0.263
  H  H112  1  0.668300  0.156000  0.225900  1.0  0.2766
  C  C113  1  0.195260  0.243300  0.597300  1.0  0.2762
  C  C114  1  0.163190  0.161400  0.570300  1.0  -0.4819
  C  C115  1  0.236360  0.396200  0.676000  1.0  0.281
  C  C116  1  0.256730  0.506100  0.750400  1.0  -0.4848
  C  C117  1  0.160310  0.889100  0.335500  1.0  -0.053
  C  C118  1  0.072310  0.533500  0.169000  1.0  0.0228
  C  C119  1  0.988760  0.193700  0.963300  1.0  0.0648
  C  C120  1  0.898620  0.863800  0.780600  1.0  -0.0537
  C  C121  1  0.821810  0.727500  0.889400  1.0  -0.0685
  C  C122  1  0.840350  0.597100  0.633500  1.0  -0.1701
  C  C123  1  0.179980  0.982900  0.369200  1.0  -0.1467
  C  C124  1  0.094350  0.612400  0.208500  1.0  0.0717
  C  C125  1  0.006920  0.275100  0.018000  1.0  0.0237
  C  C126  1  0.922440  0.936200  0.815100  1.0  -0.0599
  C  C127  1  0.832460  0.753000  0.827600  1.0  -0.121
  C  C128  1  0.829290  0.493700  0.583700  1.0  -0.1229
  C  C129  1  0.762820  0.728200  0.000100  1.0  -0.1133
  C  C130  1  0.304740  0.743300  0.902700  1.0  0.2763
  C  C131  1  0.336810  0.661400  0.929700  1.0  -0.4841
  C  C132  1  0.263640  0.896200  0.824000  1.0  0.28
  C  C133  1  0.243270  0.006100  0.749600  1.0  -0.4855
  C  C134  1  0.339690  0.389100  0.164500  1.0  -0.0518
  C  C135  1  0.427690  0.033500  0.331000  1.0  0.0243
  C  C136  1  0.511240  0.693700  0.536700  1.0  0.0624
  C  C137  1  0.601380  0.363800  0.719400  1.0  -0.0534
  C  C138  1  0.678190  0.227500  0.610600  1.0  -0.069
  C  C139  1  0.659650  0.097100  0.866500  1.0  -0.1714
  C  C140  1  0.320020  0.482900  0.130800  1.0  -0.1445
  C  C141  1  0.405650  0.112400  0.291500  1.0  0.0729
  C  C142  1  0.493080  0.775100  0.482000  1.0  0.0253
  C  C143  1  0.577560  0.436200  0.684900  1.0  -0.0589
  C  C144  1  0.667540  0.253000  0.672400  1.0  -0.121
  C  C145  1  0.670710  0.993700  0.916300  1.0  -0.1245
  C  C146  1  0.737180  0.228200  0.499900  1.0  -0.1151
  C  C147  1  0.304740  0.256700  0.402700  1.0  0.2764
  C  C148  1  0.336810  0.338600  0.429700  1.0  -0.4842
  C  C149  1  0.263640  0.103800  0.324000  1.0  0.2801
  C  C150  1  0.243270  0.993900  0.249600  1.0  -0.4857
  C  C151  1  0.511240  0.306300  0.036700  1.0  0.0466
  C  C152  1  0.659650  0.902900  0.366500  1.0  -0.1487
  C  C153  1  0.320020  0.517100  0.630800  1.0  -0.1444
  C  C154  1  0.405650  0.887600  0.791500  1.0  0.062
  C  C155  1  0.577560  0.563800  0.184900  1.0  -0.066
  C  C156  1  0.667540  0.747000  0.172400  1.0  -0.1457
  C  C157  1  0.737180  0.771800  0.999900  1.0  -0.1152
  C  C158  1  0.195260  0.756700  0.097300  1.0  0.2762
  C  C159  1  0.163190  0.838600  0.070300  1.0  -0.482
  C  C160  1  0.236360  0.603800  0.176000  1.0  0.281
  C  C161  1  0.256730  0.493900  0.250400  1.0  -0.4853
  C  C162  1  0.988760  0.806300  0.463300  1.0  0.0485
  C  C163  1  0.840350  0.402900  0.133500  1.0  -0.1473
  C  C164  1  0.179980  0.017100  0.869200  1.0  -0.1463
  C  C165  1  0.094350  0.387600  0.708500  1.0  0.0602
  C  C166  1  0.922440  0.063800  0.315100  1.0  -0.0659
  C  C167  1  0.832460  0.247000  0.327600  1.0  -0.1446
  C  C168  1  0.762820  0.271800  0.500100  1.0  -0.1136
  C  C169  1  0.695260  0.743300  0.597300  1.0  0.2762
  C  C170  1  0.663190  0.661400  0.570300  1.0  -0.4819
  C  C171  1  0.736360  0.896200  0.676000  1.0  0.281
  C  C172  1  0.756730  0.006100  0.750400  1.0  -0.4848
  C  C173  1  0.660310  0.389100  0.335500  1.0  -0.053
  C  C174  1  0.572310  0.033500  0.169000  1.0  0.0173
  C  C175  1  0.488760  0.693700  0.963300  1.0  0.0607
  C  C176  1  0.398620  0.363800  0.780600  1.0  -0.0537
  C  C177  1  0.321810  0.227500  0.889400  1.0  -0.0685
  C  C178  1  0.340350  0.097100  0.633500  1.0  -0.174
  C  C179  1  0.679980  0.482900  0.369200  1.0  -0.1467
  C  C180  1  0.594350  0.112400  0.208500  1.0  0.0717
  C  C181  1  0.506920  0.775100  0.018000  1.0  0.0239
  C  C182  1  0.422440  0.436200  0.815100  1.0  -0.0594
  C  C183  1  0.332460  0.253000  0.827600  1.0  -0.121
  C  C184  1  0.329290  0.993700  0.583700  1.0  -0.1229
  C  C185  1  0.262820  0.228200  0.000100  1.0  -0.1136
  C  C186  1  0.804740  0.243300  0.902700  1.0  0.2763
  C  C187  1  0.836810  0.161400  0.929700  1.0  -0.4841
  C  C188  1  0.763640  0.396200  0.824000  1.0  0.28
  C  C189  1  0.743270  0.506100  0.749600  1.0  -0.4855
  C  C190  1  0.839690  0.889100  0.164500  1.0  -0.0518
  C  C191  1  0.927690  0.533500  0.331000  1.0  0.0189
  C  C192  1  0.011240  0.193700  0.536700  1.0  0.0584
  C  C193  1  0.101380  0.863800  0.719400  1.0  -0.0534
  C  C194  1  0.178190  0.727500  0.610600  1.0  -0.069
  C  C195  1  0.159650  0.597100  0.866500  1.0  -0.1752
  C  C196  1  0.820020  0.982900  0.130800  1.0  -0.1445
  C  C197  1  0.905650  0.612400  0.291500  1.0  0.0729
  C  C198  1  0.993080  0.275100  0.482000  1.0  0.0253
  C  C199  1  0.077560  0.936200  0.684900  1.0  -0.0585
  C  C200  1  0.167540  0.753000  0.672400  1.0  -0.121
  C  C201  1  0.170710  0.493700  0.916300  1.0  -0.1245
  C  C202  1  0.237180  0.728200  0.499900  1.0  -0.1154
  C  C203  1  0.804740  0.756700  0.402700  1.0  0.2764
  C  C204  1  0.836810  0.838600  0.429700  1.0  -0.4842
  C  C205  1  0.763640  0.603800  0.324000  1.0  0.2801
  C  C206  1  0.743270  0.493900  0.249600  1.0  -0.4857
  C  C207  1  0.011240  0.806300  0.036700  1.0  0.0415
  C  C208  1  0.159650  0.402900  0.366500  1.0  -0.1525
  C  C209  1  0.820020  0.017100  0.630800  1.0  -0.1444
  C  C210  1  0.905650  0.387600  0.791500  1.0  0.062
  C  C211  1  0.077560  0.063800  0.184900  1.0  -0.0658
  C  C212  1  0.167540  0.247000  0.172400  1.0  -0.1456
  C  C213  1  0.237180  0.271800  0.999900  1.0  -0.1155
  C  C214  1  0.695260  0.256700  0.097300  1.0  0.2762
  C  C215  1  0.663190  0.338600  0.070300  1.0  -0.482
  C  C216  1  0.736360  0.103800  0.176000  1.0  0.281
  C  C217  1  0.756730  0.993900  0.250400  1.0  -0.4853
  C  C218  1  0.488760  0.306300  0.463300  1.0  0.043
  C  C219  1  0.340350  0.902900  0.133500  1.0  -0.1513
  C  C220  1  0.679980  0.517100  0.869200  1.0  -0.1463
  C  C221  1  0.594350  0.887600  0.708500  1.0  0.0602
  C  C222  1  0.422440  0.563800  0.315100  1.0  -0.0657
  C  C223  1  0.332460  0.747000  0.327600  1.0  -0.1446
  C  C224  1  0.262820  0.771800  0.500100  1.0  -0.1139
  N  N225  1  0.205900  0.344500  0.673000  1.0  0.0034
  N  N226  1  0.218260  0.233100  0.555000  1.0  -0.3115
  N  N227  1  0.187680  0.384400  0.734800  1.0  -0.6553
  N  N228  1  0.244600  0.331400  0.605200  1.0  -0.3316
  N  N229  1  0.339690  0.610900  0.664500  1.0  -0.425
  N  N230  1  0.427690  0.966500  0.831000  1.0  -0.4311
  N  N231  1  0.601380  0.636200  0.219400  1.0  -0.4981
  N  N232  1  0.678190  0.772500  0.110600  1.0  -0.4527
  N  N233  1  0.493080  0.224900  0.982000  1.0  -0.4849
  N  N234  1  0.829290  0.506300  0.083700  1.0  -0.44
  N  N235  1  0.294100  0.844500  0.827000  1.0  0.0029
  N  N236  1  0.281740  0.733100  0.945000  1.0  -0.3105
  N  N237  1  0.312320  0.884400  0.765200  1.0  -0.6528
  N  N238  1  0.255400  0.831400  0.894800  1.0  -0.332
  N  N239  1  0.160310  0.110900  0.835500  1.0  -0.4265
  N  N240  1  0.072310  0.466500  0.669000  1.0  -0.4328
  N  N241  1  0.898620  0.136200  0.280600  1.0  -0.4963
  N  N242  1  0.821810  0.272500  0.389400  1.0  -0.4532
  N  N243  1  0.006920  0.724900  0.518000  1.0  -0.4855
  N  N244  1  0.670710  0.006300  0.416300  1.0  -0.4391
  N  N245  1  0.294100  0.155500  0.327000  1.0  0.0026
  N  N246  1  0.281740  0.266900  0.445000  1.0  -0.3111
  N  N247  1  0.312320  0.115600  0.265200  1.0  -0.6525
  N  N248  1  0.255400  0.168600  0.394800  1.0  -0.3322
  N  N249  1  0.205900  0.655500  0.173000  1.0  0.0032
  N  N250  1  0.218260  0.766900  0.055000  1.0  -0.3107
  N  N251  1  0.187680  0.615600  0.234800  1.0  -0.6549
  N  N252  1  0.244600  0.668600  0.105200  1.0  -0.3316
  N  N253  1  0.705900  0.844500  0.673000  1.0  0.0034
  N  N254  1  0.718260  0.733100  0.555000  1.0  -0.3115
  N  N255  1  0.687680  0.884400  0.734800  1.0  -0.6553
  N  N256  1  0.744600  0.831400  0.605200  1.0  -0.3316
  N  N257  1  0.839690  0.110900  0.664500  1.0  -0.425
  N  N258  1  0.927690  0.466500  0.831000  1.0  -0.4331
  N  N259  1  0.101380  0.136200  0.219400  1.0  -0.4981
  N  N260  1  0.178190  0.272500  0.110600  1.0  -0.4527
  N  N261  1  0.993080  0.724900  0.982000  1.0  -0.4852
  N  N262  1  0.329290  0.006300  0.083700  1.0  -0.44
  N  N263  1  0.794100  0.344500  0.827000  1.0  0.0029
  N  N264  1  0.781740  0.233100  0.945000  1.0  -0.3105
  N  N265  1  0.812320  0.384400  0.765200  1.0  -0.6528
  N  N266  1  0.755400  0.331400  0.894800  1.0  -0.332
  N  N267  1  0.660310  0.610900  0.835500  1.0  -0.4265
  N  N268  1  0.572310  0.966500  0.669000  1.0  -0.4351
  N  N269  1  0.398620  0.636200  0.280600  1.0  -0.4963
  N  N270  1  0.321810  0.772500  0.389400  1.0  -0.4532
  N  N271  1  0.506920  0.224900  0.518000  1.0  -0.4849
  N  N272  1  0.170710  0.506300  0.416300  1.0  -0.4391
  N  N273  1  0.794100  0.655500  0.327000  1.0  0.0026
  N  N274  1  0.781740  0.766900  0.445000  1.0  -0.3111
  N  N275  1  0.812320  0.615600  0.265200  1.0  -0.6525
  N  N276  1  0.755400  0.668600  0.394800  1.0  -0.3322
  N  N277  1  0.705900  0.155500  0.173000  1.0  0.0032
  N  N278  1  0.718260  0.266900  0.055000  1.0  -0.3107
  N  N279  1  0.687680  0.115600  0.234800  1.0  -0.6549
  N  N280  1  0.744600  0.168600  0.105200  1.0  -0.3316
