# generated using pymatgen
data_Co3H26C40(N5O4)2
_symmetry_space_group_name_H-M   'P 1'
_cell_length_a   11.44820000
_cell_length_b   11.54080000
_cell_length_c   11.76630000
_cell_angle_alpha   65.37000000
_cell_angle_beta   80.54000000
_cell_angle_gamma   72.75900000
_symmetry_Int_Tables_number   1
_chemical_formula_structural   Co3H26C40(N5O4)2
_chemical_formula_sum   'Co3 H26 C40 N10 O8'
_cell_volume   1348.14993413
_cell_formula_units_Z   1
loop_
 _symmetry_equiv_pos_site_id
 _symmetry_equiv_pos_as_xyz
  1  'x, y, z'
loop_
 _atom_site_type_symbol
 _atom_site_label
 _atom_site_symmetry_multiplicity
 _atom_site_fract_x
 _atom_site_fract_y
 _atom_site_fract_z
 _atom_site_occupancy
 _atom_site_charge
  Co  Co1  1  0.500000  0.000000  0.500000  1.0  0.5506
  Co  Co2  1  0.500000  0.500000  0.000000  1.0  0.5986
  Co  Co3  1  0.500000  0.500000  0.500000  1.0  0.9844
  H  H4  1  0.545000  0.161800  0.177900  1.0  0.0967
  H  H5  1  0.701600  0.874300  0.703900  1.0  0.0752
  H  H6  1  0.909600  0.779900  0.720100  1.0  0.12
  H  H7  1  0.945700  0.941800  0.341300  1.0  0.1283
  H  H8  1  0.736900  0.030000  0.337700  1.0  0.0793
  H  H9  1  0.076700  0.618600  0.703800  1.0  0.1186
  H  H10  1  0.278300  0.503200  0.693000  1.0  0.0741
  H  H11  1  0.339700  0.777000  0.369200  1.0  0.0924
  H  H12  1  0.141000  0.903100  0.371000  1.0  0.1203
  H  H13  1  0.657600  0.684600  0.977600  1.0  0.0791
  H  H14  1  0.856900  0.691900  0.974200  1.0  0.1315
  H  H15  1  0.961900  0.306100  0.037700  1.0  0.1194
  H  H16  1  0.758800  0.308600  0.043300  1.0  0.0911
  H  H17  1  0.455000  0.838200  0.822100  1.0  0.0991
  H  H18  1  0.298400  0.125700  0.296100  1.0  0.0746
  H  H19  1  0.090400  0.220100  0.279900  1.0  0.1196
  H  H20  1  0.054300  0.058200  0.658700  1.0  0.1281
  H  H21  1  0.263100  0.970000  0.662300  1.0  0.0794
  H  H22  1  0.923300  0.381400  0.296200  1.0  0.1195
  H  H23  1  0.721700  0.496800  0.307000  1.0  0.0747
  H  H24  1  0.660300  0.223000  0.630800  1.0  0.0919
  H  H25  1  0.859000  0.096900  0.629000  1.0  0.1202
  H  H26  1  0.342400  0.315400  0.022400  1.0  0.0792
  H  H27  1  0.143100  0.308100  0.025800  1.0  0.1329
  H  H28  1  0.038100  0.693900  0.962300  1.0  0.1202
  H  H29  1  0.241200  0.691400  0.956700  1.0  0.0917
  C  C30  1  0.524200  0.216400  0.224100  1.0  0.2025
  C  C31  1  0.477800  0.278700  0.378100  1.0  -0.0466
  C  C32  1  0.481000  0.387800  0.268400  1.0  -0.0383
  C  C33  1  0.447000  0.256600  0.511600  1.0  0.6452
  C  C34  1  0.461500  0.531600  0.234600  1.0  0.6592
  C  C35  1  0.751900  0.885900  0.629200  1.0  0.1573
  C  C36  1  0.876200  0.828800  0.639900  1.0  -0.2134
  C  C37  1  0.952100  0.843800  0.531800  1.0  0.0923
  C  C38  1  0.897300  0.923800  0.417500  1.0  -0.202
  C  C39  1  0.772600  0.976400  0.416300  1.0  0.1665
  C  C40  1  0.083800  0.774100  0.535300  1.0  0.0894
  C  C41  1  0.128600  0.653000  0.633200  1.0  -0.2005
  C  C42  1  0.249000  0.584500  0.625600  1.0  0.1773
  C  C43  1  0.285000  0.744100  0.437400  1.0  0.1641
  C  C44  1  0.166100  0.819900  0.437600  1.0  -0.2143
  C  C45  1  0.720700  0.606100  0.989600  1.0  0.1612
  C  C46  1  0.839900  0.611600  0.986700  1.0  -0.2091
  C  C47  1  0.934400  0.500000  0.002200  1.0  0.084
  C  C48  1  0.900700  0.386300  0.024300  1.0  -0.1999
  C  C49  1  0.779200  0.388300  0.027100  1.0  0.1487
  C  C50  1  0.475800  0.783600  0.775900  1.0  0.2021
  C  C51  1  0.522200  0.721300  0.621900  1.0  -0.0463
  C  C52  1  0.519000  0.612200  0.731600  1.0  -0.0385
  C  C53  1  0.553000  0.743400  0.488400  1.0  0.6446
  C  C54  1  0.538500  0.468400  0.765400  1.0  0.6599
  C  C55  1  0.248100  0.114100  0.370800  1.0  0.1564
  C  C56  1  0.123800  0.171200  0.360100  1.0  -0.2146
  C  C57  1  0.047900  0.156200  0.468200  1.0  0.0918
  C  C58  1  0.102700  0.076200  0.582500  1.0  -0.2004
  C  C59  1  0.227400  0.023600  0.583700  1.0  0.167
  C  C60  1  0.916200  0.225900  0.464700  1.0  0.0894
  C  C61  1  0.871400  0.347000  0.366800  1.0  -0.1985
  C  C62  1  0.751000  0.415500  0.374400  1.0  0.1782
  C  C63  1  0.715000  0.255900  0.562600  1.0  0.167
  C  C64  1  0.833900  0.180100  0.562400  1.0  -0.2164
  C  C65  1  0.279300  0.393900  0.010400  1.0  0.1617
  C  C66  1  0.160100  0.388400  0.013300  1.0  -0.2082
  C  C67  1  0.065600  0.500000  0.997800  1.0  0.0846
  C  C68  1  0.099300  0.613700  0.975700  1.0  -0.2018
  C  C69  1  0.220800  0.611700  0.972900  1.0  0.149
  N  N70  1  0.505800  0.170700  0.348000  1.0  -0.3
  N  N71  1  0.510400  0.346600  0.171300  1.0  -0.3306
  N  N72  1  0.698400  0.956300  0.519900  1.0  -0.2786
  N  N73  1  0.326600  0.626200  0.528900  1.0  -0.3382
  N  N74  1  0.688900  0.498500  0.007800  1.0  -0.2819
  N  N75  1  0.494200  0.829300  0.652000  1.0  -0.3017
  N  N76  1  0.489600  0.653400  0.828700  1.0  -0.3331
  N  N77  1  0.301600  0.043700  0.480100  1.0  -0.2792
  N  N78  1  0.673400  0.373800  0.471100  1.0  -0.339
  N  N79  1  0.311100  0.501500  0.992200  1.0  -0.2784
  O  O80  1  0.414900  0.350500  0.546900  1.0  -0.5789
  O  O81  1  0.452600  0.137800  0.585900  1.0  -0.5635
  O  O82  1  0.457200  0.577600  0.314400  1.0  -0.5914
  O  O83  1  0.451500  0.603500  0.118800  1.0  -0.5567
  O  O84  1  0.585100  0.649500  0.453100  1.0  -0.5798
  O  O85  1  0.547400  0.862200  0.414100  1.0  -0.5637
  O  O86  1  0.542800  0.422400  0.685600  1.0  -0.5901
  O  O87  1  0.548500  0.396500  0.881200  1.0  -0.5564
