# generated using pymatgen
data_MgH2(CO2)2
_symmetry_space_group_name_H-M   'P 1'
_cell_length_a   9.85680000
_cell_length_b   11.30700000
_cell_length_c   14.72900000
_cell_angle_alpha   91.37100000
_cell_angle_beta   90.00000000
_cell_angle_gamma   90.00000000
_symmetry_Int_Tables_number   1
_chemical_formula_structural   MgH2(CO2)2
_chemical_formula_sum   'Mg12 H24 C24 O48'
_cell_volume   1641.08945446
_cell_formula_units_Z   12
loop_
 _symmetry_equiv_pos_site_id
 _symmetry_equiv_pos_as_xyz
  1  'x, y, z'
loop_
 _atom_site_type_symbol
 _atom_site_label
 _atom_site_symmetry_multiplicity
 _atom_site_fract_x
 _atom_site_fract_y
 _atom_site_fract_z
 _atom_site_occupancy
 _atom_site_charge
  Mg  Mg1  1  0.577620  0.743570  0.364620  1.0  1.5215
  Mg  Mg2  1  0.385700  0.760380  0.192670  1.0  1.4966
  Mg  Mg3  1  0.077620  0.756430  0.135380  1.0  1.5214
  Mg  Mg4  1  0.885700  0.739620  0.307330  1.0  1.4967
  Mg  Mg5  1  0.422380  0.256430  0.635380  1.0  1.5214
  Mg  Mg6  1  0.614300  0.239620  0.807330  1.0  1.4968
  Mg  Mg7  1  0.922380  0.243570  0.864620  1.0  1.5214
  Mg  Mg8  1  0.114300  0.260380  0.692670  1.0  1.4966
  Mg  Mg9  1  0.500000  0.000000  0.500000  1.0  1.4924
  Mg  Mg10  1  0.000000  0.500000  0.000000  1.0  1.4924
  Mg  Mg11  1  0.500000  0.500000  0.500000  1.0  1.5029
  Mg  Mg12  1  0.000000  0.000000  0.000000  1.0  1.5029
  H  H13  1  0.447600  0.022700  0.242400  1.0  0.0039
  H  H14  1  0.878900  0.944600  0.448700  1.0  0.0009
  H  H15  1  0.790900  0.498800  0.473700  1.0  0.0021
  H  H16  1  0.736800  0.649400  0.130400  1.0  -0.0061
  H  H17  1  0.348100  0.803200  0.570100  1.0  -0.0045
  H  H18  1  0.301500  0.520700  0.275200  1.0  -0.0026
  H  H19  1  0.947600  0.477300  0.257600  1.0  0.0044
  H  H20  1  0.378900  0.555400  0.051300  1.0  0.0006
  H  H21  1  0.290900  0.001200  0.026300  1.0  0.0023
  H  H22  1  0.236800  0.850600  0.369600  1.0  -0.0068
  H  H23  1  0.848100  0.696800  0.929900  1.0  -0.005
  H  H24  1  0.801500  0.979300  0.224800  1.0  -0.0028
  H  H25  1  0.552400  0.977300  0.757600  1.0  0.0046
  H  H26  1  0.121100  0.055400  0.551300  1.0  0.0002
  H  H27  1  0.209100  0.501200  0.526300  1.0  0.0027
  H  H28  1  0.263200  0.350600  0.869600  1.0  -0.0063
  H  H29  1  0.651900  0.196800  0.429900  1.0  -0.0053
  H  H30  1  0.698500  0.479300  0.724800  1.0  -0.0028
  H  H31  1  0.052400  0.522700  0.742400  1.0  0.0039
  H  H32  1  0.621100  0.444600  0.948700  1.0  0.0005
  H  H33  1  0.709100  0.998800  0.973700  1.0  0.0024
  H  H34  1  0.763200  0.149400  0.630400  1.0  -0.0055
  H  H35  1  0.151900  0.303200  0.070100  1.0  -0.0046
  H  H36  1  0.198500  0.020700  0.775200  1.0  -0.0023
  C  C37  1  0.473270  0.981130  0.293280  1.0  0.7493
  C  C38  1  0.787310  0.925950  0.443300  1.0  0.7461
  C  C39  1  0.773000  0.562650  0.436890  1.0  0.7476
  C  C40  1  0.667780  0.676980  0.168460  1.0  0.753
  C  C41  1  0.402750  0.758950  0.530600  1.0  0.7501
  C  C42  1  0.363660  0.548790  0.318040  1.0  0.7446
  C  C43  1  0.973270  0.518870  0.206720  1.0  0.7495
  C  C44  1  0.287310  0.574050  0.056700  1.0  0.747
  C  C45  1  0.273000  0.937350  0.063110  1.0  0.7459
  C  C46  1  0.167780  0.823020  0.331540  1.0  0.7538
  C  C47  1  0.902750  0.741050  0.969400  1.0  0.7488
  C  C48  1  0.863660  0.951210  0.181960  1.0  0.7434
  C  C49  1  0.526730  0.018870  0.706720  1.0  0.7481
  C  C50  1  0.212690  0.074050  0.556700  1.0  0.7469
  C  C51  1  0.227000  0.437350  0.563110  1.0  0.7473
  C  C52  1  0.332220  0.323020  0.831540  1.0  0.7531
  C  C53  1  0.597250  0.241050  0.469400  1.0  0.7498
  C  C54  1  0.636340  0.451210  0.681960  1.0  0.7445
  C  C55  1  0.026730  0.481130  0.793280  1.0  0.7493
  C  C56  1  0.712690  0.425950  0.943300  1.0  0.7466
  C  C57  1  0.727000  0.062650  0.936890  1.0  0.749
  C  C58  1  0.832220  0.176980  0.668460  1.0  0.7528
  C  C59  1  0.097250  0.258950  0.030600  1.0  0.7517
  C  C60  1  0.136340  0.048790  0.818040  1.0  0.7452
  O  O61  1  0.489250  0.869850  0.282980  1.0  -0.8216
  O  O62  1  0.488840  0.038740  0.364780  1.0  -0.6732
  O  O63  1  0.755100  0.842180  0.387250  1.0  -0.8355
  O  O64  1  0.706960  0.983980  0.490760  1.0  -0.6679
  O  O65  1  0.650110  0.598890  0.433790  1.0  -0.8272
  O  O66  1  0.870260  0.604920  0.395350  1.0  -0.677
  O  O67  1  0.697340  0.694560  0.252080  1.0  -0.8206
  O  O68  1  0.555190  0.693380  0.133510  1.0  -0.6767
  O  O69  1  0.475680  0.816310  0.474710  1.0  -0.8437
  O  O70  1  0.398340  0.650670  0.536820  1.0  -0.674
  O  O71  1  0.417720  0.649560  0.303800  1.0  -0.8209
  O  O72  1  0.386380  0.485630  0.383370  1.0  -0.6626
  O  O73  1  0.989250  0.630150  0.217020  1.0  -0.8207
  O  O74  1  0.988840  0.461260  0.135220  1.0  -0.6735
  O  O75  1  0.255100  0.657820  0.112750  1.0  -0.8348
  O  O76  1  0.206960  0.516020  0.009240  1.0  -0.6683
  O  O77  1  0.150110  0.901110  0.066210  1.0  -0.8275
  O  O78  1  0.370260  0.895080  0.104650  1.0  -0.6793
  O  O79  1  0.197340  0.805440  0.247920  1.0  -0.8213
  O  O80  1  0.055190  0.806620  0.366490  1.0  -0.6767
  O  O81  1  0.975680  0.683690  0.025290  1.0  -0.8437
  O  O82  1  0.898340  0.849330  0.963180  1.0  -0.6716
  O  O83  1  0.917720  0.850440  0.196200  1.0  -0.821
  O  O84  1  0.886380  0.014370  0.116630  1.0  -0.6616
  O  O85  1  0.510750  0.130150  0.717020  1.0  -0.82
  O  O86  1  0.511160  0.961260  0.635220  1.0  -0.6737
  O  O87  1  0.244900  0.157820  0.612750  1.0  -0.8356
  O  O88  1  0.293040  0.016020  0.509240  1.0  -0.669
  O  O89  1  0.349890  0.401110  0.566210  1.0  -0.8272
  O  O90  1  0.129740  0.395080  0.604650  1.0  -0.6794
  O  O91  1  0.302660  0.305440  0.747920  1.0  -0.8212
  O  O92  1  0.444810  0.306620  0.866490  1.0  -0.6747
  O  O93  1  0.524320  0.183690  0.525290  1.0  -0.8439
  O  O94  1  0.601660  0.349330  0.463180  1.0  -0.6725
  O  O95  1  0.582280  0.350440  0.696200  1.0  -0.8207
  O  O96  1  0.613620  0.514370  0.616630  1.0  -0.6613
  O  O97  1  0.010750  0.369850  0.782980  1.0  -0.8208
  O  O98  1  0.011160  0.538740  0.864780  1.0  -0.6734
  O  O99  1  0.744900  0.342180  0.887250  1.0  -0.8363
  O  O100  1  0.793040  0.483980  0.990760  1.0  -0.6686
  O  O101  1  0.849890  0.098890  0.933790  1.0  -0.8271
  O  O102  1  0.629740  0.104920  0.895350  1.0  -0.677
  O  O103  1  0.802660  0.194560  0.752080  1.0  -0.8207
  O  O104  1  0.944810  0.193380  0.633510  1.0  -0.6751
  O  O105  1  0.024320  0.316310  0.974710  1.0  -0.8439
  O  O106  1  0.101660  0.150670  0.036820  1.0  -0.6741
  O  O107  1  0.082280  0.149560  0.803800  1.0  -0.8212
  O  O108  1  0.113620  0.985630  0.883370  1.0  -0.6623
