# generated using pymatgen
data_Zn3P4(HO3)4
_symmetry_space_group_name_H-M   'P 1'
_cell_length_a   8.98840000
_cell_length_b   10.32600000
_cell_length_c   11.91700000
_cell_angle_alpha   66.98000000
_cell_angle_beta   89.01000000
_cell_angle_gamma   78.98000000
_symmetry_Int_Tables_number   1
_chemical_formula_structural   Zn3P4(HO3)4
_chemical_formula_sum   'Zn6 P8 H8 O24'
_cell_volume   997.19386940
_cell_formula_units_Z   2
loop_
 _symmetry_equiv_pos_site_id
 _symmetry_equiv_pos_as_xyz
  1  'x, y, z'
loop_
 _atom_site_type_symbol
 _atom_site_label
 _atom_site_symmetry_multiplicity
 _atom_site_fract_x
 _atom_site_fract_y
 _atom_site_fract_z
 _atom_site_occupancy
 _atom_site_charge
  Zn  Zn1  1  0.889800  0.004570  0.762250  1.0  1.165
  Zn  Zn2  1  0.410680  0.028320  0.648620  1.0  1.1325
  Zn  Zn3  1  0.867890  0.632740  0.072220  1.0  1.1608
  Zn  Zn4  1  0.110200  0.995430  0.237750  1.0  1.1648
  Zn  Zn5  1  0.589320  0.971680  0.351380  1.0  1.1333
  Zn  Zn6  1  0.132110  0.367260  0.927780  1.0  1.1599
  P  P7  1  0.615450  0.854920  0.885580  1.0  1.5536
  P  P8  1  0.676440  0.142510  0.510470  1.0  1.474
  P  P9  1  0.155280  0.145480  0.801710  1.0  1.6235
  P  P10  1  0.110620  0.695850  0.867680  1.0  1.5747
  P  P11  1  0.384550  0.145080  0.114420  1.0  1.5609
  P  P12  1  0.323560  0.857490  0.489530  1.0  1.4688
  P  P13  1  0.844720  0.854520  0.198290  1.0  1.6231
  P  P14  1  0.889380  0.304150  0.132320  1.0  1.5666
  H  H15  1  0.517000  0.895000  0.952000  1.0  -0.1129
  H  H16  1  0.681000  0.260000  0.404000  1.0  -0.0386
  H  H17  1  0.233000  0.044000  0.901000  1.0  -0.0881
  H  H18  1  0.252000  0.724000  0.874000  1.0  -0.0898
  H  H19  1  0.483000  0.105000  0.048000  1.0  -0.1046
  H  H20  1  0.319000  0.740000  0.596000  1.0  -0.0372
  H  H21  1  0.767000  0.956000  0.099000  1.0  -0.0894
  H  H22  1  0.748000  0.276000  0.126000  1.0  -0.0918
  O  O23  1  0.718900  0.961200  0.858200  1.0  -0.8562
  O  O24  1  0.817900  0.120500  0.589900  1.0  -0.7703
  O  O25  1  0.993400  0.124500  0.806200  1.0  -0.8099
  O  O26  1  0.017600  0.827600  0.766800  1.0  -0.7811
  O  O27  1  0.528100  0.863700  0.774600  1.0  -0.7686
  O  O28  1  0.528300  0.177500  0.565900  1.0  -0.7221
  O  O29  1  0.682800  0.015400  0.475800  1.0  -0.7755
  O  O30  1  0.231000  0.128900  0.692100  1.0  -0.8021
  O  O31  1  0.692300  0.700900  0.957700  1.0  -0.804
  O  O32  1  0.125500  0.570100  0.831700  1.0  -0.7472
  O  O33  1  0.164600  0.290400  0.802500  1.0  -0.7335
  O  O34  1  0.057300  0.668100  0.995000  1.0  -0.7831
  O  O35  1  0.281100  0.038800  0.141800  1.0  -0.8554
  O  O36  1  0.182100  0.879500  0.410100  1.0  -0.7691
  O  O37  1  0.006600  0.875500  0.193800  1.0  -0.8106
  O  O38  1  0.982400  0.172400  0.233200  1.0  -0.7804
  O  O39  1  0.471900  0.136300  0.225400  1.0  -0.7697
  O  O40  1  0.471700  0.822500  0.434100  1.0  -0.7215
  O  O41  1  0.317200  0.984600  0.524200  1.0  -0.7769
  O  O42  1  0.769000  0.871100  0.307900  1.0  -0.8002
  O  O43  1  0.307700  0.299100  0.042300  1.0  -0.8041
  O  O44  1  0.874500  0.429900  0.168300  1.0  -0.7481
  O  O45  1  0.835400  0.709600  0.197500  1.0  -0.736
  O  O46  1  0.942700  0.331900  0.005000  1.0  -0.7834
