# generated using pymatgen
data_Co(CO)4
_symmetry_space_group_name_H-M   'P 1'
_cell_length_a   8.13200000
_cell_length_b   13.22400000
_cell_length_c   7.53700000
_cell_angle_alpha   90.00000000
_cell_angle_beta   115.31000000
_cell_angle_gamma   90.00000000
_symmetry_Int_Tables_number   1
_chemical_formula_structural   Co(CO)4
_chemical_formula_sum   'Co4 C16 O16'
_cell_volume   732.70806945
_cell_formula_units_Z   4
loop_
 _symmetry_equiv_pos_site_id
 _symmetry_equiv_pos_as_xyz
  1  'x, y, z'
loop_
 _atom_site_type_symbol
 _atom_site_label
 _atom_site_symmetry_multiplicity
 _atom_site_fract_x
 _atom_site_fract_y
 _atom_site_fract_z
 _atom_site_occupancy
 _atom_site_charge
  Co  Co1  1  0.500000  0.639330  0.500000  1.0  1.0664
  Co  Co2  1  0.000000  0.139330  0.500000  1.0  1.0658
  Co  Co3  1  0.500000  0.360670  0.000000  1.0  1.0659
  Co  Co4  1  0.000000  0.860670  0.000000  1.0  1.0641
  C  C5  1  0.331100  0.447700  0.270600  1.0  0.7412
  C  C6  1  0.148200  0.466700  0.266300  1.0  -0.1379
  C  C7  1  0.054700  0.552500  0.221600  1.0  -0.0887
  C  C8  1  0.114600  0.652300  0.172000  1.0  0.7306
  C  C9  1  0.831100  0.947700  0.270600  1.0  0.7412
  C  C10  1  0.648200  0.966700  0.266300  1.0  -0.1379
  C  C11  1  0.554700  0.052500  0.221600  1.0  -0.0887
  C  C12  1  0.614600  0.152300  0.172000  1.0  0.7306
  C  C13  1  0.331100  0.552300  0.770600  1.0  0.7395
  C  C14  1  0.148200  0.533300  0.766300  1.0  -0.1419
  C  C15  1  0.054700  0.447500  0.721600  1.0  -0.0876
  C  C16  1  0.114600  0.347700  0.672000  1.0  0.7318
  C  C17  1  0.831100  0.052300  0.770600  1.0  0.7395
  C  C18  1  0.648200  0.033300  0.766300  1.0  -0.1419
  C  C19  1  0.554700  0.947500  0.721600  1.0  -0.0876
  C  C20  1  0.614600  0.847700  0.672000  1.0  0.7318
  O  O21  1  0.471200  0.491800  0.388800  1.0  -0.5997
  O  O22  1  0.332700  0.379100  0.153500  1.0  -0.5722
  O  O23  1  0.277900  0.676900  0.241900  1.0  -0.5662
  O  O24  1  0.987600  0.707800  0.057800  1.0  -0.5714
  O  O25  1  0.971200  0.991800  0.388800  1.0  -0.5997
  O  O26  1  0.832700  0.879100  0.153500  1.0  -0.5722
  O  O27  1  0.777900  0.176900  0.241900  1.0  -0.5662
  O  O28  1  0.487600  0.207800  0.057800  1.0  -0.5713
  O  O29  1  0.471200  0.508200  0.888800  1.0  -0.6003
  O  O30  1  0.332700  0.620900  0.653500  1.0  -0.5709
  O  O31  1  0.277900  0.323100  0.741900  1.0  -0.5659
  O  O32  1  0.987600  0.292200  0.557800  1.0  -0.5719
  O  O33  1  0.971200  0.008200  0.888800  1.0  -0.6003
  O  O34  1  0.832700  0.120900  0.653500  1.0  -0.5709
  O  O35  1  0.777900  0.823100  0.741900  1.0  -0.5659
  O  O36  1  0.487600  0.792200  0.557800  1.0  -0.5714
