# generated using pymatgen
data_Cd2H30C42(NO)9
_symmetry_space_group_name_H-M   'P 1'
_cell_length_a   12.13800000
_cell_length_b   13.14600000
_cell_length_c   14.32100000
_cell_angle_alpha   91.15800000
_cell_angle_beta   98.91100000
_cell_angle_gamma   90.56700000
_symmetry_Int_Tables_number   1
_chemical_formula_structural   Cd2H30C42(NO)9
_chemical_formula_sum   'Cd4 H60 C84 N18 O18'
_cell_volume   2256.90805033
_cell_formula_units_Z   2
loop_
 _symmetry_equiv_pos_site_id
 _symmetry_equiv_pos_as_xyz
  1  'x, y, z'
loop_
 _atom_site_type_symbol
 _atom_site_label
 _atom_site_symmetry_multiplicity
 _atom_site_fract_x
 _atom_site_fract_y
 _atom_site_fract_z
 _atom_site_occupancy
 _atom_site_charge
  Cd  Cd1  1  0.301600  0.074060  0.325080  1.0  0.9253
  Cd  Cd2  1  0.436000  0.774420  0.281360  1.0  0.8403
  Cd  Cd3  1  0.698400  0.925940  0.674920  1.0  0.9252
  Cd  Cd4  1  0.564000  0.225580  0.718640  1.0  0.7979
  H  H5  1  0.289400  0.373300  0.862800  1.0  0.0663
  H  H6  1  0.344500  0.437600  0.790400  1.0  0.0734
  H  H7  1  0.154400  0.343600  0.754500  1.0  0.1165
  H  H8  1  0.971500  0.307700  0.690100  1.0  0.0917
  H  H9  1  0.835800  0.427400  0.687900  1.0  0.1207
  H  H10  1  0.062700  0.624700  0.823800  1.0  0.1183
  H  H11  1  0.713300  0.547600  0.768400  1.0  0.0872
  H  H12  1  0.932800  0.743500  0.708800  1.0  0.0971
  H  H13  1  0.412000  0.577600  0.776800  1.0  0.0698
  H  H14  1  0.520900  0.644200  0.808900  1.0  0.0679
  H  H15  1  0.209500  0.781800  0.873400  1.0  0.1074
  H  H16  1  0.091700  0.871800  0.764800  1.0  0.0938
  H  H17  1  0.136700  0.897900  0.616200  1.0  0.1163
  H  H18  1  0.418300  0.742700  0.686400  1.0  0.1285
  H  H19  1  0.329400  0.001500  0.550300  1.0  0.0895
  H  H20  1  0.321700  0.714400  0.479700  1.0  0.0941
  H  H21  1  0.643400  0.723800  0.022500  1.0  0.0803
  H  H22  1  0.624000  0.702200  0.912600  1.0  0.0831
  H  H23  1  0.755600  0.822300  0.920300  1.0  0.12
  H  H24  1  0.906100  0.931100  0.920700  1.0  0.1027
  H  H25  1  0.082900  0.881100  0.986700  1.0  0.1237
  H  H26  1  0.959900  0.609700  0.042800  1.0  0.1235
  H  H27  1  0.191700  0.831200  0.161200  1.0  0.0973
  H  H28  1  0.177000  0.570900  0.021600  1.0  0.0938
  H  H29  1  0.991900  0.914300  0.447300  1.0  0.1011
  H  H30  1  0.814100  0.851200  0.440900  1.0  0.1058
  H  H31  1  0.770700  0.858200  0.157500  1.0  0.0953
  H  H32  1  0.950700  0.918100  0.163600  1.0  0.0921
  H  H33  1  0.500800  0.152500  0.079900  1.0  0.0894
  H  H34  1  0.565600  0.145500  0.937500  1.0  0.1005
  H  H35  1  0.710600  0.626700  0.137200  1.0  0.0668
  H  H36  1  0.655500  0.562400  0.209600  1.0  0.0744
  H  H37  1  0.845600  0.656400  0.245500  1.0  0.1161
  H  H38  1  0.028500  0.692300  0.309900  1.0  0.0932
  H  H39  1  0.164200  0.572600  0.312100  1.0  0.1201
  H  H40  1  0.937300  0.375300  0.176200  1.0  0.1193
  H  H41  1  0.286700  0.452400  0.231600  1.0  0.0862
  H  H42  1  0.067200  0.256500  0.291200  1.0  0.0973
  H  H43  1  0.588000  0.422400  0.223200  1.0  0.0713
  H  H44  1  0.479100  0.355800  0.191100  1.0  0.0652
  H  H45  1  0.790500  0.218200  0.126600  1.0  0.1081
  H  H46  1  0.908300  0.128200  0.235200  1.0  0.0937
  H  H47  1  0.863300  0.102100  0.383800  1.0  0.1168
  H  H48  1  0.581700  0.257300  0.313600  1.0  0.1282
  H  H49  1  0.670600  0.998500  0.449700  1.0  0.0895
  H  H50  1  0.678300  0.285600  0.520300  1.0  0.0945
  H  H51  1  0.356600  0.276200  0.977500  1.0  0.0802
  H  H52  1  0.376000  0.297800  0.087400  1.0  0.0802
  H  H53  1  0.244400  0.177700  0.079700  1.0  0.1195
  H  H54  1  0.093900  0.068900  0.079300  1.0  0.1032
  H  H55  1  0.917100  0.118900  0.013300  1.0  0.1237
  H  H56  1  0.040100  0.390300  0.957200  1.0  0.1238
  H  H57  1  0.808300  0.168800  0.838800  1.0  0.0976
  H  H58  1  0.823000  0.429100  0.978400  1.0  0.0943
  H  H59  1  0.008100  0.085700  0.552700  1.0  0.1026
  H  H60  1  0.185900  0.148800  0.559100  1.0  0.1049
  H  H61  1  0.229300  0.141800  0.842500  1.0  0.0947
  H  H62  1  0.049300  0.081900  0.836400  1.0  0.0917
  H  H63  1  0.499200  0.847500  0.920100  1.0  0.0876
  H  H64  1  0.434400  0.854500  0.062500  1.0  0.1007
  C  C65  1  0.411200  0.473100  0.929400  1.0  -0.0416
  C  C66  1  0.481100  0.553700  0.916600  1.0  -0.0566
  C  C67  1  0.571100  0.582100  0.986800  1.0  -0.0232
  C  C68  1  0.317200  0.440300  0.850500  1.0  0.0683
  C  C69  1  0.126700  0.485900  0.799700  1.0  0.305
  C  C70  1  0.099900  0.392400  0.756700  1.0  -0.2761
  C  C71  1  0.990100  0.372000  0.716500  1.0  -0.0075
  C  C72  1  0.909100  0.442800  0.714600  1.0  -0.2371
  C  C73  1  0.938100  0.537500  0.752900  1.0  0.1526
  C  C74  1  0.045100  0.560600  0.796700  1.0  -0.3095
  C  C75  1  0.746700  0.607600  0.753000  1.0  0.1532
  C  C76  1  0.866500  0.713900  0.720600  1.0  0.1603
  C  C77  1  0.453600  0.617300  0.828600  1.0  0.0587
  C  C78  1  0.324100  0.749600  0.790000  1.0  0.2971
  C  C79  1  0.227400  0.791100  0.813300  1.0  -0.2034
  C  C80  1  0.157400  0.845700  0.748700  1.0  -0.0635
  C  C81  1  0.184100  0.861900  0.660700  1.0  -0.2135
  C  C82  1  0.282200  0.823900  0.639600  1.0  0.1597
  C  C83  1  0.352400  0.767900  0.702600  1.0  -0.2491
  C  C84  1  0.333000  0.941000  0.516200  1.0  0.2042
  C  C85  1  0.328100  0.784900  0.478000  1.0  0.1207
  C  C86  1  0.647000  0.672200  0.973800  1.0  0.0655
  C  C87  1  0.842900  0.704300  0.979300  1.0  0.2929
  C  C88  1  0.827000  0.801200  0.944600  1.0  -0.2254
  C  C89  1  0.916800  0.866800  0.946000  1.0  -0.0242
  C  C90  1  0.022200  0.837000  0.985000  1.0  -0.1959
  C  C91  1  0.036300  0.741500  0.021200  1.0  0.1582
  C  C92  1  0.948500  0.674500  0.018500  1.0  -0.2718
  C  C93  1  0.209200  0.767100  0.139500  1.0  0.1583
  C  C94  1  0.201300  0.624400  0.063500  1.0  0.1791
  C  C95  1  0.097600  0.983900  0.310500  1.0  0.6396
  C  C96  1  0.987900  0.927800  0.306800  1.0  -0.1469
  C  C97  1  0.946900  0.904200  0.389000  1.0  -0.0753
  C  C98  1  0.840800  0.866100  0.385200  1.0  -0.0833
  C  C99  1  0.773400  0.849700  0.299900  1.0  -0.1288
  C  C100  1  0.815400  0.870000  0.215600  1.0  -0.0594
  C  C101  1  0.922200  0.906900  0.219200  1.0  -0.0639
  C  C102  1  0.653600  0.818200  0.294400  1.0  0.6589
  C  C103  1  0.416700  0.011100  0.178600  1.0  0.6598
  C  C104  1  0.461300  0.003800  0.086300  1.0  -0.1402
  C  C105  1  0.500600  0.090500  0.047400  1.0  -0.0498
  C  C106  1  0.539300  0.086700  0.962000  1.0  -0.0432
  C  C107  1  0.588800  0.526900  0.070600  1.0  -0.0387
  C  C108  1  0.518900  0.446300  0.083400  1.0  -0.0483
  C  C109  1  0.428900  0.417900  0.013200  1.0  -0.0234
  C  C110  1  0.682800  0.559700  0.149500  1.0  0.0657
  C  C111  1  0.873300  0.514100  0.200300  1.0  0.3067
  C  C112  1  0.900100  0.607600  0.243300  1.0  -0.2766
  C  C113  1  0.009900  0.628000  0.283500  1.0  -0.0063
  C  C114  1  0.090900  0.557200  0.285400  1.0  -0.2361
  C  C115  1  0.061900  0.462500  0.247100  1.0  0.1534
  C  C116  1  0.954900  0.439400  0.203300  1.0  -0.3115
  C  C117  1  0.253300  0.392400  0.247000  1.0  0.153
  C  C118  1  0.133500  0.286100  0.279400  1.0  0.1652
  C  C119  1  0.546400  0.382700  0.171400  1.0  0.0609
  C  C120  1  0.675900  0.250400  0.210000  1.0  0.2977
  C  C121  1  0.772600  0.208900  0.186700  1.0  -0.2023
  C  C122  1  0.842600  0.154300  0.251300  1.0  -0.0647
  C  C123  1  0.815900  0.138100  0.339300  1.0  -0.213
  C  C124  1  0.717800  0.176100  0.360400  1.0  0.1592
  C  C125  1  0.647600  0.232100  0.297400  1.0  -0.2418
  C  C126  1  0.667000  0.059000  0.483800  1.0  0.2043
  C  C127  1  0.671900  0.215100  0.522000  1.0  0.1221
  C  C128  1  0.353000  0.327800  0.026200  1.0  0.0666
  C  C129  1  0.157100  0.295700  0.020700  1.0  0.2933
  C  C130  1  0.173000  0.198800  0.055400  1.0  -0.2239
  C  C131  1  0.083200  0.133200  0.054000  1.0  -0.025
  C  C132  1  0.977800  0.163000  0.015000  1.0  -0.1908
  C  C133  1  0.963700  0.258500  0.978800  1.0  0.1564
  C  C134  1  0.051500  0.325500  0.981500  1.0  -0.2736
  C  C135  1  0.790800  0.232900  0.860500  1.0  0.1587
  C  C136  1  0.798700  0.375600  0.936500  1.0  0.1803
  C  C137  1  0.902400  0.016100  0.689500  1.0  0.6371
  C  C138  1  0.012100  0.072200  0.693200  1.0  -0.1477
  C  C139  1  0.053100  0.095800  0.611000  1.0  -0.0749
  C  C140  1  0.159200  0.133900  0.614800  1.0  -0.0845
  C  C141  1  0.226600  0.150300  0.700100  1.0  -0.1295
  C  C142  1  0.184600  0.130000  0.784400  1.0  -0.0621
  C  C143  1  0.077800  0.093100  0.780800  1.0  -0.065
  C  C144  1  0.346400  0.181800  0.705600  1.0  0.6622
  C  C145  1  0.583300  0.988900  0.821400  1.0  0.6572
  C  C146  1  0.538700  0.996200  0.913700  1.0  -0.1401
  C  C147  1  0.499400  0.909500  0.952600  1.0  -0.0602
  C  C148  1  0.460700  0.913300  0.038000  1.0  -0.0409
  N  N149  1  0.855600  0.616300  0.745100  1.0  -0.0068
  N  N150  1  0.772700  0.761100  0.715800  1.0  -0.2358
  N  N151  1  0.693600  0.691900  0.736700  1.0  -0.2887
  N  N152  1  0.313000  0.849100  0.550200  1.0  -0.0076
  N  N153  1  0.357000  0.937300  0.433400  1.0  -0.2544
  N  N154  1  0.352700  0.834400  0.406400  1.0  -0.2232
  N  N155  1  0.144900  0.712000  0.069400  1.0  -0.0193
  N  N156  1  0.298100  0.717300  0.171600  1.0  -0.2019
  N  N157  1  0.293300  0.624100  0.123100  1.0  -0.2917
  N  N158  1  0.144400  0.383700  0.254900  1.0  -0.0078
  N  N159  1  0.227300  0.238900  0.284200  1.0  -0.2387
  N  N160  1  0.306400  0.308100  0.263300  1.0  -0.2904
  N  N161  1  0.687000  0.150900  0.449800  1.0  -0.0074
  N  N162  1  0.643000  0.062700  0.566600  1.0  -0.2563
  N  N163  1  0.647300  0.165600  0.593600  1.0  -0.2229
  N  N164  1  0.855100  0.288000  0.930600  1.0  -0.018
  N  N165  1  0.701900  0.282700  0.828400  1.0  -0.2025
  N  N166  1  0.706700  0.375900  0.876900  1.0  -0.2901
  O  O167  1  0.229200  0.513800  0.847700  1.0  -0.2715
  O  O168  1  0.387200  0.697400  0.858700  1.0  -0.2678
  O  O169  1  0.759500  0.633800  0.980200  1.0  -0.2763
  O  O170  1  0.133600  0.035500  0.383600  1.0  -0.5972
  O  O171  1  0.147900  0.978600  0.241200  1.0  -0.6158
  O  O172  1  0.604800  0.839800  0.363700  1.0  -0.6179
  O  O173  1  0.603900  0.775800  0.221300  1.0  -0.5877
  O  O174  1  0.401000  0.098500  0.210200  1.0  -0.5829
  O  O175  1  0.391200  0.932500  0.218300  1.0  -0.6556
  O  O176  1  0.770800  0.486200  0.152300  1.0  -0.2711
  O  O177  1  0.612800  0.302600  0.141300  1.0  -0.2641
  O  O178  1  0.240500  0.366200  0.019800  1.0  -0.2757
  O  O179  1  0.866400  0.964500  0.616400  1.0  -0.5966
  O  O180  1  0.852100  0.021400  0.758800  1.0  -0.6142
  O  O181  1  0.395200  0.160200  0.636300  1.0  -0.6158
  O  O182  1  0.396100  0.224200  0.778700  1.0  -0.5879
  O  O183  1  0.599000  0.901500  0.789800  1.0  -0.5835
  O  O184  1  0.608800  0.067500  0.781700  1.0  -0.6587
