# generated using pymatgen
data_Ni2H22C36S(NO2)4
_symmetry_space_group_name_H-M   'P 1'
_cell_length_a   8.25300000
_cell_length_b   11.25900000
_cell_length_c   13.22140000
_cell_angle_alpha   107.21000000
_cell_angle_beta   108.18600000
_cell_angle_gamma   90.00000000
_symmetry_Int_Tables_number   1
_chemical_formula_structural   Ni2H22C36S(NO2)4
_chemical_formula_sum   'Ni2 H22 C36 S1 N4 O8'
_cell_volume   1109.12686908
_cell_formula_units_Z   1
loop_
 _symmetry_equiv_pos_site_id
 _symmetry_equiv_pos_as_xyz
  1  'x, y, z'
loop_
 _atom_site_type_symbol
 _atom_site_label
 _atom_site_symmetry_multiplicity
 _atom_site_fract_x
 _atom_site_fract_y
 _atom_site_fract_z
 _atom_site_occupancy
 _atom_site_charge
  Ni  Ni1  1  0.236030  0.929940  0.372440  1.0  0.7623
  Ni  Ni2  1  0.863590  0.070060  0.627560  1.0  0.8139
  H  H3  1  0.737600  0.208200  0.070600  1.0  0.1187
  H  H4  1  0.662800  0.293100  0.226000  1.0  0.0975
  H  H5  1  0.711900  0.198100  0.363800  1.0  0.0845
  H  H6  1  0.227400  0.193200  0.528800  1.0  0.0875
  H  H7  1  0.220300  0.394300  0.527200  1.0  0.1195
  H  H8  1  0.268800  0.282200  0.220800  1.0  0.1289
  H  H9  1  0.280700  0.082400  0.232200  1.0  0.0945
  H  H10  1  0.357500  0.687500  0.265400  1.0  0.0856
  H  H11  1  0.374600  0.482200  0.270400  1.0  0.1328
  H  H12  1  0.080100  0.549000  0.464400  1.0  0.1095
  H  H13  1  0.073400  0.750300  0.455400  1.0  0.0807
  H  H14  1  0.667000  0.791800  0.929400  1.0  0.1191
  H  H15  1  0.436800  0.706900  0.774000  1.0  0.098
  H  H16  1  0.348100  0.801900  0.636200  1.0  0.0856
  H  H17  1  0.698600  0.806800  0.471200  1.0  0.0877
  H  H18  1  0.693100  0.605700  0.472800  1.0  0.1191
  H  H19  1  0.048000  0.717800  0.779200  1.0  0.1276
  H  H20  1  0.048500  0.917600  0.767800  1.0  0.0936
  H  H21  1  0.092100  0.312500  0.734600  1.0  0.0856
  H  H22  1  0.104200  0.517800  0.729600  1.0  0.1314
  H  H23  1  0.615700  0.451000  0.535600  1.0  0.1099
  H  H24  1  0.618000  0.249700  0.544600  1.0  0.0811
  C  C25  1  0.835970  0.060400  0.296540  1.0  -0.1335
  C  C26  1  0.876330  0.001000  0.198260  1.0  -0.0847
  C  C27  1  0.842500  0.059900  0.114600  1.0  -0.0007
  C  C28  1  0.761000  0.169900  0.126400  1.0  -0.0628
  C  C29  1  0.716600  0.219900  0.218600  1.0  -0.1109
  C  C30  1  0.749300  0.164400  0.302800  1.0  -0.0405
  C  C31  1  0.883390  0.007800  0.393380  1.0  0.6772
  C  C32  1  0.948400  0.875000  0.176800  1.0  0.6809
  C  C33  1  0.236800  0.211800  0.466600  1.0  0.18
  C  C34  1  0.230200  0.332100  0.465600  1.0  -0.1832
  C  C35  1  0.238010  0.362500  0.372420  1.0  0.0879
  C  C36  1  0.259700  0.265900  0.284000  1.0  -0.1823
  C  C37  1  0.267500  0.146300  0.291600  1.0  0.1628
  C  C38  1  0.301900  0.660200  0.307000  1.0  0.1632
  C  C39  1  0.311000  0.535000  0.308000  1.0  -0.2009
  C  C40  1  0.221700  0.492700  0.367000  1.0  0.0999
  C  C41  1  0.137600  0.573900  0.422600  1.0  -0.1858
  C  C42  1  0.135600  0.695900  0.417800  1.0  0.1746
  C  C43  1  0.539430  0.939600  0.703460  1.0  -0.1347
  C  C44  1  0.678070  0.999000  0.801740  1.0  -0.0832
  C  C45  1  0.727900  0.940100  0.885400  1.0  -0.0029
  C  C46  1  0.634600  0.830100  0.873600  1.0  -0.0624
  C  C47  1  0.498000  0.780100  0.781400  1.0  -0.1106
  C  C48  1  0.446500  0.835600  0.697200  1.0  -0.0377
  C  C49  1  0.490010  0.992200  0.606620  1.0  0.6763
  C  C50  1  0.771600  0.125000  0.823200  1.0  0.6718
  C  C51  1  0.770200  0.788200  0.533400  1.0  0.1817
  C  C52  1  0.764600  0.667900  0.534400  1.0  -0.1797
  C  C53  1  0.865590  0.637500  0.627580  1.0  0.0868
  C  C54  1  0.975700  0.734100  0.716000  1.0  -0.1848
  C  C55  1  0.975900  0.853700  0.708400  1.0  0.1659
  C  C56  1  0.994900  0.339800  0.693000  1.0  0.1633
  C  C57  1  0.003000  0.465000  0.692000  1.0  -0.203
  C  C58  1  0.854700  0.507300  0.633000  1.0  0.0994
  C  C59  1  0.715000  0.426100  0.577400  1.0  -0.1839
  C  C60  1  0.717800  0.304100  0.582200  1.0  0.1742
  S  S61  1  0.919900  0.000000  0.000000  1.0  -0.0724
  N  N62  1  0.256620  0.118600  0.381440  1.0  -0.3255
  N  N63  1  0.220280  0.738400  0.361160  1.0  -0.2758
  N  N64  1  0.875180  0.881400  0.618560  1.0  -0.3301
  N  N65  1  0.859120  0.261600  0.638840  1.0  -0.2869
  O  O66  1  0.007790  0.946400  0.408380  1.0  -0.5767
  O  O67  1  0.798070  0.037700  0.457540  1.0  -0.5783
  O  O68  1  0.106590  0.871500  0.201780  1.0  -0.6076
  O  O69  1  0.838970  0.782700  0.131340  1.0  -0.5533
  O  O70  1  0.599410  0.053600  0.591620  1.0  -0.5759
  O  O71  1  0.340530  0.962300  0.542460  1.0  -0.5762
  O  O72  1  0.904810  0.128500  0.798220  1.0  -0.617
  O  O73  1  0.707630  0.217300  0.868660  1.0  -0.5565
