# generated using pymatgen
data_ErH6(C2O)6
_symmetry_space_group_name_H-M   'P 1'
_cell_length_a   8.51390000
_cell_length_b   10.21650000
_cell_length_c   11.07210000
_cell_angle_alpha   64.20800000
_cell_angle_beta   71.56300000
_cell_angle_gamma   80.75200000
_symmetry_Int_Tables_number   1
_chemical_formula_structural   ErH6(C2O)6
_chemical_formula_sum   'Er2 H12 C24 O12'
_cell_volume   822.32497861
_cell_formula_units_Z   2
loop_
 _symmetry_equiv_pos_site_id
 _symmetry_equiv_pos_as_xyz
  1  'x, y, z'
loop_
 _atom_site_type_symbol
 _atom_site_label
 _atom_site_symmetry_multiplicity
 _atom_site_fract_x
 _atom_site_fract_y
 _atom_site_fract_z
 _atom_site_occupancy
 _atom_site_charge
  Er  Er1  1  0.866520  0.063770  0.837690  1.0  1.4916
  Er  Er2  1  0.133480  0.936230  0.162310  1.0  1.4911
  H  H3  1  0.994200  0.473600  0.219600  1.0  0.1126
  H  H4  1  0.052600  0.724100  0.812100  1.0  0.1077
  H  H5  1  0.462800  0.148400  0.616000  1.0  0.0869
  H  H6  1  0.276800  0.885000  0.514600  1.0  0.1053
  H  H7  1  0.776700  0.453000  0.416000  1.0  0.1053
  H  H8  1  0.361400  0.367600  0.731200  1.0  0.1153
  H  H9  1  0.005800  0.526400  0.780400  1.0  0.1126
  H  H10  1  0.947400  0.275900  0.187900  1.0  0.1076
  H  H11  1  0.537200  0.851600  0.384000  1.0  0.0873
  H  H12  1  0.723200  0.115000  0.485400  1.0  0.105
  H  H13  1  0.223300  0.547000  0.584000  1.0  0.1052
  H  H14  1  0.638600  0.632400  0.268800  1.0  0.115
  C  C15  1  0.056000  0.746400  0.042700  1.0  0.7161
  C  C16  1  0.027700  0.619200  0.019400  1.0  -0.105
  C  C17  1  0.996400  0.484300  0.131200  1.0  -0.0484
  C  C18  1  0.031400  0.634200  0.887600  1.0  -0.0597
  C  C19  1  0.173700  0.046600  0.661300  1.0  0.6403
  C  C20  1  0.342700  0.021200  0.577800  1.0  -0.1034
  C  C21  1  0.478100  0.088900  0.569000  1.0  -0.0312
  C  C22  1  0.366300  0.931300  0.508500  1.0  -0.0469
  C  C23  1  0.677300  0.272400  0.678700  1.0  0.6573
  C  C24  1  0.584800  0.391800  0.587300  1.0  -0.1137
  C  C25  1  0.664700  0.471800  0.450100  1.0  -0.016
  C  C26  1  0.417400  0.420400  0.638400  1.0  -0.0647
  C  C27  1  0.944000  0.253600  0.957300  1.0  0.7171
  C  C28  1  0.972300  0.380800  0.980600  1.0  -0.1042
  C  C29  1  0.003600  0.515700  0.868800  1.0  -0.0482
  C  C30  1  0.968600  0.365800  0.112400  1.0  -0.0565
  C  C31  1  0.826300  0.953400  0.338700  1.0  0.6395
  C  C32  1  0.657300  0.978800  0.422200  1.0  -0.1034
  C  C33  1  0.521900  0.911100  0.431000  1.0  -0.0334
  C  C34  1  0.633700  0.068700  0.491500  1.0  -0.0462
  C  C35  1  0.322700  0.727600  0.321300  1.0  0.6566
  C  C36  1  0.415200  0.608200  0.412700  1.0  -0.114
  C  C37  1  0.335300  0.528200  0.549900  1.0  -0.0169
  C  C38  1  0.582600  0.579600  0.361600  1.0  -0.0615
  O  O39  1  0.015800  0.872700  0.967000  1.0  -0.6925
  O  O40  1  0.121600  0.723400  0.136500  1.0  -0.5899
  O  O41  1  0.051400  0.989300  0.663500  1.0  -0.5645
  O  O42  1  0.154900  0.122600  0.730100  1.0  -0.5479
  O  O43  1  0.826600  0.246100  0.627000  1.0  -0.5552
  O  O44  1  0.605000  0.196500  0.806000  1.0  -0.6021
  O  O45  1  0.984200  0.127300  0.033000  1.0  -0.6909
  O  O46  1  0.878400  0.276600  0.863500  1.0  -0.5897
  O  O47  1  0.948600  0.010700  0.336500  1.0  -0.5674
  O  O48  1  0.845100  0.877400  0.269900  1.0  -0.5468
  O  O49  1  0.173400  0.753900  0.373000  1.0  -0.5552
  O  O50  1  0.395000  0.803500  0.194000  1.0  -0.6
