# generated using pymatgen
data_ErH6(C2O)6
_symmetry_space_group_name_H-M   'P 1'
_cell_length_a   8.51390000
_cell_length_b   10.21650000
_cell_length_c   11.07210000
_cell_angle_alpha   64.20800000
_cell_angle_beta   71.56300000
_cell_angle_gamma   80.75200000
_symmetry_Int_Tables_number   1
_chemical_formula_structural   ErH6(C2O)6
_chemical_formula_sum   'Er2 H12 C24 O12'
_cell_volume   822.32497861
_cell_formula_units_Z   2
loop_
 _symmetry_equiv_pos_site_id
 _symmetry_equiv_pos_as_xyz
  1  'x, y, z'
loop_
 _atom_site_type_symbol
 _atom_site_label
 _atom_site_symmetry_multiplicity
 _atom_site_fract_x
 _atom_site_fract_y
 _atom_site_fract_z
 _atom_site_occupancy
 _atom_site_charge
  Er  Er1  1  0.866510  0.063790  0.837680  1.0  1.4959
  Er  Er2  1  0.133490  0.936210  0.162310  1.0  1.4955
  H  H3  1  0.994000  0.473500  0.221500  1.0  0.1156
  H  H4  1  0.051600  0.726400  0.810400  1.0  0.1129
  H  H5  1  0.461700  0.149600  0.617400  1.0  0.0928
  H  H6  1  0.274100  0.884300  0.514900  1.0  0.1104
  H  H7  1  0.779100  0.452000  0.415200  1.0  0.1071
  H  H8  1  0.360700  0.365800  0.733500  1.0  0.1128
  H  H9  1  0.006000  0.526500  0.778500  1.0  0.1155
  H  H10  1  0.948400  0.273600  0.189600  1.0  0.113
  H  H11  1  0.538300  0.850400  0.382600  1.0  0.0932
  H  H12  1  0.725900  0.115700  0.485100  1.0  0.1102
  H  H13  1  0.220900  0.548000  0.584800  1.0  0.1064
  H  H14  1  0.639300  0.634200  0.266500  1.0  0.1125
  C  C15  1  0.056000  0.746400  0.042800  1.0  0.7131
  C  C16  1  0.027600  0.619200  0.019500  1.0  -0.0951
  C  C17  1  0.996500  0.484300  0.131200  1.0  -0.0575
  C  C18  1  0.030700  0.634400  0.887500  1.0  -0.0647
  C  C19  1  0.173600  0.046500  0.661400  1.0  0.6401
  C  C20  1  0.342700  0.021100  0.577800  1.0  -0.102
  C  C21  1  0.477600  0.088900  0.569300  1.0  -0.0359
  C  C22  1  0.365600  0.931400  0.508700  1.0  -0.0378
  C  C23  1  0.677300  0.272500  0.678700  1.0  0.6553
  C  C24  1  0.584500  0.391900  0.587300  1.0  -0.1012
  C  C25  1  0.664800  0.471500  0.450100  1.0  -0.0298
  C  C26  1  0.417800  0.420100  0.638700  1.0  -0.0758
  C  C27  1  0.944000  0.253600  0.957200  1.0  0.7145
  C  C28  1  0.972400  0.380800  0.980500  1.0  -0.0944
  C  C29  1  0.003500  0.515700  0.868800  1.0  -0.0589
  C  C30  1  0.969300  0.365600  0.112500  1.0  -0.0633
  C  C31  1  0.826400  0.953500  0.338600  1.0  0.6389
  C  C32  1  0.657300  0.978900  0.422200  1.0  -0.101
  C  C33  1  0.522400  0.911100  0.430700  1.0  -0.0372
  C  C34  1  0.634400  0.068600  0.491300  1.0  -0.0383
  C  C35  1  0.322700  0.727500  0.321300  1.0  0.6542
  C  C36  1  0.415500  0.608100  0.412700  1.0  -0.1002
  C  C37  1  0.335200  0.528500  0.549900  1.0  -0.0292
  C  C38  1  0.582200  0.579900  0.361300  1.0  -0.0738
  O  O39  1  0.015900  0.872800  0.967000  1.0  -0.6934
  O  O40  1  0.121800  0.723500  0.136500  1.0  -0.5867
  O  O41  1  0.051500  0.989200  0.663400  1.0  -0.5662
  O  O42  1  0.155000  0.122400  0.730200  1.0  -0.5489
  O  O43  1  0.826600  0.246200  0.626800  1.0  -0.5627
  O  O44  1  0.605000  0.196500  0.805900  1.0  -0.6003
  O  O45  1  0.984100  0.127200  0.033000  1.0  -0.6913
  O  O46  1  0.878200  0.276500  0.863500  1.0  -0.5864
  O  O47  1  0.948500  0.010800  0.336600  1.0  -0.5698
  O  O48  1  0.845000  0.877600  0.269800  1.0  -0.5475
  O  O49  1  0.173400  0.753800  0.373200  1.0  -0.5621
  O  O50  1  0.395000  0.803500  0.194100  1.0  -0.5985
