# generated using pymatgen
data_ErC12(OF)6
_symmetry_space_group_name_H-M   'P 1'
_cell_length_a   11.67100000
_cell_length_b   11.89160000
_cell_length_c   14.30500000
_cell_angle_alpha   110.63300000
_cell_angle_beta   99.92000000
_cell_angle_gamma   101.35100000
_symmetry_Int_Tables_number   1
_chemical_formula_structural   ErC12(OF)6
_chemical_formula_sum   'Er4 C48 O24 F24'
_cell_volume   1757.35778667
_cell_formula_units_Z   4
loop_
 _symmetry_equiv_pos_site_id
 _symmetry_equiv_pos_as_xyz
  1  'x, y, z'
loop_
 _atom_site_type_symbol
 _atom_site_label
 _atom_site_symmetry_multiplicity
 _atom_site_fract_x
 _atom_site_fract_y
 _atom_site_fract_z
 _atom_site_occupancy
 _atom_site_charge
  Er  Er1  1  0.901520  0.027800  0.895310  1.0  1.5342
  Er  Er2  1  0.584300  0.918400  0.569250  1.0  1.5347
  Er  Er3  1  0.098480  0.972200  0.104690  1.0  1.535
  Er  Er4  1  0.415700  0.081600  0.430750  1.0  1.5385
  C  C5  1  0.894900  0.750200  0.901500  1.0  0.7383
  C  C6  1  0.829800  0.612100  0.845300  1.0  -0.2132
  C  C7  1  0.710700  0.566700  0.842900  1.0  0.2254
  C  C8  1  0.646800  0.443000  0.786500  1.0  0.2201
  C  C9  1  0.701800  0.358500  0.729800  1.0  -0.2267
  C  C10  1  0.821800  0.403600  0.733800  1.0  0.2225
  C  C11  1  0.884800  0.528500  0.790100  1.0  0.2183
  C  C12  1  0.628100  0.228200  0.656900  1.0  0.7098
  C  C13  1  0.143800  0.032700  0.891100  1.0  0.7187
  C  C14  1  0.266100  0.020100  0.879700  1.0  -0.235
  C  C15  1  0.299000  0.911700  0.869500  1.0  0.225
  C  C16  1  0.411500  0.900200  0.855500  1.0  0.2197
  C  C17  1  0.494400  0.995800  0.850100  1.0  -0.2153
  C  C18  1  0.462200  0.103900  0.860100  1.0  0.2004
  C  C19  1  0.350900  0.116100  0.874600  1.0  0.2287
  C  C20  1  0.614400  0.983200  0.827900  1.0  0.7552
  C  C21  1  0.868800  0.934200  0.641000  1.0  0.7519
  C  C22  1  0.985900  0.926900  0.612500  1.0  -0.2165
  C  C23  1  0.017000  0.816400  0.582800  1.0  0.2132
  C  C24  1  0.130500  0.810700  0.570500  1.0  0.2185
  C  C25  1  0.220300  0.918200  0.587200  1.0  -0.2408
  C  C26  1  0.187700  0.029600  0.616000  1.0  0.2377
  C  C27  1  0.073500  0.033200  0.626200  1.0  0.2184
  C  C28  1  0.343300  0.912500  0.577000  1.0  0.7069
  C  C29  1  0.105100  0.249800  0.098500  1.0  0.7374
  C  C30  1  0.170200  0.387900  0.154700  1.0  -0.2136
  C  C31  1  0.289300  0.433300  0.157100  1.0  0.2248
  C  C32  1  0.353200  0.557000  0.213500  1.0  0.2187
  C  C33  1  0.298200  0.641500  0.270200  1.0  -0.2268
  C  C34  1  0.178200  0.596400  0.266200  1.0  0.223
  C  C35  1  0.115200  0.471500  0.209900  1.0  0.2185
  C  C36  1  0.371900  0.771800  0.343100  1.0  0.7103
  C  C37  1  0.856200  0.967300  0.108900  1.0  0.7206
  C  C38  1  0.733900  0.979900  0.120300  1.0  -0.2348
  C  C39  1  0.701000  0.088300  0.130500  1.0  0.2246
  C  C40  1  0.588500  0.099800  0.144500  1.0  0.2194
  C  C41  1  0.505600  0.004200  0.149900  1.0  -0.2158
  C  C42  1  0.537800  0.896100  0.139900  1.0  0.2008
  C  C43  1  0.649100  0.883900  0.125400  1.0  0.2285
  C  C44  1  0.385600  0.016800  0.172100  1.0  0.7558
  C  C45  1  0.131200  0.065800  0.359000  1.0  0.7495
  C  C46  1  0.014100  0.073100  0.387500  1.0  -0.2154
  C  C47  1  0.983000  0.183600  0.417200  1.0  0.2145
  C  C48  1  0.869500  0.189300  0.429500  1.0  0.2228
  C  C49  1  0.779700  0.081800  0.412800  1.0  -0.2402
  C  C50  1  0.812300  0.970400  0.384000  1.0  0.2377
  C  C51  1  0.926500  0.966800  0.373800  1.0  0.2174
  C  C52  1  0.656700  0.087500  0.423000  1.0  0.7054
  O  O53  1  0.849100  0.818700  0.866500  1.0  -0.5744
  O  O54  1  0.984100  0.782300  0.977100  1.0  -0.6359
  O  O55  1  0.665400  0.138600  0.667000  1.0  -0.5975
  O  O56  1  0.538800  0.222200  0.590900  1.0  -0.6185
  O  O57  1  0.091800  0.088700  0.846800  1.0  -0.5858
  O  O58  1  0.091700  0.981500  0.943200  1.0  -0.7034
  O  O59  1  0.702000  0.006500  0.902900  1.0  -0.6153
  O  O60  1  0.618200  0.953600  0.736900  1.0  -0.6432
  O  O61  1  0.862300  0.919700  0.721800  1.0  -0.6498
  O  O62  1  0.788300  0.950900  0.581000  1.0  -0.6214
  O  O63  1  0.406200  0.992700  0.551400  1.0  -0.7144
  O  O64  1  0.387500  0.833500  0.595800  1.0  -0.5679
  O  O65  1  0.150900  0.181300  0.133500  1.0  -0.5749
  O  O66  1  0.015900  0.217700  0.022900  1.0  -0.6355
  O  O67  1  0.334600  0.861400  0.333000  1.0  -0.598
  O  O68  1  0.461200  0.777800  0.409100  1.0  -0.6176
  O  O69  1  0.908200  0.911300  0.153200  1.0  -0.5845
  O  O70  1  0.908300  0.018500  0.056800  1.0  -0.704
  O  O71  1  0.298000  0.993500  0.097100  1.0  -0.6135
  O  O72  1  0.381800  0.046400  0.263100  1.0  -0.6436
  O  O73  1  0.137700  0.080300  0.278200  1.0  -0.6489
  O  O74  1  0.211700  0.049100  0.419000  1.0  -0.6226
  O  O75  1  0.593800  0.007300  0.448600  1.0  -0.715
  O  O76  1  0.612500  0.166500  0.404200  1.0  -0.5683
  F  F77  1  0.653000  0.643800  0.895400  1.0  -0.113
  F  F78  1  0.530400  0.404800  0.785200  1.0  -0.1028
  F  F79  1  0.876900  0.327600  0.677500  1.0  -0.1049
  F  F80  1  0.998500  0.568500  0.786000  1.0  -0.104
  F  F81  1  0.221100  0.813100  0.869100  1.0  -0.0977
  F  F82  1  0.438400  0.793000  0.845000  1.0  -0.1063
  F  F83  1  0.540200  0.199300  0.854700  1.0  -0.1012
  F  F84  1  0.326900  0.224000  0.884800  1.0  -0.0939
  F  F85  1  0.935200  0.710400  0.566600  1.0  -0.1085
  F  F86  1  0.152700  0.699600  0.540500  1.0  -0.0948
  F  F87  1  0.270100  0.137800  0.639700  1.0  -0.0996
  F  F88  1  0.047800  0.143100  0.655100  1.0  -0.0988
  F  F89  1  0.347000  0.356200  0.104600  1.0  -0.1116
  F  F90  1  0.469600  0.595200  0.214800  1.0  -0.1027
  F  F91  1  0.123100  0.672400  0.322500  1.0  -0.1048
  F  F92  1  0.001500  0.431500  0.214000  1.0  -0.105
  F  F93  1  0.778900  0.186900  0.130900  1.0  -0.0973
  F  F94  1  0.561600  0.207000  0.155000  1.0  -0.1055
  F  F95  1  0.459800  0.800700  0.145300  1.0  -0.1008
  F  F96  1  0.673100  0.776000  0.115200  1.0  -0.0941
  F  F97  1  0.064800  0.289600  0.433400  1.0  -0.1132
  F  F98  1  0.847300  0.300400  0.459500  1.0  -0.0951
  F  F99  1  0.729900  0.862200  0.360300  1.0  -0.0981
  F  F100  1  0.952200  0.856900  0.344900  1.0  -0.0987
