# generated using pymatgen
data_ErH6(C2O)6
_symmetry_space_group_name_H-M   'P 1'
_cell_length_a   8.52470000
_cell_length_b   10.20040000
_cell_length_c   10.88980000
_cell_angle_alpha   63.72200000
_cell_angle_beta   71.28100000
_cell_angle_gamma   81.14800000
_symmetry_Int_Tables_number   1
_chemical_formula_structural   ErH6(C2O)6
_chemical_formula_sum   'Er2 H12 C24 O12'
_cell_volume   804.07768457
_cell_formula_units_Z   2
loop_
 _symmetry_equiv_pos_site_id
 _symmetry_equiv_pos_as_xyz
  1  'x, y, z'
loop_
 _atom_site_type_symbol
 _atom_site_label
 _atom_site_symmetry_multiplicity
 _atom_site_fract_x
 _atom_site_fract_y
 _atom_site_fract_z
 _atom_site_occupancy
 _atom_site_charge
  Er  Er1  1  0.133620  0.936260  0.660370  1.0  1.5025
  Er  Er2  1  0.866380  0.063740  0.339630  1.0  1.5001
  H  H3  1  0.721000  0.114000  0.984000  1.0  0.1253
  H  H4  1  0.538000  0.842000  0.899000  1.0  0.0907
  H  H5  1  0.213000  0.545000  0.090000  1.0  0.1135
  H  H6  1  0.626000  0.630000  0.761000  1.0  0.1076
  H  H7  1  0.985000  0.535800  0.269300  1.0  0.1307
  H  H8  1  0.949000  0.263400  0.696400  1.0  0.1118
  H  H9  1  0.279000  0.886000  0.016000  1.0  0.126
  H  H10  1  0.462000  0.158000  0.101000  1.0  0.0904
  H  H11  1  0.787000  0.455000  0.910000  1.0  0.1148
  H  H12  1  0.374000  0.370000  0.239000  1.0  0.1073
  H  H13  1  0.015000  0.464200  0.730700  1.0  0.1315
  H  H14  1  0.051000  0.736600  0.303600  1.0  0.1128
  C  C15  1  0.827420  0.951460  0.840850  1.0  0.6545
  C  C16  1  0.657710  0.977380  0.923000  1.0  -0.1048
  C  C17  1  0.634600  0.071960  0.988190  1.0  -0.0569
  C  C18  1  0.523890  0.906630  0.934120  1.0  -0.0287
  C  C19  1  0.321830  0.729800  0.821430  1.0  0.6629
  C  C20  1  0.414830  0.609320  0.911950  1.0  -0.1157
  C  C21  1  0.334440  0.527710  0.055680  1.0  -0.0685
  C  C22  1  0.580530  0.580790  0.856810  1.0  -0.0347
  C  C23  1  0.942740  0.255310  0.455150  1.0  0.7217
  C  C24  1  0.971280  0.381540  0.479570  1.0  -0.0734
  C  C25  1  0.996350  0.520180  0.366150  1.0  -0.0735
  C  C26  1  0.973970  0.361760  0.613620  1.0  -0.075
  C  C27  1  0.172580  0.048540  0.159150  1.0  0.6543
  C  C28  1  0.342290  0.022620  0.077000  1.0  -0.1064
  C  C29  1  0.365400  0.928040  0.011810  1.0  -0.0582
  C  C30  1  0.476110  0.093370  0.065880  1.0  -0.0287
  C  C31  1  0.678170  0.270200  0.178570  1.0  0.6609
  C  C32  1  0.585170  0.390680  0.088050  1.0  -0.1144
  C  C33  1  0.665560  0.472290  0.944320  1.0  -0.0687
  C  C34  1  0.419470  0.419210  0.143190  1.0  -0.0343
  C  C35  1  0.057260  0.744690  0.544850  1.0  0.7209
  C  C36  1  0.028720  0.618460  0.520430  1.0  -0.0741
  C  C37  1  0.003650  0.479820  0.633850  1.0  -0.0735
  C  C38  1  0.026030  0.638240  0.386380  1.0  -0.0735
  O  O39  1  0.949090  0.009360  0.837720  1.0  -0.574
  O  O40  1  0.846750  0.872680  0.773190  1.0  -0.5403
  O  O41  1  0.172280  0.753920  0.876730  1.0  -0.5607
  O  O42  1  0.393720  0.806880  0.690930  1.0  -0.6132
  O  O43  1  0.983450  0.127160  0.528690  1.0  -0.7087
  O  O44  1  0.874730  0.281800  0.359990  1.0  -0.5872
  O  O45  1  0.050910  0.990640  0.162280  1.0  -0.5749
  O  O46  1  0.153250  0.127320  0.226810  1.0  -0.5437
  O  O47  1  0.827720  0.246080  0.123270  1.0  -0.5613
  O  O48  1  0.606280  0.193120  0.309070  1.0  -0.6158
  O  O49  1  0.016550  0.872840  0.471310  1.0  -0.7091
  O  O50  1  0.125270  0.718200  0.640010  1.0  -0.5883
