# generated using pymatgen
data_Zn3H30C46(NO2)6
_symmetry_space_group_name_H-M   'P 1'
_cell_length_a   11.25300000
_cell_length_b   25.16100000
_cell_length_c   18.17200000
_cell_angle_alpha   90.00000000
_cell_angle_beta   90.00000000
_cell_angle_gamma   90.00000000
_symmetry_Int_Tables_number   1
_chemical_formula_structural   Zn3H30C46(NO2)6
_chemical_formula_sum   'Zn12 H120 C184 N24 O48'
_cell_volume   5145.16071208
_cell_formula_units_Z   4
loop_
 _symmetry_equiv_pos_site_id
 _symmetry_equiv_pos_as_xyz
  1  'x, y, z'
loop_
 _atom_site_type_symbol
 _atom_site_label
 _atom_site_symmetry_multiplicity
 _atom_site_fract_x
 _atom_site_fract_y
 _atom_site_fract_z
 _atom_site_occupancy
 _atom_site_charge
  Zn  Zn1  1  0.620270  0.025370  0.926410  1.0  1.0204
  Zn  Zn2  1  0.379730  0.474630  0.926410  1.0  1.0212
  Zn  Zn3  1  0.620270  0.974630  0.573590  1.0  1.0206
  Zn  Zn4  1  0.379730  0.525370  0.573590  1.0  1.0207
  Zn  Zn5  1  0.379730  0.974630  0.073590  1.0  1.0214
  Zn  Zn6  1  0.620270  0.525370  0.073590  1.0  1.0199
  Zn  Zn7  1  0.379730  0.025370  0.426410  1.0  1.0209
  Zn  Zn8  1  0.620270  0.474630  0.426410  1.0  1.0206
  Zn  Zn9  1  0.000000  0.750000  0.709850  1.0  0.9939
  Zn  Zn10  1  0.000000  0.250000  0.790150  1.0  0.9939
  Zn  Zn11  1  0.000000  0.250000  0.290150  1.0  0.9939
  Zn  Zn12  1  0.000000  0.750000  0.209850  1.0  0.9939
  H  H13  1  0.510100  0.948700  0.792800  1.0  0.0942
  H  H14  1  0.295100  0.848000  0.687100  1.0  0.1014
  H  H15  1  0.274800  0.860800  0.906000  1.0  0.1046
  H  H16  1  0.735500  0.921900  0.985100  1.0  0.1359
  H  H17  1  0.873100  0.857000  0.017100  1.0  0.1098
  H  H18  1  0.072700  0.867500  0.988900  1.0  0.1012
  H  H19  1  0.140600  0.941100  0.928000  1.0  0.1124
  H  H20  1  0.952600  0.140200  0.869400  1.0  0.0732
  H  H21  1  0.734500  0.049200  0.750200  1.0  0.1096
  H  H22  1  0.709200  0.119800  0.671100  1.0  0.1224
  H  H23  1  0.810300  0.197500  0.691400  1.0  0.0839
  H  H24  1  0.163500  0.024300  0.865500  1.0  0.1009
  H  H25  1  0.101500  0.078800  0.849000  1.0  0.0811
  H  H26  1  0.035600  0.045800  0.734700  1.0  0.0666
  H  H27  1  0.174600  0.045100  0.739200  1.0  0.087
  H  H28  1  0.489900  0.551300  0.792800  1.0  0.0946
  H  H29  1  0.704900  0.652000  0.687100  1.0  0.1011
  H  H30  1  0.725200  0.639200  0.906000  1.0  0.1049
  H  H31  1  0.264500  0.578100  0.985100  1.0  0.1368
  H  H32  1  0.126900  0.643000  0.017100  1.0  0.1099
  H  H33  1  0.927300  0.632500  0.988900  1.0  0.1016
  H  H34  1  0.859400  0.558900  0.928000  1.0  0.1115
  H  H35  1  0.047400  0.359800  0.869400  1.0  0.074
  H  H36  1  0.265500  0.450800  0.750200  1.0  0.1101
  H  H37  1  0.290800  0.380200  0.671100  1.0  0.1225
  H  H38  1  0.189700  0.302500  0.691400  1.0  0.0837
  H  H39  1  0.836500  0.475700  0.865500  1.0  0.1002
  H  H40  1  0.898500  0.421200  0.849000  1.0  0.083
  H  H41  1  0.964400  0.454200  0.734700  1.0  0.0655
  H  H42  1  0.825400  0.454900  0.739200  1.0  0.0862
  H  H43  1  0.510100  0.051300  0.707200  1.0  0.0947
  H  H44  1  0.295100  0.152000  0.812900  1.0  0.1011
  H  H45  1  0.274800  0.139200  0.594000  1.0  0.1044
  H  H46  1  0.735500  0.078100  0.514900  1.0  0.1356
  H  H47  1  0.873100  0.143000  0.482900  1.0  0.1105
  H  H48  1  0.072700  0.132500  0.511100  1.0  0.1015
  H  H49  1  0.140600  0.058900  0.572000  1.0  0.1119
  H  H50  1  0.952600  0.859800  0.630600  1.0  0.074
  H  H51  1  0.734500  0.950800  0.749800  1.0  0.1102
  H  H52  1  0.709200  0.880200  0.828900  1.0  0.1227
  H  H53  1  0.810300  0.802500  0.808600  1.0  0.084
  H  H54  1  0.163500  0.975700  0.634500  1.0  0.1004
  H  H55  1  0.101500  0.921200  0.651000  1.0  0.0821
  H  H56  1  0.035600  0.954200  0.765300  1.0  0.0662
  H  H57  1  0.174600  0.954900  0.760800  1.0  0.0863
  H  H58  1  0.489900  0.448700  0.707200  1.0  0.0945
  H  H59  1  0.704900  0.348000  0.812900  1.0  0.1015
  H  H60  1  0.725200  0.360800  0.594000  1.0  0.1043
  H  H61  1  0.264500  0.421900  0.514900  1.0  0.1369
  H  H62  1  0.126900  0.357000  0.482900  1.0  0.1097
  H  H63  1  0.927300  0.367500  0.511100  1.0  0.1005
  H  H64  1  0.859400  0.441100  0.572000  1.0  0.1116
  H  H65  1  0.047400  0.640200  0.630600  1.0  0.075
  H  H66  1  0.265500  0.549200  0.749800  1.0  0.1098
  H  H67  1  0.290800  0.619800  0.828900  1.0  0.123
  H  H68  1  0.189700  0.697500  0.808600  1.0  0.0834
  H  H69  1  0.836500  0.524300  0.634500  1.0  0.1
  H  H70  1  0.898500  0.578800  0.651000  1.0  0.0831
  H  H71  1  0.964400  0.545800  0.765300  1.0  0.0656
  H  H72  1  0.825400  0.545100  0.760800  1.0  0.0866
  H  H73  1  0.489900  0.051300  0.207200  1.0  0.0947
  H  H74  1  0.704900  0.152000  0.312900  1.0  0.1011
  H  H75  1  0.725200  0.139200  0.094000  1.0  0.1045
  H  H76  1  0.264500  0.078100  0.014900  1.0  0.1369
  H  H77  1  0.126900  0.143000  0.982900  1.0  0.1104
  H  H78  1  0.927300  0.132500  0.011100  1.0  0.1014
  H  H79  1  0.859400  0.058900  0.072000  1.0  0.1116
  H  H80  1  0.047400  0.859800  0.130600  1.0  0.0744
  H  H81  1  0.265500  0.950800  0.249800  1.0  0.1101
  H  H82  1  0.290800  0.880200  0.328900  1.0  0.1227
  H  H83  1  0.189700  0.802500  0.308600  1.0  0.0837
  H  H84  1  0.836500  0.975700  0.134500  1.0  0.1006
  H  H85  1  0.898500  0.921200  0.151000  1.0  0.0821
  H  H86  1  0.964400  0.954200  0.265300  1.0  0.0658
  H  H87  1  0.825400  0.954900  0.260800  1.0  0.0863
  H  H88  1  0.510100  0.448700  0.207200  1.0  0.0941
  H  H89  1  0.295100  0.348000  0.312900  1.0  0.101
  H  H90  1  0.274800  0.360800  0.094000  1.0  0.1041
  H  H91  1  0.735500  0.421900  0.014900  1.0  0.1359
  H  H92  1  0.873100  0.357000  0.982900  1.0  0.1095
  H  H93  1  0.072700  0.367500  0.011100  1.0  0.1009
  H  H94  1  0.140600  0.441100  0.072000  1.0  0.1122
  H  H95  1  0.952600  0.640200  0.130600  1.0  0.0745
  H  H96  1  0.734500  0.549200  0.249800  1.0  0.1097
  H  H97  1  0.709200  0.619800  0.328900  1.0  0.123
  H  H98  1  0.810300  0.697500  0.308600  1.0  0.0835
  H  H99  1  0.163500  0.524300  0.134500  1.0  0.1011
  H  H100  1  0.101500  0.578800  0.151000  1.0  0.0817
  H  H101  1  0.035600  0.545800  0.265300  1.0  0.0659
  H  H102  1  0.174600  0.545100  0.260800  1.0  0.0866
  H  H103  1  0.489900  0.948700  0.292800  1.0  0.0946
  H  H104  1  0.704900  0.848000  0.187100  1.0  0.1014
  H  H105  1  0.725200  0.860800  0.406000  1.0  0.1054
  H  H106  1  0.264500  0.921900  0.485100  1.0  0.1369
  H  H107  1  0.126900  0.857000  0.517100  1.0  0.1097
  H  H108  1  0.927300  0.867500  0.488900  1.0  0.1009
  H  H109  1  0.859400  0.941100  0.428000  1.0  0.1115
  H  H110  1  0.047400  0.140200  0.369400  1.0  0.0739
  H  H111  1  0.265500  0.049200  0.250200  1.0  0.1099
  H  H112  1  0.290800  0.119800  0.171100  1.0  0.1226
  H  H113  1  0.189700  0.197500  0.191400  1.0  0.0835
  H  H114  1  0.836500  0.024300  0.365500  1.0  0.0997
  H  H115  1  0.898500  0.078800  0.349000  1.0  0.0826
  H  H116  1  0.964400  0.045800  0.234700  1.0  0.0658
  H  H117  1  0.825400  0.045100  0.239200  1.0  0.0874
  H  H118  1  0.510100  0.551300  0.292800  1.0  0.0946
  H  H119  1  0.295100  0.652000  0.187100  1.0  0.1014
  H  H120  1  0.274800  0.639200  0.406000  1.0  0.1043
  H  H121  1  0.735500  0.578100  0.485100  1.0  0.1355
  H  H122  1  0.873100  0.643000  0.517100  1.0  0.1095
  H  H123  1  0.072700  0.632500  0.488900  1.0  0.1014
  H  H124  1  0.140600  0.558900  0.428000  1.0  0.1119
  H  H125  1  0.952600  0.359800  0.369400  1.0  0.074
  H  H126  1  0.734500  0.450800  0.250200  1.0  0.1102
  H  H127  1  0.709200  0.380200  0.171100  1.0  0.1223
  H  H128  1  0.810300  0.302500  0.191400  1.0  0.0837
  H  H129  1  0.163500  0.475700  0.365500  1.0  0.1003
  H  H130  1  0.101500  0.421200  0.349000  1.0  0.0829
  H  H131  1  0.035600  0.454200  0.234700  1.0  0.0659
  H  H132  1  0.174600  0.454900  0.239200  1.0  0.086
  C  C133  1  0.436400  0.936400  0.929200  1.0  0.7298
  C  C134  1  0.397700  0.908900  0.860700  1.0  -0.1796
  C  C135  1  0.449400  0.923600  0.793700  1.0  -0.0032
  C  C136  1  0.410600  0.901100  0.729400  1.0  -0.1553
  C  C137  1  0.321400  0.863100  0.730900  1.0  -0.0005
  C  C138  1  0.271200  0.847300  0.796900  1.0  -0.1662
  C  C139  1  0.309100  0.870700  0.861500  1.0  0.0066
  C  C140  1  0.172700  0.806700  0.796300  1.0  0.678
  C  C141  1  0.463800  0.918000  0.657700  1.0  0.686
  C  C142  1  0.855800  0.968700  0.932300  1.0  0.1583
  C  C143  1  0.815100  0.925300  0.972200  1.0  -0.1544
  C  C144  1  0.897800  0.887200  0.992000  1.0  -0.1038
  C  C145  1  0.019100  0.893700  0.974600  1.0  -0.0723
  C  C146  1  0.060100  0.936800  0.937800  1.0  -0.1449
  C  C147  1  0.976100  0.974400  0.915000  1.0  0.0342
  C  C148  1  0.874100  0.040810  0.866600  1.0  0.2956
  C  C149  1  0.849200  0.087100  0.819100  1.0  -0.1074
  C  C150  1  0.903700  0.135500  0.828700  1.0  0.1634
  C  C151  1  0.773900  0.081100  0.758400  1.0  0.0177
  C  C152  1  0.759400  0.122800  0.711500  1.0  -0.1456
  C  C153  1  0.819500  0.169600  0.724500  1.0  0.2075
  C  C154  1  0.096200  0.040700  0.841200  1.0  -0.0145
  C  C155  1  0.102800  0.029200  0.758900  1.0  -0.1535
  C  C156  1  0.563600  0.563600  0.929200  1.0  0.7285
  C  C157  1  0.602300  0.591100  0.860700  1.0  -0.1798
  C  C158  1  0.550600  0.576400  0.793700  1.0  -0.003
  C  C159  1  0.589400  0.598900  0.729400  1.0  -0.1565
  C  C160  1  0.678600  0.636900  0.730900  1.0  -0.0024
  C  C161  1  0.728800  0.652700  0.796900  1.0  -0.1652
  C  C162  1  0.690900  0.629300  0.861500  1.0  0.0044
  C  C163  1  0.827300  0.693300  0.796300  1.0  0.6784
  C  C164  1  0.536200  0.582000  0.657700  1.0  0.6869
  C  C165  1  0.144200  0.531300  0.932300  1.0  0.159
  C  C166  1  0.184900  0.574700  0.972200  1.0  -0.1553
  C  C167  1  0.102200  0.612800  0.992000  1.0  -0.0997
  C  C168  1  0.980900  0.606300  0.974600  1.0  -0.0688
  C  C169  1  0.939900  0.563200  0.937800  1.0  -0.1442
  C  C170  1  0.023900  0.525600  0.915000  1.0  0.0337
  C  C171  1  0.125900  0.459190  0.866600  1.0  0.2951
  C  C172  1  0.150800  0.412900  0.819100  1.0  -0.1065
  C  C173  1  0.096300  0.364500  0.828700  1.0  0.1634
  C  C174  1  0.226100  0.418900  0.758400  1.0  0.0199
  C  C175  1  0.240600  0.377200  0.711500  1.0  -0.1436
  C  C176  1  0.180500  0.330400  0.724500  1.0  0.2072
  C  C177  1  0.903800  0.459300  0.841200  1.0  -0.0139
  C  C178  1  0.897200  0.470800  0.758900  1.0  -0.1527
  C  C179  1  0.436400  0.063600  0.570800  1.0  0.7298
  C  C180  1  0.397700  0.091100  0.639300  1.0  -0.1782
  C  C181  1  0.449400  0.076400  0.706300  1.0  -0.0026
  C  C182  1  0.410600  0.098900  0.770600  1.0  -0.1565
  C  C183  1  0.321400  0.136900  0.769100  1.0  -0.0015
  C  C184  1  0.271200  0.152700  0.703100  1.0  -0.165
  C  C185  1  0.309100  0.129300  0.638500  1.0  0.0051
  C  C186  1  0.172700  0.193300  0.703700  1.0  0.6796
  C  C187  1  0.463800  0.082000  0.842300  1.0  0.6864
  C  C188  1  0.855800  0.031300  0.567700  1.0  0.158
  C  C189  1  0.815100  0.074700  0.527800  1.0  -0.1543
  C  C190  1  0.897800  0.112800  0.508000  1.0  -0.1001
  C  C191  1  0.019100  0.106300  0.525400  1.0  -0.0681
  C  C192  1  0.060100  0.063200  0.562200  1.0  -0.1446
  C  C193  1  0.976100  0.025600  0.585000  1.0  0.0346
  C  C194  1  0.874100  0.959190  0.633400  1.0  0.294
  C  C195  1  0.849200  0.912900  0.680900  1.0  -0.1059
  C  C196  1  0.903700  0.864500  0.671300  1.0  0.1634
  C  C197  1  0.773900  0.918900  0.741600  1.0  0.0191
  C  C198  1  0.759400  0.877200  0.788500  1.0  -0.1449
  C  C199  1  0.819500  0.830400  0.775500  1.0  0.2076
  C  C200  1  0.096200  0.959300  0.658800  1.0  -0.0144
  C  C201  1  0.102800  0.970800  0.741100  1.0  -0.1541
  C  C202  1  0.563600  0.436400  0.570800  1.0  0.7283
  C  C203  1  0.602300  0.408900  0.639300  1.0  -0.179
  C  C204  1  0.550600  0.423600  0.706300  1.0  -0.0033
  C  C205  1  0.589400  0.401100  0.770600  1.0  -0.1562
  C  C206  1  0.678600  0.363100  0.769100  1.0  -0.003
  C  C207  1  0.728800  0.347300  0.703100  1.0  -0.1667
  C  C208  1  0.690900  0.370700  0.638500  1.0  0.0079
  C  C209  1  0.827300  0.306700  0.703700  1.0  0.6768
  C  C210  1  0.536200  0.418000  0.842300  1.0  0.6854
  C  C211  1  0.144200  0.468700  0.567700  1.0  0.1594
  C  C212  1  0.184900  0.425300  0.527800  1.0  -0.1551
  C  C213  1  0.102200  0.387200  0.508000  1.0  -0.1045
  C  C214  1  0.980900  0.393700  0.525400  1.0  -0.072
  C  C215  1  0.939900  0.436800  0.562200  1.0  -0.1446
  C  C216  1  0.023900  0.474400  0.585000  1.0  0.0338
  C  C217  1  0.125900  0.540810  0.633400  1.0  0.2959
  C  C218  1  0.150800  0.587100  0.680900  1.0  -0.1064
  C  C219  1  0.096300  0.635500  0.671300  1.0  0.1627
  C  C220  1  0.226100  0.581100  0.741600  1.0  0.0193
  C  C221  1  0.240600  0.622800  0.788500  1.0  -0.1436
  C  C222  1  0.180500  0.669600  0.775500  1.0  0.2071
  C  C223  1  0.903800  0.540700  0.658800  1.0  -0.0128
  C  C224  1  0.897200  0.529200  0.741100  1.0  -0.1538
  C  C225  1  0.563600  0.063600  0.070800  1.0  0.7295
  C  C226  1  0.602300  0.091100  0.139300  1.0  -0.1793
  C  C227  1  0.550600  0.076400  0.206300  1.0  -0.0029
  C  C228  1  0.589400  0.098900  0.270600  1.0  -0.1563
  C  C229  1  0.678600  0.136900  0.269100  1.0  -0.0027
  C  C230  1  0.728800  0.152700  0.203100  1.0  -0.165
  C  C231  1  0.690900  0.129300  0.138500  1.0  0.0064
  C  C232  1  0.827300  0.193300  0.203700  1.0  0.6778
  C  C233  1  0.536200  0.082000  0.342300  1.0  0.685
  C  C234  1  0.144200  0.031300  0.067700  1.0  0.1592
  C  C235  1  0.184900  0.074700  0.027800  1.0  -0.1553
  C  C236  1  0.102200  0.112800  0.008000  1.0  -0.0999
  C  C237  1  0.980900  0.106300  0.025400  1.0  -0.0689
  C  C238  1  0.939900  0.063200  0.062200  1.0  -0.1443
  C  C239  1  0.023900  0.025600  0.085000  1.0  0.034
  C  C240  1  0.125900  0.959190  0.133400  1.0  0.2944
  C  C241  1  0.150800  0.912900  0.180900  1.0  -0.1059
  C  C242  1  0.096300  0.864500  0.171300  1.0  0.1635
  C  C243  1  0.226100  0.918900  0.241600  1.0  0.02
  C  C244  1  0.240600  0.877200  0.288500  1.0  -0.1438
  C  C245  1  0.180500  0.830400  0.275500  1.0  0.2074
  C  C246  1  0.903800  0.959300  0.158800  1.0  -0.013
  C  C247  1  0.897200  0.970800  0.241100  1.0  -0.1533
  C  C248  1  0.436400  0.436400  0.070800  1.0  0.7286
  C  C249  1  0.397700  0.408900  0.139300  1.0  -0.178
  C  C250  1  0.449400  0.423600  0.206300  1.0  -0.003
  C  C251  1  0.410600  0.401100  0.270600  1.0  -0.1565
  C  C252  1  0.321400  0.363100  0.269100  1.0  -0.0007
  C  C253  1  0.271200  0.347300  0.203100  1.0  -0.1661
  C  C254  1  0.309100  0.370700  0.138500  1.0  0.008
  C  C255  1  0.172700  0.306700  0.203700  1.0  0.6767
  C  C256  1  0.463800  0.418000  0.342300  1.0  0.6861
  C  C257  1  0.855800  0.468700  0.067700  1.0  0.1583
  C  C258  1  0.815100  0.425300  0.027800  1.0  -0.1545
  C  C259  1  0.897800  0.387200  0.008000  1.0  -0.1039
  C  C260  1  0.019100  0.393700  0.025400  1.0  -0.0727
  C  C261  1  0.060100  0.436800  0.062200  1.0  -0.1451
  C  C262  1  0.976100  0.474400  0.085000  1.0  0.0345
  C  C263  1  0.874100  0.540810  0.133400  1.0  0.2954
  C  C264  1  0.849200  0.587100  0.180900  1.0  -0.1073
  C  C265  1  0.903700  0.635500  0.171300  1.0  0.1638
  C  C266  1  0.773900  0.581100  0.241600  1.0  0.0177
  C  C267  1  0.759400  0.622800  0.288500  1.0  -0.1458
  C  C268  1  0.819500  0.669600  0.275500  1.0  0.2073
  C  C269  1  0.096200  0.540700  0.158800  1.0  -0.0139
  C  C270  1  0.102800  0.529200  0.241100  1.0  -0.1548
  C  C271  1  0.563600  0.936400  0.429200  1.0  0.7286
  C  C272  1  0.602300  0.908900  0.360700  1.0  -0.1799
  C  C273  1  0.550600  0.923600  0.293700  1.0  -0.0034
  C  C274  1  0.589400  0.901100  0.229400  1.0  -0.1561
  C  C275  1  0.678600  0.863100  0.230900  1.0  -0.0032
  C  C276  1  0.728800  0.847300  0.296900  1.0  -0.1668
  C  C277  1  0.690900  0.870700  0.361500  1.0  0.0062
  C  C278  1  0.827300  0.806700  0.296300  1.0  0.678
  C  C279  1  0.536200  0.918000  0.157700  1.0  0.6861
  C  C280  1  0.144200  0.968700  0.432300  1.0  0.1593
  C  C281  1  0.184900  0.925300  0.472200  1.0  -0.1549
  C  C282  1  0.102200  0.887200  0.492000  1.0  -0.1047
  C  C283  1  0.980900  0.893700  0.474600  1.0  -0.0718
  C  C284  1  0.939900  0.936800  0.437800  1.0  -0.1444
  C  C285  1  0.023900  0.974400  0.415000  1.0  0.0336
  C  C286  1  0.125900  0.040810  0.366600  1.0  0.2959
  C  C287  1  0.150800  0.087100  0.319100  1.0  -0.1067
  C  C288  1  0.096300  0.135500  0.328700  1.0  0.1624
  C  C289  1  0.226100  0.081100  0.258400  1.0  0.0193
  C  C290  1  0.240600  0.122800  0.211500  1.0  -0.1432
  C  C291  1  0.180500  0.169600  0.224500  1.0  0.2072
  C  C292  1  0.903800  0.040700  0.341200  1.0  -0.0142
  C  C293  1  0.897200  0.029200  0.258900  1.0  -0.1522
  C  C294  1  0.436400  0.563600  0.429200  1.0  0.7297
  C  C295  1  0.397700  0.591100  0.360700  1.0  -0.1793
  C  C296  1  0.449400  0.576400  0.293700  1.0  -0.0029
  C  C297  1  0.410600  0.598900  0.229400  1.0  -0.1554
  C  C298  1  0.321400  0.636900  0.230900  1.0  -0.0013
  C  C299  1  0.271200  0.652700  0.296900  1.0  -0.1649
  C  C300  1  0.309100  0.629300  0.361500  1.0  0.0037
  C  C301  1  0.172700  0.693300  0.296300  1.0  0.6802
  C  C302  1  0.463800  0.582000  0.157700  1.0  0.6871
  C  C303  1  0.855800  0.531300  0.432300  1.0  0.1579
  C  C304  1  0.815100  0.574700  0.472200  1.0  -0.1545
  C  C305  1  0.897800  0.612800  0.492000  1.0  -0.0999
  C  C306  1  0.019100  0.606300  0.474600  1.0  -0.0679
  C  C307  1  0.060100  0.563200  0.437800  1.0  -0.1445
  C  C308  1  0.976100  0.525600  0.415000  1.0  0.0342
  C  C309  1  0.874100  0.459190  0.366600  1.0  0.2948
  C  C310  1  0.849200  0.412900  0.319100  1.0  -0.1069
  C  C311  1  0.903700  0.364500  0.328700  1.0  0.1632
  C  C312  1  0.773900  0.418900  0.258400  1.0  0.0191
  C  C313  1  0.759400  0.377200  0.211500  1.0  -0.1449
  C  C314  1  0.819500  0.330400  0.224500  1.0  0.2075
  C  C315  1  0.096200  0.459300  0.341200  1.0  -0.0144
  C  C316  1  0.102800  0.470800  0.258900  1.0  -0.1537
  N  N317  1  0.793800  0.010810  0.900980  1.0  -0.4783
  N  N318  1  0.985600  0.020830  0.874600  1.0  -0.0528
  N  N319  1  0.889600  0.176390  0.781800  1.0  -0.3472
  N  N320  1  0.206200  0.489190  0.900980  1.0  -0.4802
  N  N321  1  0.014400  0.479170  0.874600  1.0  -0.0529
  N  N322  1  0.110400  0.323610  0.781800  1.0  -0.3463
  N  N323  1  0.793800  0.989190  0.599020  1.0  -0.4784
  N  N324  1  0.985600  0.979170  0.625400  1.0  -0.0512
  N  N325  1  0.889600  0.823610  0.718200  1.0  -0.344
  N  N326  1  0.206200  0.510810  0.599020  1.0  -0.4798
  N  N327  1  0.014400  0.520830  0.625400  1.0  -0.0514
  N  N328  1  0.110400  0.676390  0.718200  1.0  -0.3455
  N  N329  1  0.206200  0.989190  0.099020  1.0  -0.4802
  N  N330  1  0.014400  0.979170  0.125400  1.0  -0.0511
  N  N331  1  0.110400  0.823610  0.218200  1.0  -0.3461
  N  N332  1  0.793800  0.510810  0.099020  1.0  -0.4781
  N  N333  1  0.985600  0.520830  0.125400  1.0  -0.0512
  N  N334  1  0.889600  0.676390  0.218200  1.0  -0.3457
  N  N335  1  0.206200  0.010810  0.400980  1.0  -0.4801
  N  N336  1  0.014400  0.020830  0.374600  1.0  -0.0533
  N  N337  1  0.110400  0.176390  0.281800  1.0  -0.3468
  N  N338  1  0.793800  0.489190  0.400980  1.0  -0.4782
  N  N339  1  0.985600  0.479170  0.374600  1.0  -0.0525
  N  N340  1  0.889600  0.323610  0.281800  1.0  -0.3448
  O  O341  1  0.538800  0.955910  0.933250  1.0  -0.6418
  O  O342  1  0.360600  0.938750  0.980330  1.0  -0.6003
  O  O343  1  0.137100  0.793790  0.733000  1.0  -0.6398
  O  O344  1  0.135100  0.788270  0.855000  1.0  -0.5962
  O  O345  1  0.420400  0.903800  0.599200  1.0  -0.5905
  O  O346  1  0.552400  0.947770  0.661960  1.0  -0.6381
  O  O347  1  0.461200  0.544090  0.933250  1.0  -0.6417
  O  O348  1  0.639400  0.561250  0.980330  1.0  -0.6007
  O  O349  1  0.862900  0.706210  0.733000  1.0  -0.6392
  O  O350  1  0.864900  0.711730  0.855000  1.0  -0.5974
  O  O351  1  0.579600  0.596200  0.599200  1.0  -0.5917
  O  O352  1  0.447600  0.552230  0.661960  1.0  -0.638
  O  O353  1  0.538800  0.044090  0.566750  1.0  -0.6407
  O  O354  1  0.360600  0.061250  0.519670  1.0  -0.6009
  O  O355  1  0.137100  0.206210  0.767000  1.0  -0.6384
  O  O356  1  0.135100  0.211730  0.645000  1.0  -0.5963
  O  O357  1  0.420400  0.096200  0.900800  1.0  -0.592
  O  O358  1  0.552400  0.052230  0.838040  1.0  -0.6376
  O  O359  1  0.461200  0.455910  0.566750  1.0  -0.6414
  O  O360  1  0.639400  0.438750  0.519670  1.0  -0.6007
  O  O361  1  0.862900  0.293790  0.767000  1.0  -0.6372
  O  O362  1  0.864900  0.288270  0.645000  1.0  -0.5965
  O  O363  1  0.579600  0.403800  0.900800  1.0  -0.5915
  O  O364  1  0.447600  0.447770  0.838040  1.0  -0.6381
  O  O365  1  0.461200  0.044090  0.066750  1.0  -0.6409
  O  O366  1  0.639400  0.061250  0.019670  1.0  -0.6012
  O  O367  1  0.862900  0.206210  0.267000  1.0  -0.6374
  O  O368  1  0.864900  0.211730  0.145000  1.0  -0.5965
  O  O369  1  0.579600  0.096200  0.400800  1.0  -0.5918
  O  O370  1  0.447600  0.052230  0.338040  1.0  -0.6374
  O  O371  1  0.538800  0.455910  0.066750  1.0  -0.6409
  O  O372  1  0.360600  0.438750  0.019670  1.0  -0.6005
  O  O373  1  0.137100  0.293790  0.267000  1.0  -0.6382
  O  O374  1  0.135100  0.288270  0.145000  1.0  -0.5953
  O  O375  1  0.420400  0.403800  0.400800  1.0  -0.5917
  O  O376  1  0.552400  0.447770  0.338040  1.0  -0.6377
  O  O377  1  0.461200  0.955910  0.433250  1.0  -0.642
  O  O378  1  0.639400  0.938750  0.480330  1.0  -0.6001
  O  O379  1  0.862900  0.793790  0.233000  1.0  -0.6389
  O  O380  1  0.864900  0.788270  0.355000  1.0  -0.5968
  O  O381  1  0.579600  0.903800  0.099200  1.0  -0.5906
  O  O382  1  0.447600  0.947770  0.161960  1.0  -0.6381
  O  O383  1  0.538800  0.544090  0.433250  1.0  -0.6416
  O  O384  1  0.360600  0.561250  0.480330  1.0  -0.6006
  O  O385  1  0.137100  0.706210  0.233000  1.0  -0.6398
  O  O386  1  0.135100  0.711730  0.355000  1.0  -0.5975
  O  O387  1  0.420400  0.596200  0.099200  1.0  -0.5916
  O  O388  1  0.552400  0.552230  0.161960  1.0  -0.6386
