# generated using pymatgen
data_CdH14(C9N7)2
_symmetry_space_group_name_H-M   'P 1'
_cell_length_a   20.08430000
_cell_length_b   20.08430000
_cell_length_c   20.24080000
_cell_angle_alpha   90.00000000
_cell_angle_beta   90.00000000
_cell_angle_gamma   120.00000000
_symmetry_Int_Tables_number   1
_chemical_formula_structural   CdH14(C9N7)2
_chemical_formula_sum   'Cd9 H126 C162 N126'
_cell_volume   7070.85131363
_cell_formula_units_Z   9
loop_
 _symmetry_equiv_pos_site_id
 _symmetry_equiv_pos_as_xyz
  1  'x, y, z'
loop_
 _atom_site_type_symbol
 _atom_site_label
 _atom_site_symmetry_multiplicity
 _atom_site_fract_x
 _atom_site_fract_y
 _atom_site_fract_z
 _atom_site_occupancy
 _atom_site_charge
  Cd  Cd1  1  0.000000  0.000000  0.000000  1.0  0.677
  Cd  Cd2  1  0.666667  0.333333  0.333333  1.0  0.678
  Cd  Cd3  1  0.333333  0.666667  0.666667  1.0  0.6772
  Cd  Cd4  1  0.000000  0.000000  0.204720  1.0  0.8557
  Cd  Cd5  1  0.666667  0.333333  0.538050  1.0  0.8557
  Cd  Cd6  1  0.333333  0.666667  0.871390  1.0  0.8558
  Cd  Cd7  1  0.000000  0.000000  0.795280  1.0  0.8558
  Cd  Cd8  1  0.666667  0.333333  0.128610  1.0  0.8557
  Cd  Cd9  1  0.333333  0.666667  0.461950  1.0  0.8559
  H  H10  1  0.117200  0.201100  0.009700  1.0  0.0604
  H  H11  1  0.201000  0.307700  0.211400  1.0  0.1099
  H  H12  1  0.093100  0.190800  0.203000  1.0  0.0967
  H  H13  1  0.313800  0.511500  0.116800  1.0  0.1029
  H  H14  1  0.284000  0.441500  0.216500  1.0  0.0896
  H  H15  1  0.290800  0.572200  0.026300  1.0  0.0719
  H  H16  1  0.214700  0.378300  0.929800  1.0  0.0778
  H  H17  1  0.783870  0.534430  0.343030  1.0  0.0604
  H  H18  1  0.867670  0.641030  0.544730  1.0  0.1099
  H  H19  1  0.759770  0.524130  0.536330  1.0  0.0966
  H  H20  1  0.980470  0.844830  0.450130  1.0  0.1039
  H  H21  1  0.950670  0.774830  0.549830  1.0  0.0897
  H  H22  1  0.957470  0.905530  0.359630  1.0  0.0719
  H  H23  1  0.881370  0.711630  0.263130  1.0  0.0778
  H  H24  1  0.450530  0.867770  0.676370  1.0  0.0604
  H  H25  1  0.534330  0.974370  0.878070  1.0  0.1099
  H  H26  1  0.426430  0.857470  0.869670  1.0  0.0967
  H  H27  1  0.647130  0.178170  0.783470  1.0  0.1029
  H  H28  1  0.617330  0.108170  0.883170  1.0  0.0896
  H  H29  1  0.624130  0.238870  0.692970  1.0  0.0719
  H  H30  1  0.548030  0.044970  0.596470  1.0  0.0777
  H  H31  1  0.798900  0.916100  0.009700  1.0  0.061
  H  H32  1  0.692300  0.893300  0.211400  1.0  0.11
  H  H33  1  0.809200  0.902300  0.203000  1.0  0.0964
  H  H34  1  0.488500  0.802300  0.116800  1.0  0.1038
  H  H35  1  0.558500  0.842500  0.216500  1.0  0.09
  H  H36  1  0.427800  0.718600  0.026300  1.0  0.0726
  H  H37  1  0.621700  0.836400  0.929800  1.0  0.0777
  H  H38  1  0.465570  0.249430  0.343030  1.0  0.061
  H  H39  1  0.358970  0.226630  0.544730  1.0  0.11
  H  H40  1  0.475870  0.235630  0.536330  1.0  0.0964
  H  H41  1  0.155170  0.135630  0.450130  1.0  0.1038
  H  H42  1  0.225170  0.175830  0.549830  1.0  0.09
  H  H43  1  0.094470  0.051930  0.359630  1.0  0.0725
  H  H44  1  0.288370  0.169730  0.263130  1.0  0.0777
  H  H45  1  0.132230  0.582770  0.676370  1.0  0.061
  H  H46  1  0.025630  0.559970  0.878070  1.0  0.11
  H  H47  1  0.142530  0.568970  0.869670  1.0  0.0964
  H  H48  1  0.821830  0.468970  0.783470  1.0  0.1038
  H  H49  1  0.891830  0.509170  0.883170  1.0  0.09
  H  H50  1  0.761130  0.385270  0.692970  1.0  0.0726
  H  H51  1  0.955030  0.503070  0.596470  1.0  0.0777
  H  H52  1  0.083900  0.882800  0.009700  1.0  0.061
  H  H53  1  0.106700  0.799000  0.211400  1.0  0.1096
  H  H54  1  0.097700  0.906900  0.203000  1.0  0.0965
  H  H55  1  0.197700  0.686200  0.116800  1.0  0.1023
  H  H56  1  0.157500  0.716000  0.216500  1.0  0.0903
  H  H57  1  0.281400  0.709200  0.026300  1.0  0.072
  H  H58  1  0.163600  0.785300  0.929800  1.0  0.0771
  H  H59  1  0.750570  0.216130  0.343030  1.0  0.061
  H  H60  1  0.773370  0.132330  0.544730  1.0  0.1096
  H  H61  1  0.764370  0.240230  0.536330  1.0  0.0965
  H  H62  1  0.864370  0.019530  0.450130  1.0  0.1015
  H  H63  1  0.824170  0.049330  0.549830  1.0  0.0903
  H  H64  1  0.948070  0.042530  0.359630  1.0  0.072
  H  H65  1  0.830270  0.118630  0.263130  1.0  0.0771
  H  H66  1  0.417230  0.549470  0.676370  1.0  0.061
  H  H67  1  0.440030  0.465670  0.878070  1.0  0.1096
  H  H68  1  0.431030  0.573570  0.869670  1.0  0.0965
  H  H69  1  0.531030  0.352870  0.783470  1.0  0.1023
  H  H70  1  0.490830  0.382670  0.883170  1.0  0.0903
  H  H71  1  0.614730  0.375870  0.692970  1.0  0.072
  H  H72  1  0.496930  0.451970  0.596470  1.0  0.0771
  H  H73  1  0.882800  0.798900  0.990300  1.0  0.0599
  H  H74  1  0.799000  0.692300  0.788600  1.0  0.1093
  H  H75  1  0.906900  0.809200  0.797000  1.0  0.0967
  H  H76  1  0.686200  0.488500  0.883200  1.0  0.1028
  H  H77  1  0.716000  0.558500  0.783500  1.0  0.0911
  H  H78  1  0.709200  0.427800  0.973700  1.0  0.0716
  H  H79  1  0.785300  0.621700  0.070200  1.0  0.0783
  H  H80  1  0.549470  0.132230  0.323630  1.0  0.0599
  H  H81  1  0.465670  0.025630  0.121930  1.0  0.1093
  H  H82  1  0.573570  0.142530  0.130330  1.0  0.0968
  H  H83  1  0.352870  0.821830  0.216530  1.0  0.1028
  H  H84  1  0.382670  0.891830  0.116830  1.0  0.0911
  H  H85  1  0.375870  0.761130  0.307030  1.0  0.0716
  H  H86  1  0.451970  0.955030  0.403530  1.0  0.0783
  H  H87  1  0.216130  0.465570  0.656970  1.0  0.0599
  H  H88  1  0.132330  0.358970  0.455270  1.0  0.1093
  H  H89  1  0.240230  0.475870  0.463670  1.0  0.0967
  H  H90  1  0.019530  0.155170  0.549870  1.0  0.1038
  H  H91  1  0.049330  0.225170  0.450170  1.0  0.0911
  H  H92  1  0.042530  0.094470  0.640370  1.0  0.0716
  H  H93  1  0.118630  0.288370  0.736870  1.0  0.0783
  H  H94  1  0.201100  0.083900  0.990300  1.0  0.0603
  H  H95  1  0.307700  0.106700  0.788600  1.0  0.1101
  H  H96  1  0.190800  0.097700  0.797000  1.0  0.0963
  H  H97  1  0.511500  0.197700  0.883200  1.0  0.103
  H  H98  1  0.441500  0.157500  0.783500  1.0  0.0906
  H  H99  1  0.572200  0.281400  0.973700  1.0  0.0726
  H  H100  1  0.378300  0.163600  0.070200  1.0  0.0763
  H  H101  1  0.867770  0.417230  0.323630  1.0  0.0603
  H  H102  1  0.974370  0.440030  0.121930  1.0  0.1101
  H  H103  1  0.857470  0.431030  0.130330  1.0  0.0963
  H  H104  1  0.178170  0.531030  0.216530  1.0  0.103
  H  H105  1  0.108170  0.490830  0.116830  1.0  0.0906
  H  H106  1  0.238870  0.614730  0.307030  1.0  0.0726
  H  H107  1  0.044970  0.496930  0.403530  1.0  0.0763
  H  H108  1  0.534430  0.750570  0.656970  1.0  0.0603
  H  H109  1  0.641030  0.773370  0.455270  1.0  0.1101
  H  H110  1  0.524130  0.764370  0.463670  1.0  0.0963
  H  H111  1  0.844830  0.864370  0.549870  1.0  0.103
  H  H112  1  0.774830  0.824170  0.450170  1.0  0.0906
  H  H113  1  0.905530  0.948070  0.640370  1.0  0.0726
  H  H114  1  0.711630  0.830270  0.736870  1.0  0.0763
  H  H115  1  0.916100  0.117200  0.990300  1.0  0.0607
  H  H116  1  0.893300  0.201000  0.788600  1.0  0.1097
  H  H117  1  0.902300  0.093100  0.797000  1.0  0.097
  H  H118  1  0.802300  0.313800  0.883200  1.0  0.1026
  H  H119  1  0.842500  0.284000  0.783500  1.0  0.0907
  H  H120  1  0.718600  0.290800  0.973700  1.0  0.0717
  H  H121  1  0.836400  0.214700  0.070200  1.0  0.0771
  H  H122  1  0.582770  0.450530  0.323630  1.0  0.0607
  H  H123  1  0.559970  0.534330  0.121930  1.0  0.1097
  H  H124  1  0.568970  0.426430  0.130330  1.0  0.097
  H  H125  1  0.468970  0.647130  0.216530  1.0  0.1026
  H  H126  1  0.509170  0.617330  0.116830  1.0  0.0907
  H  H127  1  0.385270  0.624130  0.307030  1.0  0.0717
  H  H128  1  0.503070  0.548030  0.403530  1.0  0.0771
  H  H129  1  0.249430  0.783870  0.656970  1.0  0.0607
  H  H130  1  0.226630  0.867670  0.455270  1.0  0.1097
  H  H131  1  0.235630  0.759770  0.463670  1.0  0.097
  H  H132  1  0.135630  0.980470  0.549870  1.0  0.102
  H  H133  1  0.175830  0.950670  0.450170  1.0  0.0907
  H  H134  1  0.051930  0.957470  0.640370  1.0  0.0717
  H  H135  1  0.169730  0.881370  0.736870  1.0  0.0771
  C  C136  1  0.101300  0.182200  0.052200  1.0  0.1051
  C  C137  1  0.177300  0.307600  0.114900  1.0  0.309
  C  C138  1  0.211300  0.338400  0.174100  1.0  -0.2168
  C  C139  1  0.239700  0.420900  0.062700  1.0  0.3133
  C  C140  1  0.088700  0.177200  0.158600  1.0  0.079
  C  C141  1  0.278000  0.459200  0.118000  1.0  -0.2375
  C  C142  1  0.261700  0.417300  0.176800  1.0  -0.1501
  C  C143  1  0.277000  0.536400  0.992500  1.0  0.115
  C  C144  1  0.235500  0.430200  0.939500  1.0  0.1663
  C  C145  1  0.767970  0.515530  0.385530  1.0  0.1051
  C  C146  1  0.843970  0.640930  0.448230  1.0  0.3089
  C  C147  1  0.877970  0.671730  0.507430  1.0  -0.2169
  C  C148  1  0.906370  0.754230  0.396030  1.0  0.3133
  C  C149  1  0.755370  0.510530  0.491930  1.0  0.079
  C  C150  1  0.944670  0.792530  0.451330  1.0  -0.2375
  C  C151  1  0.928370  0.750630  0.510130  1.0  -0.1499
  C  C152  1  0.943670  0.869730  0.325830  1.0  0.1152
  C  C153  1  0.902170  0.763530  0.272830  1.0  0.1663
  C  C154  1  0.434630  0.848870  0.718870  1.0  0.1051
  C  C155  1  0.510630  0.974270  0.781570  1.0  0.309
  C  C156  1  0.544630  0.005070  0.840770  1.0  -0.2168
  C  C157  1  0.573030  0.087570  0.729370  1.0  0.3133
  C  C158  1  0.422030  0.843870  0.825270  1.0  0.079
  C  C159  1  0.611330  0.125870  0.784670  1.0  -0.2375
  C  C160  1  0.595030  0.083970  0.843470  1.0  -0.1501
  C  C161  1  0.610330  0.203070  0.659170  1.0  0.115
  C  C162  1  0.568830  0.096870  0.606170  1.0  0.1663
  C  C163  1  0.817800  0.919100  0.052200  1.0  0.1061
  C  C164  1  0.692400  0.869700  0.114900  1.0  0.309
  C  C165  1  0.661600  0.872900  0.174100  1.0  -0.2178
  C  C166  1  0.579100  0.818800  0.062700  1.0  0.3124
  C  C167  1  0.822800  0.911500  0.158600  1.0  0.0814
  C  C168  1  0.540800  0.818800  0.118000  1.0  -0.2352
  C  C169  1  0.582700  0.844400  0.176800  1.0  -0.1502
  C  C170  1  0.463600  0.740600  0.992500  1.0  0.1144
  C  C171  1  0.569800  0.805300  0.939500  1.0  0.17
  C  C172  1  0.484470  0.252430  0.385530  1.0  0.1061
  C  C173  1  0.359070  0.203030  0.448230  1.0  0.3094
  C  C174  1  0.328270  0.206230  0.507430  1.0  -0.2178
  C  C175  1  0.245770  0.152130  0.396030  1.0  0.3124
  C  C176  1  0.489470  0.244830  0.491930  1.0  0.0814
  C  C177  1  0.207470  0.152130  0.451330  1.0  -0.2352
  C  C178  1  0.249370  0.177730  0.510130  1.0  -0.1498
  C  C179  1  0.130270  0.073930  0.325830  1.0  0.1143
  C  C180  1  0.236470  0.138630  0.272830  1.0  0.17
  C  C181  1  0.151130  0.585770  0.718870  1.0  0.1061
  C  C182  1  0.025730  0.536370  0.781570  1.0  0.309
  C  C183  1  0.994930  0.539570  0.840770  1.0  -0.2178
  C  C184  1  0.912430  0.485470  0.729370  1.0  0.3124
  C  C185  1  0.156130  0.578170  0.825270  1.0  0.0814
  C  C186  1  0.874130  0.485470  0.784670  1.0  -0.2352
  C  C187  1  0.916030  0.511070  0.843470  1.0  -0.1502
  C  C188  1  0.796930  0.407270  0.659170  1.0  0.1144
  C  C189  1  0.903130  0.471970  0.606170  1.0  0.17
  C  C190  1  0.080900  0.898700  0.052200  1.0  0.1046
  C  C191  1  0.130300  0.822700  0.114900  1.0  0.3087
  C  C192  1  0.127100  0.788700  0.174100  1.0  -0.2186
  C  C193  1  0.181200  0.760300  0.062700  1.0  0.3124
  C  C194  1  0.088500  0.911300  0.158600  1.0  0.0809
  C  C195  1  0.181200  0.722000  0.118000  1.0  -0.2354
  C  C196  1  0.155600  0.738300  0.176800  1.0  -0.1502
  C  C197  1  0.259400  0.723000  0.992500  1.0  0.1154
  C  C198  1  0.194700  0.764500  0.939500  1.0  0.1684
  C  C199  1  0.747570  0.232030  0.385530  1.0  0.1046
  C  C200  1  0.796970  0.156030  0.448230  1.0  0.3087
  C  C201  1  0.793770  0.122030  0.507430  1.0  -0.2186
  C  C202  1  0.847870  0.093630  0.396030  1.0  0.3124
  C  C203  1  0.755170  0.244630  0.491930  1.0  0.081
  C  C204  1  0.847870  0.055330  0.451330  1.0  -0.2354
  C  C205  1  0.822270  0.071630  0.510130  1.0  -0.1506
  C  C206  1  0.926070  0.056330  0.325830  1.0  0.1154
  C  C207  1  0.861370  0.097830  0.272830  1.0  0.1684
  C  C208  1  0.414230  0.565370  0.718870  1.0  0.1046
  C  C209  1  0.463630  0.489370  0.781570  1.0  0.3087
  C  C210  1  0.460430  0.455370  0.840770  1.0  -0.2186
  C  C211  1  0.514530  0.426970  0.729370  1.0  0.3124
  C  C212  1  0.421830  0.577970  0.825270  1.0  0.0809
  C  C213  1  0.514530  0.388670  0.784670  1.0  -0.2354
  C  C214  1  0.488930  0.404970  0.843470  1.0  -0.1502
  C  C215  1  0.592730  0.389670  0.659170  1.0  0.1154
  C  C216  1  0.528030  0.431170  0.606170  1.0  0.1684
  C  C217  1  0.898700  0.817800  0.947800  1.0  0.1059
  C  C218  1  0.822700  0.692400  0.885100  1.0  0.3075
  C  C219  1  0.788700  0.661600  0.825900  1.0  -0.2174
  C  C220  1  0.760300  0.579100  0.937300  1.0  0.3139
  C  C221  1  0.911300  0.822800  0.841400  1.0  0.0805
  C  C222  1  0.722000  0.540800  0.882000  1.0  -0.2403
  C  C223  1  0.738300  0.582700  0.823200  1.0  -0.1495
  C  C224  1  0.723000  0.463600  0.007500  1.0  0.1154
  C  C225  1  0.764500  0.569800  0.060500  1.0  0.1658
  C  C226  1  0.565370  0.151130  0.281130  1.0  0.1059
  C  C227  1  0.489370  0.025730  0.218430  1.0  0.3075
  C  C228  1  0.455370  0.994930  0.159230  1.0  -0.2174
  C  C229  1  0.426970  0.912430  0.270630  1.0  0.3139
  C  C230  1  0.577970  0.156130  0.174730  1.0  0.0805
  C  C231  1  0.388670  0.874130  0.215330  1.0  -0.2403
  C  C232  1  0.404970  0.916030  0.156530  1.0  -0.1495
  C  C233  1  0.389670  0.796930  0.340830  1.0  0.1154
  C  C234  1  0.431170  0.903130  0.393830  1.0  0.1658
  C  C235  1  0.232030  0.484470  0.614470  1.0  0.1059
  C  C236  1  0.156030  0.359070  0.551770  1.0  0.3075
  C  C237  1  0.122030  0.328270  0.492570  1.0  -0.2175
  C  C238  1  0.093630  0.245770  0.603970  1.0  0.3139
  C  C239  1  0.244630  0.489470  0.508070  1.0  0.0805
  C  C240  1  0.055330  0.207470  0.548670  1.0  -0.2402
  C  C241  1  0.071630  0.249370  0.489870  1.0  -0.1494
  C  C242  1  0.056330  0.130270  0.674170  1.0  0.1155
  C  C243  1  0.097830  0.236470  0.727170  1.0  0.1658
  C  C244  1  0.182200  0.080900  0.947800  1.0  0.1045
  C  C245  1  0.307600  0.130300  0.885100  1.0  0.3077
  C  C246  1  0.338400  0.127100  0.825900  1.0  -0.2187
  C  C247  1  0.420900  0.181200  0.937300  1.0  0.313
  C  C248  1  0.177200  0.088500  0.841400  1.0  0.0821
  C  C249  1  0.459200  0.181200  0.882000  1.0  -0.2358
  C  C250  1  0.417300  0.155600  0.823200  1.0  -0.1482
  C  C251  1  0.536400  0.259400  0.007500  1.0  0.1145
  C  C252  1  0.430200  0.194700  0.060500  1.0  0.1692
  C  C253  1  0.848870  0.414230  0.281130  1.0  0.1045
  C  C254  1  0.974270  0.463630  0.218430  1.0  0.3077
  C  C255  1  0.005070  0.460430  0.159230  1.0  -0.2187
  C  C256  1  0.087570  0.514530  0.270630  1.0  0.313
  C  C257  1  0.843870  0.421830  0.174730  1.0  0.0821
  C  C258  1  0.125870  0.514530  0.215330  1.0  -0.2358
  C  C259  1  0.083970  0.488930  0.156530  1.0  -0.1482
  C  C260  1  0.203070  0.592730  0.340830  1.0  0.1146
  C  C261  1  0.096870  0.528030  0.393830  1.0  0.1692
  C  C262  1  0.515530  0.747570  0.614470  1.0  0.1045
  C  C263  1  0.640930  0.796970  0.551770  1.0  0.3081
  C  C264  1  0.671730  0.793770  0.492570  1.0  -0.2187
  C  C265  1  0.754230  0.847870  0.603970  1.0  0.313
  C  C266  1  0.510530  0.755170  0.508070  1.0  0.0821
  C  C267  1  0.792530  0.847870  0.548670  1.0  -0.2358
  C  C268  1  0.750630  0.822270  0.489870  1.0  -0.1478
  C  C269  1  0.869730  0.926070  0.674170  1.0  0.1144
  C  C270  1  0.763530  0.861370  0.727170  1.0  0.1692
  C  C271  1  0.919100  0.101300  0.947800  1.0  0.1044
  C  C272  1  0.869700  0.177300  0.885100  1.0  0.3084
  C  C273  1  0.872900  0.211300  0.825900  1.0  -0.2185
  C  C274  1  0.818800  0.239700  0.937300  1.0  0.3131
  C  C275  1  0.911500  0.088700  0.841400  1.0  0.0805
  C  C276  1  0.818800  0.278000  0.882000  1.0  -0.2367
  C  C277  1  0.844400  0.261700  0.823200  1.0  -0.1506
  C  C278  1  0.740600  0.277000  0.007500  1.0  0.1144
  C  C279  1  0.805300  0.235500  0.060500  1.0  0.1684
  C  C280  1  0.585770  0.434630  0.281130  1.0  0.1044
  C  C281  1  0.536370  0.510630  0.218430  1.0  0.3084
  C  C282  1  0.539570  0.544630  0.159230  1.0  -0.2185
  C  C283  1  0.485470  0.573030  0.270630  1.0  0.3131
  C  C284  1  0.578170  0.422030  0.174730  1.0  0.0805
  C  C285  1  0.485470  0.611330  0.215330  1.0  -0.2367
  C  C286  1  0.511070  0.595030  0.156530  1.0  -0.1506
  C  C287  1  0.407270  0.610330  0.340830  1.0  0.1144
  C  C288  1  0.471970  0.568830  0.393830  1.0  0.1684
  C  C289  1  0.252430  0.767970  0.614470  1.0  0.1044
  C  C290  1  0.203030  0.843970  0.551770  1.0  0.3084
  C  C291  1  0.206230  0.877970  0.492570  1.0  -0.2185
  C  C292  1  0.152130  0.906370  0.603970  1.0  0.3131
  C  C293  1  0.244830  0.755370  0.508070  1.0  0.0805
  C  C294  1  0.152130  0.944670  0.548670  1.0  -0.2367
  C  C295  1  0.177730  0.928370  0.489870  1.0  -0.1509
  C  C296  1  0.073930  0.943670  0.674170  1.0  0.1144
  C  C297  1  0.138630  0.902170  0.727170  1.0  0.1684
  N  N298  1  0.122100  0.225500  0.108100  1.0  0.0301
  N  N299  1  0.056600  0.111800  0.066800  1.0  -0.2298
  N  N300  1  0.188900  0.345800  0.058200  1.0  -0.4975
  N  N301  1  0.048700  0.107700  0.134900  1.0  -0.2376
  N  N302  1  0.250300  0.460900  0.002200  1.0  -0.013
  N  N303  1  0.281200  0.553200  0.930100  1.0  -0.2424
  N  N304  1  0.255200  0.484800  0.895300  1.0  -0.3074
  N  N305  1  0.788770  0.558830  0.441430  1.0  0.0301
  N  N306  1  0.723270  0.445130  0.400130  1.0  -0.2298
  N  N307  1  0.855570  0.679130  0.391530  1.0  -0.4974
  N  N308  1  0.715370  0.441030  0.468230  1.0  -0.2376
  N  N309  1  0.916970  0.794230  0.335530  1.0  -0.013
  N  N310  1  0.947870  0.886530  0.263430  1.0  -0.2424
  N  N311  1  0.921870  0.818130  0.228630  1.0  -0.3074
  N  N312  1  0.455430  0.892170  0.774770  1.0  0.0301
  N  N313  1  0.389930  0.778470  0.733470  1.0  -0.2298
  N  N314  1  0.522230  0.012470  0.724870  1.0  -0.4975
  N  N315  1  0.382030  0.774370  0.801570  1.0  -0.2376
  N  N316  1  0.583630  0.127570  0.668870  1.0  -0.013
  N  N317  1  0.614530  0.219870  0.596770  1.0  -0.2424
  N  N318  1  0.588530  0.151470  0.561970  1.0  -0.3073
  N  N319  1  0.774500  0.896600  0.108100  1.0  0.0317
  N  N320  1  0.888200  0.944800  0.066800  1.0  -0.2274
  N  N321  1  0.654200  0.843100  0.058200  1.0  -0.4975
  N  N322  1  0.892300  0.941000  0.134900  1.0  -0.2358
  N  N323  1  0.539100  0.789400  0.002200  1.0  -0.0127
  N  N324  1  0.446800  0.728000  0.930100  1.0  -0.2444
  N  N325  1  0.515200  0.770400  0.895300  1.0  -0.3066
  N  N326  1  0.441170  0.229930  0.441430  1.0  0.0317
  N  N327  1  0.554870  0.278130  0.400130  1.0  -0.2274
  N  N328  1  0.320870  0.176430  0.391530  1.0  -0.4975
  N  N329  1  0.558970  0.274330  0.468230  1.0  -0.2359
  N  N330  1  0.205770  0.122730  0.335530  1.0  -0.0129
  N  N331  1  0.113470  0.061330  0.263430  1.0  -0.2444
  N  N332  1  0.181870  0.103730  0.228630  1.0  -0.3066
  N  N333  1  0.107830  0.563270  0.774770  1.0  0.0317
  N  N334  1  0.221530  0.611470  0.733470  1.0  -0.2274
  N  N335  1  0.987530  0.509770  0.724870  1.0  -0.4975
  N  N336  1  0.225630  0.607670  0.801570  1.0  -0.2358
  N  N337  1  0.872430  0.456070  0.668870  1.0  -0.0127
  N  N338  1  0.780130  0.394670  0.596770  1.0  -0.2444
  N  N339  1  0.848530  0.437070  0.561970  1.0  -0.3066
  N  N340  1  0.103400  0.877900  0.108100  1.0  0.0334
  N  N341  1  0.055200  0.943400  0.066800  1.0  -0.2283
  N  N342  1  0.156900  0.811100  0.058200  1.0  -0.4985
  N  N343  1  0.059000  0.951300  0.134900  1.0  -0.2352
  N  N344  1  0.210600  0.749700  0.002200  1.0  -0.0135
  N  N345  1  0.272000  0.718800  0.930100  1.0  -0.244
  N  N346  1  0.229600  0.744800  0.895300  1.0  -0.3057
  N  N347  1  0.770070  0.211230  0.441430  1.0  0.0335
  N  N348  1  0.721870  0.276730  0.400130  1.0  -0.2283
  N  N349  1  0.823570  0.144430  0.391530  1.0  -0.4985
  N  N350  1  0.725670  0.284630  0.468230  1.0  -0.2353
  N  N351  1  0.877270  0.083030  0.335530  1.0  -0.0135
  N  N352  1  0.938670  0.052130  0.263430  1.0  -0.2439
  N  N353  1  0.896270  0.078130  0.228630  1.0  -0.3057
  N  N354  1  0.436730  0.544570  0.774770  1.0  0.0334
  N  N355  1  0.388530  0.610070  0.733470  1.0  -0.2283
  N  N356  1  0.490230  0.477770  0.724870  1.0  -0.4985
  N  N357  1  0.392330  0.617970  0.801570  1.0  -0.2352
  N  N358  1  0.543930  0.416370  0.668870  1.0  -0.0135
  N  N359  1  0.605330  0.385470  0.596770  1.0  -0.244
  N  N360  1  0.562930  0.411470  0.561970  1.0  -0.3056
  N  N361  1  0.877900  0.774500  0.891900  1.0  0.0308
  N  N362  1  0.943400  0.888200  0.933200  1.0  -0.2294
  N  N363  1  0.811100  0.654200  0.941800  1.0  -0.4984
  N  N364  1  0.951300  0.892300  0.865100  1.0  -0.2371
  N  N365  1  0.749700  0.539100  0.997800  1.0  -0.0125
  N  N366  1  0.718800  0.446800  0.069900  1.0  -0.2419
  N  N367  1  0.744800  0.515200  0.104700  1.0  -0.3081
  N  N368  1  0.544570  0.107830  0.225230  1.0  0.0308
  N  N369  1  0.610070  0.221530  0.266530  1.0  -0.2294
  N  N370  1  0.477770  0.987530  0.275130  1.0  -0.4984
  N  N371  1  0.617970  0.225630  0.198430  1.0  -0.2371
  N  N372  1  0.416370  0.872430  0.331130  1.0  -0.0125
  N  N373  1  0.385470  0.780130  0.403230  1.0  -0.2419
  N  N374  1  0.411470  0.848530  0.438030  1.0  -0.308
  N  N375  1  0.211230  0.441170  0.558570  1.0  0.0308
  N  N376  1  0.276730  0.554870  0.599870  1.0  -0.2294
  N  N377  1  0.144430  0.320870  0.608470  1.0  -0.4984
  N  N378  1  0.284630  0.558970  0.531770  1.0  -0.2371
  N  N379  1  0.083030  0.205770  0.664470  1.0  -0.0125
  N  N380  1  0.052130  0.113470  0.736570  1.0  -0.2419
  N  N381  1  0.078130  0.181870  0.771370  1.0  -0.3081
  N  N382  1  0.225500  0.103400  0.891900  1.0  0.0313
  N  N383  1  0.111800  0.055200  0.933200  1.0  -0.2284
  N  N384  1  0.345800  0.156900  0.941800  1.0  -0.4981
  N  N385  1  0.107700  0.059000  0.865100  1.0  -0.2332
  N  N386  1  0.460900  0.210600  0.997800  1.0  -0.0134
  N  N387  1  0.553200  0.272000  0.069900  1.0  -0.2432
  N  N388  1  0.484800  0.229600  0.104700  1.0  -0.3063
  N  N389  1  0.892170  0.436730  0.225230  1.0  0.0313
  N  N390  1  0.778470  0.388530  0.266530  1.0  -0.2284
  N  N391  1  0.012470  0.490230  0.275130  1.0  -0.4981
  N  N392  1  0.774370  0.392330  0.198430  1.0  -0.2332
  N  N393  1  0.127570  0.543930  0.331130  1.0  -0.0134
  N  N394  1  0.219870  0.605330  0.403230  1.0  -0.2432
  N  N395  1  0.151470  0.562930  0.438030  1.0  -0.3063
  N  N396  1  0.558830  0.770070  0.558570  1.0  0.0313
  N  N397  1  0.445130  0.721870  0.599870  1.0  -0.2284
  N  N398  1  0.679130  0.823570  0.608470  1.0  -0.4981
  N  N399  1  0.441030  0.725670  0.531770  1.0  -0.2332
  N  N400  1  0.794230  0.877270  0.664470  1.0  -0.0135
  N  N401  1  0.886530  0.938670  0.736570  1.0  -0.2432
  N  N402  1  0.818130  0.896270  0.771370  1.0  -0.3063
  N  N403  1  0.896600  0.122100  0.891900  1.0  0.0331
  N  N404  1  0.944800  0.056600  0.933200  1.0  -0.2274
  N  N405  1  0.843100  0.188900  0.941800  1.0  -0.4982
  N  N406  1  0.941000  0.048700  0.865100  1.0  -0.2337
  N  N407  1  0.789400  0.250300  0.997800  1.0  -0.0128
  N  N408  1  0.728000  0.281200  0.069900  1.0  -0.2436
  N  N409  1  0.770400  0.255200  0.104700  1.0  -0.3082
  N  N410  1  0.563270  0.455430  0.225230  1.0  0.0331
  N  N411  1  0.611470  0.389930  0.266530  1.0  -0.2274
  N  N412  1  0.509770  0.522230  0.275130  1.0  -0.4982
  N  N413  1  0.607670  0.382030  0.198430  1.0  -0.2337
  N  N414  1  0.456070  0.583630  0.331130  1.0  -0.0128
  N  N415  1  0.394670  0.614530  0.403230  1.0  -0.2436
  N  N416  1  0.437070  0.588530  0.438030  1.0  -0.3081
  N  N417  1  0.229930  0.788770  0.558570  1.0  0.0331
  N  N418  1  0.278130  0.723270  0.599870  1.0  -0.2274
  N  N419  1  0.176430  0.855570  0.608470  1.0  -0.4982
  N  N420  1  0.274330  0.715370  0.531770  1.0  -0.2337
  N  N421  1  0.122730  0.916970  0.664470  1.0  -0.0128
  N  N422  1  0.061330  0.947870  0.736570  1.0  -0.2435
  N  N423  1  0.103730  0.921870  0.771370  1.0  -0.3082
