# generated using pymatgen
data_ZnCu2H18C48(NO2)4
_symmetry_space_group_name_H-M   'P 1'
_cell_length_a   18.58370000
_cell_length_b   18.58370000
_cell_length_c   53.13500000
_cell_angle_alpha   90.00000000
_cell_angle_beta   90.00000000
_cell_angle_gamma   90.00000000
_symmetry_Int_Tables_number   1
_chemical_formula_structural   ZnCu2H18C48(NO2)4
_chemical_formula_sum   'Zn8 Cu16 H144 C384 N32 O64'
_cell_volume   18350.37977884
_cell_formula_units_Z   8
loop_
 _symmetry_equiv_pos_site_id
 _symmetry_equiv_pos_as_xyz
  1  'x, y, z'
loop_
 _atom_site_type_symbol
 _atom_site_label
 _atom_site_symmetry_multiplicity
 _atom_site_fract_x
 _atom_site_fract_y
 _atom_site_fract_z
 _atom_site_occupancy
 _atom_site_charge
  Zn  Zn1  1  0.171360  0.502130  0.500000  1.0  0.934
  Zn  Zn2  1  0.828640  0.497870  0.500000  1.0  0.9342
  Zn  Zn3  1  0.997870  0.671360  0.000000  1.0  0.9349
  Zn  Zn4  1  0.002130  0.328640  0.000000  1.0  0.9348
  Zn  Zn5  1  0.328640  0.002130  0.000000  1.0  0.9342
  Zn  Zn6  1  0.671360  0.997870  0.000000  1.0  0.934
  Zn  Zn7  1  0.502130  0.171360  0.500000  1.0  0.9351
  Zn  Zn8  1  0.497870  0.828640  0.500000  1.0  0.9347
  Cu  Cu9  1  0.270290  0.270290  0.229590  1.0  0.8698
  Cu  Cu10  1  0.203780  0.203780  0.267250  1.0  0.8681
  Cu  Cu11  1  0.729710  0.729710  0.229590  1.0  0.8701
  Cu  Cu12  1  0.796220  0.796220  0.267250  1.0  0.8694
  Cu  Cu13  1  0.229710  0.770290  0.729590  1.0  0.8703
  Cu  Cu14  1  0.296220  0.703780  0.767250  1.0  0.8703
  Cu  Cu15  1  0.770290  0.229710  0.729590  1.0  0.8694
  Cu  Cu16  1  0.703780  0.296220  0.767250  1.0  0.8705
  Cu  Cu17  1  0.229710  0.770290  0.270410  1.0  0.8696
  Cu  Cu18  1  0.296220  0.703780  0.232750  1.0  0.8697
  Cu  Cu19  1  0.770290  0.229710  0.270410  1.0  0.8699
  Cu  Cu20  1  0.703780  0.296220  0.232750  1.0  0.8707
  Cu  Cu21  1  0.270290  0.270290  0.770410  1.0  0.8703
  Cu  Cu22  1  0.203780  0.203780  0.732750  1.0  0.8692
  Cu  Cu23  1  0.729710  0.729710  0.770410  1.0  0.8695
  Cu  Cu24  1  0.796220  0.796220  0.732750  1.0  0.8689
  H  H25  1  0.277130  0.598360  0.413030  1.0  0.0784
  H  H26  1  0.223920  0.602680  0.323780  1.0  0.1084
  H  H27  1  0.246340  0.487040  0.253010  1.0  0.0865
  H  H28  1  0.209030  0.367520  0.322600  1.0  0.076
  H  H29  1  0.100570  0.371000  0.414540  1.0  0.0729
  H  H30  1  0.132590  0.588850  0.402130  1.0  0.0702
  H  H31  1  0.149070  0.592020  0.354970  1.0  0.0718
  H  H32  1  0.229000  0.377030  0.404810  1.0  0.088
  H  H33  1  0.225070  0.379550  0.356260  1.0  0.1095
  H  H34  1  0.722870  0.401640  0.413030  1.0  0.0784
  H  H35  1  0.776080  0.397320  0.323780  1.0  0.1073
  H  H36  1  0.753660  0.512960  0.253010  1.0  0.0868
  H  H37  1  0.790970  0.632480  0.322600  1.0  0.0771
  H  H38  1  0.899430  0.629000  0.414540  1.0  0.0719
  H  H39  1  0.867410  0.411150  0.402130  1.0  0.0691
  H  H40  1  0.850930  0.407980  0.354970  1.0  0.0722
  H  H41  1  0.771000  0.622970  0.404810  1.0  0.089
  H  H42  1  0.774930  0.620450  0.356260  1.0  0.1114
  H  H43  1  0.901640  0.777130  0.913030  1.0  0.0786
  H  H44  1  0.897320  0.723920  0.823780  1.0  0.1058
  H  H45  1  0.012960  0.746340  0.753010  1.0  0.0875
  H  H46  1  0.132480  0.709030  0.822600  1.0  0.0776
  H  H47  1  0.129000  0.600570  0.914540  1.0  0.0749
  H  H48  1  0.911150  0.632590  0.902130  1.0  0.0696
  H  H49  1  0.907980  0.649070  0.854970  1.0  0.0689
  H  H50  1  0.122970  0.729000  0.904810  1.0  0.0893
  H  H51  1  0.120450  0.725070  0.856260  1.0  0.1053
  H  H52  1  0.098360  0.222870  0.913030  1.0  0.0787
  H  H53  1  0.102680  0.276080  0.823780  1.0  0.1054
  H  H54  1  0.987040  0.253660  0.753010  1.0  0.0877
  H  H55  1  0.867520  0.290970  0.822600  1.0  0.0768
  H  H56  1  0.871000  0.399430  0.914540  1.0  0.0751
  H  H57  1  0.088850  0.367410  0.902130  1.0  0.0692
  H  H58  1  0.092020  0.350930  0.854970  1.0  0.0724
  H  H59  1  0.877030  0.271000  0.904810  1.0  0.0902
  H  H60  1  0.879550  0.274930  0.856260  1.0  0.1076
  H  H61  1  0.222870  0.098360  0.086970  1.0  0.0785
  H  H62  1  0.276080  0.102680  0.176220  1.0  0.1083
  H  H63  1  0.253660  0.987040  0.246990  1.0  0.0876
  H  H64  1  0.290970  0.867520  0.177400  1.0  0.0756
  H  H65  1  0.399430  0.871000  0.085460  1.0  0.074
  H  H66  1  0.367410  0.088850  0.097870  1.0  0.0689
  H  H67  1  0.350930  0.092020  0.145030  1.0  0.0722
  H  H68  1  0.271000  0.877030  0.095190  1.0  0.0879
  H  H69  1  0.274930  0.879550  0.143740  1.0  0.1116
  H  H70  1  0.777130  0.901640  0.086970  1.0  0.0786
  H  H71  1  0.723920  0.897320  0.176220  1.0  0.1071
  H  H72  1  0.746340  0.012960  0.246990  1.0  0.0881
  H  H73  1  0.709030  0.132480  0.177400  1.0  0.0753
  H  H74  1  0.600570  0.129000  0.085460  1.0  0.0754
  H  H75  1  0.632590  0.911150  0.097870  1.0  0.0689
  H  H76  1  0.649070  0.907980  0.145030  1.0  0.0724
  H  H77  1  0.729000  0.122970  0.095190  1.0  0.0878
  H  H78  1  0.725070  0.120450  0.143740  1.0  0.1111
  H  H79  1  0.598360  0.277130  0.586970  1.0  0.0792
  H  H80  1  0.602680  0.223920  0.676220  1.0  0.1051
  H  H81  1  0.487040  0.246340  0.746990  1.0  0.0886
  H  H82  1  0.367520  0.209030  0.677400  1.0  0.077
  H  H83  1  0.371000  0.100570  0.585460  1.0  0.0736
  H  H84  1  0.588850  0.132590  0.597870  1.0  0.069
  H  H85  1  0.592020  0.149070  0.645030  1.0  0.0716
  H  H86  1  0.377030  0.229000  0.595190  1.0  0.0895
  H  H87  1  0.379550  0.225070  0.643740  1.0  0.1088
  H  H88  1  0.401640  0.722870  0.586970  1.0  0.0791
  H  H89  1  0.397320  0.776080  0.676220  1.0  0.106
  H  H90  1  0.512960  0.753660  0.746990  1.0  0.0893
  H  H91  1  0.632480  0.790970  0.677400  1.0  0.0769
  H  H92  1  0.629000  0.899430  0.585460  1.0  0.0749
  H  H93  1  0.411150  0.867410  0.597870  1.0  0.0698
  H  H94  1  0.407980  0.850930  0.645030  1.0  0.0702
  H  H95  1  0.622970  0.771000  0.595190  1.0  0.0894
  H  H96  1  0.620450  0.774930  0.643740  1.0  0.1062
  H  H97  1  0.722870  0.401640  0.586970  1.0  0.0786
  H  H98  1  0.776080  0.397320  0.676220  1.0  0.1071
  H  H99  1  0.753660  0.512960  0.746990  1.0  0.0876
  H  H100  1  0.790970  0.632480  0.677400  1.0  0.0764
  H  H101  1  0.899430  0.629000  0.585460  1.0  0.0737
  H  H102  1  0.867410  0.411150  0.597870  1.0  0.0688
  H  H103  1  0.850930  0.407980  0.645030  1.0  0.0721
  H  H104  1  0.771000  0.622970  0.595190  1.0  0.0885
  H  H105  1  0.774930  0.620450  0.643740  1.0  0.1122
  H  H106  1  0.277130  0.598360  0.586970  1.0  0.079
  H  H107  1  0.223920  0.602680  0.676220  1.0  0.1083
  H  H108  1  0.246340  0.487040  0.746990  1.0  0.0881
  H  H109  1  0.209030  0.367520  0.677400  1.0  0.0753
  H  H110  1  0.100570  0.371000  0.585460  1.0  0.0729
  H  H111  1  0.132590  0.588850  0.597870  1.0  0.0699
  H  H112  1  0.149070  0.592020  0.645030  1.0  0.0721
  H  H113  1  0.229000  0.377030  0.595190  1.0  0.0876
  H  H114  1  0.225070  0.379550  0.643740  1.0  0.1102
  H  H115  1  0.098360  0.222870  0.086970  1.0  0.0791
  H  H116  1  0.102680  0.276080  0.176220  1.0  0.1054
  H  H117  1  0.987040  0.253660  0.246990  1.0  0.0891
  H  H118  1  0.867520  0.290970  0.177400  1.0  0.0769
  H  H119  1  0.871000  0.399430  0.085460  1.0  0.0759
  H  H120  1  0.088850  0.367410  0.097870  1.0  0.069
  H  H121  1  0.092020  0.350930  0.145030  1.0  0.0719
  H  H122  1  0.877030  0.271000  0.095190  1.0  0.0894
  H  H123  1  0.879550  0.274930  0.143740  1.0  0.1082
  H  H124  1  0.901640  0.777130  0.086970  1.0  0.0788
  H  H125  1  0.897320  0.723920  0.176220  1.0  0.1058
  H  H126  1  0.012960  0.746340  0.246990  1.0  0.0888
  H  H127  1  0.132480  0.709030  0.177400  1.0  0.0769
  H  H128  1  0.129000  0.600570  0.085460  1.0  0.0753
  H  H129  1  0.911150  0.632590  0.097870  1.0  0.0693
  H  H130  1  0.907980  0.649070  0.145030  1.0  0.0699
  H  H131  1  0.122970  0.729000  0.095190  1.0  0.0894
  H  H132  1  0.120450  0.725070  0.143740  1.0  0.1063
  H  H133  1  0.777130  0.901640  0.913030  1.0  0.0782
  H  H134  1  0.723920  0.897320  0.823780  1.0  0.1072
  H  H135  1  0.746340  0.012960  0.753010  1.0  0.0865
  H  H136  1  0.709030  0.132480  0.822600  1.0  0.0759
  H  H137  1  0.600570  0.129000  0.914540  1.0  0.0747
  H  H138  1  0.632590  0.911150  0.902130  1.0  0.0691
  H  H139  1  0.649070  0.907980  0.854970  1.0  0.0718
  H  H140  1  0.729000  0.122970  0.904810  1.0  0.0881
  H  H141  1  0.725070  0.120450  0.856260  1.0  0.1101
  H  H142  1  0.222870  0.098360  0.913030  1.0  0.0783
  H  H143  1  0.276080  0.102680  0.823780  1.0  0.1083
  H  H144  1  0.253660  0.987040  0.753010  1.0  0.0868
  H  H145  1  0.290970  0.867520  0.822600  1.0  0.0764
  H  H146  1  0.399430  0.871000  0.914540  1.0  0.0735
  H  H147  1  0.367410  0.088850  0.902130  1.0  0.0691
  H  H148  1  0.350930  0.092020  0.854970  1.0  0.0723
  H  H149  1  0.271000  0.877030  0.904810  1.0  0.0885
  H  H150  1  0.274930  0.879550  0.856260  1.0  0.111
  H  H151  1  0.401640  0.722870  0.413030  1.0  0.0787
  H  H152  1  0.397320  0.776080  0.323780  1.0  0.1061
  H  H153  1  0.512960  0.753660  0.253010  1.0  0.0878
  H  H154  1  0.632480  0.790970  0.322600  1.0  0.0774
  H  H155  1  0.629000  0.899430  0.414540  1.0  0.0734
  H  H156  1  0.411150  0.867410  0.402130  1.0  0.0702
  H  H157  1  0.407980  0.850930  0.354970  1.0  0.07
  H  H158  1  0.622970  0.771000  0.404810  1.0  0.0899
  H  H159  1  0.620450  0.774930  0.356260  1.0  0.1052
  H  H160  1  0.598360  0.277130  0.413030  1.0  0.079
  H  H161  1  0.602680  0.223920  0.323780  1.0  0.1052
  H  H162  1  0.487040  0.246340  0.253010  1.0  0.0873
  H  H163  1  0.367520  0.209030  0.322600  1.0  0.0771
  H  H164  1  0.371000  0.100570  0.414540  1.0  0.0733
  H  H165  1  0.588850  0.132590  0.402130  1.0  0.0692
  H  H166  1  0.592020  0.149070  0.354970  1.0  0.0716
  H  H167  1  0.377030  0.229000  0.404810  1.0  0.0897
  H  H168  1  0.379550  0.225070  0.356260  1.0  0.108
  C  C169  1  0.222300  0.542100  0.446770  1.0  0.165
  C  C170  1  0.212700  0.428400  0.394560  1.0  -0.0415
  C  C171  1  0.211500  0.430100  0.367450  1.0  -0.0814
  C  C172  1  0.217800  0.483800  0.326380  1.0  -0.0913
  C  C173  1  0.225600  0.549400  0.313160  1.0  -0.0876
  C  C174  1  0.235400  0.550500  0.287170  1.0  -0.1018
  C  C175  1  0.235500  0.487100  0.274130  1.0  -0.0934
  C  C176  1  0.222600  0.422700  0.286190  1.0  -0.1419
  C  C177  1  0.216000  0.421100  0.312440  1.0  -0.12
  C  C178  1  0.223200  0.352800  0.272550  1.0  0.6236
  C  C179  1  0.245000  0.619300  0.274750  1.0  0.6826
  C  C180  1  0.184900  0.492500  0.435800  1.0  0.0631
  C  C181  1  0.147100  0.438400  0.446400  1.0  -0.0183
  C  C182  1  0.104000  0.378600  0.435800  1.0  0.1185
  C  C183  1  0.077500  0.345100  0.452800  1.0  0.4037
  C  C184  1  0.086300  0.361400  0.475600  1.0  0.1849
  C  C185  1  0.194600  0.487300  0.406810  1.0  -0.0176
  C  C186  1  0.162800  0.543400  0.392330  1.0  -0.1323
  C  C187  1  0.267800  0.615800  0.477300  1.0  -0.0285
  C  C188  1  0.292400  0.639800  0.452300  1.0  -0.0013
  C  C189  1  0.269200  0.598900  0.434300  1.0  0.0576
  C  C190  1  0.168200  0.543400  0.366210  1.0  -0.1333
  C  C191  1  0.195300  0.487800  0.353800  1.0  0.0396
  C  C192  1  0.777700  0.457900  0.446770  1.0  0.1654
  C  C193  1  0.787300  0.571600  0.394560  1.0  -0.0412
  C  C194  1  0.788500  0.569900  0.367450  1.0  -0.0808
  C  C195  1  0.782200  0.516200  0.326380  1.0  -0.0913
  C  C196  1  0.774400  0.450600  0.313160  1.0  -0.085
  C  C197  1  0.764600  0.449500  0.287170  1.0  -0.1019
  C  C198  1  0.764500  0.512900  0.274130  1.0  -0.0935
  C  C199  1  0.777400  0.577300  0.286190  1.0  -0.1414
  C  C200  1  0.784000  0.578900  0.312440  1.0  -0.1211
  C  C201  1  0.776800  0.647200  0.272550  1.0  0.624
  C  C202  1  0.755000  0.380700  0.274750  1.0  0.6822
  C  C203  1  0.815100  0.507500  0.435800  1.0  0.0634
  C  C204  1  0.852900  0.561600  0.446400  1.0  -0.0192
  C  C205  1  0.896000  0.621400  0.435800  1.0  0.1171
  C  C206  1  0.922500  0.654900  0.452800  1.0  0.4004
  C  C207  1  0.913700  0.638600  0.475600  1.0  0.1873
  C  C208  1  0.805400  0.512700  0.406810  1.0  -0.0182
  C  C209  1  0.837200  0.456600  0.392330  1.0  -0.1329
  C  C210  1  0.732200  0.384200  0.477300  1.0  -0.028
  C  C211  1  0.707600  0.360200  0.452300  1.0  -0.0024
  C  C212  1  0.730800  0.401100  0.434300  1.0  0.0571
  C  C213  1  0.831800  0.456600  0.366210  1.0  -0.1332
  C  C214  1  0.804700  0.512200  0.353800  1.0  0.0397
  C  C215  1  0.957900  0.722300  0.946770  1.0  0.1661
  C  C216  1  0.071600  0.712700  0.894560  1.0  -0.0409
  C  C217  1  0.069900  0.711500  0.867450  1.0  -0.0796
  C  C218  1  0.016200  0.717800  0.826380  1.0  -0.0916
  C  C219  1  0.950600  0.725600  0.813160  1.0  -0.0855
  C  C220  1  0.949500  0.735400  0.787170  1.0  -0.1018
  C  C221  1  0.012900  0.735500  0.774130  1.0  -0.0935
  C  C222  1  0.077300  0.722600  0.786190  1.0  -0.141
  C  C223  1  0.078900  0.716000  0.812440  1.0  -0.1201
  C  C224  1  0.147200  0.723200  0.772550  1.0  0.6226
  C  C225  1  0.880700  0.745000  0.774750  1.0  0.6812
  C  C226  1  0.007500  0.684900  0.935800  1.0  0.0628
  C  C227  1  0.061600  0.647100  0.946400  1.0  -0.0186
  C  C228  1  0.121400  0.604000  0.935800  1.0  0.1172
  C  C229  1  0.154900  0.577500  0.952800  1.0  0.4102
  C  C230  1  0.138600  0.586300  0.975600  1.0  0.1857
  C  C231  1  0.012700  0.694600  0.906810  1.0  -0.0169
  C  C232  1  0.956600  0.662800  0.892330  1.0  -0.1323
  C  C233  1  0.884200  0.767800  0.977300  1.0  -0.0299
  C  C234  1  0.860200  0.792400  0.952300  1.0  -0.0048
  C  C235  1  0.901100  0.769200  0.934300  1.0  0.057
  C  C236  1  0.956600  0.668200  0.866210  1.0  -0.1304
  C  C237  1  0.012200  0.695300  0.853800  1.0  0.0406
  C  C238  1  0.042100  0.277700  0.946770  1.0  0.1661
  C  C239  1  0.928400  0.287300  0.894560  1.0  -0.0432
  C  C240  1  0.930100  0.288500  0.867450  1.0  -0.0787
  C  C241  1  0.983800  0.282200  0.826380  1.0  -0.0917
  C  C242  1  0.049400  0.274400  0.813160  1.0  -0.0849
  C  C243  1  0.050500  0.264600  0.787170  1.0  -0.1025
  C  C244  1  0.987100  0.264500  0.774130  1.0  -0.0938
  C  C245  1  0.922700  0.277400  0.786190  1.0  -0.1407
  C  C246  1  0.921100  0.284000  0.812440  1.0  -0.1187
  C  C247  1  0.852800  0.276800  0.772550  1.0  0.623
  C  C248  1  0.119300  0.255000  0.774750  1.0  0.6806
  C  C249  1  0.992500  0.315100  0.935800  1.0  0.0628
  C  C250  1  0.938400  0.352900  0.946400  1.0  -0.0191
  C  C251  1  0.878600  0.396000  0.935800  1.0  0.1165
  C  C252  1  0.845100  0.422500  0.952800  1.0  0.406
  C  C253  1  0.861400  0.413700  0.975600  1.0  0.1878
  C  C254  1  0.987300  0.305400  0.906810  1.0  -0.0172
  C  C255  1  0.043400  0.337200  0.892330  1.0  -0.1313
  C  C256  1  0.115800  0.232200  0.977300  1.0  -0.0298
  C  C257  1  0.139800  0.207600  0.952300  1.0  -0.0012
  C  C258  1  0.098900  0.230800  0.934300  1.0  0.0573
  C  C259  1  0.043400  0.331800  0.866210  1.0  -0.1312
  C  C260  1  0.987800  0.304700  0.853800  1.0  0.0413
  C  C261  1  0.277700  0.042100  0.053230  1.0  0.1649
  C  C262  1  0.287300  0.928400  0.105440  1.0  -0.044
  C  C263  1  0.288500  0.930100  0.132550  1.0  -0.0809
  C  C264  1  0.282200  0.983800  0.173620  1.0  -0.0914
  C  C265  1  0.274400  0.049400  0.186840  1.0  -0.0882
  C  C266  1  0.264600  0.050500  0.212830  1.0  -0.1018
  C  C267  1  0.264500  0.987100  0.225870  1.0  -0.0923
  C  C268  1  0.277400  0.922700  0.213810  1.0  -0.1425
  C  C269  1  0.284000  0.921100  0.187560  1.0  -0.1201
  C  C270  1  0.276800  0.852800  0.227450  1.0  0.6238
  C  C271  1  0.255000  0.119300  0.225250  1.0  0.6826
  C  C272  1  0.315100  0.992500  0.064200  1.0  0.0639
  C  C273  1  0.352900  0.938400  0.053600  1.0  -0.0194
  C  C274  1  0.396000  0.878600  0.064200  1.0  0.1175
  C  C275  1  0.422500  0.845100  0.047200  1.0  0.4081
  C  C276  1  0.413700  0.861400  0.024400  1.0  0.1866
  C  C277  1  0.305400  0.987300  0.093190  1.0  -0.0181
  C  C278  1  0.337200  0.043400  0.107670  1.0  -0.1312
  C  C279  1  0.232200  0.115800  0.022700  1.0  -0.0295
  C  C280  1  0.207600  0.139800  0.047700  1.0  -0.0016
  C  C281  1  0.230800  0.098900  0.065700  1.0  0.0574
  C  C282  1  0.331800  0.043400  0.133790  1.0  -0.1353
  C  C283  1  0.304700  0.987800  0.146200  1.0  0.0386
  C  C284  1  0.722300  0.957900  0.053230  1.0  0.1638
  C  C285  1  0.712700  0.071600  0.105440  1.0  -0.0401
  C  C286  1  0.711500  0.069900  0.132550  1.0  -0.0815
  C  C287  1  0.717800  0.016200  0.173620  1.0  -0.0915
  C  C288  1  0.725600  0.950600  0.186840  1.0  -0.0849
  C  C289  1  0.735400  0.949500  0.212830  1.0  -0.1019
  C  C290  1  0.735500  0.012900  0.225870  1.0  -0.0918
  C  C291  1  0.722600  0.077300  0.213810  1.0  -0.1422
  C  C292  1  0.716000  0.078900  0.187560  1.0  -0.1201
  C  C293  1  0.723200  0.147200  0.227450  1.0  0.6237
  C  C294  1  0.745000  0.880700  0.225250  1.0  0.6825
  C  C295  1  0.684900  0.007500  0.064200  1.0  0.0644
  C  C296  1  0.647100  0.061600  0.053600  1.0  -0.018
  C  C297  1  0.604000  0.121400  0.064200  1.0  0.1159
  C  C298  1  0.577500  0.154900  0.047200  1.0  0.4023
  C  C299  1  0.586300  0.138600  0.024400  1.0  0.1889
  C  C300  1  0.694600  0.012700  0.093190  1.0  -0.0173
  C  C301  1  0.662800  0.956600  0.107670  1.0  -0.1332
  C  C302  1  0.767800  0.884200  0.022700  1.0  -0.0296
  C  C303  1  0.792400  0.860200  0.047700  1.0  -0.0024
  C  C304  1  0.769200  0.901100  0.065700  1.0  0.0574
  C  C305  1  0.668200  0.956600  0.133790  1.0  -0.1317
  C  C306  1  0.695300  0.012200  0.146200  1.0  0.0384
  C  C307  1  0.542100  0.222300  0.553230  1.0  0.1652
  C  C308  1  0.428400  0.212700  0.605440  1.0  -0.042
  C  C309  1  0.430100  0.211500  0.632550  1.0  -0.0793
  C  C310  1  0.483800  0.217800  0.673620  1.0  -0.0915
  C  C311  1  0.549400  0.225600  0.686840  1.0  -0.0851
  C  C312  1  0.550500  0.235400  0.712830  1.0  -0.1024
  C  C313  1  0.487100  0.235500  0.725870  1.0  -0.0921
  C  C314  1  0.422700  0.222600  0.713810  1.0  -0.1417
  C  C315  1  0.421100  0.216000  0.687560  1.0  -0.1184
  C  C316  1  0.352800  0.223200  0.727450  1.0  0.6231
  C  C317  1  0.619300  0.245000  0.725250  1.0  0.6807
  C  C318  1  0.492500  0.184900  0.564200  1.0  0.063
  C  C319  1  0.438400  0.147100  0.553600  1.0  -0.0185
  C  C320  1  0.378600  0.104000  0.564200  1.0  0.1165
  C  C321  1  0.345100  0.077500  0.547200  1.0  0.4005
  C  C322  1  0.361400  0.086300  0.524400  1.0  0.1868
  C  C323  1  0.487300  0.194600  0.593190  1.0  -0.0168
  C  C324  1  0.543400  0.162800  0.607670  1.0  -0.1311
  C  C325  1  0.615800  0.267800  0.522700  1.0  -0.0307
  C  C326  1  0.639800  0.292400  0.547700  1.0  -0.0009
  C  C327  1  0.598900  0.269200  0.565700  1.0  0.0563
  C  C328  1  0.543400  0.168200  0.633790  1.0  -0.1308
  C  C329  1  0.487800  0.195300  0.646200  1.0  0.0402
  C  C330  1  0.457900  0.777700  0.553230  1.0  0.1654
  C  C331  1  0.571600  0.787300  0.605440  1.0  -0.0416
  C  C332  1  0.569900  0.788500  0.632550  1.0  -0.0787
  C  C333  1  0.516200  0.782200  0.673620  1.0  -0.0923
  C  C334  1  0.450600  0.774400  0.686840  1.0  -0.0856
  C  C335  1  0.449500  0.764600  0.712830  1.0  -0.1022
  C  C336  1  0.512900  0.764500  0.725870  1.0  -0.0921
  C  C337  1  0.577300  0.777400  0.713810  1.0  -0.1416
  C  C338  1  0.578900  0.784000  0.687560  1.0  -0.1198
  C  C339  1  0.647200  0.776800  0.727450  1.0  0.6224
  C  C340  1  0.380700  0.755000  0.725250  1.0  0.6813
  C  C341  1  0.507500  0.815100  0.564200  1.0  0.0641
  C  C342  1  0.561600  0.852900  0.553600  1.0  -0.0186
  C  C343  1  0.621400  0.896000  0.564200  1.0  0.1164
  C  C344  1  0.654900  0.922500  0.547200  1.0  0.4047
  C  C345  1  0.638600  0.913700  0.524400  1.0  0.1898
  C  C346  1  0.512700  0.805400  0.593190  1.0  -0.0171
  C  C347  1  0.456600  0.837200  0.607670  1.0  -0.1312
  C  C348  1  0.384200  0.732200  0.522700  1.0  -0.0315
  C  C349  1  0.360200  0.707600  0.547700  1.0  -0.0054
  C  C350  1  0.401100  0.730800  0.565700  1.0  0.0576
  C  C351  1  0.456600  0.831800  0.633790  1.0  -0.1311
  C  C352  1  0.512200  0.804700  0.646200  1.0  0.0401
  C  C353  1  0.777700  0.457900  0.553230  1.0  0.1645
  C  C354  1  0.787300  0.571600  0.605440  1.0  -0.041
  C  C355  1  0.788500  0.569900  0.632550  1.0  -0.0811
  C  C356  1  0.782200  0.516200  0.673620  1.0  -0.0915
  C  C357  1  0.774400  0.450600  0.686840  1.0  -0.0854
  C  C358  1  0.764600  0.449500  0.712830  1.0  -0.1019
  C  C359  1  0.764500  0.512900  0.725870  1.0  -0.0922
  C  C360  1  0.777400  0.577300  0.713810  1.0  -0.1423
  C  C361  1  0.784000  0.578900  0.687560  1.0  -0.1206
  C  C362  1  0.776800  0.647200  0.727450  1.0  0.6241
  C  C363  1  0.755000  0.380700  0.725250  1.0  0.6823
  C  C364  1  0.815100  0.507500  0.564200  1.0  0.0642
  C  C365  1  0.852900  0.561600  0.553600  1.0  -0.019
  C  C366  1  0.896000  0.621400  0.564200  1.0  0.1154
  C  C367  1  0.922500  0.654900  0.547200  1.0  0.4007
  C  C368  1  0.913700  0.638600  0.524400  1.0  0.189
  C  C369  1  0.805400  0.512700  0.593190  1.0  -0.0183
  C  C370  1  0.837200  0.456600  0.607670  1.0  -0.1326
  C  C371  1  0.732200  0.384200  0.522700  1.0  -0.0293
  C  C372  1  0.707600  0.360200  0.547700  1.0  -0.0027
  C  C373  1  0.730800  0.401100  0.565700  1.0  0.0574
  C  C374  1  0.831800  0.456600  0.633790  1.0  -0.1335
  C  C375  1  0.804700  0.512200  0.646200  1.0  0.0386
  C  C376  1  0.222300  0.542100  0.553230  1.0  0.1641
  C  C377  1  0.212700  0.428400  0.605440  1.0  -0.0423
  C  C378  1  0.211500  0.430100  0.632550  1.0  -0.0811
  C  C379  1  0.217800  0.483800  0.673620  1.0  -0.0914
  C  C380  1  0.225600  0.549400  0.686840  1.0  -0.0876
  C  C381  1  0.235400  0.550500  0.712830  1.0  -0.1019
  C  C382  1  0.235500  0.487100  0.725870  1.0  -0.0918
  C  C383  1  0.222600  0.422700  0.713810  1.0  -0.1425
  C  C384  1  0.216000  0.421100  0.687560  1.0  -0.1199
  C  C385  1  0.223200  0.352800  0.727450  1.0  0.6235
  C  C386  1  0.245000  0.619300  0.725250  1.0  0.6828
  C  C387  1  0.184900  0.492500  0.564200  1.0  0.064
  C  C388  1  0.147100  0.438400  0.553600  1.0  -0.0184
  C  C389  1  0.104000  0.378600  0.564200  1.0  0.1176
  C  C390  1  0.077500  0.345100  0.547200  1.0  0.4032
  C  C391  1  0.086300  0.361400  0.524400  1.0  0.1868
  C  C392  1  0.194600  0.487300  0.593190  1.0  -0.0173
  C  C393  1  0.162800  0.543400  0.607670  1.0  -0.1318
  C  C394  1  0.267800  0.615800  0.522700  1.0  -0.0298
  C  C395  1  0.292400  0.639800  0.547700  1.0  -0.0017
  C  C396  1  0.269200  0.598900  0.565700  1.0  0.0574
  C  C397  1  0.168200  0.543400  0.633790  1.0  -0.1341
  C  C398  1  0.195300  0.487800  0.646200  1.0  0.0385
  C  C399  1  0.042100  0.277700  0.053230  1.0  0.1652
  C  C400  1  0.928400  0.287300  0.105440  1.0  -0.0438
  C  C401  1  0.930100  0.288500  0.132550  1.0  -0.0785
  C  C402  1  0.983800  0.282200  0.173620  1.0  -0.0919
  C  C403  1  0.049400  0.274400  0.186840  1.0  -0.0852
  C  C404  1  0.050500  0.264600  0.212830  1.0  -0.1027
  C  C405  1  0.987100  0.264500  0.225870  1.0  -0.0922
  C  C406  1  0.922700  0.277400  0.213810  1.0  -0.1415
  C  C407  1  0.921100  0.284000  0.187560  1.0  -0.1184
  C  C408  1  0.852800  0.276800  0.227450  1.0  0.6229
  C  C409  1  0.119300  0.255000  0.225250  1.0  0.6807
  C  C410  1  0.992500  0.315100  0.064200  1.0  0.0638
  C  C411  1  0.938400  0.352900  0.053600  1.0  -0.0187
  C  C412  1  0.878600  0.396000  0.064200  1.0  0.1145
  C  C413  1  0.845100  0.422500  0.047200  1.0  0.4061
  C  C414  1  0.861400  0.413700  0.024400  1.0  0.1893
  C  C415  1  0.987300  0.305400  0.093190  1.0  -0.0171
  C  C416  1  0.043400  0.337200  0.107670  1.0  -0.1307
  C  C417  1  0.115800  0.232200  0.022700  1.0  -0.0312
  C  C418  1  0.139800  0.207600  0.047700  1.0  -0.0014
  C  C419  1  0.098900  0.230800  0.065700  1.0  0.0578
  C  C420  1  0.043400  0.331800  0.133790  1.0  -0.1317
  C  C421  1  0.987800  0.304700  0.146200  1.0  0.0403
  C  C422  1  0.957900  0.722300  0.053230  1.0  0.1654
  C  C423  1  0.071600  0.712700  0.105440  1.0  -0.041
  C  C424  1  0.069900  0.711500  0.132550  1.0  -0.0795
  C  C425  1  0.016200  0.717800  0.173620  1.0  -0.0918
  C  C426  1  0.950600  0.725600  0.186840  1.0  -0.0855
  C  C427  1  0.949500  0.735400  0.212830  1.0  -0.1019
  C  C428  1  0.012900  0.735500  0.225870  1.0  -0.092
  C  C429  1  0.077300  0.722600  0.213810  1.0  -0.1417
  C  C430  1  0.078900  0.716000  0.187560  1.0  -0.1198
  C  C431  1  0.147200  0.723200  0.227450  1.0  0.6227
  C  C432  1  0.880700  0.745000  0.225250  1.0  0.6813
  C  C433  1  0.007500  0.684900  0.064200  1.0  0.0633
  C  C434  1  0.061600  0.647100  0.053600  1.0  -0.0184
  C  C435  1  0.121400  0.604000  0.064200  1.0  0.1185
  C  C436  1  0.154900  0.577500  0.047200  1.0  0.41
  C  C437  1  0.138600  0.586300  0.024400  1.0  0.1873
  C  C438  1  0.012700  0.694600  0.093190  1.0  -0.0167
  C  C439  1  0.956600  0.662800  0.107670  1.0  -0.132
  C  C440  1  0.884200  0.767800  0.022700  1.0  -0.0312
  C  C441  1  0.860200  0.792400  0.047700  1.0  -0.0048
  C  C442  1  0.901100  0.769200  0.065700  1.0  0.0564
  C  C443  1  0.956600  0.668200  0.133790  1.0  -0.1306
  C  C444  1  0.012200  0.695300  0.146200  1.0  0.0399
  C  C445  1  0.722300  0.957900  0.946770  1.0  0.1646
  C  C446  1  0.712700  0.071600  0.894560  1.0  -0.0404
  C  C447  1  0.711500  0.069900  0.867450  1.0  -0.0813
  C  C448  1  0.717800  0.016200  0.826380  1.0  -0.0914
  C  C449  1  0.725600  0.950600  0.813160  1.0  -0.0846
  C  C450  1  0.735400  0.949500  0.787170  1.0  -0.1019
  C  C451  1  0.735500  0.012900  0.774130  1.0  -0.0933
  C  C452  1  0.722600  0.077300  0.786190  1.0  -0.1414
  C  C453  1  0.716000  0.078900  0.812440  1.0  -0.1206
  C  C454  1  0.723200  0.147200  0.772550  1.0  0.6235
  C  C455  1  0.745000  0.880700  0.774750  1.0  0.6824
  C  C456  1  0.684900  0.007500  0.935800  1.0  0.0635
  C  C457  1  0.647100  0.061600  0.946400  1.0  -0.0184
  C  C458  1  0.604000  0.121400  0.935800  1.0  0.1181
  C  C459  1  0.577500  0.154900  0.952800  1.0  0.402
  C  C460  1  0.586300  0.138600  0.975600  1.0  0.1872
  C  C461  1  0.694600  0.012700  0.906810  1.0  -0.0175
  C  C462  1  0.662800  0.956600  0.892330  1.0  -0.1333
  C  C463  1  0.767800  0.884200  0.977300  1.0  -0.029
  C  C464  1  0.792400  0.860200  0.952300  1.0  -0.0025
  C  C465  1  0.769200  0.901100  0.934300  1.0  0.0567
  C  C466  1  0.668200  0.956600  0.866210  1.0  -0.1314
  C  C467  1  0.695300  0.012200  0.853800  1.0  0.0395
  C  C468  1  0.277700  0.042100  0.946770  1.0  0.1659
  C  C469  1  0.287300  0.928400  0.894560  1.0  -0.0432
  C  C470  1  0.288500  0.930100  0.867450  1.0  -0.0811
  C  C471  1  0.282200  0.983800  0.826380  1.0  -0.0911
  C  C472  1  0.274400  0.049400  0.813160  1.0  -0.0881
  C  C473  1  0.264600  0.050500  0.787170  1.0  -0.1017
  C  C474  1  0.264500  0.987100  0.774130  1.0  -0.0936
  C  C475  1  0.277400  0.922700  0.786190  1.0  -0.1418
  C  C476  1  0.284000  0.921100  0.812440  1.0  -0.1203
  C  C477  1  0.276800  0.852800  0.772550  1.0  0.6239
  C  C478  1  0.255000  0.119300  0.774750  1.0  0.6823
  C  C479  1  0.315100  0.992500  0.935800  1.0  0.063
  C  C480  1  0.352900  0.938400  0.946400  1.0  -0.0193
  C  C481  1  0.396000  0.878600  0.935800  1.0  0.1182
  C  C482  1  0.422500  0.845100  0.952800  1.0  0.4084
  C  C483  1  0.413700  0.861400  0.975600  1.0  0.1847
  C  C484  1  0.305400  0.987300  0.906810  1.0  -0.0182
  C  C485  1  0.337200  0.043400  0.892330  1.0  -0.1319
  C  C486  1  0.232200  0.115800  0.977300  1.0  -0.0289
  C  C487  1  0.207600  0.139800  0.952300  1.0  -0.0012
  C  C488  1  0.230800  0.098900  0.934300  1.0  0.058
  C  C489  1  0.331800  0.043400  0.866210  1.0  -0.1344
  C  C490  1  0.304700  0.987800  0.853800  1.0  0.0398
  C  C491  1  0.457900  0.777700  0.446770  1.0  0.1663
  C  C492  1  0.571600  0.787300  0.394560  1.0  -0.0407
  C  C493  1  0.569900  0.788500  0.367450  1.0  -0.0789
  C  C494  1  0.516200  0.782200  0.326380  1.0  -0.0919
  C  C495  1  0.450600  0.774400  0.313160  1.0  -0.0855
  C  C496  1  0.449500  0.764600  0.287170  1.0  -0.102
  C  C497  1  0.512900  0.764500  0.274130  1.0  -0.0938
  C  C498  1  0.577300  0.777400  0.286190  1.0  -0.1408
  C  C499  1  0.578900  0.784000  0.312440  1.0  -0.1201
  C  C500  1  0.647200  0.776800  0.272550  1.0  0.6225
  C  C501  1  0.380700  0.755000  0.274750  1.0  0.6812
  C  C502  1  0.507500  0.815100  0.435800  1.0  0.0633
  C  C503  1  0.561600  0.852900  0.446400  1.0  -0.0189
  C  C504  1  0.621400  0.896000  0.435800  1.0  0.1164
  C  C505  1  0.654900  0.922500  0.452800  1.0  0.4044
  C  C506  1  0.638600  0.913700  0.475600  1.0  0.1877
  C  C507  1  0.512700  0.805400  0.406810  1.0  -0.0172
  C  C508  1  0.456600  0.837200  0.392330  1.0  -0.1318
  C  C509  1  0.384200  0.732200  0.477300  1.0  -0.0309
  C  C510  1  0.360200  0.707600  0.452300  1.0  -0.0052
  C  C511  1  0.401100  0.730800  0.434300  1.0  0.0571
  C  C512  1  0.456600  0.831800  0.366210  1.0  -0.1306
  C  C513  1  0.512200  0.804700  0.353800  1.0  0.041
  C  C514  1  0.542100  0.222300  0.446770  1.0  0.166
  C  C515  1  0.428400  0.212700  0.394560  1.0  -0.0423
  C  C516  1  0.430100  0.211500  0.367450  1.0  -0.0794
  C  C517  1  0.483800  0.217800  0.326380  1.0  -0.0914
  C  C518  1  0.549400  0.225600  0.313160  1.0  -0.0849
  C  C519  1  0.550500  0.235400  0.287170  1.0  -0.1022
  C  C520  1  0.487100  0.235500  0.274130  1.0  -0.0936
  C  C521  1  0.422700  0.222600  0.286190  1.0  -0.141
  C  C522  1  0.421100  0.216000  0.312440  1.0  -0.1187
  C  C523  1  0.352800  0.223200  0.272550  1.0  0.623
  C  C524  1  0.619300  0.245000  0.274750  1.0  0.6806
  C  C525  1  0.492500  0.184900  0.435800  1.0  0.0623
  C  C526  1  0.438400  0.147100  0.446400  1.0  -0.0189
  C  C527  1  0.378600  0.104000  0.435800  1.0  0.1167
  C  C528  1  0.345100  0.077500  0.452800  1.0  0.4009
  C  C529  1  0.361400  0.086300  0.475600  1.0  0.1858
  C  C530  1  0.487300  0.194600  0.406810  1.0  -0.0169
  C  C531  1  0.543400  0.162800  0.392330  1.0  -0.1313
  C  C532  1  0.615800  0.267800  0.477300  1.0  -0.0301
  C  C533  1  0.639800  0.292400  0.452300  1.0  -0.0008
  C  C534  1  0.598900  0.269200  0.434300  1.0  0.057
  C  C535  1  0.543400  0.168200  0.366210  1.0  -0.1306
  C  C536  1  0.487800  0.195300  0.353800  1.0  0.0409
  C  C537  1  0.071100  0.346600  0.500000  1.0  -0.0457
  C  C538  1  0.288800  0.643800  0.500000  1.0  -0.1009
  C  C539  1  0.928900  0.653400  0.500000  1.0  -0.0483
  C  C540  1  0.711200  0.356200  0.500000  1.0  -0.0994
  C  C541  1  0.153400  0.571100  0.000000  1.0  -0.0462
  C  C542  1  0.856200  0.788800  0.000000  1.0  -0.1004
  C  C543  1  0.846600  0.428900  0.000000  1.0  -0.0486
  C  C544  1  0.143800  0.211200  0.000000  1.0  -0.0994
  C  C545  1  0.428900  0.846600  0.000000  1.0  -0.0485
  C  C546  1  0.211200  0.143800  0.000000  1.0  -0.0999
  C  C547  1  0.571100  0.153400  0.000000  1.0  -0.0508
  C  C548  1  0.788800  0.856200  0.000000  1.0  -0.1005
  C  C549  1  0.346600  0.071100  0.500000  1.0  -0.0448
  C  C550  1  0.643800  0.288800  0.500000  1.0  -0.0988
  C  C551  1  0.653400  0.928900  0.500000  1.0  -0.0452
  C  C552  1  0.356200  0.711200  0.500000  1.0  -0.101
  N  N553  1  0.220500  0.554500  0.473030  1.0  -0.4522
  N  N554  1  0.136200  0.432000  0.472500  1.0  -0.3956
  N  N555  1  0.779500  0.445500  0.473030  1.0  -0.4521
  N  N556  1  0.863800  0.568000  0.472500  1.0  -0.3962
  N  N557  1  0.945500  0.720500  0.973030  1.0  -0.4519
  N  N558  1  0.068000  0.636200  0.972500  1.0  -0.3946
  N  N559  1  0.054500  0.279500  0.973030  1.0  -0.4527
  N  N560  1  0.932000  0.363800  0.972500  1.0  -0.3939
  N  N561  1  0.279500  0.054500  0.026970  1.0  -0.453
  N  N562  1  0.363800  0.932000  0.027500  1.0  -0.3962
  N  N563  1  0.720500  0.945500  0.026970  1.0  -0.4528
  N  N564  1  0.636200  0.068000  0.027500  1.0  -0.3964
  N  N565  1  0.554500  0.220500  0.526970  1.0  -0.4537
  N  N566  1  0.432000  0.136200  0.527500  1.0  -0.394
  N  N567  1  0.445500  0.779500  0.526970  1.0  -0.4525
  N  N568  1  0.568000  0.863800  0.527500  1.0  -0.3951
  N  N569  1  0.779500  0.445500  0.526970  1.0  -0.4525
  N  N570  1  0.863800  0.568000  0.527500  1.0  -0.3967
  N  N571  1  0.220500  0.554500  0.526970  1.0  -0.4532
  N  N572  1  0.136200  0.432000  0.527500  1.0  -0.3959
  N  N573  1  0.054500  0.279500  0.026970  1.0  -0.4528
  N  N574  1  0.932000  0.363800  0.027500  1.0  -0.3945
  N  N575  1  0.945500  0.720500  0.026970  1.0  -0.4532
  N  N576  1  0.068000  0.636200  0.027500  1.0  -0.3951
  N  N577  1  0.720500  0.945500  0.973030  1.0  -0.4525
  N  N578  1  0.636200  0.068000  0.972500  1.0  -0.3963
  N  N579  1  0.279500  0.054500  0.973030  1.0  -0.4521
  N  N580  1  0.363800  0.932000  0.972500  1.0  -0.3956
  N  N581  1  0.445500  0.779500  0.473030  1.0  -0.4522
  N  N582  1  0.568000  0.863800  0.472500  1.0  -0.3943
  N  N583  1  0.554500  0.220500  0.473030  1.0  -0.4525
  N  N584  1  0.432000  0.136200  0.472500  1.0  -0.3937
  O  O585  1  0.251700  0.355550  0.250070  1.0  -0.6062
  O  O586  1  0.195600  0.298600  0.282690  1.0  -0.6028
  O  O587  1  0.222600  0.674800  0.285240  1.0  -0.5998
  O  O588  1  0.275900  0.618900  0.253110  1.0  -0.6199
  O  O589  1  0.748300  0.644450  0.250070  1.0  -0.6052
  O  O590  1  0.804400  0.701400  0.282690  1.0  -0.604
  O  O591  1  0.777400  0.325200  0.285240  1.0  -0.5997
  O  O592  1  0.724100  0.381100  0.253110  1.0  -0.6209
  O  O593  1  0.144450  0.751700  0.750070  1.0  -0.6052
  O  O594  1  0.201400  0.695600  0.782690  1.0  -0.6029
  O  O595  1  0.825200  0.722600  0.785240  1.0  -0.5998
  O  O596  1  0.881100  0.775900  0.753110  1.0  -0.62
  O  O597  1  0.855550  0.248300  0.750070  1.0  -0.6054
  O  O598  1  0.798600  0.304400  0.782690  1.0  -0.6031
  O  O599  1  0.174800  0.277400  0.785240  1.0  -0.6011
  O  O600  1  0.118900  0.224100  0.753110  1.0  -0.6207
  O  O601  1  0.248300  0.855550  0.249930  1.0  -0.6055
  O  O602  1  0.304400  0.798600  0.217310  1.0  -0.6035
  O  O603  1  0.277400  0.174800  0.214760  1.0  -0.599
  O  O604  1  0.224100  0.118900  0.246890  1.0  -0.6205
  O  O605  1  0.751700  0.144450  0.249930  1.0  -0.6045
  O  O606  1  0.695600  0.201400  0.217310  1.0  -0.6034
  O  O607  1  0.722600  0.825200  0.214760  1.0  -0.5986
  O  O608  1  0.775900  0.881100  0.246890  1.0  -0.6207
  O  O609  1  0.355550  0.251700  0.749930  1.0  -0.6055
  O  O610  1  0.298600  0.195600  0.717310  1.0  -0.6025
  O  O611  1  0.674800  0.222600  0.714760  1.0  -0.599
  O  O612  1  0.618900  0.275900  0.746890  1.0  -0.6214
  O  O613  1  0.644450  0.748300  0.749930  1.0  -0.6043
  O  O614  1  0.701400  0.804400  0.717310  1.0  -0.6041
  O  O615  1  0.325200  0.777400  0.714760  1.0  -0.5999
  O  O616  1  0.381100  0.724100  0.746890  1.0  -0.6205
  O  O617  1  0.748300  0.644450  0.749930  1.0  -0.6043
  O  O618  1  0.804400  0.701400  0.717310  1.0  -0.6041
  O  O619  1  0.777400  0.325200  0.714760  1.0  -0.5983
  O  O620  1  0.724100  0.381100  0.746890  1.0  -0.6213
  O  O621  1  0.251700  0.355550  0.749930  1.0  -0.6054
  O  O622  1  0.195600  0.298600  0.717310  1.0  -0.6027
  O  O623  1  0.222600  0.674800  0.714760  1.0  -0.5992
  O  O624  1  0.275900  0.618900  0.746890  1.0  -0.6197
  O  O625  1  0.855550  0.248300  0.249930  1.0  -0.605
  O  O626  1  0.798600  0.304400  0.217310  1.0  -0.6035
  O  O627  1  0.174800  0.277400  0.214760  1.0  -0.6
  O  O628  1  0.118900  0.224100  0.246890  1.0  -0.6201
  O  O629  1  0.144450  0.751700  0.249930  1.0  -0.6053
  O  O630  1  0.201400  0.695600  0.217310  1.0  -0.6028
  O  O631  1  0.825200  0.722600  0.214760  1.0  -0.5988
  O  O632  1  0.881100  0.775900  0.246890  1.0  -0.6205
  O  O633  1  0.751700  0.144450  0.750070  1.0  -0.6051
  O  O634  1  0.695600  0.201400  0.782690  1.0  -0.604
  O  O635  1  0.722600  0.825200  0.785240  1.0  -0.5998
  O  O636  1  0.775900  0.881100  0.753110  1.0  -0.6206
  O  O637  1  0.248300  0.855550  0.750070  1.0  -0.6061
  O  O638  1  0.304400  0.798600  0.782690  1.0  -0.6044
  O  O639  1  0.277400  0.174800  0.785240  1.0  -0.5997
  O  O640  1  0.224100  0.118900  0.753110  1.0  -0.6206
  O  O641  1  0.644450  0.748300  0.250070  1.0  -0.6052
  O  O642  1  0.701400  0.804400  0.282690  1.0  -0.604
  O  O643  1  0.325200  0.777400  0.285240  1.0  -0.601
  O  O644  1  0.381100  0.724100  0.253110  1.0  -0.6207
  O  O645  1  0.355550  0.251700  0.250070  1.0  -0.6052
  O  O646  1  0.298600  0.195600  0.282690  1.0  -0.6037
  O  O647  1  0.674800  0.222600  0.285240  1.0  -0.6002
  O  O648  1  0.618900  0.275900  0.253110  1.0  -0.6211
