# generated using pymatgen
data_CuH5C12N3O4
_symmetry_space_group_name_H-M   'P 1'
_cell_length_a   30.79910000
_cell_length_b   30.79910000
_cell_length_c   31.24560000
_cell_angle_alpha   119.52800000
_cell_angle_beta   119.52800000
_cell_angle_gamma   90.00010000
_symmetry_Int_Tables_number   1
_chemical_formula_structural   CuH5C12N3O4
_chemical_formula_sum   'Cu24 H120 C288 N72 O96'
_cell_volume   21253.50778743
_cell_formula_units_Z   24
loop_
 _symmetry_equiv_pos_site_id
 _symmetry_equiv_pos_as_xyz
  1  'x, y, z'
loop_
 _atom_site_type_symbol
 _atom_site_label
 _atom_site_symmetry_multiplicity
 _atom_site_fract_x
 _atom_site_fract_y
 _atom_site_fract_z
 _atom_site_occupancy
 _atom_site_charge
  Cu  Cu1  1  0.470920  0.522340  0.743540  1.0  0.9087
  Cu  Cu2  1  0.464680  0.533120  0.661340  1.0  0.909
  Cu  Cu3  1  0.272620  0.221200  0.743540  1.0  0.9041
  Cu  Cu4  1  0.196670  0.128220  0.661350  1.0  0.9132
  Cu  Cu5  1  0.522340  0.272620  0.743550  1.0  0.9093
  Cu  Cu6  1  0.533120  0.196670  0.661340  1.0  0.9105
  Cu  Cu7  1  0.221200  0.470920  0.743530  1.0  0.9099
  Cu  Cu8  1  0.128220  0.464680  0.661340  1.0  0.91
  Cu  Cu9  1  0.529080  0.477660  0.256460  1.0  0.9081
  Cu  Cu10  1  0.535320  0.466880  0.338660  1.0  0.9105
  Cu  Cu11  1  0.727380  0.778800  0.256460  1.0  0.9049
  Cu  Cu12  1  0.803330  0.871780  0.338650  1.0  0.9129
  Cu  Cu13  1  0.477660  0.727380  0.256450  1.0  0.9083
  Cu  Cu14  1  0.466880  0.803330  0.338650  1.0  0.9141
  Cu  Cu15  1  0.778800  0.529080  0.256470  1.0  0.9085
  Cu  Cu16  1  0.871780  0.535320  0.338650  1.0  0.9137
  Cu  Cu17  1  0.749410  0.548810  0.000000  1.0  0.9189
  Cu  Cu18  1  0.834460  0.564870  0.000000  1.0  0.9105
  Cu  Cu19  1  0.250590  0.451190  0.000000  1.0  0.9179
  Cu  Cu20  1  0.165540  0.435130  0.000000  1.0  0.9101
  Cu  Cu21  1  0.548810  0.250590  0.000000  1.0  0.9123
  Cu  Cu22  1  0.564870  0.165540  0.000000  1.0  0.9077
  Cu  Cu23  1  0.451190  0.749410  0.000000  1.0  0.9132
  Cu  Cu24  1  0.435130  0.834460  0.000000  1.0  0.9076
  H  H25  1  0.769000  0.589600  0.863200  1.0  0.1261
  H  H26  1  0.628700  0.573000  0.728600  1.0  0.1278
  H  H27  1  0.636600  0.563800  0.857400  1.0  0.1237
  H  H28  1  0.790500  0.558100  0.793600  1.0  0.125
  H  H29  1  0.865600  0.562000  0.790400  1.0  0.1268
  H  H30  1  0.915200  0.536300  0.684000  1.0  0.1123
  H  H31  1  0.783700  0.580100  0.652800  1.0  0.1338
  H  H32  1  0.982200  0.511700  0.736200  1.0  0.1094
  H  H33  1  0.054400  0.493500  0.753800  1.0  0.1269
  H  H34  1  0.179200  0.461700  0.851600  1.0  0.1235
  H  H35  1  0.064200  0.480200  0.881200  1.0  0.1264
  H  H36  1  0.762000  0.549700  0.556600  1.0  0.1246
  H  H37  1  0.704300  0.517700  0.457400  1.0  0.1311
  H  H38  1  0.690800  0.517000  0.321200  1.0  0.1238
  H  H39  1  0.834200  0.545500  0.458600  1.0  0.1253
  H  H40  1  0.094200  0.273600  0.863200  1.0  0.1264
  H  H41  1  0.099900  0.155600  0.728600  1.0  0.1285
  H  H42  1  0.220800  0.293600  0.857400  1.0  0.1252
  H  H43  1  0.003100  0.235500  0.793600  1.0  0.1271
  H  H44  1  0.924800  0.228400  0.790400  1.0  0.1281
  H  H45  1  0.768800  0.147700  0.684000  1.0  0.1112
  H  H46  1  0.869100  0.072700  0.652800  1.0  0.1332
  H  H47  1  0.754000  0.224500  0.736200  1.0  0.1097
  H  H48  1  0.699400  0.260300  0.753800  1.0  0.1259
  H  H49  1  0.672400  0.389900  0.851600  1.0  0.1236
  H  H50  1  0.817000  0.401000  0.881200  1.0  0.127
  H  H51  1  0.794600  0.006900  0.556600  1.0  0.1203
  H  H52  1  0.753100  0.939700  0.457400  1.0  0.1307
  H  H53  1  0.630400  0.804200  0.321200  1.0  0.1224
  H  H54  1  0.624400  0.913100  0.458600  1.0  0.1246
  H  H55  1  0.589600  0.094200  0.863200  1.0  0.127
  H  H56  1  0.573000  0.099900  0.728600  1.0  0.1268
  H  H57  1  0.563800  0.220800  0.857400  1.0  0.1243
  H  H58  1  0.558100  0.003100  0.793600  1.0  0.126
  H  H59  1  0.562000  0.924800  0.790400  1.0  0.1267
  H  H60  1  0.536300  0.768800  0.684000  1.0  0.1118
  H  H61  1  0.580100  0.869100  0.652800  1.0  0.1319
  H  H62  1  0.511700  0.754000  0.736200  1.0  0.108
  H  H63  1  0.493500  0.699400  0.753800  1.0  0.1266
  H  H64  1  0.461700  0.672400  0.851600  1.0  0.1242
  H  H65  1  0.480200  0.817000  0.881200  1.0  0.1273
  H  H66  1  0.549700  0.794600  0.556600  1.0  0.1241
  H  H67  1  0.517700  0.753100  0.457400  1.0  0.1306
  H  H68  1  0.517000  0.630400  0.321200  1.0  0.1223
  H  H69  1  0.545500  0.624400  0.458600  1.0  0.1253
  H  H70  1  0.273600  0.769000  0.863200  1.0  0.1248
  H  H71  1  0.155600  0.628700  0.728600  1.0  0.1268
  H  H72  1  0.293600  0.636600  0.857400  1.0  0.123
  H  H73  1  0.235500  0.790500  0.793600  1.0  0.1255
  H  H74  1  0.228400  0.865600  0.790400  1.0  0.1275
  H  H75  1  0.147700  0.915200  0.684000  1.0  0.1123
  H  H76  1  0.072700  0.783700  0.652800  1.0  0.1342
  H  H77  1  0.224500  0.982200  0.736200  1.0  0.109
  H  H78  1  0.260300  0.054400  0.753800  1.0  0.1248
  H  H79  1  0.389900  0.179200  0.851600  1.0  0.1242
  H  H80  1  0.401000  0.064200  0.881200  1.0  0.1255
  H  H81  1  0.006900  0.762000  0.556600  1.0  0.1238
  H  H82  1  0.939700  0.704300  0.457400  1.0  0.1303
  H  H83  1  0.804200  0.690800  0.321200  1.0  0.1221
  H  H84  1  0.913100  0.834200  0.458600  1.0  0.1261
  H  H85  1  0.231000  0.410400  0.136800  1.0  0.1253
  H  H86  1  0.371300  0.427000  0.271400  1.0  0.1276
  H  H87  1  0.363400  0.436200  0.142600  1.0  0.1242
  H  H88  1  0.209500  0.441900  0.206400  1.0  0.1257
  H  H89  1  0.134400  0.438000  0.209600  1.0  0.1276
  H  H90  1  0.084800  0.463700  0.316000  1.0  0.1124
  H  H91  1  0.216300  0.419900  0.347200  1.0  0.1329
  H  H92  1  0.017800  0.488300  0.263800  1.0  0.1091
  H  H93  1  0.945600  0.506500  0.246200  1.0  0.1268
  H  H94  1  0.820800  0.538300  0.148400  1.0  0.1236
  H  H95  1  0.935800  0.519800  0.118800  1.0  0.1264
  H  H96  1  0.238000  0.450300  0.443400  1.0  0.1241
  H  H97  1  0.295700  0.482300  0.542600  1.0  0.1311
  H  H98  1  0.309200  0.483000  0.678800  1.0  0.1239
  H  H99  1  0.165800  0.454500  0.541400  1.0  0.1242
  H  H100  1  0.905800  0.726400  0.136800  1.0  0.1257
  H  H101  1  0.900100  0.844400  0.271400  1.0  0.1269
  H  H102  1  0.779200  0.706400  0.142600  1.0  0.1247
  H  H103  1  0.996900  0.764500  0.206400  1.0  0.127
  H  H104  1  0.075200  0.771600  0.209600  1.0  0.128
  H  H105  1  0.231200  0.852300  0.316000  1.0  0.1122
  H  H106  1  0.130900  0.927300  0.347200  1.0  0.1328
  H  H107  1  0.246000  0.775500  0.263800  1.0  0.1096
  H  H108  1  0.300600  0.739700  0.246200  1.0  0.1259
  H  H109  1  0.327600  0.610100  0.148400  1.0  0.1237
  H  H110  1  0.183000  0.599000  0.118800  1.0  0.1266
  H  H111  1  0.205400  0.993100  0.443400  1.0  0.1206
  H  H112  1  0.246900  0.060300  0.542600  1.0  0.1307
  H  H113  1  0.369600  0.195800  0.678800  1.0  0.1228
  H  H114  1  0.375600  0.086900  0.541400  1.0  0.1247
  H  H115  1  0.410400  0.905800  0.136800  1.0  0.1275
  H  H116  1  0.427000  0.900100  0.271400  1.0  0.1266
  H  H117  1  0.436200  0.779200  0.142600  1.0  0.1247
  H  H118  1  0.441900  0.996900  0.206400  1.0  0.1263
  H  H119  1  0.438000  0.075200  0.209600  1.0  0.1264
  H  H120  1  0.463700  0.231200  0.316000  1.0  0.1125
  H  H121  1  0.419900  0.130900  0.347200  1.0  0.1324
  H  H122  1  0.488300  0.246000  0.263800  1.0  0.1095
  H  H123  1  0.506500  0.300600  0.246200  1.0  0.1269
  H  H124  1  0.538300  0.327600  0.148400  1.0  0.1234
  H  H125  1  0.519800  0.183000  0.118800  1.0  0.1273
  H  H126  1  0.450300  0.205400  0.443400  1.0  0.124
  H  H127  1  0.482300  0.246900  0.542600  1.0  0.1302
  H  H128  1  0.483000  0.369600  0.678800  1.0  0.1217
  H  H129  1  0.454500  0.375600  0.541400  1.0  0.1249
  H  H130  1  0.726400  0.231000  0.136800  1.0  0.1251
  H  H131  1  0.844400  0.371300  0.271400  1.0  0.1263
  H  H132  1  0.706400  0.363400  0.142600  1.0  0.1234
  H  H133  1  0.764500  0.209500  0.206400  1.0  0.1259
  H  H134  1  0.771600  0.134400  0.209600  1.0  0.1276
  H  H135  1  0.852300  0.084800  0.316000  1.0  0.1122
  H  H136  1  0.927300  0.216300  0.347200  1.0  0.1336
  H  H137  1  0.775500  0.017800  0.263800  1.0  0.1095
  H  H138  1  0.739700  0.945600  0.246200  1.0  0.1241
  H  H139  1  0.610100  0.820800  0.148400  1.0  0.1248
  H  H140  1  0.599000  0.935800  0.118800  1.0  0.1254
  H  H141  1  0.993100  0.238000  0.443400  1.0  0.1239
  H  H142  1  0.060300  0.295700  0.542600  1.0  0.1301
  H  H143  1  0.195800  0.309200  0.678800  1.0  0.122
  H  H144  1  0.086900  0.165800  0.541400  1.0  0.1258
  C  C145  1  0.706860  0.574980  0.866980  1.0  -0.145
  C  C146  1  0.732040  0.582890  0.843880  1.0  -0.0927
  C  C147  1  0.701430  0.580820  0.790780  1.0  0.2057
  C  C148  1  0.648720  0.573790  0.764020  1.0  -0.037
  C  C149  1  0.624920  0.567820  0.789680  1.0  -0.1357
  C  C150  1  0.653460  0.568190  0.840580  1.0  0.0291
  C  C151  1  0.566370  0.555560  0.758420  1.0  0.7018
  C  C152  1  0.738720  0.570350  0.919040  1.0  0.6581
  C  C153  1  0.769900  0.570800  0.770540  1.0  -0.0824
  C  C154  1  0.777430  0.579170  0.735940  1.0  0.0558
  C  C155  1  0.817890  0.569650  0.721900  1.0  -0.0176
  C  C156  1  0.860320  0.558900  0.756200  1.0  0.0382
  C  C157  1  0.895850  0.542840  0.738880  1.0  0.0006
  C  C158  1  0.889450  0.543250  0.692700  1.0  -0.0643
  C  C159  1  0.846930  0.553560  0.657920  1.0  -0.007
  C  C160  1  0.811130  0.569750  0.673700  1.0  0.0274
  C  C161  1  0.939410  0.530310  0.772420  1.0  -0.0085
  C  C162  1  0.977030  0.514390  0.764840  1.0  -0.0523
  C  C163  1  0.052560  0.487420  0.815400  1.0  -0.011
  C  C164  1  0.072360  0.486580  0.783540  1.0  -0.0817
  C  C165  1  0.119370  0.475250  0.796640  1.0  -0.1348
  C  C166  1  0.146310  0.467710  0.841680  1.0  0.0158
  C  C167  1  0.125400  0.468820  0.872460  1.0  -0.1456
  C  C168  1  0.078300  0.479020  0.859720  1.0  0.0182
  C  C169  1  0.139090  0.471710  0.761080  1.0  0.6976
  C  C170  1  0.155370  0.460380  0.921280  1.0  0.6749
  C  C171  1  0.838890  0.550690  0.606980  1.0  0.0815
  C  C172  1  0.794460  0.547790  0.560740  1.0  -0.0521
  C  C173  1  0.773630  0.532780  0.466200  1.0  0.1592
  C  C174  1  0.719880  0.521540  0.439220  1.0  -0.0798
  C  C175  1  0.689590  0.516070  0.385940  1.0  -0.1239
  C  C176  1  0.712220  0.520650  0.358240  1.0  -0.0114
  C  C177  1  0.765030  0.530370  0.384820  1.0  -0.1204
  C  C178  1  0.797130  0.537540  0.439620  1.0  -0.0589
  C  C179  1  0.630660  0.501620  0.354080  1.0  0.7016
  C  C180  1  0.788120  0.532860  0.353520  1.0  0.6946
  C  C181  1  0.160120  0.292000  0.866980  1.0  -0.1454
  C  C182  1  0.111840  0.260990  0.843880  1.0  -0.0911
  C  C183  1  0.089350  0.209960  0.790780  1.0  0.2051
  C  C184  1  0.115300  0.190230  0.764020  1.0  -0.0376
  C  C185  1  0.164760  0.221860  0.789680  1.0  -0.1355
  C  C186  1  0.187120  0.272390  0.840580  1.0  0.0312
  C  C187  1  0.192050  0.202860  0.758420  1.0  0.7009
  C  C188  1  0.180320  0.348690  0.919040  1.0  0.661
  C  C189  1  0.000640  0.199740  0.770540  1.0  -0.0825
  C  C190  1  0.958510  0.156770  0.735940  1.0  0.059
  C  C191  1  0.904010  0.152250  0.721900  1.0  -0.0126
  C  C192  1  0.895880  0.197300  0.756200  1.0  0.0373
  C  C193  1  0.843030  0.196040  0.738880  1.0  0.0008
  C  C194  1  0.803250  0.149450  0.692700  1.0  -0.0644
  C  C195  1  0.810990  0.104360  0.657920  1.0  -0.0074
  C  C196  1  0.862570  0.103950  0.673700  1.0  0.031
  C  C197  1  0.833010  0.242110  0.772420  1.0  -0.0103
  C  C198  1  0.787810  0.250450  0.764840  1.0  -0.0544
  C  C199  1  0.762840  0.327980  0.815400  1.0  -0.0131
  C  C200  1  0.711180  0.296960  0.783540  1.0  -0.08
  C  C201  1  0.677270  0.321390  0.796640  1.0  -0.134
  C  C202  1  0.695370  0.373970  0.841680  1.0  0.0168
  C  C203  1  0.747060  0.403640  0.872460  1.0  -0.1507
  C  C204  1  0.781420  0.380700  0.859720  1.0  0.0249
  C  C205  1  0.621990  0.289370  0.761080  1.0  0.6963
  C  C206  1  0.765910  0.460900  0.921280  1.0  0.6759
  C  C207  1  0.768090  0.056290  0.606980  1.0  0.0818
  C  C208  1  0.766280  0.012950  0.560740  1.0  -0.0518
  C  C209  1  0.692570  0.933420  0.466200  1.0  0.1587
  C  C210  1  0.719340  0.917680  0.439220  1.0  -0.0794
  C  C211  1  0.696350  0.869870  0.385940  1.0  -0.127
  C  C212  1  0.646020  0.837590  0.358240  1.0  -0.0124
  C  C213  1  0.619790  0.854450  0.384820  1.0  -0.1202
  C  C214  1  0.642490  0.902080  0.439620  1.0  -0.0617
  C  C215  1  0.723420  0.852460  0.354080  1.0  0.7018
  C  C216  1  0.565400  0.820660  0.353520  1.0  0.694
  C  C217  1  0.574980  0.160120  0.866980  1.0  -0.1457
  C  C218  1  0.582890  0.111840  0.843880  1.0  -0.0991
  C  C219  1  0.580820  0.089350  0.790780  1.0  0.2042
  C  C220  1  0.573790  0.115300  0.764020  1.0  -0.036
  C  C221  1  0.567820  0.164760  0.789680  1.0  -0.1365
  C  C222  1  0.568190  0.187120  0.840580  1.0  0.0274
  C  C223  1  0.555560  0.192050  0.758420  1.0  0.7019
  C  C224  1  0.570350  0.180320  0.919040  1.0  0.662
  C  C225  1  0.570800  0.000640  0.770540  1.0  -0.0843
  C  C226  1  0.579170  0.958510  0.735940  1.0  0.0609
  C  C227  1  0.569650  0.904010  0.721900  1.0  -0.0181
  C  C228  1  0.558900  0.895880  0.756200  1.0  0.0557
  C  C229  1  0.542840  0.843030  0.738880  1.0  0.0012
  C  C230  1  0.543250  0.803250  0.692700  1.0  -0.0642
  C  C231  1  0.553560  0.810990  0.657920  1.0  -0.0075
  C  C232  1  0.569750  0.862570  0.673700  1.0  0.0298
  C  C233  1  0.530310  0.833010  0.772420  1.0  -0.0116
  C  C234  1  0.514390  0.787810  0.764840  1.0  -0.0497
  C  C235  1  0.487420  0.762840  0.815400  1.0  -0.0187
  C  C236  1  0.486580  0.711180  0.783540  1.0  -0.0796
  C  C237  1  0.475250  0.677270  0.796640  1.0  -0.1332
  C  C238  1  0.467710  0.695370  0.841680  1.0  0.0159
  C  C239  1  0.468820  0.747060  0.872460  1.0  -0.1501
  C  C240  1  0.479020  0.781420  0.859720  1.0  0.0188
  C  C241  1  0.471710  0.621990  0.761080  1.0  0.6964
  C  C242  1  0.460380  0.765910  0.921280  1.0  0.6753
  C  C243  1  0.550690  0.768090  0.606980  1.0  0.0815
  C  C244  1  0.547790  0.766280  0.560740  1.0  -0.0533
  C  C245  1  0.532780  0.692570  0.466200  1.0  0.154
  C  C246  1  0.521540  0.719340  0.439220  1.0  -0.0794
  C  C247  1  0.516070  0.696350  0.385940  1.0  -0.1265
  C  C248  1  0.520650  0.646020  0.358240  1.0  -0.0064
  C  C249  1  0.530370  0.619790  0.384820  1.0  -0.1194
  C  C250  1  0.537540  0.642490  0.439620  1.0  -0.061
  C  C251  1  0.501620  0.723420  0.354080  1.0  0.7018
  C  C252  1  0.532860  0.565400  0.353520  1.0  0.6943
  C  C253  1  0.292000  0.706860  0.866980  1.0  -0.1424
  C  C254  1  0.260990  0.732040  0.843880  1.0  -0.0921
  C  C255  1  0.209960  0.701430  0.790780  1.0  0.2047
  C  C256  1  0.190230  0.648720  0.764020  1.0  -0.0359
  C  C257  1  0.221860  0.624920  0.789680  1.0  -0.1356
  C  C258  1  0.272390  0.653460  0.840580  1.0  0.0212
  C  C259  1  0.202860  0.566370  0.758420  1.0  0.7016
  C  C260  1  0.348690  0.738720  0.919040  1.0  0.6583
  C  C261  1  0.199740  0.769900  0.770540  1.0  -0.0821
  C  C262  1  0.156770  0.777430  0.735940  1.0  0.0579
  C  C263  1  0.152250  0.817890  0.721900  1.0  -0.0107
  C  C264  1  0.197300  0.860320  0.756200  1.0  0.0317
  C  C265  1  0.196040  0.895850  0.738880  1.0  -0.0006
  C  C266  1  0.149450  0.889450  0.692700  1.0  -0.0641
  C  C267  1  0.104360  0.846930  0.657920  1.0  -0.0076
  C  C268  1  0.103950  0.811130  0.673700  1.0  0.0276
  C  C269  1  0.242110  0.939410  0.772420  1.0  0.0022
  C  C270  1  0.250450  0.977030  0.764840  1.0  -0.0584
  C  C271  1  0.327980  0.052560  0.815400  1.0  -0.0108
  C  C272  1  0.296960  0.072360  0.783540  1.0  -0.0807
  C  C273  1  0.321390  0.119370  0.796640  1.0  -0.1331
  C  C274  1  0.373970  0.146310  0.841680  1.0  0.0176
  C  C275  1  0.403640  0.125400  0.872460  1.0  -0.1442
  C  C276  1  0.380700  0.078300  0.859720  1.0  0.0236
  C  C277  1  0.289370  0.139090  0.761080  1.0  0.6967
  C  C278  1  0.460900  0.155370  0.921280  1.0  0.6754
  C  C279  1  0.056290  0.838890  0.606980  1.0  0.081
  C  C280  1  0.012950  0.794460  0.560740  1.0  -0.0502
  C  C281  1  0.933420  0.773630  0.466200  1.0  0.1538
  C  C282  1  0.917680  0.719880  0.439220  1.0  -0.0791
  C  C283  1  0.869870  0.689590  0.385940  1.0  -0.1234
  C  C284  1  0.837590  0.712220  0.358240  1.0  -0.0063
  C  C285  1  0.854450  0.765030  0.384820  1.0  -0.1199
  C  C286  1  0.902080  0.797130  0.439620  1.0  -0.0614
  C  C287  1  0.852460  0.630660  0.354080  1.0  0.7015
  C  C288  1  0.820660  0.788120  0.353520  1.0  0.6929
  C  C289  1  0.293140  0.425020  0.133020  1.0  -0.1434
  C  C290  1  0.267960  0.417110  0.156120  1.0  -0.0934
  C  C291  1  0.298570  0.419180  0.209220  1.0  0.2065
  C  C292  1  0.351280  0.426210  0.235980  1.0  -0.0376
  C  C293  1  0.375080  0.432180  0.210320  1.0  -0.1351
  C  C294  1  0.346540  0.431810  0.159420  1.0  0.0283
  C  C295  1  0.433630  0.444440  0.241580  1.0  0.7012
  C  C296  1  0.261280  0.429650  0.080960  1.0  0.6584
  C  C297  1  0.230100  0.429200  0.229460  1.0  -0.0824
  C  C298  1  0.222570  0.420830  0.264060  1.0  0.0584
  C  C299  1  0.182110  0.430350  0.278100  1.0  -0.0167
  C  C300  1  0.139680  0.441100  0.243800  1.0  0.0355
  C  C301  1  0.104150  0.457160  0.261120  1.0  0.0007
  C  C302  1  0.110550  0.456750  0.307300  1.0  -0.0638
  C  C303  1  0.153070  0.446440  0.342080  1.0  -0.0075
  C  C304  1  0.188870  0.430250  0.326300  1.0  0.0283
  C  C305  1  0.060590  0.469690  0.227580  1.0  -0.0091
  C  C306  1  0.022970  0.485610  0.235160  1.0  -0.0546
  C  C307  1  0.947440  0.512580  0.184600  1.0  -0.0103
  C  C308  1  0.927640  0.513420  0.216460  1.0  -0.0831
  C  C309  1  0.880630  0.524750  0.203360  1.0  -0.1344
  C  C310  1  0.853690  0.532290  0.158320  1.0  0.016
  C  C311  1  0.874600  0.531180  0.127540  1.0  -0.1456
  C  C312  1  0.921700  0.520980  0.140280  1.0  0.019
  C  C313  1  0.860910  0.528290  0.238920  1.0  0.6976
  C  C314  1  0.844630  0.539620  0.078720  1.0  0.675
  C  C315  1  0.161110  0.449310  0.393020  1.0  0.0819
  C  C316  1  0.205540  0.452210  0.439260  1.0  -0.0523
  C  C317  1  0.226370  0.467220  0.533800  1.0  0.1592
  C  C318  1  0.280120  0.478460  0.560780  1.0  -0.0787
  C  C319  1  0.310410  0.483930  0.614060  1.0  -0.1233
  C  C320  1  0.287780  0.479350  0.641760  1.0  -0.0123
  C  C321  1  0.234970  0.469630  0.615180  1.0  -0.1202
  C  C322  1  0.202870  0.462460  0.560380  1.0  -0.0608
  C  C323  1  0.369340  0.498380  0.645920  1.0  0.7016
  C  C324  1  0.211880  0.467140  0.646480  1.0  0.6952
  C  C325  1  0.839880  0.708000  0.133020  1.0  -0.1453
  C  C326  1  0.888160  0.739010  0.156120  1.0  -0.0904
  C  C327  1  0.910650  0.790040  0.209220  1.0  0.2051
  C  C328  1  0.884700  0.809770  0.235980  1.0  -0.0376
  C  C329  1  0.835240  0.778140  0.210320  1.0  -0.1356
  C  C330  1  0.812880  0.727610  0.159420  1.0  0.0307
  C  C331  1  0.807950  0.797140  0.241580  1.0  0.7014
  C  C332  1  0.819680  0.651310  0.080960  1.0  0.6609
  C  C333  1  0.999360  0.800260  0.229460  1.0  -0.0815
  C  C334  1  0.041490  0.843230  0.264060  1.0  0.0595
  C  C335  1  0.095990  0.847750  0.278100  1.0  -0.014
  C  C336  1  0.104120  0.802700  0.243800  1.0  0.0366
  C  C337  1  0.156970  0.803960  0.261120  1.0  0.0005
  C  C338  1  0.196750  0.850550  0.307300  1.0  -0.0648
  C  C339  1  0.189010  0.895640  0.342080  1.0  -0.0076
  C  C340  1  0.137430  0.896050  0.326300  1.0  0.0296
  C  C341  1  0.166990  0.757890  0.227580  1.0  -0.0093
  C  C342  1  0.212190  0.749550  0.235160  1.0  -0.0534
  C  C343  1  0.237160  0.672020  0.184600  1.0  -0.0132
  C  C344  1  0.288820  0.703040  0.216460  1.0  -0.0796
  C  C345  1  0.322730  0.678610  0.203360  1.0  -0.1343
  C  C346  1  0.304630  0.626030  0.158320  1.0  0.0166
  C  C347  1  0.252940  0.596360  0.127540  1.0  -0.151
  C  C348  1  0.218580  0.619300  0.140280  1.0  0.0249
  C  C349  1  0.378010  0.710630  0.238920  1.0  0.6961
  C  C350  1  0.234090  0.539100  0.078720  1.0  0.6752
  C  C351  1  0.231910  0.943710  0.393020  1.0  0.0803
  C  C352  1  0.233720  0.987050  0.439260  1.0  -0.0525
  C  C353  1  0.307430  0.066580  0.533800  1.0  0.1583
  C  C354  1  0.280660  0.082320  0.560780  1.0  -0.08
  C  C355  1  0.303650  0.130130  0.614060  1.0  -0.1276
  C  C356  1  0.353980  0.162410  0.641760  1.0  -0.0141
  C  C357  1  0.380210  0.145550  0.615180  1.0  -0.1205
  C  C358  1  0.357510  0.097920  0.560380  1.0  -0.0631
  C  C359  1  0.276580  0.147540  0.645920  1.0  0.7017
  C  C360  1  0.434600  0.179340  0.646480  1.0  0.693
  C  C361  1  0.425020  0.839880  0.133020  1.0  -0.1455
  C  C362  1  0.417110  0.888160  0.156120  1.0  -0.0976
  C  C363  1  0.419180  0.910650  0.209220  1.0  0.2045
  C  C364  1  0.426210  0.884700  0.235980  1.0  -0.0374
  C  C365  1  0.432180  0.835240  0.210320  1.0  -0.1373
  C  C366  1  0.431810  0.812880  0.159420  1.0  0.0271
  C  C367  1  0.444440  0.807950  0.241580  1.0  0.7013
  C  C368  1  0.429650  0.819680  0.080960  1.0  0.6615
  C  C369  1  0.429200  0.999360  0.229460  1.0  -0.0824
  C  C370  1  0.420830  0.041490  0.264060  1.0  0.0598
  C  C371  1  0.430350  0.095990  0.278100  1.0  -0.0176
  C  C372  1  0.441100  0.104120  0.243800  1.0  0.0538
  C  C373  1  0.457160  0.156970  0.261120  1.0  0.0006
  C  C374  1  0.456750  0.196750  0.307300  1.0  -0.064
  C  C375  1  0.446440  0.189010  0.342080  1.0  -0.0074
  C  C376  1  0.430250  0.137430  0.326300  1.0  0.0283
  C  C377  1  0.469690  0.166990  0.227580  1.0  -0.0113
  C  C378  1  0.485610  0.212190  0.235160  1.0  -0.051
  C  C379  1  0.512580  0.237160  0.184600  1.0  -0.0179
  C  C380  1  0.513420  0.288820  0.216460  1.0  -0.0795
  C  C381  1  0.524750  0.322730  0.203360  1.0  -0.1332
  C  C382  1  0.532290  0.304630  0.158320  1.0  0.0165
  C  C383  1  0.531180  0.252940  0.127540  1.0  -0.1503
  C  C384  1  0.520980  0.218580  0.140280  1.0  0.0196
  C  C385  1  0.528290  0.378010  0.238920  1.0  0.6966
  C  C386  1  0.539620  0.234090  0.078720  1.0  0.675
  C  C387  1  0.449310  0.231910  0.393020  1.0  0.081
  C  C388  1  0.452210  0.233720  0.439260  1.0  -0.0521
  C  C389  1  0.467220  0.307430  0.533800  1.0  0.1544
  C  C390  1  0.478460  0.280660  0.560780  1.0  -0.079
  C  C391  1  0.483930  0.303650  0.614060  1.0  -0.1257
  C  C392  1  0.479350  0.353980  0.641760  1.0  -0.0074
  C  C393  1  0.469630  0.380210  0.615180  1.0  -0.1207
  C  C394  1  0.462460  0.357510  0.560380  1.0  -0.0623
  C  C395  1  0.498380  0.276580  0.645920  1.0  0.7017
  C  C396  1  0.467140  0.434600  0.646480  1.0  0.6951
  C  C397  1  0.708000  0.293140  0.133020  1.0  -0.1404
  C  C398  1  0.739010  0.267960  0.156120  1.0  -0.092
  C  C399  1  0.790040  0.298570  0.209220  1.0  0.2034
  C  C400  1  0.809770  0.351280  0.235980  1.0  -0.0368
  C  C401  1  0.778140  0.375080  0.210320  1.0  -0.1361
  C  C402  1  0.727610  0.346540  0.159420  1.0  0.0212
  C  C403  1  0.797140  0.433630  0.241580  1.0  0.7019
  C  C404  1  0.651310  0.261280  0.080960  1.0  0.6574
  C  C405  1  0.800260  0.230100  0.229460  1.0  -0.0819
  C  C406  1  0.843230  0.222570  0.264060  1.0  0.0592
  C  C407  1  0.847750  0.182110  0.278100  1.0  -0.0108
  C  C408  1  0.802700  0.139680  0.243800  1.0  0.0304
  C  C409  1  0.803960  0.104150  0.261120  1.0  -0.0004
  C  C410  1  0.850550  0.110550  0.307300  1.0  -0.0634
  C  C411  1  0.895640  0.153070  0.342080  1.0  -0.0073
  C  C412  1  0.896050  0.188870  0.326300  1.0  0.0275
  C  C413  1  0.757890  0.060590  0.227580  1.0  0.0024
  C  C414  1  0.749550  0.022970  0.235160  1.0  -0.0561
  C  C415  1  0.672020  0.947440  0.184600  1.0  -0.0121
  C  C416  1  0.703040  0.927640  0.216460  1.0  -0.0824
  C  C417  1  0.678610  0.880630  0.203360  1.0  -0.133
  C  C418  1  0.626030  0.853690  0.158320  1.0  0.0176
  C  C419  1  0.596360  0.874600  0.127540  1.0  -0.1448
  C  C420  1  0.619300  0.921700  0.140280  1.0  0.0235
  C  C421  1  0.710630  0.860910  0.238920  1.0  0.6967
  C  C422  1  0.539100  0.844630  0.078720  1.0  0.6752
  C  C423  1  0.943710  0.161110  0.393020  1.0  0.0798
  C  C424  1  0.987050  0.205540  0.439260  1.0  -0.051
  C  C425  1  0.066580  0.226370  0.533800  1.0  0.1539
  C  C426  1  0.082320  0.280120  0.560780  1.0  -0.0797
  C  C427  1  0.130130  0.310410  0.614060  1.0  -0.1231
  C  C428  1  0.162410  0.287780  0.641760  1.0  -0.0058
  C  C429  1  0.145550  0.234970  0.615180  1.0  -0.1196
  C  C430  1  0.097920  0.202870  0.560380  1.0  -0.0614
  C  C431  1  0.147540  0.369340  0.645920  1.0  0.7019
  C  C432  1  0.179340  0.211880  0.646480  1.0  0.6925
  N  N433  1  0.726940  0.584190  0.765300  1.0  0.1943
  N  N434  1  0.708420  0.603050  0.730340  1.0  -0.2984
  N  N435  1  0.739850  0.599720  0.711900  1.0  -0.2115
  N  N436  1  0.947210  0.528970  0.818940  1.0  -0.264
  N  N437  1  0.986060  0.508000  0.835000  1.0  -0.3274
  N  N438  1  0.005420  0.503320  0.803500  1.0  0.1152
  N  N439  1  0.859260  0.546460  0.546920  1.0  -0.2915
  N  N440  1  0.806650  0.541810  0.522940  1.0  0.1628
  N  N441  1  0.878390  0.549340  0.597680  1.0  -0.2429
  N  N442  1  0.038360  0.181110  0.765300  1.0  0.1936
  N  N443  1  0.021920  0.127290  0.730340  1.0  -0.2985
  N  N444  1  0.972050  0.112180  0.711900  1.0  -0.2142
  N  N445  1  0.871730  0.289970  0.818940  1.0  -0.2693
  N  N446  1  0.848940  0.327000  0.835000  1.0  -0.3187
  N  N447  1  0.798080  0.300180  0.803500  1.0  0.118
  N  N448  1  0.687660  0.000460  0.546920  1.0  -0.2862
  N  N449  1  0.716290  0.981130  0.522940  1.0  0.1614
  N  N450  1  0.719290  0.048340  0.597680  1.0  -0.2358
  N  N451  1  0.584190  0.038360  0.765300  1.0  0.1936
  N  N452  1  0.603050  0.021920  0.730340  1.0  -0.2985
  N  N453  1  0.599720  0.972050  0.711900  1.0  -0.2226
  N  N454  1  0.528970  0.871730  0.818940  1.0  -0.2708
  N  N455  1  0.508000  0.848940  0.835000  1.0  -0.313
  N  N456  1  0.503320  0.798080  0.803500  1.0  0.1267
  N  N457  1  0.546460  0.687660  0.546920  1.0  -0.2838
  N  N458  1  0.541810  0.716290  0.522940  1.0  0.1616
  N  N459  1  0.549340  0.719290  0.597680  1.0  -0.2355
  N  N460  1  0.181110  0.726940  0.765300  1.0  0.194
  N  N461  1  0.127290  0.708420  0.730340  1.0  -0.2991
  N  N462  1  0.112180  0.739850  0.711900  1.0  -0.2171
  N  N463  1  0.289970  0.947210  0.818940  1.0  -0.2637
  N  N464  1  0.327000  0.986060  0.835000  1.0  -0.3194
  N  N465  1  0.300180  0.005420  0.803500  1.0  0.1217
  N  N466  1  0.000460  0.859260  0.546920  1.0  -0.2885
  N  N467  1  0.981130  0.806650  0.522940  1.0  0.1613
  N  N468  1  0.048340  0.878390  0.597680  1.0  -0.2403
  N  N469  1  0.273060  0.415810  0.234700  1.0  0.1943
  N  N470  1  0.291580  0.396950  0.269660  1.0  -0.2986
  N  N471  1  0.260150  0.400280  0.288100  1.0  -0.2088
  N  N472  1  0.052790  0.471030  0.181060  1.0  -0.27
  N  N473  1  0.013940  0.492000  0.165000  1.0  -0.3242
  N  N474  1  0.994580  0.496680  0.196500  1.0  0.1152
  N  N475  1  0.140740  0.453540  0.453080  1.0  -0.2893
  N  N476  1  0.193350  0.458190  0.477060  1.0  0.1625
  N  N477  1  0.121610  0.450660  0.402320  1.0  -0.2382
  N  N478  1  0.961640  0.818890  0.234700  1.0  0.1928
  N  N479  1  0.978080  0.872710  0.269660  1.0  -0.2979
  N  N480  1  0.027950  0.887820  0.288100  1.0  -0.217
  N  N481  1  0.128270  0.710030  0.181060  1.0  -0.2626
  N  N482  1  0.151060  0.673000  0.165000  1.0  -0.3207
  N  N483  1  0.201920  0.699820  0.196500  1.0  0.1165
  N  N484  1  0.312340  0.999540  0.453080  1.0  -0.2863
  N  N485  1  0.283710  0.018870  0.477060  1.0  0.1622
  N  N486  1  0.280710  0.951660  0.402320  1.0  -0.24
  N  N487  1  0.415810  0.961640  0.234700  1.0  0.1933
  N  N488  1  0.396950  0.978080  0.269660  1.0  -0.2985
  N  N489  1  0.400280  0.027950  0.288100  1.0  -0.2217
  N  N490  1  0.471030  0.128270  0.181060  1.0  -0.2707
  N  N491  1  0.492000  0.151060  0.165000  1.0  -0.3166
  N  N492  1  0.496680  0.201920  0.196500  1.0  0.1261
  N  N493  1  0.453540  0.312340  0.453080  1.0  -0.2858
  N  N494  1  0.458190  0.283710  0.477060  1.0  0.1632
  N  N495  1  0.450660  0.280710  0.402320  1.0  -0.2416
  N  N496  1  0.818890  0.273060  0.234700  1.0  0.194
  N  N497  1  0.872710  0.291580  0.269660  1.0  -0.3009
  N  N498  1  0.887820  0.260150  0.288100  1.0  -0.2209
  N  N499  1  0.710030  0.052790  0.181060  1.0  -0.2674
  N  N500  1  0.673000  0.013940  0.165000  1.0  -0.3204
  N  N501  1  0.699820  0.994580  0.196500  1.0  0.1214
  N  N502  1  0.999540  0.140740  0.453080  1.0  -0.2866
  N  N503  1  0.018870  0.193350  0.477060  1.0  0.1627
  N  N504  1  0.951660  0.121610  0.402320  1.0  -0.235
  O  O505  1  0.547310  0.550810  0.783640  1.0  -0.5675
  O  O506  1  0.541100  0.550900  0.709300  1.0  -0.5601
  O  O507  1  0.714280  0.563080  0.938640  1.0  -0.5569
  O  O508  1  0.786300  0.575190  0.938440  1.0  -0.5637
  O  O509  1  0.130760  0.450350  0.939440  1.0  -0.553
  O  O510  1  0.202010  0.461480  0.937980  1.0  -0.5643
  O  O511  1  0.184970  0.467960  0.779120  1.0  -0.5696
  O  O512  1  0.109960  0.472430  0.716340  1.0  -0.5625
  O  O513  1  0.837510  0.540640  0.379040  1.0  -0.5588
  O  O514  1  0.757070  0.527530  0.305340  1.0  -0.5557
  O  O515  1  0.610990  0.486990  0.373620  1.0  -0.5624
  O  O516  1  0.605880  0.503930  0.309740  1.0  -0.5696
  O  O517  1  0.236330  0.232830  0.783640  1.0  -0.5684
  O  O518  1  0.168200  0.158400  0.709300  1.0  -0.563
  O  O519  1  0.224360  0.375560  0.938640  1.0  -0.5518
  O  O520  1  0.152140  0.363250  0.938440  1.0  -0.5661
  O  O521  1  0.808680  0.489090  0.939440  1.0  -0.5488
  O  O522  1  0.735970  0.476500  0.937980  1.0  -0.5635
  O  O523  1  0.594150  0.311160  0.779120  1.0  -0.5703
  O  O524  1  0.606380  0.243910  0.716340  1.0  -0.563
  O  O525  1  0.541530  0.838400  0.379040  1.0  -0.559
  O  O526  1  0.548270  0.777810  0.305340  1.0  -0.5558
  O  O527  1  0.762630  0.886630  0.373620  1.0  -0.5631
  O  O528  1  0.703860  0.805810  0.309740  1.0  -0.5697
  O  O529  1  0.550810  0.236330  0.783640  1.0  -0.5658
  O  O530  1  0.550900  0.168200  0.709300  1.0  -0.5633
  O  O531  1  0.563080  0.224360  0.938640  1.0  -0.5513
  O  O532  1  0.575190  0.152140  0.938440  1.0  -0.5694
  O  O533  1  0.450350  0.808680  0.939440  1.0  -0.5498
  O  O534  1  0.461480  0.735970  0.937980  1.0  -0.5662
  O  O535  1  0.467960  0.594150  0.779120  1.0  -0.5694
  O  O536  1  0.472430  0.606380  0.716340  1.0  -0.5613
  O  O537  1  0.540640  0.541530  0.379040  1.0  -0.5579
  O  O538  1  0.527530  0.548270  0.305340  1.0  -0.553
  O  O539  1  0.486990  0.762630  0.373620  1.0  -0.5624
  O  O540  1  0.503930  0.703860  0.309740  1.0  -0.5702
  O  O541  1  0.232830  0.547310  0.783640  1.0  -0.5674
  O  O542  1  0.158400  0.541100  0.709300  1.0  -0.5625
  O  O543  1  0.375560  0.714280  0.938640  1.0  -0.5524
  O  O544  1  0.363250  0.786300  0.938440  1.0  -0.5646
  O  O545  1  0.489090  0.130760  0.939440  1.0  -0.5515
  O  O546  1  0.476500  0.202010  0.937980  1.0  -0.5649
  O  O547  1  0.311160  0.184970  0.779120  1.0  -0.5695
  O  O548  1  0.243910  0.109960  0.716340  1.0  -0.563
  O  O549  1  0.838400  0.837510  0.379040  1.0  -0.5591
  O  O550  1  0.777810  0.757070  0.305340  1.0  -0.556
  O  O551  1  0.886630  0.610990  0.373620  1.0  -0.5621
  O  O552  1  0.805810  0.605880  0.309740  1.0  -0.5693
  O  O553  1  0.452690  0.449190  0.216360  1.0  -0.5673
  O  O554  1  0.458900  0.449100  0.290700  1.0  -0.5614
  O  O555  1  0.285720  0.436920  0.061360  1.0  -0.5552
  O  O556  1  0.213700  0.424810  0.061560  1.0  -0.5622
  O  O557  1  0.869240  0.549650  0.060560  1.0  -0.552
  O  O558  1  0.797990  0.538520  0.062020  1.0  -0.5642
  O  O559  1  0.815030  0.532040  0.220880  1.0  -0.5693
  O  O560  1  0.890040  0.527570  0.283660  1.0  -0.5632
  O  O561  1  0.162490  0.459360  0.620960  1.0  -0.5586
  O  O562  1  0.242930  0.472470  0.694660  1.0  -0.5559
  O  O563  1  0.389010  0.513010  0.626380  1.0  -0.5625
  O  O564  1  0.394120  0.496070  0.690260  1.0  -0.5691
  O  O565  1  0.763670  0.767170  0.216360  1.0  -0.5683
  O  O566  1  0.831800  0.841600  0.290700  1.0  -0.5642
  O  O567  1  0.775640  0.624440  0.061360  1.0  -0.5518
  O  O568  1  0.847860  0.636750  0.061560  1.0  -0.568
  O  O569  1  0.191320  0.510910  0.060560  1.0  -0.5499
  O  O570  1  0.264030  0.523500  0.062020  1.0  -0.5654
  O  O571  1  0.405850  0.688840  0.220880  1.0  -0.5703
  O  O572  1  0.393620  0.756090  0.283660  1.0  -0.564
  O  O573  1  0.458470  0.161600  0.620960  1.0  -0.5593
  O  O574  1  0.451730  0.222190  0.694660  1.0  -0.5563
  O  O575  1  0.237370  0.113370  0.626380  1.0  -0.5627
  O  O576  1  0.296140  0.194190  0.690260  1.0  -0.5697
  O  O577  1  0.449190  0.763670  0.216360  1.0  -0.5648
  O  O578  1  0.449100  0.831800  0.290700  1.0  -0.5648
  O  O579  1  0.436920  0.775640  0.061360  1.0  -0.5512
  O  O580  1  0.424810  0.847860  0.061560  1.0  -0.5685
  O  O581  1  0.549650  0.191320  0.060560  1.0  -0.5499
  O  O582  1  0.538520  0.264030  0.062020  1.0  -0.5667
  O  O583  1  0.532040  0.405850  0.220880  1.0  -0.568
  O  O584  1  0.527570  0.393620  0.283660  1.0  -0.562
  O  O585  1  0.459360  0.458470  0.620960  1.0  -0.5589
  O  O586  1  0.472470  0.451730  0.694660  1.0  -0.5538
  O  O587  1  0.513010  0.237370  0.626380  1.0  -0.5623
  O  O588  1  0.496070  0.296140  0.690260  1.0  -0.5708
  O  O589  1  0.767170  0.452690  0.216360  1.0  -0.5666
  O  O590  1  0.841600  0.458900  0.290700  1.0  -0.5637
  O  O591  1  0.624440  0.285720  0.061360  1.0  -0.5521
  O  O592  1  0.636750  0.213700  0.061560  1.0  -0.5646
  O  O593  1  0.510910  0.869240  0.060560  1.0  -0.5523
  O  O594  1  0.523500  0.797990  0.062020  1.0  -0.5646
  O  O595  1  0.688840  0.815030  0.220880  1.0  -0.5701
  O  O596  1  0.756090  0.890040  0.283660  1.0  -0.5634
  O  O597  1  0.161600  0.162490  0.620960  1.0  -0.5595
  O  O598  1  0.222190  0.242930  0.694660  1.0  -0.556
  O  O599  1  0.113370  0.389010  0.626380  1.0  -0.561
  O  O600  1  0.194190  0.394120  0.690260  1.0  -0.5697
