# generated using pymatgen
data_CuH5C12N3O4
_symmetry_space_group_name_H-M   'P 1'
_cell_length_a   31.31090000
_cell_length_b   31.31090000
_cell_length_c   31.49770000
_cell_angle_alpha   60.19590000
_cell_angle_beta   60.19590000
_cell_angle_gamma   90.00000000
_symmetry_Int_Tables_number   1
_chemical_formula_structural   CuH5C12N3O4
_chemical_formula_sum   'Cu24 H120 C288 N72 O96'
_cell_volume   21963.76120102
_cell_formula_units_Z   24
loop_
 _symmetry_equiv_pos_site_id
 _symmetry_equiv_pos_as_xyz
  1  'x, y, z'
loop_
 _atom_site_type_symbol
 _atom_site_label
 _atom_site_symmetry_multiplicity
 _atom_site_fract_x
 _atom_site_fract_y
 _atom_site_fract_z
 _atom_site_occupancy
 _atom_site_charge
  Cu  Cu1  1  0.732150  0.482250  0.745600  1.0  0.9247
  Cu  Cu2  1  0.809480  0.474250  0.663680  1.0  0.9369
  Cu  Cu3  1  0.522250  0.772150  0.745600  1.0  0.9306
  Cu  Cu4  1  0.526840  0.862070  0.663680  1.0  0.9356
  Cu  Cu5  1  0.482250  0.522250  0.745600  1.0  0.9307
  Cu  Cu6  1  0.474250  0.526840  0.663680  1.0  0.935
  Cu  Cu7  1  0.772150  0.732150  0.745600  1.0  0.9286
  Cu  Cu8  1  0.862070  0.809480  0.663680  1.0  0.9392
  Cu  Cu9  1  0.267850  0.517750  0.254400  1.0  0.923
  Cu  Cu10  1  0.190520  0.525750  0.336320  1.0  0.9376
  Cu  Cu11  1  0.477750  0.227850  0.254400  1.0  0.931
  Cu  Cu12  1  0.473160  0.137930  0.336320  1.0  0.9369
  Cu  Cu13  1  0.517750  0.477750  0.254400  1.0  0.931
  Cu  Cu14  1  0.525750  0.473160  0.336320  1.0  0.9351
  Cu  Cu15  1  0.227850  0.267850  0.254400  1.0  0.9274
  Cu  Cu16  1  0.137930  0.190520  0.336320  1.0  0.9377
  Cu  Cu17  1  0.749480  0.461480  0.000000  1.0  0.9341
  Cu  Cu18  1  0.833500  0.449790  0.000000  1.0  0.9289
  Cu  Cu19  1  0.250520  0.538520  0.000000  1.0  0.9327
  Cu  Cu20  1  0.166500  0.550210  0.000000  1.0  0.9307
  Cu  Cu21  1  0.461480  0.250520  0.000000  1.0  0.931
  Cu  Cu22  1  0.449790  0.166500  0.000000  1.0  0.9267
  Cu  Cu23  1  0.538520  0.749480  0.000000  1.0  0.933
  Cu  Cu24  1  0.550210  0.833500  0.000000  1.0  0.9249
  H  H25  1  0.370000  0.459800  0.452000  1.0  0.1152
  H  H26  1  0.203300  0.458300  0.549800  1.0  0.1206
  H  H27  1  0.133200  0.457800  0.634000  1.0  0.1034
  H  H28  1  0.088400  0.459000  0.775200  1.0  0.1007
  H  H29  1  0.232800  0.460900  0.679600  1.0  0.1135
  H  H30  1  0.256000  0.488200  0.728600  1.0  0.174
  H  H31  1  0.308600  0.494800  0.754000  1.0  0.1335
  H  H32  1  0.328100  0.516100  0.857000  1.0  0.1103
  H  H33  1  0.188600  0.495300  0.889400  1.0  0.0942
  H  H34  1  0.785000  0.446800  0.857400  1.0  0.1102
  H  H35  1  0.907000  0.421800  0.863200  1.0  0.0926
  H  H36  1  0.899100  0.434800  0.734800  1.0  0.1066
  H  H37  1  0.006900  0.460900  0.785000  1.0  0.1351
  H  H38  1  0.356500  0.474600  0.326200  1.0  0.1279
  H  H39  1  0.240200  0.482000  0.454800  1.0  0.1247
  H  H40  1  0.178000  0.088200  0.452000  1.0  0.1148
  H  H41  1  0.246900  0.991900  0.549800  1.0  0.1175
  H  H42  1  0.232800  0.908200  0.634000  1.0  0.1043
  H  H43  1  0.136400  0.765800  0.775200  1.0  0.1032
  H  H44  1  0.087600  0.859500  0.679600  1.0  0.113
  H  H45  1  0.015400  0.783200  0.728600  1.0  0.1761
  H  H46  1  0.937400  0.751200  0.754000  1.0  0.1331
  H  H47  1  0.814900  0.626900  0.857000  1.0  0.1128
  H  H48  1  0.922000  0.615300  0.889400  1.0  0.0969
  H  H49  1  0.357600  0.695800  0.857400  1.0  0.1106
  H  H50  1  0.229800  0.715000  0.863200  1.0  0.0907
  H  H51  1  0.366100  0.830400  0.734800  1.0  0.1065
  H  H52  1  0.208100  0.754100  0.785000  1.0  0.1363
  H  H53  1  0.317300  0.199200  0.326200  1.0  0.1282
  H  H54  1  0.305000  0.063200  0.454800  1.0  0.1241
  H  H55  1  0.459800  0.178000  0.452000  1.0  0.114
  H  H56  1  0.458300  0.246900  0.549800  1.0  0.1191
  H  H57  1  0.457800  0.232800  0.634000  1.0  0.103
  H  H58  1  0.459000  0.136400  0.775200  1.0  0.1029
  H  H59  1  0.460900  0.087600  0.679600  1.0  0.1133
  H  H60  1  0.488200  0.015400  0.728600  1.0  0.1741
  H  H61  1  0.494800  0.937400  0.754000  1.0  0.1335
  H  H62  1  0.516100  0.814900  0.857000  1.0  0.1116
  H  H63  1  0.495300  0.922000  0.889400  1.0  0.0963
  H  H64  1  0.446800  0.357600  0.857400  1.0  0.1099
  H  H65  1  0.421800  0.229800  0.863200  1.0  0.0928
  H  H66  1  0.434800  0.366100  0.734800  1.0  0.1067
  H  H67  1  0.460900  0.208100  0.785000  1.0  0.1349
  H  H68  1  0.474600  0.317300  0.326200  1.0  0.1273
  H  H69  1  0.482000  0.305000  0.454800  1.0  0.1253
  H  H70  1  0.088200  0.370000  0.452000  1.0  0.1157
  H  H71  1  0.991900  0.203300  0.549800  1.0  0.1218
  H  H72  1  0.908200  0.133200  0.634000  1.0  0.1036
  H  H73  1  0.765800  0.088400  0.775200  1.0  0.1004
  H  H74  1  0.859500  0.232800  0.679600  1.0  0.1133
  H  H75  1  0.783200  0.256000  0.728600  1.0  0.1755
  H  H76  1  0.751200  0.308600  0.754000  1.0  0.1336
  H  H77  1  0.626900  0.328100  0.857000  1.0  0.1107
  H  H78  1  0.615300  0.188600  0.889400  1.0  0.0965
  H  H79  1  0.695800  0.785000  0.857400  1.0  0.11
  H  H80  1  0.715000  0.907000  0.863200  1.0  0.0934
  H  H81  1  0.830400  0.899100  0.734800  1.0  0.1065
  H  H82  1  0.754100  0.006900  0.785000  1.0  0.1363
  H  H83  1  0.199200  0.356500  0.326200  1.0  0.1281
  H  H84  1  0.063200  0.240200  0.454800  1.0  0.1245
  H  H85  1  0.630000  0.540200  0.548000  1.0  0.1147
  H  H86  1  0.796700  0.541700  0.450200  1.0  0.1207
  H  H87  1  0.866800  0.542200  0.366000  1.0  0.1027
  H  H88  1  0.911600  0.541000  0.224800  1.0  0.0996
  H  H89  1  0.767200  0.539100  0.320400  1.0  0.1137
  H  H90  1  0.744000  0.511800  0.271400  1.0  0.1752
  H  H91  1  0.691400  0.505200  0.246000  1.0  0.1341
  H  H92  1  0.671900  0.483900  0.143000  1.0  0.1107
  H  H93  1  0.811400  0.504700  0.110600  1.0  0.0952
  H  H94  1  0.215000  0.553200  0.142600  1.0  0.1106
  H  H95  1  0.093000  0.578200  0.136800  1.0  0.0922
  H  H96  1  0.100900  0.565200  0.265200  1.0  0.1062
  H  H97  1  0.993100  0.539100  0.215000  1.0  0.1353
  H  H98  1  0.643500  0.525400  0.673800  1.0  0.1279
  H  H99  1  0.759800  0.518000  0.545200  1.0  0.1248
  H  H100  1  0.822000  0.911800  0.548000  1.0  0.1159
  H  H101  1  0.753100  0.008100  0.450200  1.0  0.1175
  H  H102  1  0.767200  0.091800  0.366000  1.0  0.1042
  H  H103  1  0.863600  0.234200  0.224800  1.0  0.1022
  H  H104  1  0.912400  0.140500  0.320400  1.0  0.114
  H  H105  1  0.984600  0.216800  0.271400  1.0  0.1744
  H  H106  1  0.062600  0.248800  0.246000  1.0  0.1339
  H  H107  1  0.185100  0.373100  0.143000  1.0  0.1112
  H  H108  1  0.078000  0.384700  0.110600  1.0  0.0967
  H  H109  1  0.642400  0.304200  0.142600  1.0  0.1101
  H  H110  1  0.770200  0.285000  0.136800  1.0  0.0913
  H  H111  1  0.633900  0.169600  0.265200  1.0  0.108
  H  H112  1  0.791900  0.245900  0.215000  1.0  0.1361
  H  H113  1  0.682700  0.800800  0.673800  1.0  0.1276
  H  H114  1  0.695000  0.936800  0.545200  1.0  0.1243
  H  H115  1  0.540200  0.822000  0.548000  1.0  0.1142
  H  H116  1  0.541700  0.753100  0.450200  1.0  0.1185
  H  H117  1  0.542200  0.767200  0.366000  1.0  0.1028
  H  H118  1  0.541000  0.863600  0.224800  1.0  0.104
  H  H119  1  0.539100  0.912400  0.320400  1.0  0.1133
  H  H120  1  0.511800  0.984600  0.271400  1.0  0.1757
  H  H121  1  0.505200  0.062600  0.246000  1.0  0.1343
  H  H122  1  0.483900  0.185100  0.143000  1.0  0.1107
  H  H123  1  0.504700  0.078000  0.110600  1.0  0.0967
  H  H124  1  0.553200  0.642400  0.142600  1.0  0.1105
  H  H125  1  0.578200  0.770200  0.136800  1.0  0.0909
  H  H126  1  0.565200  0.633900  0.265200  1.0  0.1069
  H  H127  1  0.539100  0.791900  0.215000  1.0  0.1346
  H  H128  1  0.525400  0.682700  0.673800  1.0  0.1274
  H  H129  1  0.518000  0.695000  0.545200  1.0  0.1265
  H  H130  1  0.911800  0.630000  0.548000  1.0  0.1146
  H  H131  1  0.008100  0.796700  0.450200  1.0  0.1222
  H  H132  1  0.091800  0.866800  0.366000  1.0  0.1038
  H  H133  1  0.234200  0.911600  0.224800  1.0  0.1003
  H  H134  1  0.140500  0.767200  0.320400  1.0  0.1132
  H  H135  1  0.216800  0.744000  0.271400  1.0  0.1745
  H  H136  1  0.248800  0.691400  0.246000  1.0  0.1329
  H  H137  1  0.373100  0.671900  0.143000  1.0  0.111
  H  H138  1  0.384700  0.811400  0.110600  1.0  0.096
  H  H139  1  0.304200  0.215000  0.142600  1.0  0.1099
  H  H140  1  0.285000  0.093000  0.136800  1.0  0.0936
  H  H141  1  0.169600  0.100900  0.265200  1.0  0.1059
  H  H142  1  0.245900  0.993100  0.215000  1.0  0.1351
  H  H143  1  0.800800  0.643500  0.673800  1.0  0.1279
  H  H144  1  0.936800  0.759800  0.545200  1.0  0.1236
  C  C145  1  0.428700  0.470900  0.348600  1.0  0.6879
  C  C146  1  0.372300  0.474200  0.383200  1.0  -0.101
  C  C147  1  0.351900  0.467000  0.434000  1.0  -0.0263
  C  C148  1  0.303800  0.470200  0.460800  1.0  0.0788
  C  C149  1  0.231600  0.461100  0.552600  1.0  -0.0411
  C  C150  1  0.231600  0.459700  0.599800  1.0  0.0022
  C  C151  1  0.187100  0.449100  0.654400  1.0  0.0541
  C  C152  1  0.137400  0.449800  0.664400  1.0  -0.0581
  C  C153  1  0.099900  0.440300  0.712000  1.0  0.0773
  C  C154  1  0.114900  0.456900  0.744800  1.0  -0.1084
  C  C155  1  0.161600  0.467600  0.731800  1.0  0.0435
  C  C156  1  0.199600  0.459300  0.687000  1.0  -0.0535
  C  C157  1  0.169000  0.471200  0.769000  1.0  0.1387
  C  C158  1  0.223100  0.483700  0.759000  1.0  0.017
  C  C159  1  0.239300  0.497000  0.820000  1.0  0.1015
  C  C160  1  0.296200  0.500800  0.783800  1.0  -0.0799
  C  C161  1  0.330100  0.513800  0.797000  1.0  0.1537
  C  C162  1  0.308300  0.517400  0.842000  1.0  -0.0418
  C  C163  1  0.259600  0.523100  0.871400  1.0  -0.0625
  C  C164  1  0.224500  0.503700  0.862600  1.0  -0.0404
  C  C165  1  0.240600  0.530500  0.918600  1.0  0.6924
  C  C166  1  0.812000  0.458500  0.760800  1.0  0.6588
  C  C167  1  0.839900  0.445400  0.790000  1.0  -0.0868
  C  C168  1  0.818600  0.444300  0.839600  1.0  -0.0685
  C  C169  1  0.846500  0.439300  0.866000  1.0  -0.0465
  C  C170  1  0.891600  0.431900  0.842000  1.0  -0.1081
  C  C171  1  0.917600  0.438000  0.788000  1.0  0.1203
  C  C172  1  0.886600  0.438800  0.766200  1.0  -0.0274
  C  C173  1  0.826200  0.439200  0.916600  1.0  0.6428
  C  C174  1  0.005000  0.444400  0.767600  1.0  0.0426
  C  C175  1  0.380800  0.518000  0.763800  1.0  0.6234
  C  C176  1  0.043600  0.429900  0.732200  1.0  0.2187
  C  C177  1  0.343800  0.477900  0.358000  1.0  -0.0829
  C  C178  1  0.298000  0.486200  0.381800  1.0  -0.1044
  C  C179  1  0.273800  0.480000  0.435600  1.0  -0.1036
  C  C180  1  0.272300  0.496700  0.351800  1.0  0.661
  C  C181  1  0.222700  0.180500  0.348600  1.0  0.6889
  C  C182  1  0.244500  0.142600  0.383200  1.0  -0.102
  C  C183  1  0.214100  0.099000  0.434000  1.0  -0.0244
  C  C184  1  0.235400  0.069000  0.460800  1.0  0.0791
  C  C185  1  0.215800  0.986300  0.552600  1.0  -0.0422
  C  C186  1  0.168600  0.940500  0.599800  1.0  0.0061
  C  C187  1  0.158500  0.896500  0.654400  1.0  0.0524
  C  C188  1  0.198200  0.885800  0.664400  1.0  -0.0597
  C  C189  1  0.188100  0.847700  0.712000  1.0  0.0868
  C  C190  1  0.140300  0.798300  0.744800  1.0  -0.1073
  C  C191  1  0.106600  0.800600  0.731800  1.0  0.045
  C  C192  1  0.113400  0.853700  0.687000  1.0  -0.0538
  C  C193  1  0.062000  0.759800  0.769000  1.0  0.1426
  C  C194  1  0.017900  0.757300  0.759000  1.0  0.0141
  C  C195  1  0.940700  0.683000  0.820000  1.0  0.097
  C  C196  1  0.920000  0.715400  0.783800  1.0  -0.0771
  C  C197  1  0.872900  0.689200  0.797000  1.0  0.1542
  C  C198  1  0.849700  0.640600  0.842000  1.0  -0.0429
  C  C199  1  0.869000  0.605500  0.871400  1.0  -0.0701
  C  C200  1  0.912900  0.633700  0.862600  1.0  -0.04
  C  C201  1  0.840800  0.550900  0.918600  1.0  0.6949
  C  C202  1  0.427200  0.780700  0.760800  1.0  0.6582
  C  C203  1  0.370100  0.764600  0.790000  1.0  -0.0876
  C  C204  1  0.341800  0.716100  0.839600  1.0  -0.0678
  C  C205  1  0.287500  0.694700  0.866000  1.0  -0.0428
  C  C206  1  0.266400  0.726100  0.842000  1.0  -0.1205
  C  C207  1  0.294400  0.774000  0.788000  1.0  0.1223
  C  C208  1  0.347200  0.795000  0.766200  1.0  -0.0271
  C  C209  1  0.257200  0.644200  0.916600  1.0  0.6408
  C  C210  1  0.227400  0.788000  0.767600  1.0  0.0424
  C  C211  1  0.855400  0.718200  0.763800  1.0  0.6248
  C  C212  1  0.224200  0.837900  0.732200  1.0  0.2156
  C  C213  1  0.298200  0.164100  0.358000  1.0  -0.0815
  C  C214  1  0.320200  0.132000  0.381800  1.0  -0.1037
  C  C215  1  0.290600  0.084400  0.435600  1.0  -0.1
  C  C216  1  0.375900  0.151500  0.351800  1.0  0.6607
  C  C217  1  0.470900  0.222700  0.348600  1.0  0.6869
  C  C218  1  0.474200  0.244500  0.383200  1.0  -0.1016
  C  C219  1  0.467000  0.214100  0.434000  1.0  -0.026
  C  C220  1  0.470200  0.235400  0.460800  1.0  0.0776
  C  C221  1  0.461100  0.215800  0.552600  1.0  -0.0412
  C  C222  1  0.459700  0.168600  0.599800  1.0  0.0011
  C  C223  1  0.449100  0.158500  0.654400  1.0  0.0544
  C  C224  1  0.449800  0.198200  0.664400  1.0  -0.0602
  C  C225  1  0.440300  0.188100  0.712000  1.0  0.0903
  C  C226  1  0.456900  0.140300  0.744800  1.0  -0.0826
  C  C227  1  0.467600  0.106600  0.731800  1.0  0.0464
  C  C228  1  0.459300  0.113400  0.687000  1.0  -0.0511
  C  C229  1  0.471200  0.062000  0.769000  1.0  0.1399
  C  C230  1  0.483700  0.017900  0.759000  1.0  0.0151
  C  C231  1  0.497000  0.940700  0.820000  1.0  0.1017
  C  C232  1  0.500800  0.920000  0.783800  1.0  -0.0786
  C  C233  1  0.513800  0.872900  0.797000  1.0  0.1535
  C  C234  1  0.517400  0.849700  0.842000  1.0  -0.0431
  C  C235  1  0.523100  0.869000  0.871400  1.0  -0.0654
  C  C236  1  0.503700  0.912900  0.862600  1.0  -0.0386
  C  C237  1  0.530500  0.840800  0.918600  1.0  0.6954
  C  C238  1  0.458500  0.427200  0.760800  1.0  0.66
  C  C239  1  0.445400  0.370100  0.790000  1.0  -0.0871
  C  C240  1  0.444300  0.341800  0.839600  1.0  -0.0674
  C  C241  1  0.439300  0.287500  0.866000  1.0  -0.0466
  C  C242  1  0.431900  0.266400  0.842000  1.0  -0.1053
  C  C243  1  0.438000  0.294400  0.788000  1.0  0.119
  C  C244  1  0.438800  0.347200  0.766200  1.0  -0.0257
  C  C245  1  0.439200  0.257200  0.916600  1.0  0.6434
  C  C246  1  0.444400  0.227400  0.767600  1.0  0.0441
  C  C247  1  0.518000  0.855400  0.763800  1.0  0.6283
  C  C248  1  0.429900  0.224200  0.732200  1.0  0.2161
  C  C249  1  0.477900  0.298200  0.358000  1.0  -0.0833
  C  C250  1  0.486200  0.320200  0.381800  1.0  -0.1037
  C  C251  1  0.480000  0.290600  0.435600  1.0  -0.0955
  C  C252  1  0.496700  0.375900  0.351800  1.0  0.6607
  C  C253  1  0.180500  0.428700  0.348600  1.0  0.689
  C  C254  1  0.142600  0.372300  0.383200  1.0  -0.1009
  C  C255  1  0.099000  0.351900  0.434000  1.0  -0.0279
  C  C256  1  0.069000  0.303800  0.460800  1.0  0.0844
  C  C257  1  0.986300  0.231600  0.552600  1.0  -0.0388
  C  C258  1  0.940500  0.231600  0.599800  1.0  0.0069
  C  C259  1  0.896500  0.187100  0.654400  1.0  0.0512
  C  C260  1  0.885800  0.137400  0.664400  1.0  -0.0609
  C  C261  1  0.847700  0.099900  0.712000  1.0  0.0811
  C  C262  1  0.798300  0.114900  0.744800  1.0  -0.1083
  C  C263  1  0.800600  0.161600  0.731800  1.0  0.0436
  C  C264  1  0.853700  0.199600  0.687000  1.0  -0.0507
  C  C265  1  0.759800  0.169000  0.769000  1.0  0.1413
  C  C266  1  0.757300  0.223100  0.759000  1.0  0.0135
  C  C267  1  0.683000  0.239300  0.820000  1.0  0.1018
  C  C268  1  0.715400  0.296200  0.783800  1.0  -0.0795
  C  C269  1  0.689200  0.330100  0.797000  1.0  0.1556
  C  C270  1  0.640600  0.308300  0.842000  1.0  -0.043
  C  C271  1  0.605500  0.259600  0.871400  1.0  -0.0614
  C  C272  1  0.633700  0.224500  0.862600  1.0  -0.04
  C  C273  1  0.550900  0.240600  0.918600  1.0  0.6974
  C  C274  1  0.780700  0.812000  0.760800  1.0  0.6616
  C  C275  1  0.764600  0.839900  0.790000  1.0  -0.0883
  C  C276  1  0.716100  0.818600  0.839600  1.0  -0.0642
  C  C277  1  0.694700  0.846500  0.866000  1.0  -0.0468
  C  C278  1  0.726100  0.891600  0.842000  1.0  -0.1089
  C  C279  1  0.774000  0.917600  0.788000  1.0  0.1211
  C  C280  1  0.795000  0.886600  0.766200  1.0  -0.0265
  C  C281  1  0.644200  0.826200  0.916600  1.0  0.6367
  C  C282  1  0.788000  0.005000  0.767600  1.0  0.0421
  C  C283  1  0.718200  0.380800  0.763800  1.0  0.6228
  C  C284  1  0.837900  0.043600  0.732200  1.0  0.2128
  C  C285  1  0.164100  0.343800  0.358000  1.0  -0.0843
  C  C286  1  0.132000  0.298000  0.381800  1.0  -0.1037
  C  C287  1  0.084400  0.273800  0.435600  1.0  -0.0995
  C  C288  1  0.151500  0.272300  0.351800  1.0  0.6606
  C  C289  1  0.571300  0.529100  0.651400  1.0  0.687
  C  C290  1  0.627700  0.525800  0.616800  1.0  -0.1037
  C  C291  1  0.648100  0.533000  0.566000  1.0  -0.026
  C  C292  1  0.696200  0.529800  0.539200  1.0  0.0785
  C  C293  1  0.768400  0.538900  0.447400  1.0  -0.0401
  C  C294  1  0.768400  0.540300  0.400200  1.0  0.0067
  C  C295  1  0.812900  0.550900  0.345600  1.0  0.0534
  C  C296  1  0.862600  0.550200  0.335600  1.0  -0.0601
  C  C297  1  0.900100  0.559700  0.288000  1.0  0.0764
  C  C298  1  0.885100  0.543100  0.255200  1.0  -0.1112
  C  C299  1  0.838400  0.532400  0.268200  1.0  0.0433
  C  C300  1  0.800400  0.540700  0.313000  1.0  -0.0572
  C  C301  1  0.831000  0.528800  0.231000  1.0  0.1391
  C  C302  1  0.776900  0.516300  0.241000  1.0  0.0144
  C  C303  1  0.760700  0.503000  0.180000  1.0  0.1015
  C  C304  1  0.703800  0.499200  0.216200  1.0  -0.0805
  C  C305  1  0.669900  0.486200  0.203000  1.0  0.1546
  C  C306  1  0.691700  0.482600  0.158000  1.0  -0.0421
  C  C307  1  0.740400  0.476900  0.128600  1.0  -0.0627
  C  C308  1  0.775500  0.496300  0.137400  1.0  -0.0394
  C  C309  1  0.759400  0.469500  0.081400  1.0  0.6926
  C  C310  1  0.188000  0.541500  0.239200  1.0  0.6585
  C  C311  1  0.160100  0.554600  0.210000  1.0  -0.0862
  C  C312  1  0.181400  0.555700  0.160400  1.0  -0.0668
  C  C313  1  0.153500  0.560700  0.134000  1.0  -0.046
  C  C314  1  0.108400  0.568100  0.158000  1.0  -0.1084
  C  C315  1  0.082400  0.562000  0.212000  1.0  0.121
  C  C316  1  0.113400  0.561200  0.233800  1.0  -0.0281
  C  C317  1  0.173800  0.560800  0.083400  1.0  0.6432
  C  C318  1  0.995000  0.555600  0.232400  1.0  0.0429
  C  C319  1  0.619200  0.482000  0.236200  1.0  0.6225
  C  C320  1  0.956400  0.570100  0.267800  1.0  0.2154
  C  C321  1  0.656200  0.522100  0.642000  1.0  -0.0848
  C  C322  1  0.702000  0.513800  0.618200  1.0  -0.1042
  C  C323  1  0.726200  0.520000  0.564400  1.0  -0.0977
  C  C324  1  0.727700  0.503300  0.648200  1.0  0.661
  C  C325  1  0.777300  0.819500  0.651400  1.0  0.6883
  C  C326  1  0.755500  0.857400  0.616800  1.0  -0.1034
  C  C327  1  0.785900  0.901000  0.566000  1.0  -0.0265
  C  C328  1  0.764600  0.931000  0.539200  1.0  0.0799
  C  C329  1  0.784200  0.013700  0.447400  1.0  -0.0393
  C  C330  1  0.831400  0.059500  0.400200  1.0  0.0022
  C  C331  1  0.841500  0.103500  0.345600  1.0  0.052
  C  C332  1  0.801800  0.114200  0.335600  1.0  -0.0586
  C  C333  1  0.811900  0.152300  0.288000  1.0  0.0861
  C  C334  1  0.859700  0.201700  0.255200  1.0  -0.1105
  C  C335  1  0.893400  0.199400  0.268200  1.0  0.0454
  C  C336  1  0.886600  0.146300  0.313000  1.0  -0.0545
  C  C337  1  0.938000  0.240200  0.231000  1.0  0.1415
  C  C338  1  0.982100  0.242700  0.241000  1.0  0.0172
  C  C339  1  0.059300  0.317000  0.180000  1.0  0.098
  C  C340  1  0.080000  0.284600  0.216200  1.0  -0.0758
  C  C341  1  0.127100  0.310800  0.203000  1.0  0.1547
  C  C342  1  0.150300  0.359400  0.158000  1.0  -0.0433
  C  C343  1  0.131000  0.394500  0.128600  1.0  -0.0692
  C  C344  1  0.087100  0.366300  0.137400  1.0  -0.0407
  C  C345  1  0.159200  0.449100  0.081400  1.0  0.6947
  C  C346  1  0.572800  0.219300  0.239200  1.0  0.6587
  C  C347  1  0.629900  0.235400  0.210000  1.0  -0.0865
  C  C348  1  0.658200  0.283900  0.160400  1.0  -0.0665
  C  C349  1  0.712500  0.305300  0.134000  1.0  -0.0431
  C  C350  1  0.733600  0.273900  0.158000  1.0  -0.1215
  C  C351  1  0.705600  0.226000  0.212000  1.0  0.1211
  C  C352  1  0.652800  0.205000  0.233800  1.0  -0.0257
  C  C353  1  0.742800  0.355800  0.083400  1.0  0.6405
  C  C354  1  0.772600  0.212000  0.232400  1.0  0.0422
  C  C355  1  0.144600  0.281800  0.236200  1.0  0.6237
  C  C356  1  0.775800  0.162100  0.267800  1.0  0.2173
  C  C357  1  0.701800  0.835900  0.642000  1.0  -0.0825
  C  C358  1  0.679800  0.868000  0.618200  1.0  -0.1035
  C  C359  1  0.709400  0.915600  0.564400  1.0  -0.1009
  C  C360  1  0.624100  0.848500  0.648200  1.0  0.6607
  C  C361  1  0.529100  0.777300  0.651400  1.0  0.689
  C  C362  1  0.525800  0.755500  0.616800  1.0  -0.1031
  C  C363  1  0.533000  0.785900  0.566000  1.0  -0.0277
  C  C364  1  0.529800  0.764600  0.539200  1.0  0.0776
  C  C365  1  0.538900  0.784200  0.447400  1.0  -0.0399
  C  C366  1  0.540300  0.831400  0.400200  1.0  0.0044
  C  C367  1  0.550900  0.841500  0.345600  1.0  0.0561
  C  C368  1  0.550200  0.801800  0.335600  1.0  -0.0594
  C  C369  1  0.559700  0.811900  0.288000  1.0  0.0907
  C  C370  1  0.543100  0.859700  0.255200  1.0  -0.0871
  C  C371  1  0.532400  0.893400  0.268200  1.0  0.045
  C  C372  1  0.540700  0.886600  0.313000  1.0  -0.0524
  C  C373  1  0.528800  0.938000  0.231000  1.0  0.1394
  C  C374  1  0.516300  0.982100  0.241000  1.0  0.0125
  C  C375  1  0.503000  0.059300  0.180000  1.0  0.1021
  C  C376  1  0.499200  0.080000  0.216200  1.0  -0.0793
  C  C377  1  0.486200  0.127100  0.203000  1.0  0.1539
  C  C378  1  0.482600  0.150300  0.158000  1.0  -0.0447
  C  C379  1  0.476900  0.131000  0.128600  1.0  -0.0642
  C  C380  1  0.496300  0.087100  0.137400  1.0  -0.0399
  C  C381  1  0.469500  0.159200  0.081400  1.0  0.6959
  C  C382  1  0.541500  0.572800  0.239200  1.0  0.6604
  C  C383  1  0.554600  0.629900  0.210000  1.0  -0.0887
  C  C384  1  0.555700  0.658200  0.160400  1.0  -0.0681
  C  C385  1  0.560700  0.712500  0.134000  1.0  -0.0475
  C  C386  1  0.568100  0.733600  0.158000  1.0  -0.1054
  C  C387  1  0.562000  0.705600  0.212000  1.0  0.1199
  C  C388  1  0.561200  0.652800  0.233800  1.0  -0.0248
  C  C389  1  0.560800  0.742800  0.083400  1.0  0.6447
  C  C390  1  0.555600  0.772600  0.232400  1.0  0.0407
  C  C391  1  0.482000  0.144600  0.236200  1.0  0.6259
  C  C392  1  0.570100  0.775800  0.267800  1.0  0.2161
  C  C393  1  0.522100  0.701800  0.642000  1.0  -0.0838
  C  C394  1  0.513800  0.679800  0.618200  1.0  -0.1041
  C  C395  1  0.520000  0.709400  0.564400  1.0  -0.0952
  C  C396  1  0.503300  0.624100  0.648200  1.0  0.6609
  C  C397  1  0.819500  0.571300  0.651400  1.0  0.6878
  C  C398  1  0.857400  0.627700  0.616800  1.0  -0.1027
  C  C399  1  0.901000  0.648100  0.566000  1.0  -0.0275
  C  C400  1  0.931000  0.696200  0.539200  1.0  0.0855
  C  C401  1  0.013700  0.768400  0.447400  1.0  -0.0421
  C  C402  1  0.059500  0.768400  0.400200  1.0  0.0047
  C  C403  1  0.103500  0.812900  0.345600  1.0  0.0507
  C  C404  1  0.114200  0.862600  0.335600  1.0  -0.0607
  C  C405  1  0.152300  0.900100  0.288000  1.0  0.0808
  C  C406  1  0.201700  0.885100  0.255200  1.0  -0.1083
  C  C407  1  0.199400  0.838400  0.268200  1.0  0.0442
  C  C408  1  0.146300  0.800400  0.313000  1.0  -0.0505
  C  C409  1  0.240200  0.831000  0.231000  1.0  0.1412
  C  C410  1  0.242700  0.776900  0.241000  1.0  0.0157
  C  C411  1  0.317000  0.760700  0.180000  1.0  0.1015
  C  C412  1  0.284600  0.703800  0.216200  1.0  -0.0788
  C  C413  1  0.310800  0.669900  0.203000  1.0  0.1545
  C  C414  1  0.359400  0.691700  0.158000  1.0  -0.0442
  C  C415  1  0.394500  0.740400  0.128600  1.0  -0.0617
  C  C416  1  0.366300  0.775500  0.137400  1.0  -0.0409
  C  C417  1  0.449100  0.759400  0.081400  1.0  0.6971
  C  C418  1  0.219300  0.188000  0.239200  1.0  0.6625
  C  C419  1  0.235400  0.160100  0.210000  1.0  -0.0871
  C  C420  1  0.283900  0.181400  0.160400  1.0  -0.0643
  C  C421  1  0.305300  0.153500  0.134000  1.0  -0.0464
  C  C422  1  0.273900  0.108400  0.158000  1.0  -0.1092
  C  C423  1  0.226000  0.082400  0.212000  1.0  0.1211
  C  C424  1  0.205000  0.113400  0.233800  1.0  -0.0273
  C  C425  1  0.355800  0.173800  0.083400  1.0  0.6363
  C  C426  1  0.212000  0.995000  0.232400  1.0  0.0436
  C  C427  1  0.281800  0.619200  0.236200  1.0  0.6232
  C  C428  1  0.162100  0.956400  0.267800  1.0  0.2156
  C  C429  1  0.835900  0.656200  0.642000  1.0  -0.084
  C  C430  1  0.868000  0.702000  0.618200  1.0  -0.1041
  C  C431  1  0.915600  0.726200  0.564400  1.0  -0.0998
  C  C432  1  0.848500  0.727700  0.648200  1.0  0.6606
  N  N433  1  0.276400  0.466600  0.518000  1.0  -0.1159
  N  N434  1  0.313100  0.483500  0.526200  1.0  -0.3575
  N  N435  1  0.273700  0.465500  0.584600  1.0  -0.1128
  N  N436  1  0.137100  0.457200  0.822800  1.0  -0.2077
  N  N437  1  0.159300  0.461100  0.847600  1.0  -0.2817
  N  N438  1  0.210600  0.486100  0.803000  1.0  -0.0004
  N  N439  1  0.964600  0.426600  0.768000  1.0  0.1157
  N  N440  1  0.980500  0.415900  0.726400  1.0  -0.321
  N  N441  1  0.030600  0.416100  0.711400  1.0  -0.1635
  N  N442  1  0.205600  0.015400  0.518000  1.0  -0.1155
  N  N443  1  0.160700  0.990300  0.526200  1.0  -0.354
  N  N444  1  0.141700  0.949900  0.584600  1.0  -0.1119
  N  N445  1  0.040100  0.720000  0.822800  1.0  -0.2123
  N  N446  1  0.993100  0.691300  0.847600  1.0  -0.2858
  N  N447  1  0.986400  0.710900  0.803000  1.0  -0.0016
  N  N448  1  0.267400  0.805400  0.768000  1.0  0.1297
  N  N449  1  0.293100  0.857700  0.726400  1.0  -0.3112
  N  N450  1  0.258000  0.872500  0.711400  1.0  -0.157
  N  N451  1  0.466600  0.205600  0.518000  1.0  -0.1176
  N  N452  1  0.483500  0.160700  0.526200  1.0  -0.3585
  N  N453  1  0.465500  0.141700  0.584600  1.0  -0.1153
  N  N454  1  0.457200  0.040100  0.822800  1.0  -0.2109
  N  N455  1  0.461100  0.993100  0.847600  1.0  -0.2766
  N  N456  1  0.486100  0.986400  0.803000  1.0  0.0011
  N  N457  1  0.426600  0.267400  0.768000  1.0  0.1178
  N  N458  1  0.415900  0.293100  0.726400  1.0  -0.3165
  N  N459  1  0.416100  0.258000  0.711400  1.0  -0.1588
  N  N460  1  0.015400  0.276400  0.518000  1.0  -0.116
  N  N461  1  0.990300  0.313100  0.526200  1.0  -0.3591
  N  N462  1  0.949900  0.273700  0.584600  1.0  -0.1135
  N  N463  1  0.720000  0.137100  0.822800  1.0  -0.2144
  N  N464  1  0.691300  0.159300  0.847600  1.0  -0.2844
  N  N465  1  0.710900  0.210600  0.803000  1.0  -0.001
  N  N466  1  0.805400  0.964600  0.768000  1.0  0.1289
  N  N467  1  0.857700  0.980500  0.726400  1.0  -0.3133
  N  N468  1  0.872500  0.030600  0.711400  1.0  -0.1606
  N  N469  1  0.723600  0.533400  0.482000  1.0  -0.1184
  N  N470  1  0.686900  0.516500  0.473800  1.0  -0.3566
  N  N471  1  0.726300  0.534500  0.415400  1.0  -0.1103
  N  N472  1  0.862900  0.542800  0.177200  1.0  -0.2129
  N  N473  1  0.840700  0.538900  0.152400  1.0  -0.2843
  N  N474  1  0.789400  0.513900  0.197000  1.0  -0.0015
  N  N475  1  0.035400  0.573400  0.232000  1.0  0.116
  N  N476  1  0.019500  0.584100  0.273600  1.0  -0.3197
  N  N477  1  0.969400  0.583900  0.288600  1.0  -0.1628
  N  N478  1  0.794400  0.984600  0.482000  1.0  -0.1155
  N  N479  1  0.839300  0.009700  0.473800  1.0  -0.3551
  N  N480  1  0.858300  0.050100  0.415400  1.0  -0.1154
  N  N481  1  0.959900  0.280000  0.177200  1.0  -0.2174
  N  N482  1  0.006900  0.308700  0.152400  1.0  -0.2881
  N  N483  1  0.013600  0.289100  0.197000  1.0  -0.0008
  N  N484  1  0.732600  0.194600  0.232000  1.0  0.1278
  N  N485  1  0.706900  0.142300  0.273600  1.0  -0.3127
  N  N486  1  0.742000  0.127500  0.288600  1.0  -0.1554
  N  N487  1  0.533400  0.794400  0.482000  1.0  -0.1181
  N  N488  1  0.516500  0.839300  0.473800  1.0  -0.3578
  N  N489  1  0.534500  0.858300  0.415400  1.0  -0.1169
  N  N490  1  0.542800  0.959900  0.177200  1.0  -0.2136
  N  N491  1  0.538900  0.006900  0.152400  1.0  -0.2743
  N  N492  1  0.513900  0.013600  0.197000  1.0  -0.0015
  N  N493  1  0.573400  0.732600  0.232000  1.0  0.1171
  N  N494  1  0.584100  0.706900  0.273600  1.0  -0.3135
  N  N495  1  0.583900  0.742000  0.288600  1.0  -0.1588
  N  N496  1  0.984600  0.723600  0.482000  1.0  -0.1183
  N  N497  1  0.009700  0.686900  0.473800  1.0  -0.3557
  N  N498  1  0.050100  0.726300  0.415400  1.0  -0.1154
  N  N499  1  0.280000  0.862900  0.177200  1.0  -0.2104
  N  N500  1  0.308700  0.840700  0.152400  1.0  -0.2875
  N  N501  1  0.289100  0.789400  0.197000  1.0  0.0021
  N  N502  1  0.194600  0.035400  0.232000  1.0  0.1274
  N  N503  1  0.142300  0.019500  0.273600  1.0  -0.3132
  N  N504  1  0.127500  0.969400  0.288600  1.0  -0.1579
  O  O505  1  0.447160  0.475020  0.303160  1.0  -0.5588
  O  O506  1  0.451480  0.464000  0.375600  1.0  -0.6006
  O  O507  1  0.767320  0.458540  0.786640  1.0  -0.556
  O  O508  1  0.835890  0.456320  0.713160  1.0  -0.5802
  O  O509  1  0.413130  0.520490  0.780380  1.0  -0.583
  O  O510  1  0.401880  0.517070  0.716060  1.0  -0.59
  O  O511  1  0.291750  0.497210  0.304700  1.0  -0.5776
  O  O512  1  0.227770  0.506730  0.374940  1.0  -0.5764
  O  O513  1  0.778310  0.446730  0.939340  1.0  -0.5663
  O  O514  1  0.851900  0.438400  0.938200  1.0  -0.5809
  O  O515  1  0.267970  0.526920  0.939460  1.0  -0.5681
  O  O516  1  0.195590  0.535140  0.940360  1.0  -0.5749
  O  O517  1  0.249680  0.221820  0.303160  1.0  -0.5618
  O  O518  1  0.172920  0.160400  0.375600  1.0  -0.6024
  O  O519  1  0.446040  0.754820  0.786640  1.0  -0.5557
  O  O520  1  0.450950  0.830520  0.713160  1.0  -0.5802
  O  O521  1  0.806490  0.699130  0.780380  1.0  -0.5837
  O  O522  1  0.882060  0.766870  0.716060  1.0  -0.5891
  O  O523  1  0.403550  0.198090  0.304700  1.0  -0.5792
  O  O524  1  0.397290  0.118330  0.374940  1.0  -0.5761
  O  O525  1  0.282350  0.613930  0.939340  1.0  -0.5647
  O  O526  1  0.209900  0.623400  0.938200  1.0  -0.5774
  O  O527  1  0.792570  0.533620  0.939460  1.0  -0.5716
  O  O528  1  0.864050  0.524500  0.940360  1.0  -0.5712
  O  O529  1  0.475020  0.249680  0.303160  1.0  -0.5605
  O  O530  1  0.464000  0.172920  0.375600  1.0  -0.6016
  O  O531  1  0.458540  0.446040  0.786640  1.0  -0.5567
  O  O532  1  0.456320  0.450950  0.713160  1.0  -0.5791
  O  O533  1  0.520490  0.806490  0.780380  1.0  -0.5846
  O  O534  1  0.517070  0.882060  0.716060  1.0  -0.5932
  O  O535  1  0.497210  0.403550  0.304700  1.0  -0.5778
  O  O536  1  0.506730  0.397290  0.374940  1.0  -0.577
  O  O537  1  0.446730  0.282350  0.939340  1.0  -0.5637
  O  O538  1  0.438400  0.209900  0.938200  1.0  -0.5792
  O  O539  1  0.526920  0.792570  0.939460  1.0  -0.5695
  O  O540  1  0.535140  0.864050  0.940360  1.0  -0.5728
  O  O541  1  0.221820  0.447160  0.303160  1.0  -0.5601
  O  O542  1  0.160400  0.451480  0.375600  1.0  -0.6011
  O  O543  1  0.754820  0.767320  0.786640  1.0  -0.5573
  O  O544  1  0.830520  0.835890  0.713160  1.0  -0.5805
  O  O545  1  0.699130  0.413130  0.780380  1.0  -0.5823
  O  O546  1  0.766870  0.401880  0.716060  1.0  -0.5877
  O  O547  1  0.198090  0.291750  0.304700  1.0  -0.5785
  O  O548  1  0.118330  0.227770  0.374940  1.0  -0.5765
  O  O549  1  0.613930  0.778310  0.939340  1.0  -0.5731
  O  O550  1  0.623400  0.851900  0.938200  1.0  -0.5794
  O  O551  1  0.533620  0.267970  0.939460  1.0  -0.5645
  O  O552  1  0.524500  0.195590  0.940360  1.0  -0.5796
  O  O553  1  0.552840  0.524980  0.696840  1.0  -0.5599
  O  O554  1  0.548520  0.536000  0.624400  1.0  -0.6014
  O  O555  1  0.232680  0.541460  0.213360  1.0  -0.5572
  O  O556  1  0.164110  0.543680  0.286840  1.0  -0.5804
  O  O557  1  0.586870  0.479510  0.219620  1.0  -0.5855
  O  O558  1  0.598120  0.482930  0.283940  1.0  -0.5912
  O  O559  1  0.708250  0.502790  0.695300  1.0  -0.5776
  O  O560  1  0.772230  0.493270  0.625060  1.0  -0.5752
  O  O561  1  0.221690  0.553270  0.060660  1.0  -0.566
  O  O562  1  0.148100  0.561600  0.061800  1.0  -0.5797
  O  O563  1  0.732030  0.473080  0.060540  1.0  -0.5671
  O  O564  1  0.804410  0.464860  0.059640  1.0  -0.5758
  O  O565  1  0.750320  0.778180  0.696840  1.0  -0.5587
  O  O566  1  0.827080  0.839600  0.624400  1.0  -0.6022
  O  O567  1  0.553960  0.245180  0.213360  1.0  -0.5556
  O  O568  1  0.549050  0.169480  0.286840  1.0  -0.5791
  O  O569  1  0.193510  0.300870  0.219620  1.0  -0.5841
  O  O570  1  0.117940  0.233130  0.283940  1.0  -0.5897
  O  O571  1  0.596450  0.801910  0.695300  1.0  -0.5777
  O  O572  1  0.602710  0.881670  0.625060  1.0  -0.5759
  O  O573  1  0.717650  0.386070  0.060660  1.0  -0.5635
  O  O574  1  0.790100  0.376600  0.061800  1.0  -0.5777
  O  O575  1  0.207430  0.466380  0.060540  1.0  -0.5717
  O  O576  1  0.135950  0.475500  0.059640  1.0  -0.5719
  O  O577  1  0.524980  0.750320  0.696840  1.0  -0.5608
  O  O578  1  0.536000  0.827080  0.624400  1.0  -0.6017
  O  O579  1  0.541460  0.553960  0.213360  1.0  -0.557
  O  O580  1  0.543680  0.549050  0.286840  1.0  -0.5791
  O  O581  1  0.479510  0.193510  0.219620  1.0  -0.5849
  O  O582  1  0.482930  0.117940  0.283940  1.0  -0.5908
  O  O583  1  0.502790  0.596450  0.695300  1.0  -0.5784
  O  O584  1  0.493270  0.602710  0.625060  1.0  -0.5772
  O  O585  1  0.553270  0.717650  0.060660  1.0  -0.5652
  O  O586  1  0.561600  0.790100  0.061800  1.0  -0.5802
  O  O587  1  0.473080  0.207430  0.060540  1.0  -0.5706
  O  O588  1  0.464860  0.135950  0.059640  1.0  -0.5733
  O  O589  1  0.778180  0.552840  0.696840  1.0  -0.5586
  O  O590  1  0.839600  0.548520  0.624400  1.0  -0.6026
  O  O591  1  0.245180  0.232680  0.213360  1.0  -0.5571
  O  O592  1  0.169480  0.164110  0.286840  1.0  -0.5809
  O  O593  1  0.300870  0.586870  0.219620  1.0  -0.5842
  O  O594  1  0.233130  0.598120  0.283940  1.0  -0.5878
  O  O595  1  0.801910  0.708250  0.695300  1.0  -0.5776
  O  O596  1  0.881670  0.772230  0.625060  1.0  -0.5758
  O  O597  1  0.386070  0.221690  0.060660  1.0  -0.5703
  O  O598  1  0.376600  0.148100  0.061800  1.0  -0.5781
  O  O599  1  0.466380  0.732030  0.060540  1.0  -0.5644
  O  O600  1  0.475500  0.804410  0.059640  1.0  -0.5809
