# generated using pymatgen
data_DyH20C28(NO4)2
_symmetry_space_group_name_H-M   'P 1'
_cell_length_a   12.37430000
_cell_length_b   14.58420000
_cell_length_c   21.94350000
_cell_angle_alpha   90.00000000
_cell_angle_beta   104.82100000
_cell_angle_gamma   90.00000000
_symmetry_Int_Tables_number   1
_chemical_formula_structural   DyH20C28(NO4)2
_chemical_formula_sum   'Dy4 H80 C112 N8 O32'
_cell_volume   3828.37270686
_cell_formula_units_Z   4
loop_
 _symmetry_equiv_pos_site_id
 _symmetry_equiv_pos_as_xyz
  1  'x, y, z'
loop_
 _atom_site_type_symbol
 _atom_site_label
 _atom_site_symmetry_multiplicity
 _atom_site_fract_x
 _atom_site_fract_y
 _atom_site_fract_z
 _atom_site_occupancy
 _atom_site_charge
  Dy  Dy1  1  0.066490  0.385940  0.396470  1.0  2.2379
  Dy  Dy2  1  0.933510  0.385940  0.103530  1.0  2.235
  Dy  Dy3  1  0.933510  0.614060  0.603530  1.0  2.2345
  Dy  Dy4  1  0.066490  0.614060  0.896470  1.0  2.2375
  H  H5  1  0.410600  0.434900  0.320900  1.0  0.0871
  H  H6  1  0.577800  0.501900  0.317600  1.0  0.0928
  H  H7  1  0.570500  0.655800  0.469100  1.0  0.0946
  H  H8  1  0.404100  0.585900  0.473600  1.0  0.0786
  H  H9  1  0.720300  0.677200  0.423000  1.0  0.1027
  H  H10  1  0.764400  0.575300  0.416400  1.0  0.0922
  H  H11  1  0.838700  0.552700  0.332200  1.0  0.0926
  H  H12  1  0.852500  0.582700  0.232400  1.0  0.0899
  H  H13  1  0.627200  0.785300  0.219600  1.0  0.0942
  H  H14  1  0.610500  0.745600  0.319300  1.0  0.089
  H  H15  1  0.902200  0.644700  0.156100  1.0  0.1046
  H  H16  1  0.931300  0.703500  0.063300  1.0  0.0897
  H  H17  1  0.644400  0.839800  0.030000  1.0  0.1037
  H  H18  1  0.611800  0.788900  0.122200  1.0  0.0967
  H  H19  1  0.750600  0.816400  0.948100  1.0  0.0826
  H  H20  1  0.881500  0.795300  0.975300  1.0  0.0941
  H  H21  1  0.976500  0.906000  0.071500  1.0  0.0922
  H  H22  1  0.003900  0.057100  0.101300  1.0  0.0939
  H  H23  1  0.730100  0.129600  0.963900  1.0  0.0911
  H  H24  1  0.702200  0.974100  0.934400  1.0  0.0983
  H  H25  1  0.589400  0.434900  0.179100  1.0  0.0878
  H  H26  1  0.422200  0.501900  0.182400  1.0  0.0935
  H  H27  1  0.429500  0.655800  0.030900  1.0  0.0949
  H  H28  1  0.595900  0.585900  0.026400  1.0  0.0798
  H  H29  1  0.279700  0.677200  0.077000  1.0  0.1034
  H  H30  1  0.235600  0.575300  0.083600  1.0  0.0923
  H  H31  1  0.161300  0.552700  0.167800  1.0  0.0925
  H  H32  1  0.147500  0.582700  0.267600  1.0  0.0908
  H  H33  1  0.372800  0.785300  0.280400  1.0  0.0953
  H  H34  1  0.389500  0.745600  0.180700  1.0  0.0893
  H  H35  1  0.097800  0.644700  0.343900  1.0  0.1045
  H  H36  1  0.068700  0.703500  0.436700  1.0  0.0898
  H  H37  1  0.355600  0.839800  0.470000  1.0  0.1039
  H  H38  1  0.388200  0.788900  0.377800  1.0  0.0973
  H  H39  1  0.249400  0.816400  0.551900  1.0  0.0835
  H  H40  1  0.118500  0.795300  0.524700  1.0  0.0947
  H  H41  1  0.023500  0.906000  0.428500  1.0  0.0926
  H  H42  1  0.996100  0.057100  0.398700  1.0  0.0947
  H  H43  1  0.269900  0.129600  0.536100  1.0  0.0909
  H  H44  1  0.297800  0.974100  0.565600  1.0  0.0981
  H  H45  1  0.589400  0.565100  0.679100  1.0  0.0883
  H  H46  1  0.422200  0.498100  0.682400  1.0  0.0933
  H  H47  1  0.429500  0.344200  0.530900  1.0  0.0943
  H  H48  1  0.595900  0.414100  0.526400  1.0  0.0798
  H  H49  1  0.279700  0.322800  0.577000  1.0  0.1049
  H  H50  1  0.235600  0.424700  0.583600  1.0  0.092
  H  H51  1  0.161300  0.447300  0.667800  1.0  0.093
  H  H52  1  0.147500  0.417300  0.767600  1.0  0.0907
  H  H53  1  0.372800  0.214700  0.780400  1.0  0.0938
  H  H54  1  0.389500  0.254400  0.680700  1.0  0.0896
  H  H55  1  0.097800  0.355300  0.843900  1.0  0.1042
  H  H56  1  0.068700  0.296500  0.936700  1.0  0.0898
  H  H57  1  0.355600  0.160200  0.970000  1.0  0.1037
  H  H58  1  0.388200  0.211100  0.877800  1.0  0.0974
  H  H59  1  0.249400  0.183600  0.051900  1.0  0.0834
  H  H60  1  0.118500  0.204700  0.024700  1.0  0.0947
  H  H61  1  0.023500  0.094000  0.928500  1.0  0.0928
  H  H62  1  0.996100  0.942900  0.898700  1.0  0.0946
  H  H63  1  0.269900  0.870400  0.036100  1.0  0.0914
  H  H64  1  0.297800  0.025900  0.065600  1.0  0.0981
  H  H65  1  0.410600  0.565100  0.820900  1.0  0.0895
  H  H66  1  0.577800  0.498100  0.817600  1.0  0.093
  H  H67  1  0.570500  0.344200  0.969100  1.0  0.0944
  H  H68  1  0.404100  0.414100  0.973600  1.0  0.0784
  H  H69  1  0.720300  0.322800  0.923000  1.0  0.1052
  H  H70  1  0.764400  0.424700  0.916400  1.0  0.0913
  H  H71  1  0.838700  0.447300  0.832200  1.0  0.0925
  H  H72  1  0.852500  0.417300  0.732400  1.0  0.0899
  H  H73  1  0.627200  0.214700  0.719600  1.0  0.0949
  H  H74  1  0.610500  0.254400  0.819300  1.0  0.0895
  H  H75  1  0.902200  0.355300  0.656100  1.0  0.104
  H  H76  1  0.931300  0.296500  0.563300  1.0  0.0897
  H  H77  1  0.644400  0.160200  0.530000  1.0  0.1028
  H  H78  1  0.611800  0.211100  0.622200  1.0  0.0972
  H  H79  1  0.750600  0.183600  0.448100  1.0  0.0833
  H  H80  1  0.881500  0.204700  0.475300  1.0  0.0943
  H  H81  1  0.976500  0.094000  0.571500  1.0  0.0916
  H  H82  1  0.003900  0.942900  0.601300  1.0  0.0941
  H  H83  1  0.730100  0.870400  0.463900  1.0  0.0911
  H  H84  1  0.702200  0.025900  0.434400  1.0  0.0983
  C  C85  1  0.282200  0.457200  0.399750  1.0  0.6612
  C  C86  1  0.390100  0.501800  0.398460  1.0  -0.1046
  C  C87  1  0.443700  0.479000  0.351880  1.0  -0.0524
  C  C88  1  0.543000  0.518900  0.349800  1.0  -0.1531
  C  C89  1  0.593100  0.583900  0.394200  1.0  0.0644
  C  C90  1  0.539100  0.609500  0.439400  1.0  -0.1467
  C  C91  1  0.439400  0.568200  0.441660  1.0  -0.0651
  C  C92  1  0.707200  0.621200  0.396600  1.0  -0.077
  C  C93  1  0.792800  0.598700  0.307970  1.0  0.0524
  C  C94  1  0.802700  0.617900  0.249500  1.0  -0.1791
  C  C95  1  0.742900  0.686300  0.214540  1.0  0.0472
  C  C96  1  0.669700  0.735900  0.241800  1.0  -0.1669
  C  C97  1  0.660100  0.712300  0.300900  1.0  -0.0067
  C  C98  1  0.757200  0.714600  0.151930  1.0  0.0264
  C  C99  1  0.850300  0.686900  0.131640  1.0  -0.1735
  C  C100  1  0.866700  0.720800  0.076340  1.0  0.0231
  C  C101  1  0.697900  0.801500  0.057110  1.0  0.0203
  C  C102  1  0.678500  0.771600  0.111280  1.0  -0.2043
  C  C103  1  0.815200  0.823400  0.985180  1.0  -0.0668
  C  C104  1  0.836900  0.925300  0.000960  1.0  0.0691
  C  C105  1  0.925900  0.951300  0.049740  1.0  -0.1253
  C  C106  1  0.942400  0.040800  0.067210  1.0  -0.0631
  C  C107  1  0.870800  0.108600  0.035960  1.0  -0.1315
  C  C108  1  0.779900  0.084000  0.985840  1.0  -0.08
  C  C109  1  0.763300  0.991500  0.968310  1.0  -0.0796
  C  C110  1  0.889700  0.206400  0.055570  1.0  0.6733
  C  C111  1  0.011800  0.458000  0.522230  1.0  0.6287
  C  C112  1  0.717800  0.457200  0.100250  1.0  0.6622
  C  C113  1  0.609900  0.501800  0.101540  1.0  -0.105
  C  C114  1  0.556300  0.479000  0.148120  1.0  -0.0545
  C  C115  1  0.457000  0.518900  0.150200  1.0  -0.1528
  C  C116  1  0.406900  0.583900  0.105800  1.0  0.0647
  C  C117  1  0.460900  0.609500  0.060600  1.0  -0.1479
  C  C118  1  0.560600  0.568200  0.058340  1.0  -0.0653
  C  C119  1  0.292800  0.621200  0.103400  1.0  -0.0769
  C  C120  1  0.207200  0.598700  0.192030  1.0  0.0516
  C  C121  1  0.197300  0.617900  0.250500  1.0  -0.1777
  C  C122  1  0.257100  0.686300  0.285460  1.0  0.0466
  C  C123  1  0.330300  0.735900  0.258200  1.0  -0.1687
  C  C124  1  0.339900  0.712300  0.199100  1.0  -0.0059
  C  C125  1  0.242800  0.714600  0.348070  1.0  0.0272
  C  C126  1  0.149700  0.686900  0.368360  1.0  -0.1724
  C  C127  1  0.133300  0.720800  0.423660  1.0  0.023
  C  C128  1  0.302100  0.801500  0.442890  1.0  0.018
  C  C129  1  0.321500  0.771600  0.388720  1.0  -0.2049
  C  C130  1  0.184800  0.823400  0.514820  1.0  -0.0676
  C  C131  1  0.163100  0.925300  0.499040  1.0  0.0671
  C  C132  1  0.074100  0.951300  0.450260  1.0  -0.125
  C  C133  1  0.057600  0.040800  0.432790  1.0  -0.0647
  C  C134  1  0.129200  0.108600  0.464040  1.0  -0.1288
  C  C135  1  0.220100  0.084000  0.514160  1.0  -0.0777
  C  C136  1  0.236700  0.991500  0.531690  1.0  -0.076
  C  C137  1  0.110300  0.206400  0.444430  1.0  0.6758
  C  C138  1  0.988200  0.458000  0.977770  1.0  0.6278
  C  C139  1  0.717800  0.542800  0.600250  1.0  0.663
  C  C140  1  0.609900  0.498200  0.601540  1.0  -0.1042
  C  C141  1  0.556300  0.521000  0.648120  1.0  -0.0501
  C  C142  1  0.457000  0.481100  0.650200  1.0  -0.1526
  C  C143  1  0.406900  0.416100  0.605800  1.0  0.0649
  C  C144  1  0.460900  0.390500  0.560600  1.0  -0.1477
  C  C145  1  0.560600  0.431800  0.558340  1.0  -0.0647
  C  C146  1  0.292800  0.378800  0.603400  1.0  -0.0768
  C  C147  1  0.207200  0.401300  0.692030  1.0  0.0507
  C  C148  1  0.197300  0.382100  0.750500  1.0  -0.1778
  C  C149  1  0.257100  0.313700  0.785460  1.0  0.0468
  C  C150  1  0.330300  0.264100  0.758200  1.0  -0.173
  C  C151  1  0.339900  0.287700  0.699100  1.0  -0.0077
  C  C152  1  0.242800  0.285400  0.848070  1.0  0.0275
  C  C153  1  0.149700  0.313100  0.868360  1.0  -0.1722
  C  C154  1  0.133300  0.279200  0.923660  1.0  0.0228
  C  C155  1  0.302100  0.198500  0.942890  1.0  0.02
  C  C156  1  0.321500  0.228400  0.888720  1.0  -0.2038
  C  C157  1  0.184800  0.176600  0.014820  1.0  -0.0667
  C  C158  1  0.163100  0.074700  0.999040  1.0  0.0672
  C  C159  1  0.074100  0.048700  0.950260  1.0  -0.1246
  C  C160  1  0.057600  0.959200  0.932790  1.0  -0.0642
  C  C161  1  0.129200  0.891400  0.964040  1.0  -0.1307
  C  C162  1  0.220100  0.916000  0.014160  1.0  -0.0769
  C  C163  1  0.236700  0.008500  0.031690  1.0  -0.0752
  C  C164  1  0.110300  0.793600  0.944430  1.0  0.6768
  C  C165  1  0.988200  0.542000  0.477770  1.0  0.6272
  C  C166  1  0.282200  0.542800  0.899750  1.0  0.6609
  C  C167  1  0.390100  0.498200  0.898460  1.0  -0.1038
  C  C168  1  0.443700  0.521000  0.851880  1.0  -0.0507
  C  C169  1  0.543000  0.481100  0.849800  1.0  -0.1516
  C  C170  1  0.593100  0.416100  0.894200  1.0  0.0645
  C  C171  1  0.539100  0.390500  0.939400  1.0  -0.1467
  C  C172  1  0.439400  0.431800  0.941660  1.0  -0.0645
  C  C173  1  0.707200  0.378800  0.896600  1.0  -0.0772
  C  C174  1  0.792800  0.401300  0.807970  1.0  0.0512
  C  C175  1  0.802700  0.382100  0.749500  1.0  -0.179
  C  C176  1  0.742900  0.313700  0.714540  1.0  0.0475
  C  C177  1  0.669700  0.264100  0.741800  1.0  -0.1705
  C  C178  1  0.660100  0.287700  0.800900  1.0  -0.0076
  C  C179  1  0.757200  0.285400  0.651930  1.0  0.0268
  C  C180  1  0.850300  0.313100  0.631640  1.0  -0.1736
  C  C181  1  0.866700  0.279200  0.576340  1.0  0.0232
  C  C182  1  0.697900  0.198500  0.557110  1.0  0.0211
  C  C183  1  0.678500  0.228400  0.611280  1.0  -0.2028
  C  C184  1  0.815200  0.176600  0.485180  1.0  -0.0669
  C  C185  1  0.836900  0.074700  0.500960  1.0  0.0696
  C  C186  1  0.925900  0.048700  0.549740  1.0  -0.1249
  C  C187  1  0.942400  0.959200  0.567210  1.0  -0.0633
  C  C188  1  0.870800  0.891400  0.535960  1.0  -0.131
  C  C189  1  0.779900  0.916000  0.485840  1.0  -0.0797
  C  C190  1  0.763300  0.008500  0.468310  1.0  -0.0789
  C  C191  1  0.889700  0.793600  0.555570  1.0  0.6739
  C  C192  1  0.011800  0.542000  0.022230  1.0  0.6281
  C  C193  1  0.000000  0.335000  0.250000  1.0  0.5487
  C  C194  1  0.000000  0.441400  0.250000  1.0  0.6148
  C  C195  1  0.000000  0.665000  0.750000  1.0  0.5444
  C  C196  1  0.000000  0.558600  0.750000  1.0  0.617
  N  N197  1  0.719400  0.643700  0.332390  1.0  0.0334
  N  N198  1  0.791900  0.778300  0.040630  1.0  0.045
  N  N199  1  0.280600  0.643700  0.167610  1.0  0.0335
  N  N200  1  0.208100  0.778300  0.459370  1.0  0.0448
  N  N201  1  0.280600  0.356300  0.667610  1.0  0.034
  N  N202  1  0.208100  0.221700  0.959370  1.0  0.0445
  N  N203  1  0.719400  0.356300  0.832390  1.0  0.0336
  N  N204  1  0.791900  0.221700  0.540630  1.0  0.0446
  O  O205  1  0.236200  0.476420  0.444230  1.0  -0.6641
  O  O206  1  0.236400  0.400640  0.358030  1.0  -0.6853
  O  O207  1  0.809900  0.262790  0.047300  1.0  -0.6506
  O  O208  1  0.988400  0.231040  0.082950  1.0  -0.6701
  O  O209  1  0.027700  0.296980  0.302780  1.0  -0.6019
  O  O210  1  0.020400  0.479910  0.302840  1.0  -0.623
  O  O211  1  0.042200  0.385790  0.500400  1.0  -0.6311
  O  O212  1  0.994300  0.467040  0.575850  1.0  -0.6297
  O  O213  1  0.763800  0.476420  0.055770  1.0  -0.6632
  O  O214  1  0.763600  0.400640  0.141970  1.0  -0.6852
  O  O215  1  0.190100  0.262790  0.452700  1.0  -0.6522
  O  O216  1  0.011600  0.231040  0.417050  1.0  -0.6706
  O  O217  1  0.972300  0.296980  0.197220  1.0  -0.6015
  O  O218  1  0.979600  0.479910  0.197160  1.0  -0.6229
  O  O219  1  0.957800  0.385790  0.999600  1.0  -0.6296
  O  O220  1  0.005700  0.467040  0.924150  1.0  -0.6292
  O  O221  1  0.763800  0.523580  0.555770  1.0  -0.6632
  O  O222  1  0.763600  0.599360  0.641970  1.0  -0.686
  O  O223  1  0.190100  0.737210  0.952700  1.0  -0.6512
  O  O224  1  0.011600  0.768960  0.917050  1.0  -0.6706
  O  O225  1  0.972300  0.703020  0.697220  1.0  -0.601
  O  O226  1  0.979600  0.520090  0.697160  1.0  -0.6222
  O  O227  1  0.957800  0.614210  0.499600  1.0  -0.6314
  O  O228  1  0.005700  0.532960  0.424150  1.0  -0.6298
  O  O229  1  0.236200  0.523580  0.944230  1.0  -0.6647
  O  O230  1  0.236400  0.599360  0.858030  1.0  -0.6852
  O  O231  1  0.809900  0.737210  0.547300  1.0  -0.6511
  O  O232  1  0.988400  0.768960  0.582950  1.0  -0.6697
  O  O233  1  0.027700  0.703020  0.802780  1.0  -0.6024
  O  O234  1  0.020400  0.520090  0.802840  1.0  -0.6231
  O  O235  1  0.042200  0.614210  0.000400  1.0  -0.6321
  O  O236  1  0.994300  0.532960  0.075850  1.0  -0.6295
