# generated using pymatgen
data_ZnH8C12(IN2)2
_symmetry_space_group_name_H-M   'P 1'
_cell_length_a   15.02800000
_cell_length_b   18.83110000
_cell_length_c   31.19700000
_cell_angle_alpha   100.27300000
_cell_angle_beta   90.00000000
_cell_angle_gamma   113.51700000
_symmetry_Int_Tables_number   1
_chemical_formula_structural   ZnH8C12(IN2)2
_chemical_formula_sum   'Zn12 H96 C144 I24 N48'
_cell_volume   7940.68423016
_cell_formula_units_Z   12
loop_
 _symmetry_equiv_pos_site_id
 _symmetry_equiv_pos_as_xyz
  1  'x, y, z'
loop_
 _atom_site_type_symbol
 _atom_site_label
 _atom_site_symmetry_multiplicity
 _atom_site_fract_x
 _atom_site_fract_y
 _atom_site_fract_z
 _atom_site_occupancy
 _atom_site_charge
  Zn  Zn1  1  0.373580  0.929200  0.264240  1.0  0.9396
  Zn  Zn2  1  0.305910  0.325500  0.436550  1.0  0.8818
  Zn  Zn3  1  0.631640  0.504140  0.614060  1.0  0.8614
  Zn  Zn4  1  0.555620  0.929200  0.764240  1.0  0.9404
  Zn  Zn5  1  0.019590  0.325500  0.936550  1.0  0.879
  Zn  Zn6  1  0.872500  0.504140  0.114060  1.0  0.8651
  Zn  Zn7  1  0.654790  0.020160  0.483160  1.0  0.8893
  Zn  Zn8  1  0.041120  0.839360  0.800780  1.0  0.901
  Zn  Zn9  1  0.112970  0.410860  0.650360  1.0  0.9295
  Zn  Zn10  1  0.365370  0.020160  0.983160  1.0  0.888
  Zn  Zn11  1  0.798240  0.839360  0.300780  1.0  0.901
  Zn  Zn12  1  0.297890  0.410860  0.150360  1.0  0.9305
  H  H13  1  0.596300  0.011000  0.281500  1.0  0.0862
  H  H14  1  0.720700  0.115600  0.326300  1.0  0.109
  H  H15  1  0.510200  0.148400  0.391700  1.0  0.0864
  H  H16  1  0.388800  0.031800  0.353100  1.0  0.0984
  H  H17  1  0.179700  0.397800  0.473900  1.0  0.0617
  H  H18  1  0.012500  0.375400  0.477900  1.0  0.1228
  H  H19  1  0.953000  0.187400  0.380500  1.0  0.1044
  H  H20  1  0.117100  0.211400  0.386800  1.0  0.0736
  H  H21  1  0.519100  0.349400  0.543100  1.0  0.1001
  H  H22  1  0.572400  0.299400  0.480900  1.0  0.0741
  H  H23  1  0.845100  0.404400  0.526900  1.0  0.1064
  H  H24  1  0.797000  0.468400  0.586700  1.0  0.0881
  H  H25  1  0.830200  0.630600  0.641600  1.0  0.0953
  H  H26  1  0.969400  0.660000  0.686800  1.0  0.1205
  H  H27  1  0.824500  0.458800  0.731000  1.0  0.1173
  H  H28  1  0.687400  0.439800  0.688200  1.0  0.0778
  H  H29  1  0.467200  0.798200  0.809900  1.0  0.0773
  H  H30  1  0.329100  0.683600  0.809000  1.0  0.1196
  H  H31  1  0.222800  0.728600  0.703200  1.0  0.1184
  H  H32  1  0.363100  0.843800  0.710600  1.0  0.065
  H  H33  1  0.897100  0.343600  0.862300  1.0  0.0834
  H  H34  1  0.912600  0.414600  0.808700  1.0  0.1243
  H  H35  1  0.183400  0.551600  0.861600  1.0  0.114
  H  H36  1  0.165200  0.462600  0.905800  1.0  0.0829
  H  H37  1  0.414700  0.011000  0.781500  1.0  0.0861
  H  H38  1  0.394900  0.115600  0.826300  1.0  0.1084
  H  H39  1  0.638200  0.148400  0.891700  1.0  0.0864
  H  H40  1  0.643000  0.031800  0.853100  1.0  0.0992
  H  H41  1  0.218100  0.397800  0.973900  1.0  0.0618
  H  H42  1  0.362900  0.375400  0.977900  1.0  0.1227
  H  H43  1  0.234400  0.187400  0.880500  1.0  0.1048
  H  H44  1  0.094300  0.211400  0.886800  1.0  0.0739
  H  H45  1  0.830300  0.349400  0.043100  1.0  0.0994
  H  H46  1  0.727000  0.299400  0.980900  1.0  0.0738
  H  H47  1  0.559300  0.404400  0.026900  1.0  0.1068
  H  H48  1  0.671400  0.468400  0.086700  1.0  0.0877
  H  H49  1  0.800400  0.630600  0.141600  1.0  0.0952
  H  H50  1  0.690600  0.660000  0.186800  1.0  0.121
  H  H51  1  0.634300  0.458800  0.231000  1.0  0.1172
  H  H52  1  0.752400  0.439800  0.188200  1.0  0.0781
  H  H53  1  0.331000  0.798200  0.309900  1.0  0.0778
  H  H54  1  0.354500  0.683600  0.309000  1.0  0.1204
  H  H55  1  0.505800  0.728600  0.203200  1.0  0.1188
  H  H56  1  0.480700  0.843800  0.210600  1.0  0.065
  H  H57  1  0.446500  0.343600  0.362300  1.0  0.0837
  H  H58  1  0.502000  0.414600  0.308700  1.0  0.1237
  H  H59  1  0.368200  0.551600  0.361600  1.0  0.1139
  H  H60  1  0.297400  0.462600  0.405800  1.0  0.0831
  H  H61  1  0.755600  0.015400  0.559600  1.0  0.0967
  H  H62  1  0.734200  0.951400  0.617100  1.0  0.1004
  H  H63  1  0.471300  0.814800  0.568900  1.0  0.0948
  H  H64  1  0.493000  0.873800  0.509200  1.0  0.1017
  H  H65  1  0.833400  0.704400  0.769700  1.0  0.1054
  H  H66  1  0.696000  0.697800  0.732700  1.0  0.0926
  H  H67  1  0.847500  0.898000  0.697400  1.0  0.0927
  H  H68  1  0.980300  0.913800  0.741000  1.0  0.1075
  H  H69  1  0.249500  0.495600  0.592000  1.0  0.0877
  H  H70  1  0.390600  0.603400  0.586700  1.0  0.1077
  H  H71  1  0.437400  0.619800  0.713700  1.0  0.0844
  H  H72  1  0.289500  0.519600  0.717900  1.0  0.0998
  H  H73  1  0.266800  0.355000  0.631800  1.0  0.0818
  H  H74  1  0.304400  0.267400  0.580400  1.0  0.1244
  H  H75  1  0.038400  0.203200  0.516100  1.0  0.1072
  H  H76  1  0.004000  0.278200  0.576700  1.0  0.09
  H  H77  1  0.471600  0.980200  0.428700  1.0  0.0744
  H  H78  1  0.326300  0.990600  0.432400  1.0  0.1024
  H  H79  1  0.433900  0.150400  0.541700  1.0  0.0948
  H  H80  1  0.578100  0.134200  0.538800  1.0  0.1095
  H  H81  1  0.853400  0.983200  0.368600  1.0  0.1022
  H  H82  1  0.965100  0.074000  0.425500  1.0  0.109
  H  H83  1  0.105500  0.920800  0.402800  1.0  0.1092
  H  H84  1  0.983000  0.837800  0.346700  1.0  0.1092
  H  H85  1  0.259800  0.015400  0.059600  1.0  0.0962
  H  H86  1  0.217200  0.951400  0.117100  1.0  0.1006
  H  H87  1  0.343500  0.814800  0.068900  1.0  0.095
  H  H88  1  0.380800  0.873800  0.009200  1.0  0.1017
  H  H89  1  0.871000  0.704400  0.269700  1.0  0.1051
  H  H90  1  0.001800  0.697800  0.232700  1.0  0.0928
  H  H91  1  0.050500  0.898000  0.197400  1.0  0.0924
  H  H92  1  0.933500  0.913800  0.241000  1.0  0.1079
  H  H93  1  0.246100  0.495600  0.092000  1.0  0.0874
  H  H94  1  0.212800  0.603400  0.086700  1.0  0.1077
  H  H95  1  0.182400  0.619800  0.213700  1.0  0.084
  H  H96  1  0.230100  0.519600  0.217900  1.0  0.0996
  H  H97  1  0.088200  0.355000  0.131800  1.0  0.0816
  H  H98  1  0.963000  0.267400  0.080400  1.0  0.1249
  H  H99  1  0.164800  0.203200  0.016100  1.0  0.1072
  H  H100  1  0.274200  0.278200  0.076700  1.0  0.088
  H  H101  1  0.508600  0.980200  0.928700  1.0  0.0745
  H  H102  1  0.664300  0.990600  0.932400  1.0  0.1025
  H  H103  1  0.716500  0.150400  0.041700  1.0  0.0949
  H  H104  1  0.556100  0.134200  0.038800  1.0  0.1096
  H  H105  1  0.129800  0.983200  0.868600  1.0  0.1008
  H  H106  1  0.108900  0.074000  0.925500  1.0  0.1085
  H  H107  1  0.815300  0.920800  0.902800  1.0  0.1096
  H  H108  1  0.854800  0.837800  0.846700  1.0  0.1094
  C  C109  1  0.578600  0.038200  0.306400  1.0  0.1238
  C  C110  1  0.654800  0.097600  0.333333  1.0  -0.0559
  C  C111  1  0.625900  0.127800  0.371100  1.0  -0.0964
  C  C112  1  0.528000  0.112600  0.371900  1.0  -0.1206
  C  C113  1  0.454800  0.049200  0.346300  1.0  0.124
  C  C114  1  0.704900  0.193600  0.402400  1.0  0.3709
  C  C115  1  0.859400  0.259800  0.431200  1.0  0.2915
  C  C116  1  0.744600  0.293600  0.460100  1.0  0.3177
  C  C117  1  0.132100  0.352000  0.456000  1.0  0.1424
  C  C118  1  0.032200  0.340400  0.458500  1.0  -0.1284
  C  C119  1  0.965400  0.273200  0.430100  1.0  -0.0943
  C  C120  1  0.996400  0.229200  0.402100  1.0  -0.1392
  C  C121  1  0.095200  0.246000  0.405300  1.0  0.1548
  C  C122  1  0.586600  0.364600  0.539500  1.0  0.1067
  C  C123  1  0.620300  0.331600  0.504000  1.0  -0.0959
  C  C124  1  0.710200  0.338200  0.497300  1.0  -0.0891
  C  C125  1  0.777900  0.393000  0.529200  1.0  -0.1019
  C  C126  1  0.748900  0.431800  0.564600  1.0  0.1644
  C  C127  1  0.829100  0.596000  0.660600  1.0  0.126
  C  C128  1  0.913500  0.612200  0.685300  1.0  -0.1516
  C  C129  1  0.912600  0.555200  0.707900  1.0  -0.0884
  C  C130  1  0.827400  0.493600  0.711900  1.0  -0.1427
  C  C131  1  0.746300  0.484200  0.687300  1.0  0.1346
  C  C132  1  0.997900  0.570000  0.739200  1.0  0.343
  C  C133  1  0.156900  0.635400  0.760900  1.0  0.3634
  C  C134  1  0.065600  0.534600  0.791400  1.0  0.3582
  C  C135  1  0.415600  0.784200  0.788200  1.0  0.1348
  C  C136  1  0.332900  0.717200  0.789100  1.0  -0.1874
  C  C137  1  0.254800  0.701200  0.759200  1.0  -0.0582
  C  C138  1  0.269700  0.743600  0.727200  1.0  -0.2148
  C  C139  1  0.356400  0.810200  0.730900  1.0  0.1453
  C  C140  1  0.959700  0.383000  0.860000  1.0  0.1563
  C  C141  1  0.966400  0.427000  0.828900  1.0  -0.1517
  C  C142  1  0.052500  0.489200  0.827700  1.0  0.0044
  C  C143  1  0.125000  0.505200  0.858800  1.0  -0.1797
  C  C144  1  0.111600  0.452600  0.886000  1.0  0.1625
  C  C145  1  0.459600  0.038200  0.806400  1.0  0.1244
  C  C146  1  0.442800  0.097600  0.833300  1.0  -0.0559
  C  C147  1  0.501900  0.127800  0.871100  1.0  -0.0942
  C  C148  1  0.584600  0.112600  0.871900  1.0  -0.1198
  C  C149  1  0.594400  0.049200  0.846300  1.0  0.1237
  C  C150  1  0.488700  0.193600  0.902400  1.0  0.3713
  C  C151  1  0.400400  0.259800  0.931200  1.0  0.2917
  C  C152  1  0.549000  0.293600  0.960100  1.0  0.3178
  C  C153  1  0.219900  0.352000  0.956000  1.0  0.1427
  C  C154  1  0.308200  0.340400  0.958500  1.0  -0.1288
  C  C155  1  0.307800  0.273200  0.930100  1.0  -0.0933
  C  C156  1  0.232800  0.229200  0.902100  1.0  -0.1397
  C  C157  1  0.150800  0.246000  0.905300  1.0  0.1552
  C  C158  1  0.778000  0.364600  0.039500  1.0  0.1077
  C  C159  1  0.711300  0.331600  0.004000  1.0  -0.0955
  C  C160  1  0.628000  0.338200  0.997300  1.0  -0.09
  C  C161  1  0.615100  0.393000  0.029200  1.0  -0.1025
  C  C162  1  0.682900  0.431800  0.064600  1.0  0.1644
  C  C163  1  0.766900  0.596000  0.160600  1.0  0.1272
  C  C164  1  0.698700  0.612200  0.185300  1.0  -0.1523
  C  C165  1  0.642600  0.555200  0.207900  1.0  -0.0908
  C  C166  1  0.666200  0.493600  0.211900  1.0  -0.1433
  C  C167  1  0.737900  0.484200  0.187300  1.0  0.1331
  C  C168  1  0.572100  0.570000  0.239200  1.0  0.3428
  C  C169  1  0.478500  0.635400  0.260900  1.0  0.3629
  C  C170  1  0.469000  0.534600  0.291400  1.0  0.3582
  C  C171  1  0.368600  0.784200  0.288200  1.0  0.1341
  C  C172  1  0.384300  0.717200  0.289100  1.0  -0.1874
  C  C173  1  0.446400  0.701200  0.259200  1.0  -0.0594
  C  C174  1  0.473900  0.743600  0.227200  1.0  -0.2135
  C  C175  1  0.453800  0.810200  0.230900  1.0  0.1448
  C  C176  1  0.423300  0.383000  0.360000  1.0  0.1551
  C  C177  1  0.460600  0.427000  0.328900  1.0  -0.1532
  C  C178  1  0.436700  0.489200  0.327700  1.0  0.0038
  C  C179  1  0.380200  0.505200  0.358800  1.0  -0.1799
  C  C180  1  0.341000  0.452600  0.386000  1.0  0.163
  C  C181  1  0.695900  0.971800  0.560400  1.0  0.1304
  C  C182  1  0.686200  0.930000  0.593100  1.0  -0.1061
  C  C183  1  0.610800  0.859400  0.592400  1.0  -0.04
  C  C184  1  0.534600  0.850800  0.564600  1.0  -0.0884
  C  C185  1  0.544400  0.890800  0.531400  1.0  0.1189
  C  C186  1  0.604400  0.806200  0.622200  1.0  0.395
  C  C187  1  0.670600  0.775400  0.678100  1.0  0.323
  C  C188  1  0.512500  0.705400  0.654800  1.0  0.3436
  C  C189  1  0.836600  0.745800  0.755300  1.0  0.1116
  C  C190  1  0.757200  0.738800  0.730300  1.0  -0.1198
  C  C191  1  0.761400  0.787600  0.702100  1.0  0.0033
  C  C192  1  0.844100  0.855600  0.710800  1.0  -0.1026
  C  C193  1  0.922700  0.866600  0.737700  1.0  0.0819
  C  C194  1  0.286300  0.526000  0.618600  1.0  0.1267
  C  C195  1  0.371000  0.590200  0.614300  1.0  -0.1588
  C  C196  1  0.424500  0.633400  0.653100  1.0  -0.0254
  C  C197  1  0.393800  0.598600  0.688100  1.0  -0.0893
  C  C198  1  0.306800  0.536200  0.690900  1.0  0.0944
  C  C199  1  0.219500  0.321600  0.608600  1.0  0.1605
  C  C200  1  0.241200  0.267400  0.579800  1.0  -0.1143
  C  C201  1  0.161700  0.208800  0.547600  1.0  -0.1212
  C  C202  1  0.081400  0.226200  0.541800  1.0  -0.122
  C  C203  1  0.067400  0.278600  0.575300  1.0  0.1364
  C  C204  1  0.177400  0.151400  0.513400  1.0  0.3263
  C  C205  1  0.266800  0.079000  0.493100  1.0  0.1747
  C  C206  1  0.121700  0.054600  0.453200  1.0  0.3756
  C  C207  1  0.462400  0.012600  0.453800  1.0  0.1353
  C  C208  1  0.375000  0.018800  0.455800  1.0  -0.1579
  C  C209  1  0.355900  0.064000  0.490500  1.0  -0.0417
  C  C210  1  0.438500  0.110800  0.519400  1.0  -0.0732
  C  C211  1  0.525500  0.102800  0.517500  1.0  0.085
  C  C212  1  0.907300  0.972600  0.376500  1.0  0.1142
  C  C213  1  0.971500  0.028400  0.409900  1.0  -0.1776
  C  C214  1  0.050000  0.004200  0.417000  1.0  -0.1365
  C  C215  1  0.054200  0.934800  0.395400  1.0  -0.0866
  C  C216  1  0.981300  0.885200  0.362400  1.0  0.1464
  C  C217  1  0.275900  0.971800  0.060400  1.0  0.1314
  C  C218  1  0.243800  0.930000  0.093100  1.0  -0.1073
  C  C219  1  0.248600  0.859400  0.092400  1.0  -0.0399
  C  C220  1  0.316200  0.850800  0.064600  1.0  -0.0881
  C  C221  1  0.346400  0.890800  0.031400  1.0  0.1176
  C  C222  1  0.201800  0.806200  0.122200  1.0  0.394
  C  C223  1  0.104800  0.775400  0.178100  1.0  0.3225
  C  C224  1  0.192900  0.705400  0.154800  1.0  0.3433
  C  C225  1  0.909200  0.745800  0.255300  1.0  0.1101
  C  C226  1  0.981600  0.738800  0.230300  1.0  -0.118
  C  C227  1  0.026200  0.787600  0.202100  1.0  0.0041
  C  C228  1  0.011500  0.855600  0.210800  1.0  -0.1027
  C  C229  1  0.943900  0.866600  0.237700  1.0  0.0822
  C  C230  1  0.239700  0.526000  0.118600  1.0  0.1257
  C  C231  1  0.219200  0.590200  0.114300  1.0  -0.1602
  C  C232  1  0.208900  0.633400  0.153100  1.0  -0.0253
  C  C233  1  0.204800  0.598600  0.188100  1.0  -0.0909
  C  C234  1  0.229400  0.536200  0.190900  1.0  0.095
  C  C235  1  0.102100  0.321600  0.108600  1.0  0.1606
  C  C236  1  0.026200  0.267400  0.079800  1.0  -0.1142
  C  C237  1  0.047100  0.208800  0.047600  1.0  -0.1211
  C  C238  1  0.144800  0.226200  0.041800  1.0  -0.121
  C  C239  1  0.211200  0.278600  0.075300  1.0  0.1364
  C  C240  1  0.974000  0.151400  0.013400  1.0  0.3262
  C  C241  1  0.812200  0.079000  0.993100  1.0  0.1753
  C  C242  1  0.932900  0.054600  0.953200  1.0  0.3756
  C  C243  1  0.550200  0.012600  0.953800  1.0  0.135
  C  C244  1  0.643800  0.018800  0.955800  1.0  -0.1602
  C  C245  1  0.708100  0.064000  0.990500  1.0  -0.0409
  C  C246  1  0.672300  0.110800  0.019400  1.0  -0.0727
  C  C247  1  0.577300  0.102800  0.017500  1.0  0.0833
  C  C248  1  0.065300  0.972600  0.876500  1.0  0.1143
  C  C249  1  0.056900  0.028400  0.909900  1.0  -0.1766
  C  C250  1  0.954200  0.004200  0.917000  1.0  -0.1364
  C  C251  1  0.880600  0.934800  0.895400  1.0  -0.0867
  C  C252  1  0.903900  0.885200  0.862400  1.0  0.146
  I  I253  1  0.214310  0.895640  0.301390  1.0  -0.4385
  I  I254  1  0.406760  0.975500  0.192790  1.0  -0.3278
  I  I255  1  0.336970  0.202160  0.412440  1.0  -0.4336
  I  I256  1  0.379260  0.417720  0.510870  1.0  -0.4633
  I  I257  1  0.657900  0.621640  0.581210  1.0  -0.362
  I  I258  1  0.481960  0.426380  0.651570  1.0  -0.3913
  I  I259  1  0.681330  0.895640  0.801390  1.0  -0.4384
  I  I260  1  0.568740  0.975500  0.692790  1.0  -0.327
  I  I261  1  0.865190  0.202160  0.912440  1.0  -0.4334
  I  I262  1  0.038460  0.417720  0.010870  1.0  -0.4635
  I  I263  1  0.963740  0.621640  0.081210  1.0  -0.3616
  I  I264  1  0.944420  0.426380  0.151570  1.0  -0.3906
  I  I265  1  0.641900  0.934700  0.409540  1.0  -0.4232
  I  I266  1  0.802900  0.148260  0.512380  1.0  -0.4099
  I  I267  1  0.188810  0.916240  0.764670  1.0  -0.4312
  I  I268  1  0.013910  0.718260  0.835330  1.0  -0.3586
  I  I269  1  0.987410  0.445580  0.614500  1.0  -0.4576
  I  I270  1  0.101510  0.365200  0.723290  1.0  -0.3103
  I  I271  1  0.292800  0.934700  0.909540  1.0  -0.4228
  I  I272  1  0.345360  0.148260  0.012380  1.0  -0.4087
  I  I273  1  0.727430  0.916240  0.264670  1.0  -0.4307
  I  I274  1  0.704350  0.718260  0.335330  1.0  -0.358
  I  I275  1  0.458170  0.445580  0.114500  1.0  -0.4575
  I  I276  1  0.263690  0.365200  0.223290  1.0  -0.3102
  N  N277  1  0.482500  0.013800  0.310900  1.0  -0.3481
  N  N278  1  0.798300  0.205800  0.398500  1.0  -0.4176
  N  N279  1  0.839800  0.309800  0.462400  1.0  -0.4266
  N  N280  1  0.673600  0.231400  0.435100  1.0  -0.4306
  N  N281  1  0.160900  0.306800  0.432300  1.0  -0.2751
  N  N282  1  0.655400  0.419800  0.569000  1.0  -0.3237
  N  N283  1  0.746300  0.534200  0.662300  1.0  -0.3151
  N  N284  1  0.084500  0.623000  0.732200  1.0  -0.4346
  N  N285  1  0.153800  0.590000  0.789400  1.0  -0.4205
  N  N286  1  0.986400  0.521400  0.766600  1.0  -0.4541
  N  N287  1  0.428300  0.830200  0.759300  1.0  -0.2873
  N  N288  1  0.031100  0.389200  0.887400  1.0  -0.2973
  N  N289  1  0.531300  0.013800  0.810900  1.0  -0.3475
  N  N290  1  0.407500  0.205800  0.898500  1.0  -0.4177
  N  N291  1  0.470000  0.309800  0.962400  1.0  -0.4292
  N  N292  1  0.557800  0.231400  0.935100  1.0  -0.4308
  N  N293  1  0.145900  0.306800  0.932300  1.0  -0.2713
  N  N294  1  0.764400  0.419800  0.069000  1.0  -0.3212
  N  N295  1  0.787900  0.534200  0.162300  1.0  -0.3148
  N  N296  1  0.538500  0.623000  0.232200  1.0  -0.4352
  N  N297  1  0.436200  0.590000  0.289400  1.0  -0.4205
  N  N298  1  0.535000  0.521400  0.266600  1.0  -0.4536
  N  N299  1  0.401900  0.830200  0.259300  1.0  -0.2885
  N  N300  1  0.358100  0.389200  0.387400  1.0  -0.2983
  N  N301  1  0.625700  0.953600  0.530200  1.0  -0.3056
  N  N302  1  0.682000  0.820600  0.648400  1.0  -0.4293
  N  N303  1  0.587700  0.714200  0.681300  1.0  -0.416
  N  N304  1  0.520900  0.745600  0.623100  1.0  -0.3923
  N  N305  1  0.916600  0.810200  0.759000  1.0  -0.2862
  N  N306  1  0.248400  0.500400  0.654900  1.0  -0.3304
  N  N307  1  0.136000  0.329800  0.605800  1.0  -0.3033
  N  N308  1  0.260800  0.140000  0.519500  1.0  -0.3052
  N  N309  1  0.197500  0.035400  0.460500  1.0  -0.304
  N  N310  1  0.105500  0.106400  0.483400  1.0  -0.3901
  N  N311  1  0.534800  0.048600  0.484200  1.0  -0.3206
  N  N312  1  0.909900  0.906600  0.353800  1.0  -0.3257
  N  N313  1  0.327900  0.953600  0.030200  1.0  -0.3059
  N  N314  1  0.138600  0.820600  0.148400  1.0  -0.4283
  N  N315  1  0.126500  0.714200  0.181300  1.0  -0.4166
  N  N316  1  0.224700  0.745600  0.123100  1.0  -0.3915
  N  N317  1  0.893600  0.810200  0.259000  1.0  -0.285
  N  N318  1  0.252000  0.500400  0.154900  1.0  -0.3286
  N  N319  1  0.193800  0.329800  0.105800  1.0  -0.3008
  N  N320  1  0.879200  0.140000  0.019500  1.0  -0.3051
  N  N321  1  0.837900  0.035400  0.960500  1.0  -0.3047
  N  N322  1  0.000900  0.106400  0.983400  1.0  -0.3918
  N  N323  1  0.513800  0.048600  0.984200  1.0  -0.3204
  N  N324  1  0.996700  0.906600  0.853800  1.0  -0.3242
