# generated using pymatgen
data_ZnH8C12(IN2)2
_symmetry_space_group_name_H-M   'P 1'
_cell_length_a   14.95000000
_cell_length_b   18.82840000
_cell_length_c   30.34800000
_cell_angle_alpha   99.27970000
_cell_angle_beta   90.00000000
_cell_angle_gamma   113.39100000
_symmetry_Int_Tables_number   1
_chemical_formula_structural   ZnH8C12(IN2)2
_chemical_formula_sum   'Zn12 H96 C144 I24 N48'
_cell_volume   7718.48791689
_cell_formula_units_Z   12
loop_
 _symmetry_equiv_pos_site_id
 _symmetry_equiv_pos_as_xyz
  1  'x, y, z'
loop_
 _atom_site_type_symbol
 _atom_site_label
 _atom_site_symmetry_multiplicity
 _atom_site_fract_x
 _atom_site_fract_y
 _atom_site_fract_z
 _atom_site_occupancy
 _atom_site_charge
  Zn  Zn1  1  0.226730  0.259280  0.056410  1.0  0.9038
  Zn  Zn2  1  0.291380  0.834660  0.905660  1.0  0.9135
  Zn  Zn3  1  0.966180  0.654940  0.729970  1.0  0.8622
  Zn  Zn4  1  0.032550  0.259280  0.556410  1.0  0.9019
  Zn  Zn5  1  0.543280  0.834660  0.405660  1.0  0.9147
  Zn  Zn6  1  0.688760  0.654940  0.229970  1.0  0.8586
  Zn  Zn7  1  0.967450  0.740720  0.443590  1.0  0.9032
  Zn  Zn8  1  0.456720  0.165340  0.594340  1.0  0.9139
  Zn  Zn9  1  0.311240  0.345060  0.770030  1.0  0.862
  Zn  Zn10  1  0.773270  0.740720  0.943590  1.0  0.9016
  Zn  Zn11  1  0.708620  0.165340  0.094340  1.0  0.9143
  Zn  Zn12  1  0.033820  0.345060  0.270030  1.0  0.8575
  H  H13  1  0.104900  0.160800  0.116300  1.0  0.0938
  H  H14  1  0.955500  0.062800  0.118300  1.0  0.0973
  H  H15  1  0.899800  0.053400  0.988300  1.0  0.1096
  H  H16  1  0.052300  0.154200  0.988100  1.0  0.0918
  H  H17  1  0.571600  0.668600  0.154400  1.0  0.0877
  H  H18  1  0.584100  0.747000  0.101600  1.0  0.1104
  H  H19  1  0.857600  0.871400  0.149600  1.0  0.0985
  H  H20  1  0.843000  0.776800  0.190900  1.0  0.0907
  H  H21  1  0.496800  0.965400  0.932600  1.0  0.0792
  H  H22  1  0.636400  0.986000  0.971900  1.0  0.1178
  H  H23  1  0.480900  0.793000  0.024900  1.0  0.1227
  H  H24  1  0.350100  0.775600  0.979300  1.0  0.0704
  H  H25  1  0.465200  0.819600  0.863900  1.0  0.0734
  H  H26  1  0.510700  0.737600  0.815400  1.0  0.1129
  H  H27  1  0.224500  0.609800  0.777000  1.0  0.1148
  H  H28  1  0.187600  0.687400  0.835400  1.0  0.072
  H  H29  1  0.829100  0.719000  0.770100  1.0  0.0713
  H  H30  1  0.668400  0.698200  0.769300  1.0  0.1218
  H  H31  1  0.616300  0.517800  0.666667  1.0  0.1151
  H  H32  1  0.779100  0.539800  0.675200  1.0  0.0712
  H  H33  1  0.050400  0.379200  0.638900  1.0  0.0843
  H  H34  1  0.171700  0.476400  0.690800  1.0  0.1164
  H  H35  1  0.374400  0.425600  0.619700  1.0  0.1226
  H  H36  1  0.248300  0.331600  0.571100  1.0  0.0762
  H  H37  1  0.055900  0.160800  0.616300  1.0  0.0943
  H  H38  1  0.107300  0.062800  0.618300  1.0  0.0977
  H  H39  1  0.153600  0.053400  0.488300  1.0  0.11
  H  H40  1  0.101900  0.154200  0.488100  1.0  0.0918
  H  H41  1  0.097000  0.668600  0.654400  1.0  0.088
  H  H42  1  0.162900  0.747000  0.601600  1.0  0.1103
  H  H43  1  0.013800  0.871400  0.649600  1.0  0.0985
  H  H44  1  0.933800  0.776800  0.690900  1.0  0.0921
  H  H45  1  0.468600  0.965400  0.432600  1.0  0.0789
  H  H46  1  0.349600  0.986000  0.471900  1.0  0.1184
  H  H47  1  0.312100  0.793000  0.524900  1.0  0.1227
  H  H48  1  0.425500  0.775600  0.479300  1.0  0.0704
  H  H49  1  0.354400  0.819600  0.363900  1.0  0.0737
  H  H50  1  0.226900  0.737600  0.315400  1.0  0.114
  H  H51  1  0.385300  0.609800  0.277000  1.0  0.1148
  H  H52  1  0.499800  0.687400  0.335400  1.0  0.0708
  H  H53  1  0.889900  0.719000  0.270100  1.0  0.0712
  H  H54  1  0.029800  0.698200  0.269300  1.0  0.1218
  H  H55  1  0.901500  0.517800  0.166700  1.0  0.1147
  H  H56  1  0.760700  0.539800  0.175200  1.0  0.0715
  H  H57  1  0.328800  0.379200  0.138900  1.0  0.0836
  H  H58  1  0.304700  0.476400  0.190800  1.0  0.1161
  H  H59  1  0.051200  0.425600  0.119700  1.0  0.1229
  H  H60  1  0.083300  0.331600  0.071100  1.0  0.0761
  H  H61  1  0.944100  0.839200  0.383700  1.0  0.0941
  H  H62  1  0.892700  0.937200  0.381700  1.0  0.0975
  H  H63  1  0.846400  0.946600  0.511700  1.0  0.1099
  H  H64  1  0.898100  0.845800  0.511900  1.0  0.0914
  H  H65  1  0.903000  0.331400  0.345600  1.0  0.0881
  H  H66  1  0.837100  0.253000  0.398400  1.0  0.1102
  H  H67  1  0.986200  0.128600  0.350400  1.0  0.0984
  H  H68  1  0.066200  0.223200  0.309100  1.0  0.0905
  H  H69  1  0.531400  0.034600  0.567400  1.0  0.0795
  H  H70  1  0.650400  0.014000  0.528100  1.0  0.1181
  H  H71  1  0.687900  0.207000  0.475100  1.0  0.1238
  H  H72  1  0.574500  0.224400  0.520700  1.0  0.07
  H  H73  1  0.645600  0.180400  0.636100  1.0  0.0736
  H  H74  1  0.773100  0.262400  0.684600  1.0  0.1128
  H  H75  1  0.614700  0.390200  0.723000  1.0  0.1144
  H  H76  1  0.500200  0.312600  0.664600  1.0  0.0724
  H  H77  1  0.110100  0.281000  0.729900  1.0  0.0729
  H  H78  1  0.970200  0.301800  0.730700  1.0  0.1211
  H  H79  1  0.098500  0.482200  0.833300  1.0  0.1157
  H  H80  1  0.239300  0.460200  0.824800  1.0  0.0721
  H  H81  1  0.671200  0.620800  0.861100  1.0  0.085
  H  H82  1  0.695300  0.523600  0.809200  1.0  0.1167
  H  H83  1  0.948800  0.574400  0.880300  1.0  0.1223
  H  H84  1  0.916700  0.668400  0.928900  1.0  0.0767
  H  H85  1  0.895100  0.839200  0.883700  1.0  0.0942
  H  H86  1  0.044500  0.937200  0.881700  1.0  0.0977
  H  H87  1  0.100200  0.946600  0.011700  1.0  0.1097
  H  H88  1  0.947700  0.845800  0.011900  1.0  0.0911
  H  H89  1  0.428400  0.331400  0.845600  1.0  0.0886
  H  H90  1  0.415900  0.253000  0.898400  1.0  0.1104
  H  H91  1  0.142400  0.128600  0.850400  1.0  0.0982
  H  H92  1  0.157000  0.223200  0.809100  1.0  0.0919
  H  H93  1  0.503200  0.034600  0.067400  1.0  0.0794
  H  H94  1  0.363600  0.014000  0.028100  1.0  0.1182
  H  H95  1  0.519100  0.207000  0.975100  1.0  0.1236
  H  H96  1  0.649900  0.224400  0.020700  1.0  0.0704
  H  H97  1  0.534800  0.180400  0.136100  1.0  0.0736
  H  H98  1  0.489300  0.262400  0.184600  1.0  0.1141
  H  H99  1  0.775500  0.390200  0.223000  1.0  0.1139
  H  H100  1  0.812400  0.312600  0.164600  1.0  0.0714
  H  H101  1  0.170900  0.281000  0.229900  1.0  0.0726
  H  H102  1  0.331600  0.301800  0.230700  1.0  0.1216
  H  H103  1  0.383700  0.482200  0.333333  1.0  0.1164
  H  H104  1  0.220900  0.460200  0.324800  1.0  0.0719
  H  H105  1  0.949600  0.620800  0.361100  1.0  0.0834
  H  H106  1  0.828300  0.523600  0.309200  1.0  0.1167
  H  H107  1  0.625600  0.574400  0.380300  1.0  0.1234
  H  H108  1  0.751700  0.668400  0.428900  1.0  0.0768
  C  C109  1  0.062900  0.138800  0.089700  1.0  0.1283
  C  C110  1  0.976400  0.078800  0.090500  1.0  -0.1554
  C  C111  1  0.916100  0.040000  0.052400  1.0  -0.012
  C  C112  1  0.942800  0.073000  0.014600  1.0  -0.1388
  C  C113  1  0.032100  0.134800  0.015000  1.0  0.1124
  C  C114  1  0.821200  0.971600  0.052800  1.0  0.3848
  C  C115  1  0.731900  0.871000  0.086100  1.0  0.3426
  C  C116  1  0.663600  0.904000  0.031000  1.0  0.3658
  C  C117  1  0.631900  0.711600  0.153000  1.0  0.1376
  C  C118  1  0.638700  0.758800  0.121800  1.0  -0.092
  C  C119  1  0.722000  0.821000  0.119800  1.0  -0.0552
  C  C120  1  0.796500  0.828000  0.148500  1.0  -0.1428
  C  C121  1  0.786200  0.774600  0.175700  1.0  0.1719
  C  C122  1  0.495600  0.927800  0.950300  1.0  0.1505
  C  C123  1  0.578400  0.941800  0.974400  1.0  -0.2021
  C  C124  1  0.578600  0.891800  0.002400  1.0  -0.088
  C  C125  1  0.487400  0.828200  0.004700  1.0  -0.1721
  C  C126  1  0.410200  0.819000  0.977700  1.0  0.154
  C  C127  1  0.415300  0.773000  0.848000  1.0  0.163
  C  C128  1  0.443700  0.728400  0.817300  1.0  -0.1454
  C  C129  1  0.371900  0.668200  0.788500  1.0  -0.089
  C  C130  1  0.275400  0.652000  0.795600  1.0  -0.1626
  C  C131  1  0.254300  0.698400  0.830700  1.0  0.1308
  C  C132  1  0.398800  0.620200  0.751000  1.0  0.3633
  C  C133  1  0.518200  0.593000  0.716500  1.0  0.4231
  C  C134  1  0.358300  0.522400  0.691300  1.0  0.3193
  C  C135  1  0.784300  0.676400  0.749300  1.0  0.1462
  C  C136  1  0.689400  0.665600  0.748500  1.0  -0.1626
  C  C137  1  0.623200  0.606600  0.717000  1.0  -0.0613
  C  C138  1  0.658600  0.559200  0.688900  1.0  -0.1714
  C  C139  1  0.755800  0.573400  0.693800  1.0  0.1436
  C  C140  1  0.117000  0.388200  0.635600  1.0  0.1456
  C  C141  1  0.188900  0.446800  0.666500  1.0  -0.1005
  C  C142  1  0.283800  0.459400  0.660400  1.0  -0.0758
  C  C143  1  0.308200  0.416600  0.624500  1.0  -0.1588
  C  C144  1  0.232400  0.360600  0.596200  1.0  0.1679
  C  C145  1  0.075900  0.138800  0.589700  1.0  0.1293
  C  C146  1  0.102400  0.078800  0.590500  1.0  -0.1546
  C  C147  1  0.123900  0.040000  0.552400  1.0  -0.0123
  C  C148  1  0.130200  0.073000  0.514600  1.0  -0.14
  C  C149  1  0.102700  0.134800  0.515000  1.0  0.1117
  C  C150  1  0.150400  0.971600  0.552800  1.0  0.3856
  C  C151  1  0.139100  0.871000  0.586100  1.0  0.3426
  C  C152  1  0.240400  0.904000  0.531000  1.0  0.3663
  C  C153  1  0.079700  0.711600  0.653000  1.0  0.1376
  C  C154  1  0.120100  0.758800  0.621800  1.0  -0.0943
  C  C155  1  0.099000  0.821000  0.619800  1.0  -0.0563
  C  C156  1  0.031500  0.828000  0.648500  1.0  -0.1442
  C  C157  1  0.988400  0.774600  0.675700  1.0  0.1722
  C  C158  1  0.432200  0.927800  0.450300  1.0  0.1517
  C  C159  1  0.363400  0.941800  0.474400  1.0  -0.2013
  C  C160  1  0.313200  0.891800  0.502400  1.0  -0.0885
  C  C161  1  0.340800  0.828200  0.504700  1.0  -0.1725
  C  C162  1  0.408800  0.819000  0.477700  1.0  0.1542
  C  C163  1  0.357700  0.773000  0.348000  1.0  0.1629
  C  C164  1  0.284700  0.728400  0.317300  1.0  -0.1468
  C  C165  1  0.296300  0.668200  0.288500  1.0  -0.0892
  C  C166  1  0.376600  0.652000  0.295600  1.0  -0.1635
  C  C167  1  0.444100  0.698400  0.330700  1.0  0.1308
  C  C168  1  0.221400  0.620200  0.251000  1.0  0.3633
  C  C169  1  0.074800  0.593000  0.216500  1.0  0.422
  C  C170  1  0.164100  0.522400  0.191300  1.0  0.3184
  C  C171  1  0.892100  0.676400  0.249300  1.0  0.1449
  C  C172  1  0.976200  0.665600  0.248500  1.0  -0.1641
  C  C173  1  0.983400  0.606600  0.217000  1.0  -0.0611
  C  C174  1  0.900600  0.559200  0.188900  1.0  -0.1702
  C  C175  1  0.817600  0.573400  0.193800  1.0  0.1439
  C  C176  1  0.271200  0.388200  0.135600  1.0  0.1445
  C  C177  1  0.257900  0.446800  0.166500  1.0  -0.1004
  C  C178  1  0.175600  0.459400  0.160400  1.0  -0.0749
  C  C179  1  0.108400  0.416600  0.124500  1.0  -0.1608
  C  C180  1  0.128200  0.360600  0.096200  1.0  0.1694
  C  C181  1  0.924100  0.861200  0.410300  1.0  0.1278
  C  C182  1  0.897600  0.921200  0.409500  1.0  -0.1532
  C  C183  1  0.876100  0.960000  0.447600  1.0  -0.0118
  C  C184  1  0.869800  0.927000  0.485400  1.0  -0.1393
  C  C185  1  0.897300  0.865200  0.485000  1.0  0.1118
  C  C186  1  0.849600  0.028400  0.447200  1.0  0.3844
  C  C187  1  0.860900  0.129000  0.413900  1.0  0.3429
  C  C188  1  0.759600  0.096000  0.469000  1.0  0.365
  C  C189  1  0.920300  0.288400  0.347000  1.0  0.138
  C  C190  1  0.879900  0.241200  0.378200  1.0  -0.0924
  C  C191  1  0.901000  0.179000  0.380200  1.0  -0.0534
  C  C192  1  0.968500  0.172000  0.351500  1.0  -0.1427
  C  C193  1  0.011600  0.225400  0.324300  1.0  0.172
  C  C194  1  0.567800  0.072200  0.549700  1.0  0.1516
  C  C195  1  0.636600  0.058200  0.525600  1.0  -0.2004
  C  C196  1  0.686800  0.108200  0.497600  1.0  -0.088
  C  C197  1  0.659200  0.171800  0.495300  1.0  -0.1721
  C  C198  1  0.591200  0.181000  0.522300  1.0  0.1506
  C  C199  1  0.642300  0.227000  0.652000  1.0  0.1645
  C  C200  1  0.715300  0.271600  0.682700  1.0  -0.1466
  C  C201  1  0.703700  0.331800  0.711500  1.0  -0.0898
  C  C202  1  0.623400  0.348000  0.704400  1.0  -0.1628
  C  C203  1  0.555900  0.301600  0.669300  1.0  0.1312
  C  C204  1  0.778600  0.379800  0.749000  1.0  0.3633
  C  C205  1  0.925200  0.407000  0.783500  1.0  0.4236
  C  C206  1  0.835900  0.477600  0.808700  1.0  0.32
  C  C207  1  0.107900  0.323600  0.750700  1.0  0.146
  C  C208  1  0.023800  0.334400  0.751500  1.0  -0.1638
  C  C209  1  0.016600  0.393400  0.783000  1.0  -0.0615
  C  C210  1  0.099400  0.440800  0.811100  1.0  -0.1729
  C  C211  1  0.182400  0.426600  0.806200  1.0  0.144
  C  C212  1  0.728800  0.611800  0.864400  1.0  0.1453
  C  C213  1  0.742100  0.553200  0.833500  1.0  -0.1006
  C  C214  1  0.824400  0.540600  0.839600  1.0  -0.075
  C  C215  1  0.891600  0.583400  0.875500  1.0  -0.16
  C  C216  1  0.871800  0.639400  0.903800  1.0  0.1703
  C  C217  1  0.937100  0.861200  0.910300  1.0  0.1302
  C  C218  1  0.023600  0.921200  0.909500  1.0  -0.1532
  C  C219  1  0.083900  0.960000  0.947600  1.0  -0.0126
  C  C220  1  0.057200  0.927000  0.985400  1.0  -0.1386
  C  C221  1  0.967900  0.865200  0.985000  1.0  0.1113
  C  C222  1  0.178800  0.028400  0.947200  1.0  0.3852
  C  C223  1  0.268100  0.129000  0.913900  1.0  0.3433
  C  C224  1  0.336400  0.096000  0.969000  1.0  0.3655
  C  C225  1  0.368100  0.288400  0.847000  1.0  0.1371
  C  C226  1  0.361300  0.241200  0.878200  1.0  -0.0947
  C  C227  1  0.278000  0.179000  0.880200  1.0  -0.0544
  C  C228  1  0.203500  0.172000  0.851500  1.0  -0.1432
  C  C229  1  0.213800  0.225400  0.824300  1.0  0.1731
  C  C230  1  0.504400  0.072200  0.049700  1.0  0.1527
  C  C231  1  0.421600  0.058200  0.025600  1.0  -0.2009
  C  C232  1  0.421400  0.108200  0.997600  1.0  -0.0879
  C  C233  1  0.512600  0.171800  0.995300  1.0  -0.1724
  C  C234  1  0.589800  0.181000  0.022300  1.0  0.1512
  C  C235  1  0.584700  0.227000  0.152000  1.0  0.1649
  C  C236  1  0.556300  0.271600  0.182700  1.0  -0.1464
  C  C237  1  0.628100  0.331800  0.211500  1.0  -0.0901
  C  C238  1  0.724600  0.348000  0.204400  1.0  -0.1639
  C  C239  1  0.745700  0.301600  0.169300  1.0  0.1309
  C  C240  1  0.601200  0.379800  0.249000  1.0  0.3635
  C  C241  1  0.481800  0.407000  0.283500  1.0  0.4231
  C  C242  1  0.641700  0.477600  0.308700  1.0  0.3193
  C  C243  1  0.215700  0.323600  0.250700  1.0  0.1455
  C  C244  1  0.310600  0.334400  0.251500  1.0  -0.1669
  C  C245  1  0.376800  0.393400  0.283000  1.0  -0.0603
  C  C246  1  0.341400  0.440800  0.311100  1.0  -0.1716
  C  C247  1  0.244200  0.426600  0.306200  1.0  0.1432
  C  C248  1  0.883000  0.611800  0.364400  1.0  0.1435
  C  C249  1  0.811100  0.553200  0.333500  1.0  -0.1001
  C  C250  1  0.716200  0.540600  0.339600  1.0  -0.0745
  C  C251  1  0.691800  0.583400  0.375500  1.0  -0.1619
  C  C252  1  0.767600  0.639400  0.403800  1.0  0.1698
  I  I253  1  0.248760  0.304240  0.982470  1.0  -0.3247
  I  I254  1  0.340940  0.217420  0.096570  1.0  -0.4559
  I  I255  1  0.319720  0.951200  0.867060  1.0  -0.3579
  I  I256  1  0.144060  0.758720  0.944830  1.0  -0.3607
  I  I257  1  0.030980  0.740640  0.805840  1.0  -0.4457
  I  I258  1  0.996540  0.532420  0.704620  1.0  -0.4395
  I  I259  1  0.055480  0.304240  0.482470  1.0  -0.3247
  I  I260  1  0.876480  0.217420  0.596570  1.0  -0.4548
  I  I261  1  0.631480  0.951200  0.367060  1.0  -0.3568
  I  I262  1  0.614660  0.758720  0.444830  1.0  -0.3597
  I  I263  1  0.709660  0.740640  0.305840  1.0  -0.4456
  I  I264  1  0.535880  0.532420  0.204620  1.0  -0.4386
  I  I265  1  0.944520  0.695760  0.517530  1.0  -0.3242
  I  I266  1  0.123520  0.782580  0.403430  1.0  -0.4555
  I  I267  1  0.368520  0.048800  0.632940  1.0  -0.355
  I  I268  1  0.385340  0.241280  0.555170  1.0  -0.3604
  I  I269  1  0.290340  0.259360  0.694160  1.0  -0.4458
  I  I270  1  0.464120  0.467580  0.795380  1.0  -0.4371
  I  I271  1  0.751240  0.695760  0.017530  1.0  -0.3246
  I  I272  1  0.659060  0.782580  0.903430  1.0  -0.4544
  I  I273  1  0.680280  0.048800  0.132940  1.0  -0.3554
  I  I274  1  0.855940  0.241280  0.055170  1.0  -0.3597
  I  I275  1  0.969020  0.259360  0.194160  1.0  -0.4458
  I  I276  1  0.003460  0.467580  0.295380  1.0  -0.4365
  N  N277  1  0.091900  0.168400  0.052800  1.0  -0.3157
  N  N278  1  0.818700  0.927600  0.084600  1.0  -0.3958
  N  N279  1  0.650300  0.857000  0.060900  1.0  -0.4316
  N  N280  1  0.749300  0.961200  0.023800  1.0  -0.4339
  N  N281  1  0.706900  0.724000  0.181300  1.0  -0.2487
  N  N282  1  0.412100  0.865200  0.949500  1.0  -0.3309
  N  N283  1  0.322600  0.758200  0.858500  1.0  -0.3379
  N  N284  1  0.495600  0.639200  0.748900  1.0  -0.4793
  N  N285  1  0.456400  0.536800  0.688000  1.0  -0.3765
  N  N286  1  0.329500  0.563000  0.724800  1.0  -0.3965
  N  N287  1  0.818800  0.632000  0.723300  1.0  -0.3325
  N  N288  1  0.139300  0.344400  0.601500  1.0  -0.3034
  N  N289  1  0.076500  0.168400  0.552800  1.0  -0.3148
  N  N290  1  0.108900  0.927600  0.584600  1.0  -0.3966
  N  N291  1  0.206700  0.857000  0.560900  1.0  -0.4313
  N  N292  1  0.211900  0.961200  0.523800  1.0  -0.4341
  N  N293  1  0.017100  0.724000  0.681300  1.0  -0.2508
  N  N294  1  0.453100  0.865200  0.449500  1.0  -0.3306
  N  N295  1  0.435600  0.758200  0.358500  1.0  -0.3361
  N  N296  1  0.143600  0.639200  0.248900  1.0  -0.4802
  N  N297  1  0.080400  0.536800  0.188000  1.0  -0.3756
  N  N298  1  0.233500  0.563000  0.224800  1.0  -0.3961
  N  N299  1  0.813200  0.632000  0.223300  1.0  -0.3316
  N  N300  1  0.205100  0.344400  0.101500  1.0  -0.3025
  N  N301  1  0.923500  0.831600  0.447200  1.0  -0.316
  N  N302  1  0.891100  0.072400  0.415400  1.0  -0.3961
  N  N303  1  0.793300  0.143000  0.439100  1.0  -0.4315
  N  N304  1  0.788100  0.038800  0.476200  1.0  -0.4368
  N  N305  1  0.982900  0.276000  0.318700  1.0  -0.2524
  N  N306  1  0.546900  0.134800  0.550500  1.0  -0.3303
  N  N307  1  0.564400  0.241800  0.641500  1.0  -0.3376
  N  N308  1  0.856400  0.360800  0.751100  1.0  -0.4817
  N  N309  1  0.919600  0.463200  0.812000  1.0  -0.3727
  N  N310  1  0.766500  0.437000  0.775200  1.0  -0.3964
  N  N311  1  0.186800  0.368000  0.776700  1.0  -0.3322
  N  N312  1  0.794900  0.655600  0.898500  1.0  -0.3027
  N  N313  1  0.908100  0.831600  0.947200  1.0  -0.3169
  N  N314  1  0.181300  0.072400  0.915400  1.0  -0.3959
  N  N315  1  0.349700  0.143000  0.939100  1.0  -0.4322
  N  N316  1  0.250700  0.038800  0.976200  1.0  -0.437
  N  N317  1  0.293100  0.276000  0.818700  1.0  -0.2542
  N  N318  1  0.587900  0.134800  0.050500  1.0  -0.3313
  N  N319  1  0.677400  0.241800  0.141500  1.0  -0.3366
  N  N320  1  0.504400  0.360800  0.251100  1.0  -0.4829
  N  N321  1  0.543600  0.463200  0.312000  1.0  -0.373
  N  N322  1  0.670500  0.437000  0.275200  1.0  -0.3957
  N  N323  1  0.181200  0.368000  0.276700  1.0  -0.3312
  N  N324  1  0.860700  0.655600  0.398500  1.0  -0.3018
