# generated using pymatgen
data_ZnH8C12(IN2)2
_symmetry_space_group_name_H-M   'P 1'
_cell_length_a   14.76700000
_cell_length_b   18.58140000
_cell_length_c   30.70000000
_cell_angle_alpha   98.98790000
_cell_angle_beta   90.00000000
_cell_angle_gamma   113.41300000
_symmetry_Int_Tables_number   1
_chemical_formula_structural   ZnH8C12(IN2)2
_chemical_formula_sum   'Zn12 H96 C144 I24 N48'
_cell_volume   7617.39550584
_cell_formula_units_Z   12
loop_
 _symmetry_equiv_pos_site_id
 _symmetry_equiv_pos_as_xyz
  1  'x, y, z'
loop_
 _atom_site_type_symbol
 _atom_site_label
 _atom_site_symmetry_multiplicity
 _atom_site_fract_x
 _atom_site_fract_y
 _atom_site_fract_z
 _atom_site_occupancy
 _atom_site_charge
  Zn  Zn1  1  0.024620  0.258880  0.558460  1.0  0.8962
  Zn  Zn2  1  0.971130  0.657220  0.731780  1.0  0.8817
  Zn  Zn3  1  0.294330  0.843340  0.902220  1.0  0.9236
  Zn  Zn4  1  0.234260  0.258880  0.058460  1.0  0.8997
  Zn  Zn5  1  0.686090  0.657220  0.231780  1.0  0.8809
  Zn  Zn6  1  0.549010  0.843340  0.402220  1.0  0.9246
  Zn  Zn7  1  0.765740  0.741120  0.941540  1.0  0.8965
  Zn  Zn8  1  0.313910  0.342780  0.768220  1.0  0.8818
  Zn  Zn9  1  0.450990  0.156660  0.597780  1.0  0.924
  Zn  Zn10  1  0.975380  0.741120  0.441540  1.0  0.8997
  Zn  Zn11  1  0.028870  0.342780  0.268220  1.0  0.8802
  Zn  Zn12  1  0.705670  0.156660  0.097780  1.0  0.9243
  H  H13  1  0.045200  0.372400  0.644000  1.0  0.0823
  H  H14  1  0.165900  0.473800  0.691100  1.0  0.1099
  H  H15  1  0.371200  0.427000  0.620100  1.0  0.1216
  H  H16  1  0.241900  0.327000  0.573600  1.0  0.0857
  H  H17  1  0.465700  0.830400  0.861900  1.0  0.0829
  H  H18  1  0.513800  0.754600  0.805600  1.0  0.1233
  H  H19  1  0.223400  0.611200  0.778200  1.0  0.113
  H  H20  1  0.184900  0.687800  0.835700  1.0  0.0941
  H  H21  1  0.781100  0.539800  0.677600  1.0  0.0772
  H  H22  1  0.616000  0.518800  0.668900  1.0  0.1177
  H  H23  1  0.670600  0.708200  0.764600  1.0  0.1278
  H  H24  1  0.832100  0.722000  0.771400  1.0  0.0802
  H  H25  1  0.348000  0.773000  0.972700  1.0  0.0911
  H  H26  1  0.481800  0.787400  0.017900  1.0  0.1192
  H  H27  1  0.641700  0.988600  0.973500  1.0  0.1212
  H  H28  1  0.502300  0.971600  0.930800  1.0  0.0902
  H  H29  1  0.843700  0.759800  0.180100  1.0  0.08
  H  H30  1  0.863000  0.836600  0.126200  1.0  0.1165
  H  H31  1  0.569900  0.766000  0.115600  1.0  0.114
  H  H32  1  0.557000  0.692400  0.170000  1.0  0.0831
  H  H33  1  0.057300  0.160200  0.990700  1.0  0.1171
  H  H34  1  0.904600  0.052000  0.989000  1.0  0.1021
  H  H35  1  0.962100  0.044600  0.115600  1.0  0.1208
  H  H36  1  0.113600  0.147000  0.114900  1.0  0.0943
  H  H37  1  0.327200  0.372400  0.144000  1.0  0.0825
  H  H38  1  0.307900  0.473800  0.191100  1.0  0.1098
  H  H39  1  0.055800  0.427000  0.120100  1.0  0.1216
  H  H40  1  0.085100  0.327000  0.073600  1.0  0.0856
  H  H41  1  0.364700  0.830400  0.361900  1.0  0.0831
  H  H42  1  0.240800  0.754600  0.305600  1.0  0.1232
  H  H43  1  0.387800  0.611200  0.278200  1.0  0.1132
  H  H44  1  0.502900  0.687800  0.335700  1.0  0.0944
  H  H45  1  0.758700  0.539800  0.177600  1.0  0.0772
  H  H46  1  0.902800  0.518800  0.168900  1.0  0.1177
  H  H47  1  0.037600  0.708200  0.264600  1.0  0.1275
  H  H48  1  0.889900  0.722000  0.271400  1.0  0.0795
  H  H49  1  0.425000  0.773000  0.472700  1.0  0.0912
  H  H50  1  0.305600  0.787400  0.517900  1.0  0.1193
  H  H51  1  0.346900  0.988600  0.473500  1.0  0.1218
  H  H52  1  0.469300  0.971600  0.430800  1.0  0.0898
  H  H53  1  0.916100  0.759800  0.680100  1.0  0.0803
  H  H54  1  0.973600  0.836600  0.626200  1.0  0.1163
  H  H55  1  0.196100  0.766000  0.615600  1.0  0.1137
  H  H56  1  0.135400  0.692400  0.670000  1.0  0.0831
  H  H57  1  0.102900  0.160200  0.490700  1.0  0.1171
  H  H58  1  0.147400  0.052000  0.489000  1.0  0.1022
  H  H59  1  0.082500  0.044600  0.615600  1.0  0.121
  H  H60  1  0.033400  0.147000  0.614900  1.0  0.0947
  H  H61  1  0.672800  0.627600  0.856000  1.0  0.0823
  H  H62  1  0.692100  0.526200  0.808900  1.0  0.1102
  H  H63  1  0.944200  0.573000  0.879900  1.0  0.1209
  H  H64  1  0.914900  0.673000  0.926400  1.0  0.0866
  H  H65  1  0.635300  0.169600  0.638100  1.0  0.0831
  H  H66  1  0.759200  0.245400  0.694400  1.0  0.1228
  H  H67  1  0.612200  0.388800  0.721800  1.0  0.1127
  H  H68  1  0.497100  0.312200  0.664300  1.0  0.0943
  H  H69  1  0.241300  0.460200  0.822400  1.0  0.0777
  H  H70  1  0.097200  0.481200  0.831100  1.0  0.1179
  H  H71  1  0.962400  0.291800  0.735400  1.0  0.1267
  H  H72  1  0.110100  0.278000  0.728600  1.0  0.0814
  H  H73  1  0.575000  0.227000  0.527300  1.0  0.0917
  H  H74  1  0.694400  0.212600  0.482100  1.0  0.1187
  H  H75  1  0.653100  0.011400  0.526500  1.0  0.1219
  H  H76  1  0.530700  0.028400  0.569200  1.0  0.0902
  H  H77  1  0.083900  0.240200  0.319900  1.0  0.0801
  H  H78  1  0.026400  0.163400  0.373800  1.0  0.1165
  H  H79  1  0.803900  0.234000  0.384400  1.0  0.1136
  H  H80  1  0.864600  0.307600  0.330000  1.0  0.083
  H  H81  1  0.897100  0.839800  0.509300  1.0  0.1164
  H  H82  1  0.852600  0.948000  0.511000  1.0  0.1026
  H  H83  1  0.917500  0.955400  0.384400  1.0  0.121
  H  H84  1  0.966600  0.853000  0.385100  1.0  0.0941
  H  H85  1  0.954800  0.627600  0.356000  1.0  0.0826
  H  H86  1  0.834100  0.526200  0.308900  1.0  0.1107
  H  H87  1  0.628800  0.573000  0.379900  1.0  0.122
  H  H88  1  0.758100  0.673000  0.426400  1.0  0.0867
  H  H89  1  0.534300  0.169600  0.138100  1.0  0.0828
  H  H90  1  0.486200  0.245400  0.194400  1.0  0.123
  H  H91  1  0.776600  0.388800  0.221800  1.0  0.1124
  H  H92  1  0.815100  0.312200  0.164300  1.0  0.0947
  H  H93  1  0.218900  0.460200  0.322400  1.0  0.0776
  H  H94  1  0.384000  0.481200  0.331100  1.0  0.118
  H  H95  1  0.329400  0.291800  0.235400  1.0  0.1269
  H  H96  1  0.167900  0.278000  0.228600  1.0  0.0804
  H  H97  1  0.652000  0.227000  0.027300  1.0  0.0919
  H  H98  1  0.518200  0.212600  0.982100  1.0  0.1185
  H  H99  1  0.358300  0.011400  0.026500  1.0  0.1217
  H  H100  1  0.497700  0.028400  0.069200  1.0  0.0906
  H  H101  1  0.156300  0.240200  0.819900  1.0  0.0801
  H  H102  1  0.137000  0.163400  0.873800  1.0  0.1165
  H  H103  1  0.430100  0.234000  0.884400  1.0  0.1137
  H  H104  1  0.443000  0.307600  0.830000  1.0  0.0836
  H  H105  1  0.942700  0.839800  0.009300  1.0  0.116
  H  H106  1  0.095400  0.948000  0.011000  1.0  0.102
  H  H107  1  0.037900  0.955400  0.884400  1.0  0.121
  H  H108  1  0.886400  0.853000  0.885100  1.0  0.094
  C  C109  1  0.112600  0.384600  0.638700  1.0  0.1477
  C  C110  1  0.183900  0.444400  0.667100  1.0  -0.1312
  C  C111  1  0.280700  0.461000  0.660800  1.0  -0.0976
  C  C112  1  0.304300  0.417200  0.625500  1.0  -0.1515
  C  C113  1  0.226300  0.357800  0.597800  1.0  0.1557
  C  C114  1  0.359900  0.525800  0.691400  1.0  0.3644
  C  C115  1  0.401000  0.627600  0.749200  1.0  0.3593
  C  C116  1  0.519100  0.597400  0.714900  1.0  0.3253
  C  C117  1  0.416100  0.784200  0.845100  1.0  0.1665
  C  C118  1  0.446000  0.740200  0.810900  1.0  -0.1277
  C  C119  1  0.372600  0.675200  0.785500  1.0  -0.1251
  C  C120  1  0.274600  0.655800  0.795300  1.0  -0.1005
  C  C121  1  0.252200  0.701200  0.829500  1.0  0.1297
  C  C122  1  0.758300  0.574800  0.695700  1.0  0.1311
  C  C123  1  0.659100  0.561400  0.690300  1.0  -0.1516
  C  C124  1  0.624400  0.610200  0.716100  1.0  -0.0453
  C  C125  1  0.691400  0.672200  0.746400  1.0  -0.189
  C  C126  1  0.787500  0.680400  0.749900  1.0  0.135
  C  C127  1  0.408600  0.817800  0.972900  1.0  0.1306
  C  C128  1  0.487800  0.826200  0.000200  1.0  -0.1337
  C  C129  1  0.574000  0.890600  0.001300  1.0  -0.0543
  C  C130  1  0.581000  0.944200  0.974400  1.0  -0.1882
  C  C131  1  0.498100  0.932600  0.948400  1.0  0.1274
  C  C132  1  0.662200  0.900600  0.029100  1.0  0.3957
  C  C133  1  0.727200  0.863200  0.083300  1.0  0.3546
  C  C134  1  0.821900  0.966400  0.051600  1.0  0.3668
  C  C135  1  0.786600  0.762000  0.167200  1.0  0.1649
  C  C136  1  0.798900  0.807800  0.135300  1.0  -0.1374
  C  C137  1  0.716700  0.811800  0.116300  1.0  -0.1007
  C  C138  1  0.628300  0.767000  0.129100  1.0  -0.1182
  C  C139  1  0.621000  0.722600  0.161400  1.0  0.1318
  C  C140  1  0.037700  0.135800  0.016000  1.0  0.117
  C  C141  1  0.947400  0.071200  0.015100  1.0  -0.0954
  C  C142  1  0.919800  0.035400  0.050500  1.0  -0.0764
  C  C143  1  0.981600  0.066400  0.089400  1.0  -0.1786
  C  C144  1  0.069800  0.128200  0.089100  1.0  0.1455
  C  C145  1  0.272000  0.384600  0.138700  1.0  0.1473
  C  C146  1  0.260500  0.444400  0.167100  1.0  -0.1334
  C  C147  1  0.180300  0.461000  0.160800  1.0  -0.0978
  C  C148  1  0.112900  0.417200  0.125500  1.0  -0.1539
  C  C149  1  0.131500  0.357800  0.097800  1.0  0.1571
  C  C150  1  0.165900  0.525800  0.191400  1.0  0.3642
  C  C151  1  0.226600  0.627600  0.249200  1.0  0.359
  C  C152  1  0.078300  0.597400  0.214900  1.0  0.3251
  C  C153  1  0.368100  0.784200  0.345100  1.0  0.1666
  C  C154  1  0.294200  0.740200  0.310900  1.0  -0.13
  C  C155  1  0.302600  0.675200  0.285500  1.0  -0.1252
  C  C156  1  0.381200  0.655800  0.295300  1.0  -0.1009
  C  C157  1  0.449000  0.701200  0.329500  1.0  0.1296
  C  C158  1  0.816500  0.574800  0.195700  1.0  0.1313
  C  C159  1  0.902300  0.561400  0.190300  1.0  -0.1513
  C  C160  1  0.985800  0.610200  0.216100  1.0  -0.0453
  C  C161  1  0.980800  0.672200  0.246400  1.0  -0.1896
  C  C162  1  0.892900  0.680400  0.249900  1.0  0.1328
  C  C163  1  0.409200  0.817800  0.472900  1.0  0.129
  C  C164  1  0.338400  0.826200  0.500200  1.0  -0.135
  C  C165  1  0.316600  0.890600  0.501300  1.0  -0.0529
  C  C166  1  0.363200  0.944200  0.474400  1.0  -0.1886
  C  C167  1  0.434500  0.932600  0.448400  1.0  0.1288
  C  C168  1  0.238400  0.900600  0.529100  1.0  0.3965
  C  C169  1  0.136000  0.863200  0.583300  1.0  0.3549
  C  C170  1  0.144500  0.966400  0.551600  1.0  0.3671
  C  C171  1  0.975400  0.762000  0.667200  1.0  0.1657
  C  C172  1  0.008900  0.807800  0.635300  1.0  -0.1352
  C  C173  1  0.095100  0.811800  0.616300  1.0  -0.1006
  C  C174  1  0.138700  0.767000  0.629100  1.0  -0.1206
  C  C175  1  0.101600  0.722600  0.661400  1.0  0.1322
  C  C176  1  0.098100  0.135800  0.516000  1.0  0.1158
  C  C177  1  0.123800  0.071200  0.515100  1.0  -0.0964
  C  C178  1  0.115600  0.035400  0.550500  1.0  -0.0761
  C  C179  1  0.084800  0.066400  0.589400  1.0  -0.1773
  C  C180  1  0.058400  0.128200  0.589100  1.0  0.1457
  C  C181  1  0.728000  0.615400  0.861300  1.0  0.1472
  C  C182  1  0.739500  0.555600  0.832900  1.0  -0.1328
  C  C183  1  0.819700  0.539000  0.839200  1.0  -0.0985
  C  C184  1  0.887100  0.582800  0.874500  1.0  -0.1506
  C  C185  1  0.868500  0.642200  0.902200  1.0  0.1583
  C  C186  1  0.834100  0.474200  0.808600  1.0  0.3657
  C  C187  1  0.773400  0.372400  0.750800  1.0  0.3592
  C  C188  1  0.921700  0.402600  0.785100  1.0  0.3259
  C  C189  1  0.631900  0.215800  0.654900  1.0  0.1671
  C  C190  1  0.705800  0.259800  0.689100  1.0  -0.128
  C  C191  1  0.697400  0.324800  0.714500  1.0  -0.1259
  C  C192  1  0.618800  0.344200  0.704700  1.0  -0.1007
  C  C193  1  0.551000  0.298800  0.670500  1.0  0.13
  C  C194  1  0.183500  0.425200  0.804300  1.0  0.1318
  C  C195  1  0.097700  0.438600  0.809700  1.0  -0.1547
  C  C196  1  0.014200  0.389800  0.783900  1.0  -0.0455
  C  C197  1  0.019200  0.327800  0.753600  1.0  -0.1874
  C  C198  1  0.107100  0.319600  0.750100  1.0  0.1345
  C  C199  1  0.590800  0.182200  0.527100  1.0  0.1295
  C  C200  1  0.661600  0.173800  0.499800  1.0  -0.1351
  C  C201  1  0.683400  0.109400  0.498700  1.0  -0.0542
  C  C202  1  0.636800  0.055800  0.525600  1.0  -0.1853
  C  C203  1  0.565500  0.067400  0.551600  1.0  0.1272
  C  C204  1  0.761600  0.099400  0.470900  1.0  0.3955
  C  C205  1  0.864000  0.136800  0.416700  1.0  0.3541
  C  C206  1  0.855500  0.033600  0.448400  1.0  0.367
  C  C207  1  0.024600  0.238000  0.332800  1.0  0.1646
  C  C208  1  0.991100  0.192200  0.364700  1.0  -0.1365
  C  C209  1  0.904900  0.188200  0.383700  1.0  -0.1001
  C  C210  1  0.861300  0.233000  0.370900  1.0  -0.1186
  C  C211  1  0.898400  0.277400  0.338600  1.0  0.1329
  C  C212  1  0.901900  0.864200  0.484000  1.0  0.1189
  C  C213  1  0.876200  0.928800  0.484900  1.0  -0.0945
  C  C214  1  0.884400  0.964600  0.449500  1.0  -0.076
  C  C215  1  0.915200  0.933600  0.410600  1.0  -0.1785
  C  C216  1  0.941600  0.871800  0.410900  1.0  0.144
  C  C217  1  0.887400  0.615400  0.361300  1.0  0.146
  C  C218  1  0.816100  0.555600  0.332900  1.0  -0.1333
  C  C219  1  0.719300  0.539000  0.339200  1.0  -0.0989
  C  C220  1  0.695700  0.582800  0.374500  1.0  -0.1533
  C  C221  1  0.773700  0.642200  0.402200  1.0  0.1576
  C  C222  1  0.640100  0.474200  0.308600  1.0  0.3652
  C  C223  1  0.599000  0.372400  0.250800  1.0  0.3589
  C  C224  1  0.480900  0.402600  0.285100  1.0  0.3256
  C  C225  1  0.583900  0.215800  0.154900  1.0  0.1677
  C  C226  1  0.554000  0.259800  0.189100  1.0  -0.129
  C  C227  1  0.627400  0.324800  0.214500  1.0  -0.1261
  C  C228  1  0.725400  0.344200  0.204700  1.0  -0.1009
  C  C229  1  0.747800  0.298800  0.170500  1.0  0.1296
  C  C230  1  0.241700  0.425200  0.304300  1.0  0.1311
  C  C231  1  0.340900  0.438600  0.309700  1.0  -0.1535
  C  C232  1  0.375600  0.389800  0.283900  1.0  -0.0445
  C  C233  1  0.308600  0.327800  0.253600  1.0  -0.1896
  C  C234  1  0.212500  0.319600  0.250100  1.0  0.1337
  C  C235  1  0.591400  0.182200  0.027100  1.0  0.1282
  C  C236  1  0.512200  0.173800  0.999800  1.0  -0.1355
  C  C237  1  0.426000  0.109400  0.998700  1.0  -0.0531
  C  C238  1  0.419000  0.055800  0.025600  1.0  -0.1861
  C  C239  1  0.501900  0.067400  0.051600  1.0  0.1288
  C  C240  1  0.337800  0.099400  0.970900  1.0  0.3963
  C  C241  1  0.272800  0.136800  0.916700  1.0  0.3544
  C  C242  1  0.178100  0.033600  0.948400  1.0  0.3671
  C  C243  1  0.213400  0.238000  0.832800  1.0  0.1653
  C  C244  1  0.201100  0.192200  0.864700  1.0  -0.1345
  C  C245  1  0.283300  0.188200  0.883700  1.0  -0.0999
  C  C246  1  0.371700  0.233000  0.870900  1.0  -0.1211
  C  C247  1  0.379000  0.277400  0.838600  1.0  0.132
  C  C248  1  0.962300  0.864200  0.984000  1.0  0.1184
  C  C249  1  0.052600  0.928800  0.984900  1.0  -0.095
  C  C250  1  0.080200  0.964600  0.949500  1.0  -0.0753
  C  C251  1  0.018400  0.933600  0.910600  1.0  -0.1789
  C  C252  1  0.930200  0.871800  0.910900  1.0  0.1453
  I  I253  1  0.865640  0.217780  0.598620  1.0  -0.436
  I  I254  1  0.053800  0.309220  0.486370  1.0  -0.3438
  I  I255  1  0.998460  0.531340  0.708680  1.0  -0.4486
  I  I256  1  0.036220  0.751420  0.805270  1.0  -0.4497
  I  I257  1  0.141420  0.765900  0.939430  1.0  -0.376
  I  I258  1  0.331320  0.964940  0.865670  1.0  -0.3696
  I  I259  1  0.352140  0.217780  0.098620  1.0  -0.4369
  I  I260  1  0.255420  0.309220  0.986370  1.0  -0.3436
  I  I261  1  0.532880  0.531340  0.208680  1.0  -0.4483
  I  I262  1  0.715200  0.751420  0.305270  1.0  -0.4499
  I  I263  1  0.624480  0.765900  0.439430  1.0  -0.3758
  I  I264  1  0.633620  0.964940  0.365670  1.0  -0.3691
  I  I265  1  0.647860  0.782220  0.901380  1.0  -0.4354
  I  I266  1  0.744580  0.690780  0.013630  1.0  -0.3439
  I  I267  1  0.467120  0.468660  0.791320  1.0  -0.4486
  I  I268  1  0.284800  0.248580  0.694730  1.0  -0.4483
  I  I269  1  0.375520  0.234100  0.560570  1.0  -0.3747
  I  I270  1  0.366380  0.035060  0.634330  1.0  -0.3698
  I  I271  1  0.134360  0.782220  0.401380  1.0  -0.4374
  I  I272  1  0.946200  0.690780  0.513630  1.0  -0.3439
  I  I273  1  0.001540  0.468660  0.291320  1.0  -0.4483
  I  I274  1  0.963780  0.248580  0.194730  1.0  -0.4483
  I  I275  1  0.858580  0.234100  0.060570  1.0  -0.3751
  I  I276  1  0.668680  0.035060  0.134330  1.0  -0.3693
  N  N277  1  0.133900  0.342800  0.603400  1.0  -0.3296
  N  N278  1  0.327900  0.565600  0.724100  1.0  -0.4537
  N  N279  1  0.496600  0.646600  0.746200  1.0  -0.3724
  N  N280  1  0.454000  0.538600  0.685400  1.0  -0.3328
  N  N281  1  0.324100  0.765200  0.855200  1.0  -0.3249
  N  N282  1  0.821700  0.632800  0.724300  1.0  -0.3143
  N  N283  1  0.413900  0.870200  0.947000  1.0  -0.3108
  N  N284  1  0.647700  0.851600  0.058200  1.0  -0.4589
  N  N285  1  0.817200  0.920200  0.081100  1.0  -0.425
  N  N286  1  0.748800  0.959000  0.024000  1.0  -0.4348
  N  N287  1  0.097300  0.163200  0.053900  1.0  -0.3165
  N  N288  1  0.698500  0.719600  0.181300  1.0  -0.319
  N  N289  1  0.208900  0.342800  0.103400  1.0  -0.3307
  N  N290  1  0.237700  0.565600  0.224100  1.0  -0.4538
  N  N291  1  0.150000  0.646600  0.246200  1.0  -0.3726
  N  N292  1  0.084600  0.538600  0.185400  1.0  -0.332
  N  N293  1  0.441100  0.765200  0.355200  1.0  -0.3273
  N  N294  1  0.811100  0.632800  0.224300  1.0  -0.3135
  N  N295  1  0.456300  0.870200  0.447000  1.0  -0.3104
  N  N296  1  0.203900  0.851600  0.558200  1.0  -0.4586
  N  N297  1  0.103000  0.920200  0.581100  1.0  -0.4264
  N  N298  1  0.210200  0.959000  0.524000  1.0  -0.4341
  N  N299  1  0.065900  0.163200  0.553900  1.0  -0.3166
  N  N300  1  0.021100  0.719600  0.681300  1.0  -0.3187
  N  N301  1  0.791100  0.657200  0.896600  1.0  -0.3285
  N  N302  1  0.762300  0.434400  0.775900  1.0  -0.4533
  N  N303  1  0.850000  0.353400  0.753800  1.0  -0.3731
  N  N304  1  0.915400  0.461400  0.814600  1.0  -0.3293
  N  N305  1  0.558900  0.234800  0.644800  1.0  -0.3246
  N  N306  1  0.188900  0.367200  0.775700  1.0  -0.3135
  N  N307  1  0.543700  0.129800  0.553000  1.0  -0.31
  N  N308  1  0.796100  0.148400  0.441800  1.0  -0.4585
  N  N309  1  0.897000  0.079800  0.418900  1.0  -0.4251
  N  N310  1  0.789800  0.041000  0.476000  1.0  -0.4367
  N  N311  1  0.934100  0.836800  0.446100  1.0  -0.3153
  N  N312  1  0.978900  0.280400  0.318700  1.0  -0.3186
  N  N313  1  0.866100  0.657200  0.396600  1.0  -0.3294
  N  N314  1  0.672100  0.434400  0.275900  1.0  -0.4531
  N  N315  1  0.503400  0.353400  0.253800  1.0  -0.3739
  N  N316  1  0.546000  0.461400  0.314600  1.0  -0.3294
  N  N317  1  0.675900  0.234800  0.144800  1.0  -0.3265
  N  N318  1  0.178300  0.367200  0.275700  1.0  -0.3132
  N  N319  1  0.586100  0.129800  0.053000  1.0  -0.3106
  N  N320  1  0.352300  0.148400  0.941800  1.0  -0.4584
  N  N321  1  0.182800  0.079800  0.918900  1.0  -0.4261
  N  N322  1  0.251200  0.041000  0.976000  1.0  -0.4354
  N  N323  1  0.902700  0.836800  0.946100  1.0  -0.3174
  N  N324  1  0.301500  0.280400  0.818700  1.0  -0.3188
