# generated using pymatgen
data_ZnH8C12(IN2)2
_symmetry_space_group_name_H-M   'P 1'
_cell_length_a   14.90200000
_cell_length_b   19.41750000
_cell_length_c   31.35800000
_cell_angle_alpha   101.70800000
_cell_angle_beta   90.00000000
_cell_angle_gamma   112.56500000
_symmetry_Int_Tables_number   1
_chemical_formula_structural   ZnH8C12(IN2)2
_chemical_formula_sum   'Zn12 H96 C144 I24 N48'
_cell_volume   8174.28532476
_cell_formula_units_Z   12
loop_
 _symmetry_equiv_pos_site_id
 _symmetry_equiv_pos_as_xyz
  1  'x, y, z'
loop_
 _atom_site_type_symbol
 _atom_site_label
 _atom_site_symmetry_multiplicity
 _atom_site_fract_x
 _atom_site_fract_y
 _atom_site_fract_z
 _atom_site_occupancy
 _atom_site_charge
  Zn  Zn1  1  0.529550  0.349960  0.282600  1.0  0.8529
  Zn  Zn2  1  0.477760  0.755920  0.429710  1.0  0.8742
  Zn  Zn3  1  0.956030  0.145840  0.601450  1.0  0.9362
  Zn  Zn4  1  0.820410  0.349960  0.782600  1.0  0.854
  Zn  Zn5  1  0.278160  0.755920  0.929710  1.0  0.8721
  Zn  Zn6  1  0.189810  0.145840  0.101450  1.0  0.9374
  Zn  Zn7  1  0.179590  0.650040  0.217400  1.0  0.8536
  Zn  Zn8  1  0.721840  0.244080  0.070290  1.0  0.875
  Zn  Zn9  1  0.810190  0.854160  0.898550  1.0  0.9353
  Zn  Zn10  1  0.470450  0.650040  0.717400  1.0  0.8537
  Zn  Zn11  1  0.522240  0.244080  0.570290  1.0  0.8724
  Zn  Zn12  1  0.043970  0.854160  0.398550  1.0  0.9378
  H  H13  1  0.726400  0.477200  0.325900  1.0  0.1053
  H  H14  1  0.889900  0.498400  0.326100  1.0  0.0946
  H  H15  1  0.826200  0.300400  0.239700  1.0  0.1169
  H  H16  1  0.661400  0.278800  0.244100  1.0  0.081
  H  H17  1  0.455600  0.638400  0.346100  1.0  0.0715
  H  H18  1  0.337200  0.537200  0.300700  1.0  0.1101
  H  H19  1  0.137100  0.600000  0.365600  1.0  0.1149
  H  H20  1  0.262200  0.695200  0.412000  1.0  0.0788
  H  H21  1  0.021600  0.171400  0.140000  1.0  0.092
  H  H22  1  0.984000  0.255800  0.194300  1.0  0.1057
  H  H23  1  0.272800  0.388200  0.218900  1.0  0.1118
  H  H24  1  0.301800  0.301600  0.163100  1.0  0.0791
  H  H25  1  0.397200  0.852400  0.495300  1.0  0.0718
  H  H26  1  0.361400  0.959200  0.503400  1.0  0.1138
  H  H27  1  0.413000  0.961600  0.376800  1.0  0.1166
  H  H28  1  0.442300  0.850400  0.372100  1.0  0.086
  H  H29  1  0.067400  0.213400  0.531900  1.0  0.0755
  H  H30  1  0.198000  0.212400  0.492700  1.0  0.1088
  H  H31  1  0.163200  0.013200  0.524200  1.0  0.1252
  H  H32  1  0.038200  0.023800  0.564000  1.0  0.0717
  H  H33  1  0.495600  0.195200  0.293400  1.0  0.0778
  H  H34  1  0.431600  0.112400  0.338900  1.0  0.1114
  H  H35  1  0.377700  0.278400  0.418100  1.0  0.1034
  H  H36  1  0.437800  0.356600  0.369800  1.0  0.0996
  H  H37  1  0.750800  0.477200  0.825900  1.0  0.1052
  H  H38  1  0.608500  0.498400  0.826100  1.0  0.0949
  H  H39  1  0.474200  0.300400  0.739700  1.0  0.1163
  H  H40  1  0.617400  0.278800  0.744100  1.0  0.0811
  H  H41  1  0.182800  0.638400  0.846100  1.0  0.0715
  H  H42  1  0.200000  0.537200  0.800700  1.0  0.1101
  H  H43  1  0.462900  0.600000  0.865600  1.0  0.1142
  H  H44  1  0.433000  0.695200  0.912000  1.0  0.0784
  H  H45  1  0.149800  0.171400  0.640000  1.0  0.0932
  H  H46  1  0.271800  0.255800  0.694300  1.0  0.1056
  H  H47  1  0.115400  0.388200  0.718900  1.0  0.1125
  H  H48  1  0.999800  0.301600  0.663100  1.0  0.0792
  H  H49  1  0.455200  0.852400  0.995300  1.0  0.0714
  H  H50  1  0.597800  0.959200  0.003400  1.0  0.1138
  H  H51  1  0.548600  0.961600  0.876800  1.0  0.1164
  H  H52  1  0.408100  0.850400  0.872100  1.0  0.0862
  H  H53  1  0.146000  0.213400  0.031900  1.0  0.0755
  H  H54  1  0.014400  0.212400  0.992700  1.0  0.1089
  H  H55  1  0.850000  0.013200  0.024200  1.0  0.1256
  H  H56  1  0.985600  0.023800  0.064000  1.0  0.0717
  H  H57  1  0.699600  0.195200  0.793400  1.0  0.0776
  H  H58  1  0.680800  0.112400  0.838900  1.0  0.1113
  H  H59  1  0.900700  0.278400  0.918100  1.0  0.1032
  H  H60  1  0.918800  0.356600  0.869800  1.0  0.0998
  H  H61  1  0.249200  0.522800  0.174100  1.0  0.1041
  H  H62  1  0.391500  0.501600  0.173900  1.0  0.0943
  H  H63  1  0.525800  0.699600  0.260300  1.0  0.1164
  H  H64  1  0.382600  0.721200  0.255900  1.0  0.081
  H  H65  1  0.817200  0.361600  0.153900  1.0  0.0715
  H  H66  1  0.800000  0.462800  0.199300  1.0  0.1095
  H  H67  1  0.537100  0.400000  0.134400  1.0  0.1146
  H  H68  1  0.567000  0.304800  0.088000  1.0  0.0781
  H  H69  1  0.850200  0.828600  0.360000  1.0  0.0941
  H  H70  1  0.728200  0.744200  0.305700  1.0  0.1053
  H  H71  1  0.884600  0.611800  0.281100  1.0  0.1131
  H  H72  1  0.000200  0.698400  0.336900  1.0  0.0789
  H  H73  1  0.544800  0.147600  0.004700  1.0  0.0715
  H  H74  1  0.402200  0.040800  0.996600  1.0  0.1139
  H  H75  1  0.451400  0.038400  0.123200  1.0  0.1164
  H  H76  1  0.591900  0.149600  0.127900  1.0  0.0858
  H  H77  1  0.854000  0.786600  0.968100  1.0  0.0747
  H  H78  1  0.985600  0.787600  0.007300  1.0  0.1084
  H  H79  1  0.150000  0.986800  0.975800  1.0  0.1251
  H  H80  1  0.014400  0.976200  0.936000  1.0  0.0715
  H  H81  1  0.300400  0.804800  0.206600  1.0  0.0783
  H  H82  1  0.319200  0.887600  0.161100  1.0  0.1112
  H  H83  1  0.099300  0.721600  0.081900  1.0  0.103
  H  H84  1  0.081200  0.643400  0.130200  1.0  0.0996
  H  H85  1  0.273600  0.522800  0.674100  1.0  0.1039
  H  H86  1  0.110100  0.501600  0.673900  1.0  0.0943
  H  H87  1  0.173800  0.699600  0.760300  1.0  0.1165
  H  H88  1  0.338600  0.721200  0.755900  1.0  0.0808
  H  H89  1  0.544400  0.361600  0.653900  1.0  0.0711
  H  H90  1  0.662800  0.462800  0.699300  1.0  0.1097
  H  H91  1  0.862900  0.400000  0.634400  1.0  0.1142
  H  H92  1  0.737800  0.304800  0.588000  1.0  0.078
  H  H93  1  0.978400  0.828600  0.860000  1.0  0.0928
  H  H94  1  0.016000  0.744200  0.805700  1.0  0.1048
  H  H95  1  0.727200  0.611800  0.781100  1.0  0.1132
  H  H96  1  0.698200  0.698400  0.836900  1.0  0.0791
  H  H97  1  0.602800  0.147600  0.504700  1.0  0.0717
  H  H98  1  0.638600  0.040800  0.496600  1.0  0.1143
  H  H99  1  0.587000  0.038400  0.623200  1.0  0.1168
  H  H100  1  0.557700  0.149600  0.627900  1.0  0.0861
  H  H101  1  0.932600  0.786600  0.468100  1.0  0.0752
  H  H102  1  0.802000  0.787600  0.507300  1.0  0.1085
  H  H103  1  0.836800  0.986800  0.475800  1.0  0.126
  H  H104  1  0.961800  0.976200  0.436000  1.0  0.0716
  H  H105  1  0.504400  0.804800  0.706600  1.0  0.0783
  H  H106  1  0.568400  0.887600  0.661100  1.0  0.1113
  H  H107  1  0.622300  0.721600  0.581900  1.0  0.1034
  H  H108  1  0.562200  0.643400  0.630200  1.0  0.0997
  C  C109  1  0.746300  0.440000  0.309000  1.0  0.1115
  C  C110  1  0.843700  0.453000  0.308200  1.0  -0.0314
  C  C111  1  0.876800  0.403000  0.282500  1.0  -0.0627
  C  C112  1  0.807700  0.337200  0.258100  1.0  -0.1437
  C  C113  1  0.709200  0.324800  0.260900  1.0  0.1428
  C  C114  1  0.982400  0.419600  0.279300  1.0  0.2898
  C  C115  1  0.141300  0.491600  0.298600  1.0  0.3954
  C  C116  1  0.097100  0.386400  0.245900  1.0  0.3506
  C  C117  1  0.389200  0.628600  0.350800  1.0  0.1394
  C  C118  1  0.319700  0.569800  0.322900  1.0  -0.1699
  C  C119  1  0.221800  0.557600  0.327400  1.0  -0.0677
  C  C120  1  0.202500  0.606000  0.361300  1.0  -0.1351
  C  C121  1  0.277400  0.662600  0.388800  1.0  0.1426
  C  C122  1  0.072900  0.215400  0.156600  1.0  0.131
  C  C123  1  0.050000  0.266800  0.188300  1.0  -0.0667
  C  C124  1  0.123200  0.333200  0.210900  1.0  -0.0848
  C  C125  1  0.220100  0.345000  0.202700  1.0  -0.1325
  C  C126  1  0.236800  0.291800  0.170500  1.0  0.1319
  C  C127  1  0.404000  0.876600  0.471400  1.0  0.141
  C  C128  1  0.380400  0.938800  0.476400  1.0  -0.1895
  C  C129  1  0.385500  0.970000  0.441100  1.0  -0.0611
  C  C130  1  0.410300  0.939600  0.401500  1.0  -0.0882
  C  C131  1  0.430900  0.875600  0.399500  1.0  0.1372
  C  C132  1  0.356000  0.036600  0.443200  1.0  0.36
  C  C133  1  0.262100  0.101600  0.471800  1.0  0.3419
  C  C134  1  0.361900  0.136400  0.416500  1.0  0.3639
  C  C135  1  0.089700  0.173600  0.531800  1.0  0.1205
  C  C136  1  0.164000  0.171000  0.506200  1.0  -0.1268
  C  C137  1  0.188600  0.110000  0.500300  1.0  -0.0624
  C  C138  1  0.144400  0.054800  0.524900  1.0  -0.1844
  C  C139  1  0.072900  0.064000  0.549900  1.0  0.1481
  C  C140  1  0.473400  0.213200  0.320100  1.0  0.1361
  C  C141  1  0.435000  0.163400  0.346900  1.0  -0.1305
  C  C142  1  0.401500  0.187400  0.384900  1.0  -0.046
  C  C143  1  0.403400  0.260400  0.392500  1.0  -0.0935
  C  C144  1  0.440900  0.307600  0.364300  1.0  0.1072
  C  C145  1  0.693700  0.440000  0.809000  1.0  0.1134
  C  C146  1  0.609300  0.453000  0.808200  1.0  -0.0321
  C  C147  1  0.526200  0.403000  0.782500  1.0  -0.0659
  C  C148  1  0.529500  0.337200  0.758100  1.0  -0.1436
  C  C149  1  0.615600  0.324800  0.760900  1.0  0.1426
  C  C150  1  0.437200  0.419600  0.779300  1.0  0.2897
  C  C151  1  0.350300  0.491600  0.798600  1.0  0.3952
  C  C152  1  0.289300  0.386400  0.745900  1.0  0.3505
  C  C153  1  0.239400  0.628600  0.850800  1.0  0.1404
  C  C154  1  0.250100  0.569800  0.822900  1.0  -0.1696
  C  C155  1  0.335800  0.557600  0.827400  1.0  -0.0685
  C  C156  1  0.403500  0.606000  0.861300  1.0  -0.1349
  C  C157  1  0.385200  0.662600  0.888800  1.0  0.1425
  C  C158  1  0.142500  0.215400  0.656600  1.0  0.1307
  C  C159  1  0.216800  0.266800  0.688300  1.0  -0.0673
  C  C160  1  0.210000  0.333200  0.710900  1.0  -0.0849
  C  C161  1  0.124900  0.345000  0.702700  1.0  -0.1325
  C  C162  1  0.055000  0.291800  0.670500  1.0  0.1322
  C  C163  1  0.472600  0.876600  0.971400  1.0  0.1406
  C  C164  1  0.558400  0.938800  0.976400  1.0  -0.1891
  C  C165  1  0.584500  0.970000  0.941100  1.0  -0.0618
  C  C166  1  0.529300  0.939600  0.901500  1.0  -0.0878
  C  C167  1  0.444700  0.875600  0.899500  1.0  0.1375
  C  C168  1  0.680600  0.036600  0.943200  1.0  0.3601
  C  C169  1  0.839500  0.101600  0.971800  1.0  0.3427
  C  C170  1  0.774500  0.136400  0.916500  1.0  0.3636
  C  C171  1  0.083900  0.173600  0.031800  1.0  0.1211
  C  C172  1  0.007000  0.171000  0.006200  1.0  -0.1271
  C  C173  1  0.921400  0.110000  0.000300  1.0  -0.062
  C  C174  1  0.910400  0.054800  0.024900  1.0  -0.1858
  C  C175  1  0.991100  0.064000  0.049900  1.0  0.1464
  C  C176  1  0.739800  0.213200  0.820100  1.0  0.1364
  C  C177  1  0.728400  0.163400  0.846900  1.0  -0.1298
  C  C178  1  0.785900  0.187400  0.884900  1.0  -0.0463
  C  C179  1  0.857000  0.260400  0.892500  1.0  -0.0933
  C  C180  1  0.866700  0.307600  0.864300  1.0  0.107
  C  C181  1  0.306300  0.560000  0.191000  1.0  0.113
  C  C182  1  0.390700  0.547000  0.191800  1.0  -0.0346
  C  C183  1  0.473800  0.597000  0.217500  1.0  -0.0639
  C  C184  1  0.470500  0.662800  0.241900  1.0  -0.1438
  C  C185  1  0.384400  0.675200  0.239100  1.0  0.1424
  C  C186  1  0.562800  0.580400  0.220700  1.0  0.2894
  C  C187  1  0.649700  0.508400  0.201400  1.0  0.3951
  C  C188  1  0.710700  0.613600  0.254100  1.0  0.3502
  C  C189  1  0.760600  0.371400  0.149200  1.0  0.1395
  C  C190  1  0.749900  0.430200  0.177100  1.0  -0.1677
  C  C191  1  0.664200  0.442400  0.172600  1.0  -0.0658
  C  C192  1  0.596500  0.394000  0.138700  1.0  -0.1343
  C  C193  1  0.614800  0.337400  0.111200  1.0  0.1441
  C  C194  1  0.857500  0.784600  0.343400  1.0  0.1293
  C  C195  1  0.783200  0.733200  0.311700  1.0  -0.0681
  C  C196  1  0.790000  0.666800  0.289100  1.0  -0.086
  C  C197  1  0.875100  0.655000  0.297300  1.0  -0.1317
  C  C198  1  0.945000  0.708200  0.329500  1.0  0.1323
  C  C199  1  0.527400  0.123400  0.028600  1.0  0.1408
  C  C200  1  0.441600  0.061200  0.023600  1.0  -0.1896
  C  C201  1  0.415500  0.030000  0.058900  1.0  -0.0602
  C  C202  1  0.470700  0.060400  0.098500  1.0  -0.0908
  C  C203  1  0.555300  0.124400  0.100500  1.0  0.1372
  C  C204  1  0.319400  0.963400  0.056800  1.0  0.3599
  C  C205  1  0.160500  0.898400  0.028200  1.0  0.342
  C  C206  1  0.225500  0.863600  0.083500  1.0  0.3648
  C  C207  1  0.916100  0.826400  0.968200  1.0  0.1219
  C  C208  1  0.993000  0.829000  0.993800  1.0  -0.1252
  C  C209  1  0.078600  0.890000  0.999700  1.0  -0.062
  C  C210  1  0.089600  0.945200  0.975100  1.0  -0.1847
  C  C211  1  0.008900  0.936000  0.950100  1.0  0.1449
  C  C212  1  0.260200  0.786800  0.179900  1.0  0.1365
  C  C213  1  0.271600  0.836600  0.153100  1.0  -0.1305
  C  C214  1  0.214100  0.812600  0.115100  1.0  -0.045
  C  C215  1  0.143000  0.739600  0.107500  1.0  -0.0926
  C  C216  1  0.133300  0.692400  0.135700  1.0  0.1078
  C  C217  1  0.253700  0.560000  0.691000  1.0  0.1128
  C  C218  1  0.156300  0.547000  0.691800  1.0  -0.0336
  C  C219  1  0.123200  0.597000  0.717500  1.0  -0.0675
  C  C220  1  0.192300  0.662800  0.741900  1.0  -0.1442
  C  C221  1  0.290800  0.675200  0.739100  1.0  0.143
  C  C222  1  0.017600  0.580400  0.720700  1.0  0.2897
  C  C223  1  0.858700  0.508400  0.701400  1.0  0.3948
  C  C224  1  0.902900  0.613600  0.754100  1.0  0.3504
  C  C225  1  0.610800  0.371400  0.649200  1.0  0.1409
  C  C226  1  0.680300  0.430200  0.677100  1.0  -0.168
  C  C227  1  0.778200  0.442400  0.672600  1.0  -0.0663
  C  C228  1  0.797500  0.394000  0.638700  1.0  -0.1338
  C  C229  1  0.722600  0.337400  0.611200  1.0  0.1417
  C  C230  1  0.927100  0.784600  0.843400  1.0  0.1296
  C  C231  1  0.950000  0.733200  0.811700  1.0  -0.0678
  C  C232  1  0.876800  0.666800  0.789100  1.0  -0.086
  C  C233  1  0.779900  0.655000  0.797300  1.0  -0.1318
  C  C234  1  0.763200  0.708200  0.829500  1.0  0.1317
  C  C235  1  0.596000  0.123400  0.528600  1.0  0.1405
  C  C236  1  0.619600  0.061200  0.523600  1.0  -0.19
  C  C237  1  0.614500  0.030000  0.558900  1.0  -0.0606
  C  C238  1  0.589700  0.060400  0.598500  1.0  -0.09
  C  C239  1  0.569100  0.124400  0.600500  1.0  0.1361
  C  C240  1  0.644000  0.963400  0.556800  1.0  0.3601
  C  C241  1  0.737900  0.898400  0.528200  1.0  0.3429
  C  C242  1  0.638100  0.863600  0.583500  1.0  0.3649
  C  C243  1  0.910300  0.826400  0.468200  1.0  0.1219
  C  C244  1  0.836000  0.829000  0.493800  1.0  -0.1264
  C  C245  1  0.811400  0.890000  0.499700  1.0  -0.0617
  C  C246  1  0.855600  0.945200  0.475100  1.0  -0.1865
  C  C247  1  0.927100  0.936000  0.450100  1.0  0.1481
  C  C248  1  0.526600  0.786800  0.679900  1.0  0.1362
  C  C249  1  0.565000  0.836600  0.653100  1.0  -0.1304
  C  C250  1  0.598500  0.812600  0.615100  1.0  -0.0452
  C  C251  1  0.596600  0.739600  0.607500  1.0  -0.0925
  C  C252  1  0.559100  0.692400  0.635700  1.0  0.1071
  I  I253  1  0.456730  0.261100  0.208230  1.0  -0.4481
  I  I254  1  0.506460  0.474260  0.308380  1.0  -0.4213
  I  I255  1  0.454500  0.710660  0.500710  1.0  -0.3574
  I  I256  1  0.634870  0.791680  0.392460  1.0  -0.3993
  I  I257  1  0.873570  0.030760  0.634940  1.0  -0.3434
  I  I258  1  0.867460  0.211100  0.568420  1.0  -0.471
  I  I259  1  0.804370  0.261100  0.708230  1.0  -0.4482
  I  I260  1  0.967800  0.474260  0.808380  1.0  -0.4212
  I  I261  1  0.256160  0.710660  0.000710  1.0  -0.3584
  I  I262  1  0.156810  0.791680  0.892460  1.0  -0.3994
  I  I263  1  0.157190  0.030760  0.134940  1.0  -0.3431
  I  I264  1  0.343640  0.211100  0.068420  1.0  -0.472
  I  I265  1  0.195630  0.738900  0.291770  1.0  -0.4479
  I  I266  1  0.032200  0.525740  0.191620  1.0  -0.421
  I  I267  1  0.743840  0.289340  0.999290  1.0  -0.3596
  I  I268  1  0.843190  0.208320  0.107540  1.0  -0.3998
  I  I269  1  0.842810  0.969240  0.865060  1.0  -0.3449
  I  I270  1  0.656360  0.788900  0.931580  1.0  -0.4716
  I  I271  1  0.543270  0.738900  0.791770  1.0  -0.4483
  I  I272  1  0.493540  0.525740  0.691620  1.0  -0.4213
  I  I273  1  0.545500  0.289340  0.499290  1.0  -0.3603
  I  I274  1  0.365130  0.208320  0.607540  1.0  -0.3999
  I  I275  1  0.126430  0.969240  0.365060  1.0  -0.3443
  I  I276  1  0.132540  0.788900  0.431580  1.0  -0.4726
  N  N277  1  0.680000  0.374400  0.285900  1.0  -0.2983
  N  N278  1  0.050300  0.481400  0.306400  1.0  -0.2839
  N  N279  1  0.169800  0.447200  0.269500  1.0  -0.3865
  N  N280  1  0.001700  0.368000  0.249600  1.0  -0.4876
  N  N281  1  0.370200  0.674000  0.384600  1.0  -0.3087
  N  N282  1  0.164500  0.226800  0.149200  1.0  -0.3273
  N  N283  1  0.435600  0.847200  0.435500  1.0  -0.3275
  N  N284  1  0.296100  0.046200  0.473400  1.0  -0.4408
  N  N285  1  0.298100  0.150000  0.444500  1.0  -0.4519
  N  N286  1  0.390000  0.079000  0.414000  1.0  -0.4072
  N  N287  1  0.047100  0.123200  0.556500  1.0  -0.3278
  N  N288  1  0.481700  0.285600  0.329400  1.0  -0.3069
  N  N289  1  0.694400  0.374400  0.785900  1.0  -0.2981
  N  N290  1  0.431100  0.481400  0.806400  1.0  -0.2853
  N  N291  1  0.277400  0.447200  0.769500  1.0  -0.3864
  N  N292  1  0.366300  0.368000  0.749600  1.0  -0.4868
  N  N293  1  0.303800  0.674000  0.884600  1.0  -0.3111
  N  N294  1  0.062300  0.226800  0.649200  1.0  -0.3275
  N  N295  1  0.411600  0.847200  0.935500  1.0  -0.3275
  N  N296  1  0.750100  0.046200  0.973400  1.0  -0.4408
  N  N297  1  0.851900  0.150000  0.944500  1.0  -0.4513
  N  N298  1  0.689000  0.079000  0.914000  1.0  -0.4067
  N  N299  1  0.076100  0.123200  0.056500  1.0  -0.3288
  N  N300  1  0.803900  0.285600  0.829400  1.0  -0.3065
  N  N301  1  0.305600  0.625600  0.214100  1.0  -0.2988
  N  N302  1  0.568900  0.518600  0.193600  1.0  -0.2855
  N  N303  1  0.722600  0.552800  0.230500  1.0  -0.3869
  N  N304  1  0.633700  0.632000  0.250400  1.0  -0.4876
  N  N305  1  0.696200  0.326000  0.115400  1.0  -0.3104
  N  N306  1  0.937700  0.773200  0.350800  1.0  -0.3266
  N  N307  1  0.588400  0.152800  0.064500  1.0  -0.3291
  N  N308  1  0.249900  0.953800  0.026600  1.0  -0.4382
  N  N309  1  0.148100  0.850000  0.055500  1.0  -0.4513
  N  N310  1  0.311000  0.921000  0.086000  1.0  -0.4047
  N  N311  1  0.923900  0.876800  0.943500  1.0  -0.3279
  N  N312  1  0.196100  0.714400  0.170600  1.0  -0.3058
  N  N313  1  0.320000  0.625600  0.714100  1.0  -0.2992
  N  N314  1  0.949700  0.518600  0.693600  1.0  -0.2868
  N  N315  1  0.830200  0.552800  0.730500  1.0  -0.3864
  N  N316  1  0.998300  0.632000  0.750400  1.0  -0.487
  N  N317  1  0.629800  0.326000  0.615400  1.0  -0.3127
  N  N318  1  0.835500  0.773200  0.850800  1.0  -0.3268
  N  N319  1  0.564400  0.152800  0.564500  1.0  -0.3265
  N  N320  1  0.703900  0.953800  0.526600  1.0  -0.4379
  N  N321  1  0.701900  0.850000  0.555500  1.0  -0.4505
  N  N322  1  0.610000  0.921000  0.586000  1.0  -0.4063
  N  N323  1  0.952900  0.876800  0.443500  1.0  -0.3283
  N  N324  1  0.518300  0.714400  0.670600  1.0  -0.3053
