# generated using pymatgen
data_ZnH8C12(IN2)2
_symmetry_space_group_name_H-M   'P 1'
_cell_length_a   14.90700000
_cell_length_b   18.60800000
_cell_length_c   32.92000000
_cell_angle_alpha   103.26900000
_cell_angle_beta   93.08900000
_cell_angle_gamma   108.97000000
_symmetry_Int_Tables_number   1
_chemical_formula_structural   ZnH8C12(IN2)2
_chemical_formula_sum   'Zn12 H96 C144 I24 N48'
_cell_volume   8322.85438505
_cell_formula_units_Z   12
loop_
 _symmetry_equiv_pos_site_id
 _symmetry_equiv_pos_as_xyz
  1  'x, y, z'
loop_
 _atom_site_type_symbol
 _atom_site_label
 _atom_site_symmetry_multiplicity
 _atom_site_fract_x
 _atom_site_fract_y
 _atom_site_fract_z
 _atom_site_occupancy
 _atom_site_charge
  Zn  Zn1  1  0.201440  0.735050  0.067100  1.0  0.8448
  Zn  Zn2  1  0.671970  0.164330  0.221290  1.0  0.8905
  Zn  Zn3  1  0.299910  0.330120  0.898880  1.0  0.9048
  Zn  Zn4  1  0.964670  0.144780  0.728960  1.0  0.881
  Zn  Zn5  1  0.480760  0.229370  0.428150  1.0  0.8727
  Zn  Zn6  1  0.044170  0.739260  0.552870  1.0  0.8707
  Zn  Zn7  1  0.798560  0.264950  0.932900  1.0  0.8439
  Zn  Zn8  1  0.328030  0.835670  0.778710  1.0  0.8897
  Zn  Zn9  1  0.700090  0.669880  0.101120  1.0  0.9049
  Zn  Zn10  1  0.035330  0.855220  0.271040  1.0  0.8808
  Zn  Zn11  1  0.519240  0.770630  0.571850  1.0  0.8693
  Zn  Zn12  1  0.955830  0.260740  0.447130  1.0  0.8724
  H  H13  1  0.318500  0.880500  0.136100  1.0  0.069
  H  H14  1  0.301900  0.982200  0.184300  1.0  0.1137
  H  H15  1  0.027700  0.909500  0.132200  1.0  0.1083
  H  H16  1  0.056200  0.812200  0.082800  1.0  0.0884
  H  H17  1  0.278900  0.217400  0.395900  1.0  0.0823
  H  H18  1  0.175600  0.172300  0.334000  1.0  0.1079
  H  H19  1  0.388300  0.134700  0.272200  1.0  0.1045
  H  H20  1  0.491500  0.186600  0.335700  1.0  0.0721
  H  H21  1  0.755700  0.053200  0.169400  1.0  0.0814
  H  H22  1  0.892300  0.022800  0.171600  1.0  0.0905
  H  H23  1  0.015900  0.211300  0.270200  1.0  0.1208
  H  H24  1  0.865900  0.227000  0.270000  1.0  0.0642
  H  H25  1  0.799200  0.311700  0.209000  1.0  0.0842
  H  H26  1  0.823800  0.392500  0.164000  1.0  0.1108
  H  H27  1  0.583200  0.242700  0.093800  1.0  0.0816
  H  H28  1  0.570800  0.163400  0.138000  1.0  0.0923
  H  H29  1  0.032100  0.621200  0.003900  1.0  0.0917
  H  H30  1  0.884700  0.527100  0.002500  1.0  0.1026
  H  H31  1  0.942300  0.560400  0.127900  1.0  0.11
  H  H32  1  0.089600  0.655900  0.126100  1.0  0.0758
  H  H33  1  0.358700  0.264600  0.966400  1.0  0.0804
  H  H34  1  0.491200  0.278800  0.010800  1.0  0.1073
  H  H35  1  0.630900  0.482600  0.982100  1.0  0.1153
  H  H36  1  0.499700  0.456100  0.931700  1.0  0.08
  H  H37  1  0.462500  0.290700  0.870700  1.0  0.073
  H  H38  1  0.507400  0.211800  0.817000  1.0  0.119
  H  H39  1  0.226500  0.087500  0.776000  1.0  0.1092
  H  H40  1  0.191100  0.176300  0.829800  1.0  0.0684
  H  H41  1  0.781300  0.024100  0.672600  1.0  0.0937
  H  H42  1  0.617300  0.995900  0.669800  1.0  0.0889
  H  H43  1  0.663600  0.167200  0.777200  1.0  0.108
  H  H44  1  0.823600  0.197300  0.776500  1.0  0.0861
  H  H45  1  0.061400  0.855400  0.636700  1.0  0.0602
  H  H46  1  0.172600  0.946400  0.690200  1.0  0.1148
  H  H47  1  0.379600  0.895400  0.626700  1.0  0.1092
  H  H48  1  0.256200  0.798800  0.574700  1.0  0.0859
  H  H49  1  0.082800  0.139600  0.658100  1.0  0.0965
  H  H50  1  0.150100  0.214900  0.614200  1.0  0.1025
  H  H51  1  0.006000  0.362700  0.656800  1.0  0.1081
  H  H52  1  0.949600  0.284200  0.705200  1.0  0.0972
  H  H53  1  0.450000  0.383900  0.463700  1.0  0.0851
  H  H54  1  0.358600  0.432600  0.505200  1.0  0.1089
  H  H55  1  0.247000  0.223100  0.530500  1.0  0.0883
  H  H56  1  0.346600  0.177800  0.489400  1.0  0.0965
  H  H57  1  0.031700  0.638100  0.611300  1.0  0.0717
  H  H58  1  0.058500  0.526200  0.618900  1.0  0.1122
  H  H59  1  0.150000  0.505600  0.503900  1.0  0.1265
  H  H60  1  0.109800  0.617300  0.500100  1.0  0.0724
  H  H61  1  0.681500  0.119500  0.863900  1.0  0.071
  H  H62  1  0.698100  0.017800  0.815700  1.0  0.1129
  H  H63  1  0.972300  0.090500  0.867800  1.0  0.1077
  H  H64  1  0.943800  0.187800  0.917200  1.0  0.0893
  H  H65  1  0.721100  0.782600  0.604100  1.0  0.0836
  H  H66  1  0.824400  0.827700  0.666000  1.0  0.1068
  H  H67  1  0.611700  0.865300  0.727800  1.0  0.1051
  H  H68  1  0.508500  0.813400  0.664300  1.0  0.0718
  H  H69  1  0.244300  0.946800  0.830600  1.0  0.0823
  H  H70  1  0.107700  0.977200  0.828400  1.0  0.0903
  H  H71  1  0.984100  0.788700  0.729800  1.0  0.1203
  H  H72  1  0.134100  0.773000  0.730000  1.0  0.0654
  H  H73  1  0.200800  0.688300  0.791000  1.0  0.0839
  H  H74  1  0.176200  0.607500  0.836000  1.0  0.1102
  H  H75  1  0.416800  0.757300  0.906200  1.0  0.0815
  H  H76  1  0.429200  0.836600  0.862000  1.0  0.0917
  H  H77  1  0.967900  0.378800  0.996100  1.0  0.0923
  H  H78  1  0.115300  0.472900  0.997500  1.0  0.1025
  H  H79  1  0.057700  0.439600  0.872100  1.0  0.1109
  H  H80  1  0.910400  0.344100  0.873900  1.0  0.0754
  H  H81  1  0.641300  0.735400  0.033600  1.0  0.0804
  H  H82  1  0.508800  0.721200  0.989200  1.0  0.1081
  H  H83  1  0.369100  0.517400  0.017900  1.0  0.1151
  H  H84  1  0.500300  0.543900  0.068300  1.0  0.0815
  H  H85  1  0.537500  0.709300  0.129300  1.0  0.0736
  H  H86  1  0.492600  0.788200  0.183000  1.0  0.1188
  H  H87  1  0.773500  0.912500  0.224000  1.0  0.1081
  H  H88  1  0.808900  0.823700  0.170200  1.0  0.0673
  H  H89  1  0.218700  0.975900  0.327400  1.0  0.0945
  H  H90  1  0.382700  0.004100  0.330200  1.0  0.0887
  H  H91  1  0.336400  0.832800  0.222800  1.0  0.1079
  H  H92  1  0.176400  0.802700  0.223500  1.0  0.0853
  H  H93  1  0.938600  0.144600  0.363300  1.0  0.0602
  H  H94  1  0.827400  0.053600  0.309800  1.0  0.1156
  H  H95  1  0.620400  0.104600  0.373300  1.0  0.1092
  H  H96  1  0.743800  0.201200  0.425300  1.0  0.0868
  H  H97  1  0.917200  0.860400  0.341900  1.0  0.0957
  H  H98  1  0.849900  0.785100  0.385800  1.0  0.102
  H  H99  1  0.994000  0.637300  0.343200  1.0  0.1078
  H  H100  1  0.050400  0.715800  0.294800  1.0  0.0973
  H  H101  1  0.550000  0.616100  0.536300  1.0  0.0856
  H  H102  1  0.641400  0.567400  0.494800  1.0  0.1086
  H  H103  1  0.753000  0.776900  0.469500  1.0  0.089
  H  H104  1  0.653400  0.822200  0.510600  1.0  0.0959
  H  H105  1  0.968300  0.361900  0.388700  1.0  0.0717
  H  H106  1  0.941500  0.473800  0.381100  1.0  0.1131
  H  H107  1  0.850000  0.494400  0.496100  1.0  0.1268
  H  H108  1  0.890200  0.382700  0.499900  1.0  0.0729
  C  C109  1  0.257000  0.885300  0.136100  1.0  0.1762
  C  C110  1  0.248400  0.946700  0.164500  1.0  -0.1741
  C  C111  1  0.162600  0.957000  0.164400  1.0  -0.0595
  C  C112  1  0.089000  0.904400  0.133700  1.0  -0.1318
  C  C113  1  0.105300  0.845100  0.105400  1.0  0.1484
  C  C114  1  0.148800  0.021100  0.195400  1.0  0.4195
  C  C115  1  0.202300  0.114300  0.256500  1.0  0.333
  C  C116  1  0.061200  0.093600  0.221800  1.0  0.3188
  C  C117  1  0.302000  0.200800  0.370400  1.0  0.1363
  C  C118  1  0.239900  0.174000  0.333600  1.0  -0.1458
  C  C119  1  0.271400  0.149500  0.296300  1.0  -0.084
  C  C120  1  0.365200  0.152700  0.297500  1.0  -0.1358
  C  C121  1  0.426300  0.182500  0.335800  1.0  0.1283
  C  C122  1  0.807200  0.084100  0.191300  1.0  0.1058
  C  C123  1  0.890500  0.067800  0.191700  1.0  -0.0978
  C  C124  1  0.970500  0.112900  0.219400  1.0  -0.1258
  C  C125  1  0.963000  0.176300  0.249900  1.0  -0.1299
  C  C126  1  0.872500  0.185600  0.248700  1.0  0.1453
  C  C127  1  0.754500  0.297000  0.184200  1.0  0.1492
  C  C128  1  0.769300  0.345700  0.157800  1.0  -0.1547
  C  C129  1  0.704200  0.326100  0.122200  1.0  -0.0653
  C  C130  1  0.631600  0.258800  0.117300  1.0  -0.1142
  C  C131  1  0.622800  0.212000  0.144200  1.0  0.1402
  C  C132  1  0.715300  0.371800  0.090200  1.0  0.3986
  C  C133  1  0.807700  0.464600  0.063800  1.0  0.3772
  C  C134  1  0.656800  0.398800  0.036100  1.0  0.3806
  C  C135  1  0.013000  0.609600  0.029400  1.0  0.1113
  C  C136  1  0.926800  0.552100  0.028300  1.0  -0.1188
  C  C137  1  0.900700  0.530100  0.065100  1.0  -0.0466
  C  C138  1  0.959500  0.571100  0.102000  1.0  -0.1431
  C  C139  1  0.046300  0.629600  0.100800  1.0  0.1258
  C  C140  1  0.415500  0.308300  0.968600  1.0  0.1257
  C  C141  1  0.492900  0.317900  0.996400  1.0  -0.148
  C  C142  1  0.572800  0.384200  0.003300  1.0  -0.0865
  C  C143  1  0.575900  0.436900  0.978700  1.0  -0.148
  C  C144  1  0.496600  0.421100  0.949000  1.0  0.1259
  C  C145  1  0.413700  0.249700  0.850700  1.0  0.1588
  C  C146  1  0.441500  0.203100  0.819100  1.0  -0.1339
  C  C147  1  0.370000  0.142500  0.790100  1.0  -0.1103
  C  C148  1  0.276500  0.130300  0.794600  1.0  -0.1574
  C  C149  1  0.256300  0.182900  0.827400  1.0  0.1378
  C  C150  1  0.398200  0.090600  0.755400  1.0  0.3635
  C  C151  1  0.516200  0.061400  0.723500  1.0  0.3667
  C  C152  1  0.363800  0.990300  0.696400  1.0  0.3104
  C  C153  1  0.757000  0.054500  0.693400  1.0  0.1092
  C  C154  1  0.659400  0.037400  0.692000  1.0  -0.0617
  C  C155  1  0.621200  0.080100  0.723000  1.0  -0.0481
  C  C156  1  0.686100  0.138500  0.754800  1.0  -0.1206
  C  C157  1  0.780800  0.155300  0.754700  1.0  0.1338
  C  C158  1  0.127100  0.864500  0.634200  1.0  0.1392
  C  C159  1  0.192100  0.918700  0.666400  1.0  -0.146
  C  C160  1  0.289100  0.932100  0.663000  1.0  -0.1282
  C  C161  1  0.314200  0.888200  0.629100  1.0  -0.0965
  C  C162  1  0.239800  0.831400  0.597600  1.0  0.1319
  C  C163  1  0.067700  0.185400  0.658000  1.0  0.137
  C  C164  1  0.106500  0.229500  0.631500  1.0  -0.0512
  C  C165  1  0.083700  0.296300  0.629000  1.0  -0.1094
  C  C166  1  0.023400  0.317800  0.656700  1.0  -0.098
  C  C167  1  0.988200  0.269400  0.685200  1.0  0.1287
  C  C168  1  0.125500  0.341400  0.600200  1.0  0.4003
  C  C169  1  0.223200  0.358700  0.550100  1.0  0.3087
  C  C170  1  0.140500  0.440800  0.569200  1.0  0.4012
  C  C171  1  0.407200  0.350300  0.477500  1.0  0.1594
  C  C172  1  0.354000  0.379300  0.501700  1.0  -0.1361
  C  C173  1  0.288400  0.330100  0.523000  1.0  -0.0645
  C  C174  1  0.288900  0.257500  0.516900  1.0  -0.0686
  C  C175  1  0.347000  0.229800  0.491900  1.0  0.1013
  C  C176  1  0.055700  0.610200  0.589200  1.0  0.1385
  C  C177  1  0.073300  0.544800  0.594600  1.0  -0.1783
  C  C178  1  0.112800  0.507400  0.563700  1.0  -0.0967
  C  C179  1  0.126200  0.532200  0.526600  1.0  -0.167
  C  C180  1  0.102000  0.599400  0.524900  1.0  0.1313
  C  C181  1  0.743000  0.114700  0.863900  1.0  0.1741
  C  C182  1  0.751600  0.053300  0.835500  1.0  -0.176
  C  C183  1  0.837400  0.043000  0.835600  1.0  -0.0591
  C  C184  1  0.911000  0.095600  0.866300  1.0  -0.1303
  C  C185  1  0.894700  0.154900  0.894600  1.0  0.1491
  C  C186  1  0.851200  0.978900  0.804600  1.0  0.4199
  C  C187  1  0.797700  0.885700  0.743500  1.0  0.332
  C  C188  1  0.938800  0.906400  0.778200  1.0  0.321
  C  C189  1  0.698000  0.799200  0.629600  1.0  0.1355
  C  C190  1  0.760100  0.826000  0.666400  1.0  -0.1453
  C  C191  1  0.728600  0.850500  0.703700  1.0  -0.0842
  C  C192  1  0.634800  0.847300  0.702500  1.0  -0.1358
  C  C193  1  0.573700  0.817500  0.664200  1.0  0.1295
  C  C194  1  0.192800  0.915900  0.808700  1.0  0.1068
  C  C195  1  0.109500  0.932200  0.808300  1.0  -0.0992
  C  C196  1  0.029500  0.887100  0.780600  1.0  -0.1258
  C  C197  1  0.037000  0.823700  0.750100  1.0  -0.1304
  C  C198  1  0.127500  0.814400  0.751300  1.0  0.1455
  C  C199  1  0.245500  0.703000  0.815800  1.0  0.1494
  C  C200  1  0.230700  0.654300  0.842200  1.0  -0.1537
  C  C201  1  0.295800  0.673900  0.877800  1.0  -0.0648
  C  C202  1  0.368400  0.741200  0.882700  1.0  -0.112
  C  C203  1  0.377200  0.788000  0.855800  1.0  0.1416
  C  C204  1  0.284700  0.628200  0.909800  1.0  0.3992
  C  C205  1  0.192300  0.535400  0.936200  1.0  0.3772
  C  C206  1  0.343200  0.601200  0.963900  1.0  0.3792
  C  C207  1  0.987000  0.390400  0.970600  1.0  0.1104
  C  C208  1  0.073200  0.447900  0.971700  1.0  -0.119
  C  C209  1  0.099300  0.469900  0.934900  1.0  -0.0473
  C  C210  1  0.040500  0.428900  0.898000  1.0  -0.1408
  C  C211  1  0.953700  0.370400  0.899200  1.0  0.1261
  C  C212  1  0.584500  0.691700  0.031400  1.0  0.1245
  C  C213  1  0.507100  0.682100  0.003600  1.0  -0.1492
  C  C214  1  0.427200  0.615800  0.996700  1.0  -0.087
  C  C215  1  0.424100  0.563100  0.021300  1.0  -0.1476
  C  C216  1  0.503400  0.578900  0.051000  1.0  0.1266
  C  C217  1  0.586300  0.750300  0.149300  1.0  0.1581
  C  C218  1  0.558500  0.796900  0.180900  1.0  -0.1342
  C  C219  1  0.630000  0.857500  0.209900  1.0  -0.1108
  C  C220  1  0.723500  0.869700  0.205400  1.0  -0.1582
  C  C221  1  0.743700  0.817100  0.172600  1.0  0.1369
  C  C222  1  0.601800  0.909400  0.244600  1.0  0.3638
  C  C223  1  0.483800  0.938600  0.276500  1.0  0.3674
  C  C224  1  0.636200  0.009700  0.303600  1.0  0.3099
  C  C225  1  0.243000  0.945500  0.306600  1.0  0.1085
  C  C226  1  0.340600  0.962600  0.308000  1.0  -0.0623
  C  C227  1  0.378800  0.919900  0.277000  1.0  -0.047
  C  C228  1  0.313900  0.861500  0.245200  1.0  -0.1236
  C  C229  1  0.219200  0.844700  0.245300  1.0  0.133
  C  C230  1  0.872900  0.135500  0.365800  1.0  0.1401
  C  C231  1  0.807900  0.081300  0.333600  1.0  -0.1459
  C  C232  1  0.710900  0.067900  0.337000  1.0  -0.1278
  C  C233  1  0.685800  0.111800  0.370900  1.0  -0.098
  C  C234  1  0.760200  0.168600  0.402400  1.0  0.1336
  C  C235  1  0.932300  0.814600  0.342000  1.0  0.1364
  C  C236  1  0.893500  0.770500  0.368500  1.0  -0.0512
  C  C237  1  0.916300  0.703700  0.371000  1.0  -0.1091
  C  C238  1  0.976600  0.682200  0.343300  1.0  -0.0964
  C  C239  1  0.011800  0.730600  0.314800  1.0  0.1297
  C  C240  1  0.874500  0.658600  0.399800  1.0  0.3996
  C  C241  1  0.776800  0.641300  0.449900  1.0  0.3081
  C  C242  1  0.859500  0.559200  0.430800  1.0  0.402
  C  C243  1  0.592800  0.649700  0.522500  1.0  0.1595
  C  C244  1  0.646000  0.620700  0.498300  1.0  -0.1332
  C  C245  1  0.711600  0.669900  0.477000  1.0  -0.0647
  C  C246  1  0.711100  0.742500  0.483100  1.0  -0.0685
  C  C247  1  0.653000  0.770200  0.508100  1.0  0.1031
  C  C248  1  0.944300  0.389800  0.410800  1.0  0.1387
  C  C249  1  0.926700  0.455200  0.405400  1.0  -0.177
  C  C250  1  0.887200  0.492600  0.436300  1.0  -0.0951
  C  C251  1  0.873800  0.467800  0.473400  1.0  -0.1678
  C  C252  1  0.898000  0.400600  0.475100  1.0  0.1333
  I  I253  1  0.328430  0.701500  0.103220  1.0  -0.4001
  I  I254  1  0.212290  0.757120  0.993850  1.0  -0.3277
  I  I255  1  0.530170  0.038920  0.189400  1.0  -0.4697
  I  I256  1  0.678430  0.250350  0.294780  1.0  -0.4124
  I  I257  1  0.155810  0.272970  0.932570  1.0  -0.455
  I  I258  1  0.327590  0.441720  0.863210  1.0  -0.3598
  I  I259  1  0.035270  0.241130  0.801670  1.0  -0.4507
  I  I260  1  0.013940  0.023450  0.709470  1.0  -0.4142
  I  I261  1  0.639140  0.330260  0.425210  1.0  -0.4032
  I  I262  1  0.469110  0.092260  0.436420  1.0  -0.354
  I  I263  1  0.882700  0.726570  0.577480  1.0  -0.4571
  I  I264  1  0.079700  0.767530  0.482410  1.0  -0.3153
  I  I265  1  0.671570  0.298500  0.896780  1.0  -0.3998
  I  I266  1  0.787710  0.242880  0.006150  1.0  -0.3246
  I  I267  1  0.469830  0.961080  0.810600  1.0  -0.4703
  I  I268  1  0.321570  0.749650  0.705220  1.0  -0.4114
  I  I269  1  0.844190  0.727030  0.067430  1.0  -0.4575
  I  I270  1  0.672410  0.558280  0.136790  1.0  -0.3606
  I  I271  1  0.964730  0.758870  0.198330  1.0  -0.4527
  I  I272  1  0.986060  0.976550  0.290530  1.0  -0.4129
  I  I273  1  0.360860  0.669740  0.574790  1.0  -0.4041
  I  I274  1  0.530890  0.907740  0.563580  1.0  -0.3523
  I  I275  1  0.117300  0.273430  0.422520  1.0  -0.4562
  I  I276  1  0.920300  0.232470  0.517590  1.0  -0.3152
  N  N277  1  0.187400  0.831900  0.108500  1.0  -0.3085
  N  N278  1  0.218900  0.059000  0.227700  1.0  -0.4496
  N  N279  1  0.126700  0.137300  0.255100  1.0  -0.3919
  N  N280  1  0.068000  0.036800  0.190700  1.0  -0.3447
  N  N281  1  0.396300  0.205200  0.372200  1.0  -0.3261
  N  N282  1  0.796100  0.142000  0.220700  1.0  -0.3035
  N  N283  1  0.681300  0.231000  0.176900  1.0  -0.2223
  N  N284  1  0.804100  0.428000  0.093300  1.0  -0.3362
  N  N285  1  0.738400  0.455000  0.033400  1.0  -0.3792
  N  N286  1  0.642400  0.355300  0.062900  1.0  -0.3602
  N  N287  1  0.070300  0.649600  0.065600  1.0  -0.2965
  N  N288  1  0.415600  0.358100  0.944000  1.0  -0.3274
  N  N289  1  0.323100  0.241500  0.855400  1.0  -0.3299
  N  N290  1  0.493700  0.108800  0.754900  1.0  -0.4259
  N  N291  1  0.454700  0.002800  0.692800  1.0  -0.3511
  N  N292  1  0.329000  0.034600  0.727700  1.0  -0.4218
  N  N293  1  0.818000  0.114200  0.724300  1.0  -0.3304
  N  N294  1  0.147500  0.822600  0.599300  1.0  -0.3377
  N  N295  1  0.009100  0.204800  0.683800  1.0  -0.2666
  N  N296  1  0.187100  0.316800  0.577300  1.0  -0.4939
  N  N297  1  0.200400  0.420500  0.543600  1.0  -0.4087
  N  N298  1  0.103000  0.404400  0.597700  1.0  -0.4372
  N  N299  1  0.404800  0.275300  0.470800  1.0  -0.3389
  N  N300  1  0.070100  0.637300  0.555100  1.0  -0.3034
  N  N301  1  0.812600  0.168100  0.891500  1.0  -0.3083
  N  N302  1  0.781100  0.941000  0.772300  1.0  -0.4483
  N  N303  1  0.873300  0.862700  0.744900  1.0  -0.3923
  N  N304  1  0.932000  0.963200  0.809300  1.0  -0.3425
  N  N305  1  0.603700  0.794800  0.627800  1.0  -0.328
  N  N306  1  0.203900  0.858000  0.779300  1.0  -0.3046
  N  N307  1  0.318700  0.769000  0.823100  1.0  -0.231
  N  N308  1  0.195900  0.572000  0.906700  1.0  -0.3357
  N  N309  1  0.261600  0.545000  0.966600  1.0  -0.3804
  N  N310  1  0.357600  0.644700  0.937100  1.0  -0.3581
  N  N311  1  0.929700  0.350400  0.934400  1.0  -0.2967
  N  N312  1  0.584400  0.641900  0.056000  1.0  -0.3276
  N  N313  1  0.676900  0.758500  0.144600  1.0  -0.3261
  N  N314  1  0.506300  0.891200  0.245100  1.0  -0.4265
  N  N315  1  0.545300  0.997200  0.307200  1.0  -0.3508
  N  N316  1  0.671000  0.965400  0.272300  1.0  -0.4224
  N  N317  1  0.182000  0.885800  0.275700  1.0  -0.3293
  N  N318  1  0.852500  0.177400  0.400700  1.0  -0.3333
  N  N319  1  0.990900  0.795200  0.316200  1.0  -0.2672
  N  N320  1  0.812900  0.683200  0.422700  1.0  -0.4954
  N  N321  1  0.799600  0.579500  0.456400  1.0  -0.4069
  N  N322  1  0.897000  0.595600  0.402300  1.0  -0.4385
  N  N323  1  0.595200  0.724700  0.529200  1.0  -0.3377
  N  N324  1  0.929900  0.362700  0.444900  1.0  -0.302
