# generated using pymatgen
data_ZnH8C12(IN2)2
_symmetry_space_group_name_H-M   'P 1'
_cell_length_a   14.75600000
_cell_length_b   18.92120000
_cell_length_c   30.74000000
_cell_angle_alpha   101.04400000
_cell_angle_beta   90.00000000
_cell_angle_gamma   112.95000000
_symmetry_Int_Tables_number   1
_chemical_formula_structural   ZnH8C12(IN2)2
_chemical_formula_sum   'Zn12 H96 C144 I24 N48'
_cell_volume   7730.38715362
_cell_formula_units_Z   12
loop_
 _symmetry_equiv_pos_site_id
 _symmetry_equiv_pos_as_xyz
  1  'x, y, z'
loop_
 _atom_site_type_symbol
 _atom_site_label
 _atom_site_symmetry_multiplicity
 _atom_site_fract_x
 _atom_site_fract_y
 _atom_site_fract_z
 _atom_site_occupancy
 _atom_site_charge
  Zn  Zn1  1  0.711520  0.169700  0.591090  1.0  0.9074
  Zn  Zn2  1  0.978310  0.753240  0.940200  1.0  0.9038
  Zn  Zn3  1  0.031450  0.346540  0.769090  1.0  0.887
  Zn  Zn4  1  0.458180  0.169700  0.091090  1.0  0.9071
  Zn  Zn5  1  0.774930  0.753240  0.440200  1.0  0.9034
  Zn  Zn6  1  0.315090  0.346540  0.269090  1.0  0.8901
  Zn  Zn7  1  0.541820  0.830300  0.908910  1.0  0.9074
  Zn  Zn8  1  0.225070  0.246760  0.559800  1.0  0.9041
  Zn  Zn9  1  0.684910  0.653460  0.730910  1.0  0.8872
  Zn  Zn10  1  0.288480  0.830300  0.408910  1.0  0.9063
  Zn  Zn11  1  0.021690  0.246760  0.059800  1.0  0.9034
  Zn  Zn12  1  0.968550  0.653460  0.230910  1.0  0.8897
  H  H13  1  0.818300  0.323600  0.659900  1.0  0.0772
  H  H14  1  0.781300  0.398800  0.718600  1.0  0.1073
  H  H15  1  0.492600  0.258200  0.689000  1.0  0.1214
  H  H16  1  0.539400  0.182800  0.633400  1.0  0.0825
  H  H17  1  0.759100  0.671600  0.930400  1.0  0.0808
  H  H18  1  0.632600  0.575200  0.883700  1.0  0.121
  H  H19  1  0.838600  0.543000  0.804600  1.0  0.1066
  H  H20  1  0.957100  0.639800  0.852700  1.0  0.087
  H  H21  1  0.167800  0.276200  0.732600  1.0  0.0912
  H  H22  1  0.331500  0.296000  0.735100  1.0  0.1191
  H  H23  1  0.386600  0.485200  0.832700  1.0  0.1041
  H  H24  1  0.221400  0.465200  0.823600  1.0  0.0841
  H  H25  1  0.930600  0.351800  0.854200  1.0  0.0956
  H  H26  1  0.858900  0.272400  0.903600  1.0  0.1196
  H  H27  1  0.958800  0.113200  0.836100  1.0  0.1154
  H  H28  1  0.025500  0.201000  0.790200  1.0  0.0757
  H  H29  1  0.538900  0.041800  0.063000  1.0  0.1078
  H  H30  1  0.651300  0.019400  0.017200  1.0  0.1085
  H  H31  1  0.703000  0.221400  0.977500  1.0  0.1218
  H  H32  1  0.581100  0.235400  0.021000  1.0  0.0812
  H  H33  1  0.981900  0.861800  0.884800  1.0  0.0796
  H  H34  1  0.936000  0.965400  0.880200  1.0  0.1183
  H  H35  1  0.840100  0.952000  0.002800  1.0  0.1235
  H  H36  1  0.888200  0.849600  0.001800  1.0  0.0776
  H  H37  1  0.505300  0.323600  0.159900  1.0  0.0777
  H  H38  1  0.617500  0.398800  0.218600  1.0  0.1079
  H  H39  1  0.765600  0.258200  0.189000  1.0  0.1201
  H  H40  1  0.643400  0.182800  0.133400  1.0  0.0829
  H  H41  1  0.912500  0.671600  0.430400  1.0  0.0809
  H  H42  1  0.942600  0.575200  0.383700  1.0  0.1199
  H  H43  1  0.704400  0.543000  0.304600  1.0  0.1068
  H  H44  1  0.682700  0.639800  0.352700  1.0  0.0873
  H  H45  1  0.108400  0.276200  0.232600  1.0  0.0915
  H  H46  1  0.964500  0.296000  0.235100  1.0  0.119
  H  H47  1  0.098600  0.485200  0.332700  1.0  0.1041
  H  H48  1  0.243800  0.465200  0.323600  1.0  0.0836
  H  H49  1  0.421200  0.351800  0.354200  1.0  0.0961
  H  H50  1  0.413500  0.272400  0.403600  1.0  0.1192
  H  H51  1  0.154400  0.113200  0.336100  1.0  0.1147
  H  H52  1  0.175500  0.201000  0.290200  1.0  0.076
  H  H53  1  0.502900  0.041800  0.563000  1.0  0.1078
  H  H54  1  0.368100  0.019400  0.517200  1.0  0.1083
  H  H55  1  0.518400  0.221400  0.477500  1.0  0.1216
  H  H56  1  0.654300  0.235400  0.521000  1.0  0.0817
  H  H57  1  0.879900  0.861800  0.384800  1.0  0.0792
  H  H58  1  0.029400  0.965400  0.380200  1.0  0.1183
  H  H59  1  0.111900  0.952000  0.502800  1.0  0.1233
  H  H60  1  0.961400  0.849600  0.501800  1.0  0.0771
  H  H61  1  0.494700  0.676400  0.840100  1.0  0.0769
  H  H62  1  0.382500  0.601200  0.781400  1.0  0.1079
  H  H63  1  0.234400  0.741800  0.811000  1.0  0.1213
  H  H64  1  0.356600  0.817200  0.866600  1.0  0.0831
  H  H65  1  0.087500  0.328400  0.569600  1.0  0.0803
  H  H66  1  0.057400  0.424800  0.616300  1.0  0.1208
  H  H67  1  0.295600  0.457000  0.695400  1.0  0.1051
  H  H68  1  0.317300  0.360200  0.647300  1.0  0.0872
  H  H69  1  0.891600  0.723800  0.767400  1.0  0.0915
  H  H70  1  0.035500  0.704000  0.764900  1.0  0.1191
  H  H71  1  0.901400  0.514800  0.667300  1.0  0.1034
  H  H72  1  0.756200  0.534800  0.676400  1.0  0.085
  H  H73  1  0.578800  0.648200  0.645800  1.0  0.0958
  H  H74  1  0.586500  0.727600  0.596400  1.0  0.1195
  H  H75  1  0.845600  0.886800  0.663900  1.0  0.115
  H  H76  1  0.824500  0.799000  0.709800  1.0  0.0767
  H  H77  1  0.497100  0.958200  0.437000  1.0  0.108
  H  H78  1  0.631900  0.980600  0.482800  1.0  0.1081
  H  H79  1  0.481600  0.778600  0.522500  1.0  0.1219
  H  H80  1  0.345700  0.764600  0.479000  1.0  0.0812
  H  H81  1  0.120100  0.138200  0.615200  1.0  0.0798
  H  H82  1  0.970600  0.034600  0.619800  1.0  0.1185
  H  H83  1  0.888100  0.048000  0.497200  1.0  0.1229
  H  H84  1  0.038600  0.150400  0.498200  1.0  0.0776
  H  H85  1  0.181700  0.676400  0.340100  1.0  0.0772
  H  H86  1  0.218700  0.601200  0.281400  1.0  0.1081
  H  H87  1  0.507400  0.741800  0.311000  1.0  0.1207
  H  H88  1  0.460600  0.817200  0.366600  1.0  0.0829
  H  H89  1  0.240900  0.328400  0.069600  1.0  0.0804
  H  H90  1  0.367400  0.424800  0.116300  1.0  0.1199
  H  H91  1  0.161400  0.457000  0.195400  1.0  0.1054
  H  H92  1  0.042900  0.360200  0.147300  1.0  0.0875
  H  H93  1  0.832200  0.723800  0.267400  1.0  0.0914
  H  H94  1  0.668500  0.704000  0.264900  1.0  0.1194
  H  H95  1  0.613400  0.514800  0.167300  1.0  0.1032
  H  H96  1  0.778600  0.534800  0.176400  1.0  0.0844
  H  H97  1  0.069400  0.648200  0.145800  1.0  0.0961
  H  H98  1  0.141100  0.727600  0.096400  1.0  0.1192
  H  H99  1  0.041200  0.886800  0.163900  1.0  0.1149
  H  H100  1  0.974500  0.799000  0.209800  1.0  0.0767
  H  H101  1  0.461100  0.958200  0.937000  1.0  0.1079
  H  H102  1  0.348700  0.980600  0.982800  1.0  0.1085
  H  H103  1  0.297000  0.778600  0.022500  1.0  0.1217
  H  H104  1  0.418900  0.764600  0.979000  1.0  0.0814
  H  H105  1  0.018100  0.138200  0.115200  1.0  0.0801
  H  H106  1  0.064000  0.034600  0.119800  1.0  0.1191
  H  H107  1  0.159900  0.048000  0.997200  1.0  0.1229
  H  H108  1  0.111800  0.150400  0.998200  1.0  0.078
  C  C109  1  0.751300  0.309400  0.666400  1.0  0.1431
  C  C110  1  0.729800  0.354400  0.701100  1.0  -0.1419
  C  C111  1  0.631400  0.335400  0.711200  1.0  -0.0993
  C  C112  1  0.560500  0.272000  0.684500  1.0  -0.1242
  C  C113  1  0.589300  0.228400  0.650800  1.0  0.1666
  C  C114  1  0.774600  0.644400  0.904100  1.0  0.165
  C  C115  1  0.699000  0.586800  0.877000  1.0  -0.1545
  C  C116  1  0.720800  0.545400  0.839000  1.0  -0.0776
  C  C117  1  0.820600  0.568600  0.830700  1.0  -0.1571
  C  C118  1  0.890000  0.626000  0.859000  1.0  0.1499
  C  C119  1  0.213800  0.320400  0.752700  1.0  0.1461
  C  C120  1  0.310500  0.331200  0.754400  1.0  -0.1614
  C  C121  1  0.378300  0.394400  0.784400  1.0  -0.0551
  C  C122  1  0.343200  0.442400  0.810900  1.0  -0.1053
  C  C123  1  0.243900  0.429200  0.806000  1.0  0.1281
  C  C124  1  0.603500  0.382800  0.747700  1.0  0.4052
  C  C125  1  0.644600  0.482200  0.807200  1.0  0.3516
  C  C126  1  0.484100  0.409400  0.783700  1.0  0.3335
  C  C127  1  0.933200  0.301600  0.850000  1.0  0.1418
  C  C128  1  0.891900  0.255400  0.880000  1.0  -0.1418
  C  C129  1  0.899400  0.182800  0.875000  1.0  -0.1356
  C  C130  1  0.950300  0.161200  0.840500  1.0  -0.1615
  C  C131  1  0.987800  0.214000  0.813000  1.0  0.1781
  C  C132  1  0.572300  0.078600  0.045200  1.0  0.11
  C  C133  1  0.639400  0.065600  0.018400  1.0  -0.1301
  C  C134  1  0.690500  0.118000  0.993000  1.0  -0.1092
  C  C135  1  0.669300  0.183400  0.994500  1.0  -0.163
  C  C136  1  0.598100  0.192000  0.021200  1.0  0.136
  C  C137  1  0.952300  0.880800  0.909200  1.0  0.1507
  C  C138  1  0.926600  0.943200  0.906000  1.0  -0.1388
  C  C139  1  0.887100  0.970600  0.942200  1.0  -0.0792
  C  C140  1  0.870200  0.934800  0.978000  1.0  -0.1875
  C  C141  1  0.898500  0.873600  0.976700  1.0  0.1529
  C  C142  1  0.861400  0.133800  0.908400  1.0  0.3721
  C  C143  1  0.764900  0.103600  0.964500  1.0  0.3828
  C  C144  1  0.858600  0.038000  0.939900  1.0  0.3283
  C  C145  1  0.558100  0.309400  0.166400  1.0  0.1436
  C  C146  1  0.624600  0.354400  0.201100  1.0  -0.1416
  C  C147  1  0.704000  0.335400  0.211200  1.0  -0.099
  C  C148  1  0.711500  0.272000  0.184500  1.0  -0.1251
  C  C149  1  0.639100  0.228400  0.150800  1.0  0.1663
  C  C150  1  0.869800  0.644400  0.404100  1.0  0.1645
  C  C151  1  0.887800  0.586800  0.377000  1.0  -0.1548
  C  C152  1  0.824600  0.545400  0.339000  1.0  -0.0768
  C  C153  1  0.748000  0.568600  0.330700  1.0  -0.1572
  C  C154  1  0.736000  0.626000  0.359000  1.0  0.1513
  C  C155  1  0.106600  0.320400  0.252700  1.0  0.1472
  C  C156  1  0.020700  0.331200  0.254400  1.0  -0.1597
  C  C157  1  0.016100  0.394400  0.284400  1.0  -0.0572
  C  C158  1  0.099200  0.442400  0.310900  1.0  -0.1067
  C  C159  1  0.185300  0.429200  0.306000  1.0  0.1288
  C  C160  1  0.779300  0.382800  0.247700  1.0  0.4053
  C  C161  1  0.837600  0.482200  0.307200  1.0  0.3518
  C  C162  1  0.925300  0.409400  0.283700  1.0  0.3329
  C  C163  1  0.368400  0.301600  0.350000  1.0  0.1427
  C  C164  1  0.363500  0.255400  0.380000  1.0  -0.1416
  C  C165  1  0.283400  0.182800  0.375000  1.0  -0.1357
  C  C166  1  0.210900  0.161200  0.340500  1.0  -0.161
  C  C167  1  0.226200  0.214000  0.313000  1.0  0.1783
  C  C168  1  0.506300  0.078600  0.545200  1.0  0.1117
  C  C169  1  0.426200  0.065600  0.518400  1.0  -0.1296
  C  C170  1  0.427500  0.118000  0.493000  1.0  -0.1084
  C  C171  1  0.514100  0.183400  0.494500  1.0  -0.1639
  C  C172  1  0.593900  0.192000  0.521200  1.0  0.1368
  C  C173  1  0.928500  0.880800  0.409200  1.0  0.1515
  C  C174  1  0.016600  0.943200  0.406000  1.0  -0.1379
  C  C175  1  0.083500  0.970600  0.442200  1.0  -0.0802
  C  C176  1  0.064600  0.934800  0.478000  1.0  -0.1855
  C  C177  1  0.975100  0.873600  0.476700  1.0  0.153
  C  C178  1  0.272400  0.133800  0.408400  1.0  0.3726
  C  C179  1  0.338700  0.103600  0.464500  1.0  0.3832
  C  C180  1  0.179400  0.038000  0.439900  1.0  0.3284
  C  C181  1  0.441900  0.690600  0.833600  1.0  0.1435
  C  C182  1  0.375400  0.645600  0.798900  1.0  -0.1427
  C  C183  1  0.296000  0.664600  0.788800  1.0  -0.0985
  C  C184  1  0.288500  0.728000  0.815500  1.0  -0.1241
  C  C185  1  0.360900  0.771600  0.849200  1.0  0.1663
  C  C186  1  0.130200  0.355600  0.595900  1.0  0.1619
  C  C187  1  0.112200  0.413200  0.623000  1.0  -0.1536
  C  C188  1  0.175400  0.454600  0.661000  1.0  -0.0749
  C  C189  1  0.252000  0.431400  0.669300  1.0  -0.1587
  C  C190  1  0.264000  0.374000  0.641000  1.0  0.151
  C  C191  1  0.893400  0.679600  0.747300  1.0  0.1467
  C  C192  1  0.979300  0.668800  0.745600  1.0  -0.1605
  C  C193  1  0.983900  0.605600  0.715600  1.0  -0.0564
  C  C194  1  0.900800  0.557600  0.689100  1.0  -0.1046
  C  C195  1  0.814700  0.570800  0.694000  1.0  0.1288
  C  C196  1  0.220700  0.617200  0.752300  1.0  0.4049
  C  C197  1  0.162400  0.517800  0.692800  1.0  0.3507
  C  C198  1  0.074700  0.590600  0.716300  1.0  0.3318
  C  C199  1  0.631600  0.698400  0.650000  1.0  0.1407
  C  C200  1  0.636500  0.744600  0.620000  1.0  -0.1413
  C  C201  1  0.716600  0.817200  0.625000  1.0  -0.1351
  C  C202  1  0.789100  0.838800  0.659500  1.0  -0.1614
  C  C203  1  0.773800  0.786000  0.687000  1.0  0.1777
  C  C204  1  0.493700  0.921400  0.454800  1.0  0.1091
  C  C205  1  0.573800  0.934400  0.481600  1.0  -0.1307
  C  C206  1  0.572500  0.882000  0.507000  1.0  -0.109
  C  C207  1  0.485900  0.816600  0.505500  1.0  -0.1648
  C  C208  1  0.406100  0.808000  0.478800  1.0  0.1373
  C  C209  1  0.071500  0.119200  0.590800  1.0  0.152
  C  C210  1  0.983400  0.056800  0.594000  1.0  -0.139
  C  C211  1  0.916500  0.029400  0.557800  1.0  -0.0785
  C  C212  1  0.935400  0.065200  0.522000  1.0  -0.1876
  C  C213  1  0.024900  0.126400  0.523300  1.0  0.1518
  C  C214  1  0.727600  0.866200  0.591600  1.0  0.3725
  C  C215  1  0.661300  0.896400  0.535500  1.0  0.3828
  C  C216  1  0.820600  0.962000  0.560100  1.0  0.3286
  C  C217  1  0.248700  0.690600  0.333600  1.0  0.1441
  C  C218  1  0.270200  0.645600  0.298900  1.0  -0.1422
  C  C219  1  0.368600  0.664600  0.288800  1.0  -0.0985
  C  C220  1  0.439500  0.728000  0.315500  1.0  -0.1242
  C  C221  1  0.410700  0.771600  0.349200  1.0  0.1664
  C  C222  1  0.225400  0.355600  0.095900  1.0  0.1603
  C  C223  1  0.301000  0.413200  0.123000  1.0  -0.1538
  C  C224  1  0.279200  0.454600  0.161000  1.0  -0.0745
  C  C225  1  0.179400  0.431400  0.169300  1.0  -0.1572
  C  C226  1  0.110000  0.374000  0.141000  1.0  0.1525
  C  C227  1  0.786200  0.679600  0.247300  1.0  0.1481
  C  C228  1  0.689500  0.668800  0.245600  1.0  -0.1601
  C  C229  1  0.621700  0.605600  0.215600  1.0  -0.0577
  C  C230  1  0.656800  0.557600  0.189100  1.0  -0.1051
  C  C231  1  0.756100  0.570800  0.194000  1.0  0.1276
  C  C232  1  0.396500  0.617200  0.252300  1.0  0.4051
  C  C233  1  0.355400  0.517800  0.192800  1.0  0.3509
  C  C234  1  0.515900  0.590600  0.216300  1.0  0.3327
  C  C235  1  0.066800  0.698400  0.150000  1.0  0.1416
  C  C236  1  0.108100  0.744600  0.120000  1.0  -0.1413
  C  C237  1  0.100600  0.817200  0.125000  1.0  -0.1352
  C  C238  1  0.049700  0.838800  0.159500  1.0  -0.1621
  C  C239  1  0.012200  0.786000  0.187000  1.0  0.1776
  C  C240  1  0.427700  0.921400  0.954800  1.0  0.1103
  C  C241  1  0.360600  0.934400  0.981600  1.0  -0.1297
  C  C242  1  0.309500  0.882000  0.007000  1.0  -0.1087
  C  C243  1  0.330700  0.816600  0.005500  1.0  -0.1663
  C  C244  1  0.401900  0.808000  0.978800  1.0  0.137
  C  C245  1  0.047700  0.119200  0.090800  1.0  0.1515
  C  C246  1  0.073400  0.056800  0.094000  1.0  -0.1388
  C  C247  1  0.112900  0.029400  0.057800  1.0  -0.079
  C  C248  1  0.129800  0.065200  0.022000  1.0  -0.1872
  C  C249  1  0.101500  0.126400  0.023300  1.0  0.1515
  C  C250  1  0.138600  0.866200  0.091600  1.0  0.3723
  C  C251  1  0.235100  0.896400  0.035500  1.0  0.3835
  C  C252  1  0.141400  0.962000  0.060100  1.0  0.3289
  I  I253  1  0.678390  0.054360  0.628780  1.0  -0.3671
  I  I254  1  0.860920  0.244520  0.554770  1.0  -0.3792
  I  I255  1  0.951150  0.713040  0.013470  1.0  -0.3585
  I  I256  1  0.136380  0.785340  0.902020  1.0  -0.4209
  I  I257  1  0.003110  0.470720  0.794680  1.0  -0.4116
  I  I258  1  0.971020  0.260200  0.692130  1.0  -0.4153
  I  I259  1  0.375970  0.054360  0.128780  1.0  -0.3674
  I  I260  1  0.383600  0.244520  0.054770  1.0  -0.3795
  I  I261  1  0.761890  0.713040  0.513470  1.0  -0.3591
  I  I262  1  0.648960  0.785340  0.402020  1.0  -0.4213
  I  I263  1  0.467610  0.470720  0.294680  1.0  -0.4123
  I  I264  1  0.289180  0.260200  0.192130  1.0  -0.4151
  I  I265  1  0.624030  0.945640  0.871220  1.0  -0.3662
  I  I266  1  0.616400  0.755480  0.945230  1.0  -0.3785
  I  I267  1  0.238110  0.286960  0.486530  1.0  -0.3609
  I  I268  1  0.351040  0.214660  0.597980  1.0  -0.4215
  I  I269  1  0.532390  0.529280  0.705320  1.0  -0.4115
  I  I270  1  0.710820  0.739800  0.807870  1.0  -0.4151
  I  I271  1  0.321610  0.945640  0.371220  1.0  -0.3668
  I  I272  1  0.139080  0.755480  0.445230  1.0  -0.3783
  I  I273  1  0.048850  0.286960  0.986530  1.0  -0.3617
  I  I274  1  0.863620  0.214660  0.097980  1.0  -0.4218
  I  I275  1  0.996890  0.529280  0.205320  1.0  -0.4122
  I  I276  1  0.028980  0.739800  0.307870  1.0  -0.4152
  N  N277  1  0.681670  0.245340  0.640800  1.0  -0.3133
  N  N278  1  0.869710  0.665420  0.896200  1.0  -0.3207
  N  N279  1  0.180970  0.369540  0.778200  1.0  -0.2878
  N  N280  1  0.676200  0.442800  0.774150  1.0  -0.5058
  N  N281  1  0.548070  0.467540  0.814300  1.0  -0.3474
  N  N282  1  0.506800  0.361600  0.751510  1.0  -0.4941
  N  N283  1  0.977170  0.279140  0.815000  1.0  -0.3178
  N  N284  1  0.551500  0.143000  0.047200  1.0  -0.3184
  N  N285  1  0.939040  0.845880  0.943100  1.0  -0.2942
  N  N286  1  0.794860  0.149520  0.933800  1.0  -0.4379
  N  N287  1  0.795730  0.050260  0.970340  1.0  -0.3768
  N  N288  1  0.891490  0.077180  0.908500  1.0  -0.355
  N  N289  1  0.563670  0.245340  0.140800  1.0  -0.3154
  N  N290  1  0.795710  0.665420  0.396200  1.0  -0.3219
  N  N291  1  0.188570  0.369540  0.278200  1.0  -0.2867
  N  N292  1  0.766600  0.442800  0.274150  1.0  -0.5054
  N  N293  1  0.919470  0.467540  0.314300  1.0  -0.3475
  N  N294  1  0.854800  0.361600  0.251510  1.0  -0.4934
  N  N295  1  0.301970  0.279140  0.315000  1.0  -0.3184
  N  N296  1  0.591500  0.143000  0.547200  1.0  -0.3193
  N  N297  1  0.906840  0.845880  0.443100  1.0  -0.2957
  N  N298  1  0.354660  0.149520  0.433800  1.0  -0.4397
  N  N299  1  0.254530  0.050260  0.470340  1.0  -0.3768
  N  N300  1  0.185690  0.077180  0.408500  1.0  -0.356
  N  N301  1  0.436330  0.754660  0.859200  1.0  -0.3144
  N  N302  1  0.204290  0.334580  0.603800  1.0  -0.3214
  N  N303  1  0.811430  0.630460  0.721800  1.0  -0.2879
  N  N304  1  0.233400  0.557200  0.725850  1.0  -0.5067
  N  N305  1  0.080530  0.532460  0.685700  1.0  -0.3485
  N  N306  1  0.145200  0.638400  0.748490  1.0  -0.4914
  N  N307  1  0.698030  0.720860  0.685000  1.0  -0.316
  N  N308  1  0.408500  0.857000  0.452800  1.0  -0.319
  N  N309  1  0.093160  0.154120  0.556900  1.0  -0.2946
  N  N310  1  0.645340  0.850480  0.566200  1.0  -0.4379
  N  N311  1  0.745470  0.949740  0.529660  1.0  -0.3764
  N  N312  1  0.814310  0.922820  0.591500  1.0  -0.3559
  N  N313  1  0.318330  0.754660  0.359200  1.0  -0.3158
  N  N314  1  0.130290  0.334580  0.103800  1.0  -0.3219
  N  N315  1  0.819030  0.630460  0.221800  1.0  -0.2877
  N  N316  1  0.323800  0.557200  0.225850  1.0  -0.5054
  N  N317  1  0.451930  0.532460  0.185700  1.0  -0.349
  N  N318  1  0.493200  0.638400  0.248490  1.0  -0.4914
  N  N319  1  0.022830  0.720860  0.185000  1.0  -0.3167
  N  N320  1  0.448500  0.857000  0.952800  1.0  -0.3189
  N  N321  1  0.060960  0.154120  0.056900  1.0  -0.2944
  N  N322  1  0.205140  0.850480  0.066200  1.0  -0.4388
  N  N323  1  0.204270  0.949740  0.029660  1.0  -0.3765
  N  N324  1  0.108510  0.922820  0.091500  1.0  -0.3566
