# generated using pymatgen
data_ZnH8C12(IN2)2
_symmetry_space_group_name_H-M   'P 1'
_cell_length_a   14.95200000
_cell_length_b   18.58400000
_cell_length_c   30.23160000
_cell_angle_alpha   98.81970000
_cell_angle_beta   92.08680000
_cell_angle_gamma   111.61500000
_symmetry_Int_Tables_number   1
_chemical_formula_structural   ZnH8C12(IN2)2
_chemical_formula_sum   'Zn12 H96 C144 I24 N48'
_cell_volume   7677.78059295
_cell_formula_units_Z   12
loop_
 _symmetry_equiv_pos_site_id
 _symmetry_equiv_pos_as_xyz
  1  'x, y, z'
loop_
 _atom_site_type_symbol
 _atom_site_label
 _atom_site_symmetry_multiplicity
 _atom_site_fract_x
 _atom_site_fract_y
 _atom_site_fract_z
 _atom_site_occupancy
 _atom_site_charge
  Zn  Zn1  1  0.465010  0.674010  0.215010  1.0  0.8584
  Zn  Zn2  1  0.556410  0.296710  0.027710  1.0  0.8681
  Zn  Zn3  1  0.048890  0.843580  0.907970  1.0  0.8739
  Zn  Zn4  1  0.176520  0.642620  0.739520  1.0  0.8984
  Zn  Zn5  1  0.714370  0.243750  0.566250  1.0  0.8948
  Zn  Zn6  1  0.792650  0.841370  0.403670  1.0  0.8608
  Zn  Zn7  1  0.534990  0.325990  0.784990  1.0  0.8576
  Zn  Zn8  1  0.443590  0.703290  0.972290  1.0  0.8697
  Zn  Zn9  1  0.951110  0.156420  0.092030  1.0  0.8725
  Zn  Zn10  1  0.823480  0.357380  0.260480  1.0  0.8999
  Zn  Zn11  1  0.285630  0.756250  0.433750  1.0  0.894
  Zn  Zn12  1  0.207350  0.158630  0.596330  1.0  0.8639
  H  H13  1  0.334300  0.748100  0.257500  1.0  0.0924
  H  H14  1  0.170500  0.728000  0.256900  1.0  0.1224
  H  H15  1  0.114600  0.543100  0.156700  1.0  0.1159
  H  H16  1  0.278600  0.564600  0.160100  1.0  0.1027
  H  H17  1  0.690500  0.708500  0.324100  1.0  0.079
  H  H18  1  0.724400  0.623200  0.269800  1.0  0.1039
  H  H19  1  0.006300  0.746500  0.306900  1.0  0.1138
  H  H20  1  0.959800  0.820300  0.362000  1.0  0.0782
  H  H21  1  0.763600  0.344000  0.060000  1.0  0.1014
  H  H22  1  0.875600  0.429400  0.117100  1.0  0.0885
  H  H23  1  0.673500  0.495900  0.174600  1.0  0.1048
  H  H24  1  0.569700  0.411300  0.114800  1.0  0.0979
  H  H25  1  0.621700  0.182000  0.972200  1.0  0.0798
  H  H26  1  0.666000  0.077300  0.971400  1.0  0.1126
  H  H27  1  0.566200  0.068400  0.093000  1.0  0.112
  H  H28  1  0.542000  0.181600  0.090900  1.0  0.072
  H  H29  1  0.950300  0.804400  0.987900  1.0  0.0908
  H  H30  1  0.815400  0.811100  0.022100  1.0  0.1185
  H  H31  1  0.848600  0.003900  0.962400  1.0  0.1208
  H  H32  1  0.971700  0.978400  0.926700  1.0  0.0801
  H  H33  1  0.455900  0.814700  0.185000  1.0  0.074
  H  H34  1  0.503100  0.893300  0.133200  1.0  0.1254
  H  H35  1  0.656300  0.766100  0.091400  1.0  0.0948
  H  H36  1  0.593000  0.684600  0.140300  1.0  0.1002
  H  H37  1  0.860000  0.826900  0.866600  1.0  0.0865
  H  H38  1  0.728800  0.742200  0.814200  1.0  0.1131
  H  H39  1  0.875300  0.592900  0.796300  1.0  0.1122
  H  H40  1  0.995900  0.682800  0.849400  1.0  0.0651
  H  H41  1  0.253000  0.529900  0.681100  1.0  0.0957
  H  H42  1  0.396400  0.509600  0.677600  1.0  0.1032
  H  H43  1  0.514100  0.681500  0.784400  1.0  0.1203
  H  H44  1  0.365300  0.689800  0.789200  1.0  0.0757
  H  H45  1  0.817200  0.359000  0.651100  1.0  0.0897
  H  H46  1  0.794400  0.453600  0.702700  1.0  0.0822
  H  H47  1  0.536200  0.407000  0.636500  1.0  0.1083
  H  H48  1  0.570100  0.317700  0.582100  1.0  0.0833
  H  H49  1  0.529700  0.150800  0.497900  1.0  0.1187
  H  H50  1  0.392800  0.039600  0.495700  1.0  0.0879
  H  H51  1  0.459000  0.030200  0.622700  1.0  0.1007
  H  H52  1  0.606700  0.128400  0.622300  1.0  0.0761
  H  H53  1  0.865200  0.765400  0.469900  1.0  0.091
  H  H54  1  0.991200  0.775500  0.520500  1.0  0.1134
  H  H55  1  0.136300  0.981400  0.475600  1.0  0.1158
  H  H56  1  0.997400  0.963800  0.431300  1.0  0.0954
  H  H57  1  0.309300  0.791200  0.720100  1.0  0.1067
  H  H58  1  0.350100  0.850500  0.658300  1.0  0.0925
  H  H59  1  0.089900  0.716700  0.595800  1.0  0.1124
  H  H60  1  0.072400  0.637700  0.650600  1.0  0.1009
  H  H61  1  0.665700  0.251900  0.742500  1.0  0.0934
  H  H62  1  0.829500  0.272000  0.743100  1.0  0.122
  H  H63  1  0.885400  0.456900  0.843300  1.0  0.1165
  H  H64  1  0.721400  0.435400  0.839900  1.0  0.1032
  H  H65  1  0.309500  0.291500  0.675900  1.0  0.0782
  H  H66  1  0.275600  0.376800  0.730200  1.0  0.1033
  H  H67  1  0.993700  0.253500  0.693100  1.0  0.1135
  H  H68  1  0.040200  0.179700  0.638000  1.0  0.0778
  H  H69  1  0.236400  0.656000  0.940000  1.0  0.1017
  H  H70  1  0.124400  0.570600  0.882900  1.0  0.0901
  H  H71  1  0.326500  0.504100  0.825400  1.0  0.1045
  H  H72  1  0.430300  0.588700  0.885200  1.0  0.0974
  H  H73  1  0.378300  0.818000  0.027800  1.0  0.0793
  H  H74  1  0.334000  0.922700  0.028600  1.0  0.1133
  H  H75  1  0.433800  0.931600  0.907000  1.0  0.1124
  H  H76  1  0.458000  0.818400  0.909100  1.0  0.0726
  H  H77  1  0.049700  0.195600  0.012100  1.0  0.0907
  H  H78  1  0.184600  0.188900  0.977900  1.0  0.1187
  H  H79  1  0.151400  0.996100  0.037600  1.0  0.1207
  H  H80  1  0.028300  0.021600  0.073300  1.0  0.0807
  H  H81  1  0.544100  0.185300  0.815000  1.0  0.0737
  H  H82  1  0.496900  0.106700  0.866800  1.0  0.1254
  H  H83  1  0.343700  0.233900  0.908600  1.0  0.0953
  H  H84  1  0.407000  0.315400  0.859700  1.0  0.1
  H  H85  1  0.140000  0.173100  0.133400  1.0  0.0867
  H  H86  1  0.271200  0.257800  0.185800  1.0  0.1132
  H  H87  1  0.124700  0.407100  0.203700  1.0  0.1121
  H  H88  1  0.004100  0.317200  0.150600  1.0  0.0658
  H  H89  1  0.747000  0.470100  0.318900  1.0  0.0959
  H  H90  1  0.603600  0.490400  0.322400  1.0  0.1039
  H  H91  1  0.485900  0.318500  0.215600  1.0  0.1207
  H  H92  1  0.634700  0.310200  0.210800  1.0  0.0755
  H  H93  1  0.182800  0.641000  0.348900  1.0  0.091
  H  H94  1  0.205600  0.546400  0.297300  1.0  0.0832
  H  H95  1  0.463800  0.593000  0.363500  1.0  0.1083
  H  H96  1  0.429900  0.682300  0.417900  1.0  0.0836
  H  H97  1  0.470300  0.849200  0.502100  1.0  0.1186
  H  H98  1  0.607200  0.960400  0.504300  1.0  0.0871
  H  H99  1  0.541000  0.969800  0.377300  1.0  0.1012
  H  H100  1  0.393300  0.871600  0.377700  1.0  0.0755
  H  H101  1  0.134800  0.234600  0.530100  1.0  0.0916
  H  H102  1  0.008800  0.224500  0.479500  1.0  0.1122
  H  H103  1  0.863700  0.018600  0.524400  1.0  0.1153
  H  H104  1  0.002600  0.036200  0.568700  1.0  0.0945
  H  H105  1  0.690700  0.208800  0.279900  1.0  0.1058
  H  H106  1  0.649900  0.149500  0.341700  1.0  0.0922
  H  H107  1  0.910100  0.283300  0.404200  1.0  0.1122
  H  H108  1  0.927600  0.362300  0.349400  1.0  0.1015
  C  C109  1  0.287900  0.704600  0.237800  1.0  0.1391
  C  C110  1  0.191700  0.693200  0.237800  1.0  -0.0699
  C  C111  1  0.127800  0.629000  0.208800  1.0  -0.1219
  C  C112  1  0.159300  0.583700  0.178700  1.0  -0.0905
  C  C113  1  0.255900  0.596900  0.180300  1.0  0.1037
  C  C114  1  0.019800  0.609300  0.208300  1.0  0.3215
  C  C115  1  0.898500  0.634900  0.243800  1.0  0.3551
  C  C116  1  0.867100  0.544900  0.182000  1.0  0.3862
  C  C117  1  0.755300  0.711800  0.323200  1.0  0.1319
  C  C118  1  0.775500  0.664600  0.288700  1.0  -0.1311
  C  C119  1  0.869400  0.677500  0.281700  1.0  -0.0846
  C  C120  1  0.939700  0.735000  0.310200  1.0  -0.1686
  C  C121  1  0.910300  0.776000  0.344200  1.0  0.1666
  C  C122  1  0.744400  0.375400  0.082500  1.0  0.0901
  C  C123  1  0.811000  0.427200  0.116500  1.0  -0.0862
  C  C124  1  0.789700  0.476000  0.149700  1.0  -0.1124
  C  C125  1  0.695300  0.468000  0.151200  1.0  -0.0843
  C  C126  1  0.634900  0.415400  0.115300  1.0  0.1155
  C  C127  1  0.612200  0.159400  0.998600  1.0  0.1033
  C  C128  1  0.637600  0.095200  0.996200  1.0  -0.1042
  C  C129  1  0.618400  0.059600  0.032900  1.0  -0.0837
  C  C130  1  0.581000  0.092600  0.067300  1.0  -0.1924
  C  C131  1  0.564300  0.159500  0.065200  1.0  0.1353
  C  C132  1  0.647800  0.988900  0.039500  1.0  0.3136
  C  C133  1  0.736600  0.923100  0.022000  1.0  0.3214
  C  C134  1  0.635900  0.890900  0.075000  1.0  0.5564
  C  C135  1  0.923200  0.840500  0.980600  1.0  0.1305
  C  C136  1  0.847700  0.847300  0.003400  1.0  -0.1157
  C  C137  1  0.821500  0.909400  0.997600  1.0  -0.1566
  C  C138  1  0.866200  0.961300  0.967100  1.0  -0.1307
  C  C139  1  0.936600  0.943700  0.945600  1.0  0.1472
  C  C140  1  0.496900  0.802500  0.164400  1.0  0.1561
  C  C141  1  0.527300  0.852900  0.134300  1.0  -0.1512
  C  C142  1  0.593800  0.843600  0.105600  1.0  0.0135
  C  C143  1  0.612800  0.778200  0.110500  1.0  -0.0985
  C  C144  1  0.575500  0.728800  0.140300  1.0  0.0835
  C  C145  1  0.861100  0.778200  0.851900  1.0  0.1391
  C  C146  1  0.783500  0.729800  0.820600  1.0  -0.1116
  C  C147  1  0.793600  0.661100  0.799400  1.0  -0.0778
  C  C148  1  0.870900  0.640900  0.810100  1.0  -0.1341
  C  C149  1  0.941100  0.694600  0.842000  1.0  0.1569
  C  C150  1  0.710400  0.608100  0.763700  1.0  0.1926
  C  C151  1  0.563200  0.574600  0.731400  1.0  0.2437
  C  C152  1  0.650300  0.505800  0.707200  1.0  0.3735
  C  C153  1  0.305400  0.559300  0.703500  1.0  0.1015
  C  C154  1  0.391100  0.547200  0.701400  1.0  -0.1135
  C  C155  1  0.468500  0.588300  0.732900  1.0  -0.088
  C  C156  1  0.460200  0.646500  0.764200  1.0  -0.1557
  C  C157  1  0.372100  0.652700  0.765500  1.0  0.143
  C  C158  1  0.759600  0.368900  0.647600  1.0  0.1127
  C  C159  1  0.745400  0.425300  0.678600  1.0  -0.0807
  C  C160  1  0.664000  0.442600  0.676300  1.0  -0.1162
  C  C161  1  0.595300  0.399400  0.639800  1.0  -0.1392
  C  C162  1  0.615100  0.344100  0.607900  1.0  0.1403
  C  C163  1  0.518300  0.124000  0.522700  1.0  0.1099
  C  C164  1  0.436100  0.059000  0.522400  1.0  -0.0776
  C  C165  1  0.411700  0.019800  0.557800  1.0  -0.0091
  C  C166  1  0.475300  0.051100  0.596000  1.0  -0.181
  C  C167  1  0.562000  0.112300  0.596200  1.0  0.1232
  C  C168  1  0.321600  0.954700  0.556000  1.0  0.3187
  C  C169  1  0.162400  0.894900  0.533000  1.0  0.3797
  C  C170  1  0.226200  0.854600  0.590100  1.0  0.3937
  C  C171  1  0.921200  0.812300  0.473200  1.0  0.1046
  C  C172  1  0.995700  0.814700  0.502900  1.0  -0.0878
  C  C173  1  0.076800  0.881000  0.503600  1.0  -0.093
  C  C174  1  0.078600  0.937000  0.475800  1.0  -0.1477
  C  C175  1  0.995900  0.925900  0.449400  1.0  0.1288
  C  C176  1  0.271000  0.770500  0.692000  1.0  0.1145
  C  C177  1  0.287600  0.811700  0.658600  1.0  -0.0998
  C  C178  1  0.217900  0.800400  0.625100  1.0  -0.0425
  C  C179  1  0.138200  0.731300  0.620400  1.0  -0.1047
  C  C180  1  0.129600  0.683300  0.652100  1.0  0.1175
  C  C181  1  0.712100  0.295400  0.762200  1.0  0.1394
  C  C182  1  0.808300  0.306800  0.762200  1.0  -0.0717
  C  C183  1  0.872200  0.371000  0.791200  1.0  -0.1201
  C  C184  1  0.840700  0.416300  0.821300  1.0  -0.0902
  C  C185  1  0.744100  0.403100  0.819700  1.0  0.1023
  C  C186  1  0.980200  0.390700  0.791700  1.0  0.321
  C  C187  1  0.101500  0.365100  0.756200  1.0  0.3532
  C  C188  1  0.132900  0.455100  0.818000  1.0  0.3845
  C  C189  1  0.244700  0.288200  0.676800  1.0  0.1324
  C  C190  1  0.224500  0.335400  0.711300  1.0  -0.1314
  C  C191  1  0.130600  0.322500  0.718300  1.0  -0.085
  C  C192  1  0.060300  0.265000  0.689800  1.0  -0.1679
  C  C193  1  0.089700  0.224000  0.655800  1.0  0.1679
  C  C194  1  0.255600  0.624600  0.917500  1.0  0.0922
  C  C195  1  0.189000  0.572800  0.883500  1.0  -0.0888
  C  C196  1  0.210300  0.524000  0.850300  1.0  -0.1103
  C  C197  1  0.304700  0.532000  0.848800  1.0  -0.0843
  C  C198  1  0.365100  0.584600  0.884700  1.0  0.1137
  C  C199  1  0.387800  0.840600  0.001400  1.0  0.1054
  C  C200  1  0.362400  0.904800  0.003800  1.0  -0.1045
  C  C201  1  0.381600  0.940400  0.967100  1.0  -0.0819
  C  C202  1  0.419000  0.907400  0.932700  1.0  -0.1931
  C  C203  1  0.435700  0.840500  0.934800  1.0  0.134
  C  C204  1  0.352200  0.011100  0.960500  1.0  0.3133
  C  C205  1  0.263400  0.076900  0.978000  1.0  0.3213
  C  C206  1  0.364100  0.109100  0.925000  1.0  0.5561
  C  C207  1  0.076800  0.159500  0.019400  1.0  0.1304
  C  C208  1  0.152300  0.152700  0.996600  1.0  -0.1149
  C  C209  1  0.178500  0.090600  0.002400  1.0  -0.1553
  C  C210  1  0.133800  0.038700  0.032900  1.0  -0.1291
  C  C211  1  0.063400  0.056300  0.054400  1.0  0.1454
  C  C212  1  0.503100  0.197500  0.835600  1.0  0.1568
  C  C213  1  0.472700  0.147100  0.865700  1.0  -0.1505
  C  C214  1  0.406200  0.156400  0.894400  1.0  0.0142
  C  C215  1  0.387200  0.221800  0.889500  1.0  -0.0984
  C  C216  1  0.424500  0.271200  0.859700  1.0  0.0838
  C  C217  1  0.138900  0.221800  0.148100  1.0  0.1385
  C  C218  1  0.216500  0.270200  0.179400  1.0  -0.1104
  C  C219  1  0.206400  0.338900  0.200600  1.0  -0.0765
  C  C220  1  0.129100  0.359100  0.189900  1.0  -0.1347
  C  C221  1  0.058900  0.305400  0.158000  1.0  0.1576
  C  C222  1  0.289600  0.391900  0.236300  1.0  0.1914
  C  C223  1  0.436800  0.425400  0.268600  1.0  0.2445
  C  C224  1  0.349700  0.494200  0.292800  1.0  0.3741
  C  C225  1  0.694600  0.440700  0.296500  1.0  0.1033
  C  C226  1  0.608900  0.452800  0.298600  1.0  -0.1134
  C  C227  1  0.531500  0.411700  0.267100  1.0  -0.0904
  C  C228  1  0.539800  0.353500  0.235800  1.0  -0.1566
  C  C229  1  0.627900  0.347300  0.234500  1.0  0.1429
  C  C230  1  0.240400  0.631100  0.352400  1.0  0.1114
  C  C231  1  0.254600  0.574700  0.321400  1.0  -0.0804
  C  C232  1  0.336000  0.557400  0.323700  1.0  -0.1182
  C  C233  1  0.404700  0.600600  0.360200  1.0  -0.1373
  C  C234  1  0.384900  0.655900  0.392100  1.0  0.1428
  C  C235  1  0.481700  0.876000  0.477300  1.0  0.1074
  C  C236  1  0.563900  0.941000  0.477600  1.0  -0.0765
  C  C237  1  0.588300  0.980200  0.442200  1.0  -0.0107
  C  C238  1  0.524700  0.948900  0.404000  1.0  -0.1806
  C  C239  1  0.438000  0.887700  0.403800  1.0  0.1234
  C  C240  1  0.678400  0.045300  0.444000  1.0  0.3187
  C  C241  1  0.837600  0.105100  0.467000  1.0  0.3798
  C  C242  1  0.773800  0.145400  0.409900  1.0  0.394
  C  C243  1  0.078800  0.187700  0.526800  1.0  0.1055
  C  C244  1  0.004300  0.185300  0.497100  1.0  -0.0908
  C  C245  1  0.923200  0.119000  0.496400  1.0  -0.0916
  C  C246  1  0.921400  0.063000  0.524200  1.0  -0.1467
  C  C247  1  0.004100  0.074100  0.550600  1.0  0.1305
  C  C248  1  0.729000  0.229500  0.308000  1.0  0.1163
  C  C249  1  0.712400  0.188300  0.341400  1.0  -0.1002
  C  C250  1  0.782100  0.199600  0.374900  1.0  -0.0425
  C  C251  1  0.861800  0.268700  0.379600  1.0  -0.1036
  C  C252  1  0.870400  0.316700  0.347900  1.0  0.1182
  I  I253  1  0.535190  0.757510  0.292610  1.0  -0.4225
  I  I254  1  0.485020  0.545230  0.185410  1.0  -0.4067
  I  I255  1  0.623470  0.352270  0.959370  1.0  -0.3451
  I  I256  1  0.390270  0.270570  0.058170  1.0  -0.438
  I  I257  1  0.123530  0.769640  0.951470  1.0  -0.4107
  I  I258  1  0.134760  0.955380  0.867030  1.0  -0.3581
  I  I259  1  0.202610  0.739100  0.813280  1.0  -0.4292
  I  I260  1  0.023950  0.521690  0.713920  1.0  -0.4545
  I  I261  1  0.839400  0.202850  0.603230  1.0  -0.4373
  I  I262  1  0.726210  0.295130  0.492280  1.0  -0.3417
  I  I263  1  0.647500  0.765390  0.440450  1.0  -0.4131
  I  I264  1  0.817570  0.960030  0.367820  1.0  -0.3525
  I  I265  1  0.464810  0.242490  0.707390  1.0  -0.4236
  I  I266  1  0.514980  0.454770  0.814590  1.0  -0.406
  I  I267  1  0.376530  0.647730  0.040630  1.0  -0.345
  I  I268  1  0.609730  0.729430  0.941830  1.0  -0.4355
  I  I269  1  0.876470  0.230360  0.048530  1.0  -0.4098
  I  I270  1  0.865240  0.044620  0.132970  1.0  -0.3581
  I  I271  1  0.797390  0.260900  0.186720  1.0  -0.4306
  I  I272  1  0.976050  0.478310  0.286080  1.0  -0.4575
  I  I273  1  0.160600  0.797150  0.396770  1.0  -0.437
  I  I274  1  0.273790  0.704870  0.507720  1.0  -0.3424
  I  I275  1  0.352500  0.234610  0.559550  1.0  -0.413
  I  I276  1  0.182430  0.039970  0.632180  1.0  -0.3533
  N  N277  1  0.317400  0.656000  0.210600  1.0  -0.3123
  N  N278  1  0.992900  0.651700  0.240900  1.0  -0.4428
  N  N279  1  0.830300  0.577300  0.215300  1.0  -0.4288
  N  N280  1  0.955700  0.554600  0.177500  1.0  -0.4155
  N  N281  1  0.821200  0.761500  0.355300  1.0  -0.2794
  N  N282  1  0.652800  0.369600  0.081400  1.0  -0.3372
  N  N283  1  0.577200  0.196400  0.030200  1.0  -0.2675
  N  N284  1  0.714500  0.982800  0.012500  1.0  -0.3616
  N  N285  1  0.701400  0.876000  0.050900  1.0  -0.4502
  N  N286  1  0.606200  0.948300  0.069200  1.0  -0.4184
  N  N287  1  0.959900  0.881900  0.948900  1.0  -0.3206
  N  N288  1  0.515000  0.740900  0.169200  1.0  -0.3169
  N  N289  1  0.938500  0.760000  0.862800  1.0  -0.3239
  N  N290  1  0.632000  0.626300  0.762600  1.0  -0.2746
  N  N291  1  0.566600  0.516500  0.702200  1.0  -0.3317
  N  N292  1  0.726200  0.545800  0.737100  1.0  -0.4109
  N  N293  1  0.295400  0.611200  0.736300  1.0  -0.305
  N  N294  1  0.693900  0.327600  0.612600  1.0  -0.3143
  N  N295  1  0.586900  0.150100  0.562000  1.0  -0.3283
  N  N296  1  0.247300  0.947600  0.526900  1.0  -0.4614
  N  N297  1  0.150900  0.843800  0.561100  1.0  -0.4221
  N  N298  1  0.317400  0.908200  0.588000  1.0  -0.3737
  N  N299  1  0.914000  0.864100  0.448400  1.0  -0.3096
  N  N300  1  0.200900  0.700200  0.684900  1.0  -0.2949
  N  N301  1  0.682600  0.344000  0.789400  1.0  -0.3101
  N  N302  1  0.007100  0.348300  0.759100  1.0  -0.4464
  N  N303  1  0.169700  0.422700  0.784700  1.0  -0.4291
  N  N304  1  0.044300  0.445400  0.822500  1.0  -0.4152
  N  N305  1  0.178800  0.238500  0.644700  1.0  -0.2784
  N  N306  1  0.347200  0.630400  0.918600  1.0  -0.3364
  N  N307  1  0.422800  0.803600  0.969800  1.0  -0.2663
  N  N308  1  0.285500  0.017200  0.987500  1.0  -0.3614
  N  N309  1  0.298600  0.124000  0.949100  1.0  -0.4528
  N  N310  1  0.393800  0.051700  0.930800  1.0  -0.4171
  N  N311  1  0.040100  0.118100  0.051100  1.0  -0.3182
  N  N312  1  0.485000  0.259100  0.830800  1.0  -0.3176
  N  N313  1  0.061500  0.240000  0.137200  1.0  -0.3246
  N  N314  1  0.368000  0.373700  0.237400  1.0  -0.2745
  N  N315  1  0.433400  0.483500  0.297800  1.0  -0.3301
  N  N316  1  0.273800  0.454200  0.262900  1.0  -0.4084
  N  N317  1  0.704600  0.388800  0.263700  1.0  -0.3069
  N  N318  1  0.306100  0.672400  0.387400  1.0  -0.3139
  N  N319  1  0.413100  0.849900  0.438000  1.0  -0.33
  N  N320  1  0.752700  0.052400  0.473100  1.0  -0.4647
  N  N321  1  0.849100  0.156200  0.438900  1.0  -0.4214
  N  N322  1  0.682600  0.091800  0.412000  1.0  -0.3761
  N  N323  1  0.086000  0.135900  0.551600  1.0  -0.3086
  N  N324  1  0.799100  0.299800  0.315100  1.0  -0.2938
