# generated using pymatgen
data_ZnH8C12(IN2)2
_symmetry_space_group_name_H-M   'P 1'
_cell_length_a   14.85300000
_cell_length_b   32.86600000
_cell_length_c   34.85000000
_cell_angle_alpha   105.84800000
_cell_angle_beta   90.00000000
_cell_angle_gamma   90.00000000
_symmetry_Int_Tables_number   1
_chemical_formula_structural   ZnH8C12(IN2)2
_chemical_formula_sum   'Zn24 H192 C288 I48 N96'
_cell_volume   16365.68429848
_cell_formula_units_Z   24
loop_
 _symmetry_equiv_pos_site_id
 _symmetry_equiv_pos_as_xyz
  1  'x, y, z'
loop_
 _atom_site_type_symbol
 _atom_site_label
 _atom_site_symmetry_multiplicity
 _atom_site_fract_x
 _atom_site_fract_y
 _atom_site_fract_z
 _atom_site_occupancy
 _atom_site_charge
  Zn  Zn1  1  0.732720  0.306050  0.869240  1.0  0.8739
  Zn  Zn2  1  0.706010  0.671470  0.150990  1.0  0.8705
  Zn  Zn3  1  0.185800  0.981180  0.081180  1.0  0.874
  Zn  Zn4  1  0.946040  0.174840  0.119580  1.0  0.8713
  Zn  Zn5  1  0.459610  0.490340  0.083980  1.0  0.8853
  Zn  Zn6  1  0.259780  0.307700  0.368090  1.0  0.9378
  Zn  Zn7  1  0.915760  0.801090  0.870470  1.0  0.8725
  Zn  Zn8  1  0.231190  0.677430  0.619520  1.0  0.8976
  Zn  Zn9  1  0.994670  0.481310  0.587130  1.0  0.8777
  Zn  Zn10  1  0.724070  0.989520  0.587710  1.0  0.8768
  Zn  Zn11  1  0.448240  0.819830  0.362540  1.0  0.874
  Zn  Zn12  1  0.465000  0.175170  0.655750  1.0  0.8702
  Zn  Zn13  1  0.232720  0.693950  0.130760  1.0  0.8708
  Zn  Zn14  1  0.206010  0.328530  0.849010  1.0  0.8706
  Zn  Zn15  1  0.685800  0.018820  0.918820  1.0  0.8741
  Zn  Zn16  1  0.446040  0.825160  0.880420  1.0  0.8711
  Zn  Zn17  1  0.959610  0.509660  0.916020  1.0  0.8854
  Zn  Zn18  1  0.759780  0.692300  0.631910  1.0  0.9363
  Zn  Zn19  1  0.415760  0.198910  0.129530  1.0  0.8724
  Zn  Zn20  1  0.731190  0.322570  0.380480  1.0  0.8976
  Zn  Zn21  1  0.494670  0.518690  0.412870  1.0  0.8771
  Zn  Zn22  1  0.224070  0.010480  0.412290  1.0  0.8768
  Zn  Zn23  1  0.948240  0.180170  0.637460  1.0  0.8734
  Zn  Zn24  1  0.965000  0.824830  0.344250  1.0  0.8694
  H  H25  1  0.914100  0.331100  0.900000  1.0  0.0582
  H  H26  1  0.988900  0.378700  0.953000  1.0  0.1074
  H  H27  1  0.754900  0.438600  0.985000  1.0  0.1117
  H  H28  1  0.681100  0.379800  0.937600  1.0  0.1055
  H  H29  1  0.284900  0.532800  0.106500  1.0  0.0418
  H  H30  1  0.137600  0.531300  0.092000  1.0  0.1136
  H  H31  1  0.177500  0.423100  0.009100  1.0  0.1145
  H  H32  1  0.335100  0.432200  0.025900  1.0  0.0608
  H  H33  1  0.658500  0.589800  0.090800  1.0  0.0916
  H  H34  1  0.733500  0.523800  0.059100  1.0  0.097
  H  H35  1  0.968900  0.579600  0.098100  1.0  0.1182
  H  H36  1  0.890400  0.639800  0.131200  1.0  0.0783
  H  H37  1  0.813700  0.728600  0.114800  1.0  0.0948
  H  H38  1  0.936800  0.773000  0.127900  1.0  0.1101
  H  H39  1  0.967100  0.747900  0.234500  1.0  0.1145
  H  H40  1  0.844100  0.701400  0.218300  1.0  0.1027
  H  H41  1  0.294600  0.930500  0.126700  1.0  0.1119
  H  H42  1  0.265000  0.886500  0.166200  1.0  0.0837
  H  H43  1  0.999200  0.887100  0.142200  1.0  0.1192
  H  H44  1  0.030200  0.935600  0.106800  1.0  0.0784
  H  H45  1  0.289500  0.766800  0.323500  1.0  0.0645
  H  H46  1  0.183800  0.763500  0.272300  1.0  0.1211
  H  H47  1  0.321100  0.862700  0.248200  1.0  0.1176
  H  H48  1  0.414100  0.861700  0.299800  1.0  0.0719
  H  H49  1  0.313000  0.930100  0.016500  1.0  0.0698
  H  H50  1  0.466100  0.926500  0.001000  1.0  0.1047
  H  H51  1  0.515000  0.012400  0.105300  1.0  0.1086
  H  H52  1  0.357800  0.008700  0.118600  1.0  0.0695
  H  H53  1  0.961300  0.883300  0.930500  1.0  0.073
  H  H54  1  0.895400  0.937500  0.975900  1.0  0.1054
  H  H55  1  0.659500  0.873500  0.951400  1.0  0.1083
  H  H56  1  0.731700  0.824700  0.905800  1.0  0.0692
  H  H57  1  0.756500  0.143500  0.115700  1.0  0.0911
  H  H58  1  0.675000  0.080900  0.091300  1.0  0.1093
  H  H59  1  0.915500  0.019200  0.064100  1.0  0.1223
  H  H60  1  0.983000  0.082300  0.095400  1.0  0.0537
  H  H61  1  0.836300  0.239900  0.095700  1.0  0.0904
  H  H62  1  0.718900  0.287500  0.118800  1.0  0.1126
  H  H63  1  0.714300  0.250400  0.219400  1.0  0.104
  H  H64  1  0.840800  0.205500  0.195300  1.0  0.1007
  H  H65  1  0.376700  0.458100  0.150800  1.0  0.077
  H  H66  1  0.396200  0.404200  0.180100  1.0  0.1119
  H  H67  1  0.629400  0.379000  0.121200  1.0  0.0851
  H  H68  1  0.593800  0.422800  0.086000  1.0  0.0992
  H  H69  1  0.392500  0.251400  0.306000  1.0  0.0712
  H  H70  1  0.472600  0.254600  0.251900  1.0  0.1129
  H  H71  1  0.391800  0.376900  0.270600  1.0  0.1137
  H  H72  1  0.319300  0.371100  0.328200  1.0  0.08
  H  H73  1  0.793300  0.745900  0.808500  1.0  0.0919
  H  H74  1  0.702800  0.751600  0.754400  1.0  0.1047
  H  H75  1  0.792000  0.870200  0.771300  1.0  0.1039
  H  H76  1  0.887000  0.860300  0.822100  1.0  0.0978
  H  H77  1  0.344200  0.739700  0.595200  1.0  0.098
  H  H78  1  0.470000  0.782600  0.617400  1.0  0.1031
  H  H79  1  0.464000  0.749200  0.720600  1.0  0.1091
  H  H80  1  0.340700  0.706500  0.696000  1.0  0.1013
  H  H81  1  0.832800  0.937100  0.634200  1.0  0.094
  H  H82  1  0.803200  0.887700  0.667600  1.0  0.097
  H  H83  1  0.543600  0.888700  0.639400  1.0  0.0957
  H  H84  1  0.571700  0.940800  0.607300  1.0  0.1053
  H  H85  1  0.196700  0.582200  0.588600  1.0  0.0779
  H  H86  1  0.274900  0.520700  0.561400  1.0  0.1266
  H  H87  1  0.503400  0.587800  0.576700  1.0  0.0968
  H  H88  1  0.423100  0.647600  0.604100  1.0  0.0743
  H  H89  1  0.449200  0.333400  0.391400  1.0  0.0973
  H  H90  1  0.530400  0.385000  0.443500  1.0  0.1093
  H  H91  1  0.288700  0.430700  0.489300  1.0  0.1104
  H  H92  1  0.218400  0.381000  0.437000  1.0  0.089
  H  H93  1  0.834600  0.533400  0.603900  1.0  0.0826
  H  H94  1  0.678400  0.533100  0.585700  1.0  0.1116
  H  H95  1  0.717800  0.421200  0.506400  1.0  0.1063
  H  H96  1  0.869300  0.426400  0.523000  1.0  0.0614
  H  H97  1  0.848800  0.935800  0.522700  1.0  0.1059
  H  H98  1  0.997700  0.931200  0.507800  1.0  0.0892
  H  H99  1  0.050400  0.024800  0.607200  1.0  0.1104
  H  H100  1  0.898200  0.027100  0.621100  1.0  0.0707
  H  H101  1  0.492000  0.895300  0.428600  1.0  0.0533
  H  H102  1  0.431000  0.942200  0.482600  1.0  0.1043
  H  H103  1  0.186700  0.886500  0.447700  1.0  0.1072
  H  H104  1  0.260500  0.838800  0.397900  1.0  0.094
  H  H105  1  0.287600  0.153200  0.616400  1.0  0.0888
  H  H106  1  0.209600  0.090600  0.584400  1.0  0.0971
  H  H107  1  0.446400  0.029400  0.563100  1.0  0.1192
  H  H108  1  0.516600  0.091500  0.599200  1.0  0.0808
  H  H109  1  0.312700  0.196100  0.716500  1.0  0.1014
  H  H110  1  0.187000  0.238600  0.730400  1.0  0.093
  H  H111  1  0.244900  0.282800  0.636000  1.0  0.1089
  H  H112  1  0.374000  0.241600  0.626900  1.0  0.073
  H  H113  1  0.768600  0.356500  0.817400  1.0  0.0748
  H  H114  1  0.855500  0.360200  0.760600  1.0  0.1162
  H  H115  1  0.974900  0.253000  0.767100  1.0  0.1122
  H  H116  1  0.883700  0.253200  0.820000  1.0  0.079
  H  H117  1  0.136600  0.439700  0.622800  1.0  0.0999
  H  H118  1  0.156600  0.388600  0.654400  1.0  0.1075
  H  H119  1  0.886200  0.380000  0.663000  1.0  0.115
  H  H120  1  0.873600  0.433700  0.632600  1.0  0.0814
  H  H121  1  0.414100  0.668900  0.100000  1.0  0.0575
  H  H122  1  0.488900  0.621300  0.047000  1.0  0.1077
  H  H123  1  0.254900  0.561400  0.015000  1.0  0.1116
  H  H124  1  0.181100  0.620200  0.062400  1.0  0.1048
  H  H125  1  0.784900  0.467200  0.893500  1.0  0.0422
  H  H126  1  0.637600  0.468700  0.908000  1.0  0.1124
  H  H127  1  0.677500  0.576900  0.990900  1.0  0.1152
  H  H128  1  0.835100  0.567800  0.974100  1.0  0.061
  H  H129  1  0.158500  0.410200  0.909200  1.0  0.0916
  H  H130  1  0.233500  0.476200  0.940900  1.0  0.0974
  H  H131  1  0.468900  0.420400  0.901900  1.0  0.118
  H  H132  1  0.390400  0.360200  0.868800  1.0  0.0786
  H  H133  1  0.313700  0.271400  0.885200  1.0  0.0953
  H  H134  1  0.436800  0.227000  0.872100  1.0  0.1105
  H  H135  1  0.467100  0.252100  0.765500  1.0  0.1143
  H  H136  1  0.344100  0.298600  0.781700  1.0  0.1026
  H  H137  1  0.794600  0.069500  0.873300  1.0  0.1116
  H  H138  1  0.765000  0.113500  0.833800  1.0  0.0842
  H  H139  1  0.499200  0.112900  0.857800  1.0  0.1196
  H  H140  1  0.530200  0.064400  0.893200  1.0  0.0793
  H  H141  1  0.789500  0.233200  0.676500  1.0  0.0635
  H  H142  1  0.683800  0.236500  0.727700  1.0  0.121
  H  H143  1  0.821100  0.137300  0.751800  1.0  0.1176
  H  H144  1  0.914100  0.138300  0.700200  1.0  0.0714
  H  H145  1  0.813000  0.069900  0.983500  1.0  0.0705
  H  H146  1  0.966100  0.073500  0.999000  1.0  0.1055
  H  H147  1  0.015000  0.987600  0.894700  1.0  0.1077
  H  H148  1  0.857800  0.991300  0.881400  1.0  0.0685
  H  H149  1  0.461300  0.116700  0.069500  1.0  0.0727
  H  H150  1  0.395400  0.062500  0.024100  1.0  0.106
  H  H151  1  0.159500  0.126500  0.048600  1.0  0.1077
  H  H152  1  0.231700  0.175300  0.094200  1.0  0.0698
  H  H153  1  0.256500  0.856500  0.884300  1.0  0.0916
  H  H154  1  0.175000  0.919100  0.908700  1.0  0.1093
  H  H155  1  0.415500  0.980800  0.935900  1.0  0.1224
  H  H156  1  0.483000  0.917700  0.904600  1.0  0.0529
  H  H157  1  0.336300  0.760100  0.904300  1.0  0.0902
  H  H158  1  0.218900  0.712500  0.881200  1.0  0.1137
  H  H159  1  0.214300  0.749600  0.780600  1.0  0.1039
  H  H160  1  0.340800  0.794500  0.804700  1.0  0.0998
  H  H161  1  0.876700  0.541900  0.849200  1.0  0.0769
  H  H162  1  0.896200  0.595800  0.819900  1.0  0.1118
  H  H163  1  0.129400  0.621000  0.878800  1.0  0.0855
  H  H164  1  0.093800  0.577200  0.914000  1.0  0.099
  H  H165  1  0.892500  0.748600  0.694000  1.0  0.0704
  H  H166  1  0.972600  0.745400  0.748100  1.0  0.1121
  H  H167  1  0.891800  0.623100  0.729400  1.0  0.1135
  H  H168  1  0.819300  0.628900  0.671800  1.0  0.0796
  H  H169  1  0.293300  0.254100  0.191500  1.0  0.0919
  H  H170  1  0.202800  0.248400  0.245600  1.0  0.1047
  H  H171  1  0.292000  0.129800  0.228700  1.0  0.1028
  H  H172  1  0.387000  0.139700  0.177900  1.0  0.0986
  H  H173  1  0.844200  0.260300  0.404800  1.0  0.0986
  H  H174  1  0.970000  0.217400  0.382600  1.0  0.1039
  H  H175  1  0.964000  0.250800  0.279400  1.0  0.1092
  H  H176  1  0.840700  0.293500  0.304000  1.0  0.1007
  H  H177  1  0.332800  0.062900  0.365800  1.0  0.0939
  H  H178  1  0.303200  0.112300  0.332400  1.0  0.0977
  H  H179  1  0.043600  0.111300  0.360600  1.0  0.0958
  H  H180  1  0.071700  0.059200  0.392700  1.0  0.1062
  H  H181  1  0.696700  0.417800  0.411400  1.0  0.0784
  H  H182  1  0.774900  0.479300  0.438600  1.0  0.1269
  H  H183  1  0.003400  0.412200  0.423300  1.0  0.0968
  H  H184  1  0.923100  0.352400  0.395900  1.0  0.074
  H  H185  1  0.949200  0.666667  0.608600  1.0  0.0966
  H  H186  1  0.030400  0.615000  0.556500  1.0  0.1093
  H  H187  1  0.788700  0.569300  0.510700  1.0  0.1098
  H  H188  1  0.718400  0.619000  0.563000  1.0  0.0888
  H  H189  1  0.334600  0.466600  0.396100  1.0  0.0836
  H  H190  1  0.178400  0.466900  0.414300  1.0  0.1105
  H  H191  1  0.217800  0.578800  0.493600  1.0  0.1068
  H  H192  1  0.369300  0.573600  0.477000  1.0  0.0604
  H  H193  1  0.348800  0.064200  0.477300  1.0  0.1069
  H  H194  1  0.497700  0.068800  0.492200  1.0  0.0895
  H  H195  1  0.550400  0.975200  0.392800  1.0  0.11
  H  H196  1  0.398200  0.972900  0.378900  1.0  0.0699
  H  H197  1  0.992000  0.104700  0.571400  1.0  0.0531
  H  H198  1  0.931000  0.057800  0.517400  1.0  0.1042
  H  H199  1  0.686700  0.113500  0.552300  1.0  0.1069
  H  H200  1  0.760500  0.161200  0.602100  1.0  0.0932
  H  H201  1  0.787600  0.846800  0.383600  1.0  0.089
  H  H202  1  0.709600  0.909400  0.415600  1.0  0.0973
  H  H203  1  0.946400  0.970600  0.436900  1.0  0.1188
  H  H204  1  0.016600  0.908500  0.400800  1.0  0.0804
  H  H205  1  0.812700  0.803900  0.283500  1.0  0.1008
  H  H206  1  0.687000  0.761400  0.269600  1.0  0.0932
  H  H207  1  0.744900  0.717200  0.364000  1.0  0.1093
  H  H208  1  0.874000  0.758400  0.373100  1.0  0.0736
  H  H209  1  0.268600  0.643500  0.182600  1.0  0.0744
  H  H210  1  0.355500  0.639800  0.239400  1.0  0.1158
  H  H211  1  0.474900  0.747000  0.232900  1.0  0.1126
  H  H212  1  0.383700  0.746800  0.180000  1.0  0.0793
  H  H213  1  0.636600  0.560300  0.377200  1.0  0.0997
  H  H214  1  0.656600  0.611400  0.345600  1.0  0.108
  H  H215  1  0.386200  0.620000  0.337000  1.0  0.1152
  H  H216  1  0.373600  0.566300  0.367400  1.0  0.0811
  C  C217  1  0.879200  0.352000  0.918200  1.0  0.1667
  C  C218  1  0.925800  0.381100  0.949800  1.0  -0.1428
  C  C219  1  0.878100  0.412000  0.974900  1.0  -0.0816
  C  C220  1  0.788400  0.415300  0.969600  1.0  -0.1027
  C  C221  1  0.745000  0.381300  0.938900  1.0  0.1214
  C  C222  1  0.920800  0.443700  0.007100  1.0  0.3289
  C  C223  1  0.041900  0.472600  0.044700  1.0  0.1933
  C  C224  1  0.910500  0.506900  0.055200  1.0  0.3421
  C  C225  1  0.263600  0.509200  0.086100  1.0  0.1778
  C  C226  1  0.174900  0.508200  0.078800  1.0  -0.1485
  C  C227  1  0.139300  0.474400  0.052700  1.0  0.0169
  C  C228  1  0.197500  0.446000  0.030500  1.0  -0.1231
  C  C229  1  0.293200  0.452100  0.041000  1.0  0.0928
  C  C230  1  0.722000  0.587400  0.092800  1.0  0.1116
  C  C231  1  0.767600  0.547900  0.072800  1.0  -0.0849
  C  C232  1  0.855200  0.545700  0.073900  1.0  -0.0676
  C  C233  1  0.905200  0.580700  0.096400  1.0  -0.1421
  C  C234  1  0.857900  0.616200  0.115500  1.0  0.1543
  C  C235  1  0.845100  0.732600  0.139300  1.0  0.1383
  C  C236  1  0.917400  0.759000  0.147000  1.0  -0.0828
  C  C237  1  0.961600  0.765000  0.182200  1.0  -0.0806
  C  C238  1  0.935900  0.743900  0.210000  1.0  -0.0799
  C  C239  1  0.862800  0.716900  0.200400  1.0  0.1261
  C  C240  1  0.043700  0.793500  0.190000  1.0  0.364
  C  C241  1  0.119300  0.847900  0.179200  1.0  0.3928
  C  C242  1  0.174000  0.815100  0.222500  1.0  0.3408
  C  C243  1  0.234200  0.923100  0.130700  1.0  0.0836
  C  C244  1  0.216100  0.895600  0.153000  1.0  -0.0425
  C  C245  1  0.133300  0.880800  0.157500  1.0  -0.1102
  C  C246  1  0.059100  0.896200  0.139800  1.0  -0.16
  C  C247  1  0.079100  0.925100  0.118800  1.0  0.1251
  C  C248  1  0.295200  0.786100  0.307800  1.0  0.1487
  C  C249  1  0.230900  0.783800  0.277200  1.0  -0.1397
  C  C250  1  0.239900  0.813000  0.254300  1.0  -0.1183
  C  C251  1  0.312200  0.842800  0.263100  1.0  -0.1478
  C  C252  1  0.367200  0.841300  0.293500  1.0  0.1255
  C  C253  1  0.353900  0.947500  0.034800  1.0  0.1271
  C  C254  1  0.445500  0.944900  0.025500  1.0  -0.1368
  C  C255  1  0.505200  0.969000  0.052100  1.0  -0.1165
  C  C256  1  0.475600  0.994600  0.086600  1.0  -0.1097
  C  C257  1  0.380000  0.993300  0.093200  1.0  0.1384
  C  C258  1  0.603400  0.968800  0.041600  1.0  0.413
  C  C259  1  0.723700  0.945100  0.003700  1.0  0.3416
  C  C260  1  0.734500  0.005200  0.051600  1.0  0.3795
  C  C261  1  0.898200  0.881900  0.934600  1.0  0.1408
  C  C262  1  0.860300  0.913700  0.962500  1.0  -0.1774
  C  C263  1  0.768700  0.911800  0.971700  1.0  -0.1123
  C  C264  1  0.722300  0.876500  0.947900  1.0  -0.1246
  C  C265  1  0.765600  0.848100  0.920900  1.0  0.1844
  C  C266  1  0.787700  0.117500  0.105500  1.0  0.1476
  C  C267  1  0.738900  0.080600  0.090300  1.0  -0.1277
  C  C268  1  0.785800  0.043200  0.073400  1.0  -0.1108
  C  C269  1  0.880600  0.043900  0.074900  1.0  -0.1654
  C  C270  1  0.919400  0.081800  0.092700  1.0  0.1574
  C  C271  1  0.811200  0.242200  0.121300  1.0  0.1186
  C  C272  1  0.740500  0.270100  0.134500  1.0  -0.0946
  C  C273  1  0.702900  0.272000  0.170400  1.0  -0.0679
  C  C274  1  0.738900  0.248600  0.193800  1.0  -0.0943
  C  C275  1  0.814200  0.221300  0.179100  1.0  0.1124
  C  C276  1  0.623700  0.300500  0.184400  1.0  0.3644
  C  C277  1  0.538600  0.355100  0.177300  1.0  0.4201
  C  C278  1  0.504700  0.321100  0.224000  1.0  0.3737
  C  C279  1  0.427300  0.440000  0.143200  1.0  0.1347
  C  C280  1  0.440100  0.409300  0.162100  1.0  -0.1621
  C  C281  1  0.519100  0.385600  0.154600  1.0  -0.0803
  C  C282  1  0.573900  0.393800  0.126700  1.0  -0.1013
  C  C283  1  0.554700  0.420700  0.107000  1.0  0.1249
  C  C284  1  0.390500  0.276900  0.298300  1.0  0.1328
  C  C285  1  0.440400  0.278700  0.266900  1.0  -0.1967
  C  C286  1  0.443800  0.316200  0.257100  1.0  -0.0804
  C  C287  1  0.393400  0.351400  0.278400  1.0  -0.1695
  C  C288  1  0.346700  0.346800  0.311000  1.0  0.1334
  C  C289  1  0.791700  0.771600  0.801100  1.0  0.1126
  C  C290  1  0.738200  0.775000  0.768700  1.0  -0.1126
  C  C291  1  0.737400  0.811900  0.757800  1.0  -0.0665
  C  C292  1  0.791300  0.844200  0.778200  1.0  -0.1168
  C  C293  1  0.845500  0.838900  0.809300  1.0  0.1246
  C  C294  1  0.681100  0.815900  0.723500  1.0  0.3655
  C  C295  1  0.561700  0.798100  0.684900  1.0  0.3479
  C  C296  1  0.649000  0.852000  0.678300  1.0  0.3938
  C  C297  1  0.369500  0.741100  0.620500  1.0  0.1399
  C  C298  1  0.443800  0.767100  0.633900  1.0  -0.0737
  C  C299  1  0.479500  0.770400  0.671700  1.0  -0.0863
  C  C300  1  0.440900  0.747500  0.694800  1.0  -0.0617
  C  C301  1  0.368500  0.722200  0.680100  1.0  0.1238
  C  C302  1  0.772700  0.927600  0.635100  1.0  0.1065
  C  C303  1  0.754900  0.898300  0.655200  1.0  -0.0764
  C  C304  1  0.669300  0.883600  0.658100  1.0  -0.0977
  C  C305  1  0.603200  0.899100  0.639100  1.0  -0.0636
  C  C306  1  0.620100  0.929600  0.619100  1.0  0.1022
  C  C307  1  0.260500  0.583500  0.586900  1.0  0.1331
  C  C308  1  0.306300  0.546800  0.570400  1.0  -0.1545
  C  C309  1  0.400400  0.548000  0.567100  1.0  -0.028
  C  C310  1  0.440100  0.585700  0.579400  1.0  -0.1249
  C  C311  1  0.391400  0.621600  0.595900  1.0  0.1502
  C  C312  1  0.450600  0.509600  0.547300  1.0  0.3993
  C  C313  1  0.462300  0.446700  0.500800  1.0  0.3195
  C  C314  1  0.587000  0.476600  0.535800  1.0  0.3143
  C  C315  1  0.417400  0.353400  0.411700  1.0  0.1495
  C  C316  1  0.466500  0.384800  0.442500  1.0  -0.0756
  C  C317  1  0.417300  0.413800  0.469600  1.0  -0.1186
  C  C318  1  0.323400  0.411800  0.469200  1.0  -0.1368
  C  C319  1  0.282200  0.381300  0.438700  1.0  0.1491
  C  C320  1  0.811100  0.509900  0.584100  1.0  0.1258
  C  C321  1  0.716200  0.510000  0.573100  1.0  -0.0934
  C  C322  1  0.682800  0.476300  0.544600  1.0  -0.0909
  C  C323  1  0.739200  0.444900  0.526500  1.0  -0.1843
  C  C324  1  0.829800  0.447800  0.537700  1.0  0.134
  C  C325  1  0.890100  0.954300  0.539700  1.0  0.0962
  C  C326  1  0.978300  0.952000  0.531000  1.0  -0.0628
  C  C327  1  0.043300  0.978300  0.554300  1.0  -0.1188
  C  C328  1  0.010300  0.006600  0.589200  1.0  -0.153
  C  C329  1  0.919300  0.007900  0.597200  1.0  0.1312
  C  C330  1  0.140000  0.978600  0.543800  1.0  0.3939
  C  C331  1  0.256300  0.952600  0.505600  1.0  0.3373
  C  C332  1  0.269300  0.014000  0.552100  1.0  0.388
  C  C333  1  0.429200  0.893500  0.433200  1.0  0.1901
  C  C334  1  0.393700  0.921700  0.465300  1.0  -0.1293
  C  C335  1  0.297900  0.920200  0.472900  1.0  -0.1143
  C  C336  1  0.250100  0.888600  0.445200  1.0  -0.1041
  C  C337  1  0.293400  0.861200  0.415200  1.0  0.1242
  C  C338  1  0.319600  0.127300  0.607000  1.0  0.1225
  C  C339  1  0.273200  0.090100  0.587000  1.0  -0.1055
  C  C340  1  0.318100  0.053900  0.571800  1.0  -0.0739
  C  C341  1  0.412100  0.054000  0.575000  1.0  -0.1676
  C  C342  1  0.453000  0.091000  0.596200  1.0  0.1312
  C  C343  1  0.299500  0.214800  0.700700  1.0  0.1122
  C  C344  1  0.224400  0.239600  0.708500  1.0  -0.1192
  C  C345  1  0.201200  0.266000  0.685200  1.0  -0.0573
  C  C346  1  0.258100  0.266000  0.653600  1.0  -0.1448
  C  C347  1  0.334600  0.241000  0.648200  1.0  0.1521
  C  C348  1  0.119400  0.292700  0.693100  1.0  0.3807
  C  C349  1  0.990100  0.310800  0.726500  1.0  0.3337
  C  C350  1  0.038000  0.346800  0.684000  1.0  0.4491
  C  C351  1  0.809700  0.334400  0.805900  1.0  0.109
  C  C352  1  0.863400  0.337500  0.772200  1.0  -0.1269
  C  C353  1  0.926100  0.306500  0.757800  1.0  -0.0191
  C  C354  1  0.932200  0.275000  0.776000  1.0  -0.1814
  C  C355  1  0.877000  0.275100  0.807100  1.0  0.1478
  C  C356  1  0.084500  0.426700  0.630000  1.0  0.1238
  C  C357  1  0.097200  0.396900  0.649800  1.0  -0.1625
  C  C358  1  0.024300  0.378500  0.663400  1.0  -0.0651
  C  C359  1  0.938900  0.392000  0.655100  1.0  -0.1663
  C  C360  1  0.932100  0.423100  0.635300  1.0  0.1258
  C  C361  1  0.379200  0.648000  0.081800  1.0  0.1679
  C  C362  1  0.425800  0.618900  0.050200  1.0  -0.1416
  C  C363  1  0.378100  0.588000  0.025100  1.0  -0.0814
  C  C364  1  0.288400  0.584700  0.030400  1.0  -0.1029
  C  C365  1  0.245000  0.618700  0.061100  1.0  0.1206
  C  C366  1  0.420800  0.556300  0.992900  1.0  0.3283
  C  C367  1  0.541900  0.527400  0.955300  1.0  0.1925
  C  C368  1  0.410500  0.493100  0.944800  1.0  0.3413
  C  C369  1  0.763600  0.490800  0.913900  1.0  0.1791
  C  C370  1  0.674900  0.491800  0.921200  1.0  -0.1472
  C  C371  1  0.639300  0.525600  0.947300  1.0  0.0167
  C  C372  1  0.697500  0.554000  0.969500  1.0  -0.1235
  C  C373  1  0.793200  0.547900  0.959000  1.0  0.0942
  C  C374  1  0.222000  0.412600  0.907200  1.0  0.1115
  C  C375  1  0.267600  0.452100  0.927200  1.0  -0.0845
  C  C376  1  0.355200  0.454300  0.926100  1.0  -0.0678
  C  C377  1  0.405200  0.419300  0.903600  1.0  -0.1425
  C  C378  1  0.357900  0.383800  0.884500  1.0  0.1541
  C  C379  1  0.345100  0.267400  0.860700  1.0  0.1384
  C  C380  1  0.417400  0.241000  0.853000  1.0  -0.0819
  C  C381  1  0.461600  0.235000  0.817800  1.0  -0.0801
  C  C382  1  0.435900  0.256100  0.790000  1.0  -0.0808
  C  C383  1  0.362800  0.283100  0.799600  1.0  0.1254
  C  C384  1  0.543700  0.206500  0.810000  1.0  0.3643
  C  C385  1  0.619300  0.152100  0.820800  1.0  0.3938
  C  C386  1  0.674000  0.184900  0.777500  1.0  0.3405
  C  C387  1  0.734200  0.076900  0.869300  1.0  0.0834
  C  C388  1  0.716100  0.104400  0.847000  1.0  -0.0425
  C  C389  1  0.633300  0.119200  0.842500  1.0  -0.1105
  C  C390  1  0.559100  0.103800  0.860200  1.0  -0.1601
  C  C391  1  0.579100  0.074900  0.881200  1.0  0.1247
  C  C392  1  0.795200  0.213900  0.692200  1.0  0.1496
  C  C393  1  0.730900  0.216200  0.722800  1.0  -0.1414
  C  C394  1  0.739900  0.187000  0.745700  1.0  -0.1189
  C  C395  1  0.812200  0.157200  0.736900  1.0  -0.147
  C  C396  1  0.867200  0.158700  0.706500  1.0  0.1257
  C  C397  1  0.853900  0.052500  0.965200  1.0  0.1272
  C  C398  1  0.945500  0.055100  0.974500  1.0  -0.1374
  C  C399  1  0.005200  0.031000  0.947900  1.0  -0.1166
  C  C400  1  0.975600  0.005400  0.913400  1.0  -0.1099
  C  C401  1  0.880000  0.006700  0.906800  1.0  0.1397
  C  C402  1  0.103400  0.031200  0.958400  1.0  0.4132
  C  C403  1  0.223700  0.054900  0.996300  1.0  0.3409
  C  C404  1  0.234500  0.994800  0.948400  1.0  0.3782
  C  C405  1  0.398200  0.118100  0.065400  1.0  0.1402
  C  C406  1  0.360300  0.086300  0.037500  1.0  -0.1769
  C  C407  1  0.268700  0.088200  0.028300  1.0  -0.1118
  C  C408  1  0.222300  0.123500  0.052100  1.0  -0.1253
  C  C409  1  0.265600  0.151900  0.079100  1.0  0.1832
  C  C410  1  0.287700  0.882500  0.894500  1.0  0.1478
  C  C411  1  0.238900  0.919400  0.909700  1.0  -0.1276
  C  C412  1  0.285800  0.956800  0.926600  1.0  -0.1104
  C  C413  1  0.380600  0.956100  0.925100  1.0  -0.1656
  C  C414  1  0.419400  0.918200  0.907300  1.0  0.1569
  C  C415  1  0.311200  0.757800  0.878700  1.0  0.1192
  C  C416  1  0.240500  0.729900  0.865500  1.0  -0.0945
  C  C417  1  0.202900  0.728000  0.829600  1.0  -0.0683
  C  C418  1  0.238900  0.751400  0.806200  1.0  -0.0922
  C  C419  1  0.314200  0.778700  0.820900  1.0  0.1112
  C  C420  1  0.123700  0.699500  0.815600  1.0  0.365
  C  C421  1  0.038600  0.644900  0.822700  1.0  0.4198
  C  C422  1  0.004700  0.678900  0.776000  1.0  0.3741
  C  C423  1  0.927300  0.560000  0.856800  1.0  0.1349
  C  C424  1  0.940100  0.590700  0.837900  1.0  -0.1621
  C  C425  1  0.019100  0.614400  0.845400  1.0  -0.0811
  C  C426  1  0.073900  0.606200  0.873300  1.0  -0.1013
  C  C427  1  0.054700  0.579300  0.893000  1.0  0.1262
  C  C428  1  0.890500  0.723100  0.701700  1.0  0.133
  C  C429  1  0.940400  0.721300  0.733100  1.0  -0.1998
  C  C430  1  0.943800  0.683800  0.742900  1.0  -0.0816
  C  C431  1  0.893400  0.648600  0.721600  1.0  -0.17
  C  C432  1  0.846700  0.653200  0.689000  1.0  0.1333
  C  C433  1  0.291700  0.228400  0.198900  1.0  0.1125
  C  C434  1  0.238200  0.225000  0.231300  1.0  -0.1128
  C  C435  1  0.237400  0.188100  0.242200  1.0  -0.0671
  C  C436  1  0.291300  0.155800  0.221800  1.0  -0.1163
  C  C437  1  0.345500  0.161100  0.190700  1.0  0.1246
  C  C438  1  0.181100  0.184100  0.276500  1.0  0.3663
  C  C439  1  0.061700  0.201900  0.315100  1.0  0.3482
  C  C440  1  0.149000  0.148000  0.321700  1.0  0.3934
  C  C441  1  0.869500  0.258900  0.379500  1.0  0.139
  C  C442  1  0.943800  0.232900  0.366100  1.0  -0.0729
  C  C443  1  0.979500  0.229600  0.328300  1.0  -0.0866
  C  C444  1  0.940900  0.252500  0.305200  1.0  -0.0606
  C  C445  1  0.868500  0.277800  0.319900  1.0  0.1252
  C  C446  1  0.272700  0.072400  0.364900  1.0  0.1062
  C  C447  1  0.254900  0.101700  0.344800  1.0  -0.0768
  C  C448  1  0.169300  0.116400  0.341900  1.0  -0.0982
  C  C449  1  0.103200  0.100900  0.360900  1.0  -0.0643
  C  C450  1  0.120100  0.070400  0.380900  1.0  0.1022
  C  C451  1  0.760500  0.416500  0.413100  1.0  0.1331
  C  C452  1  0.806300  0.453200  0.429600  1.0  -0.1543
  C  C453  1  0.900400  0.452000  0.432900  1.0  -0.0295
  C  C454  1  0.940100  0.414300  0.420600  1.0  -0.1232
  C  C455  1  0.891400  0.378400  0.404100  1.0  0.1503
  C  C456  1  0.950600  0.490400  0.452700  1.0  0.3989
  C  C457  1  0.962300  0.553300  0.499200  1.0  0.319
  C  C458  1  0.087000  0.523400  0.464200  1.0  0.3132
  C  C459  1  0.917400  0.646600  0.588300  1.0  0.1502
  C  C460  1  0.966500  0.615200  0.557500  1.0  -0.0727
  C  C461  1  0.917300  0.586200  0.530400  1.0  -0.1181
  C  C462  1  0.823400  0.588200  0.530800  1.0  -0.1368
  C  C463  1  0.782200  0.618700  0.561300  1.0  0.149
  C  C464  1  0.311100  0.490100  0.415900  1.0  0.1258
  C  C465  1  0.216200  0.490000  0.426900  1.0  -0.0909
  C  C466  1  0.182800  0.523700  0.455400  1.0  -0.0889
  C  C467  1  0.239200  0.555100  0.473500  1.0  -0.1836
  C  C468  1  0.329800  0.552200  0.462300  1.0  0.1351
  C  C469  1  0.390100  0.045700  0.460300  1.0  0.0946
  C  C470  1  0.478300  0.048000  0.469000  1.0  -0.0605
  C  C471  1  0.543300  0.021700  0.445700  1.0  -0.1191
  C  C472  1  0.510300  0.993400  0.410800  1.0  -0.1516
  C  C473  1  0.419300  0.992100  0.402800  1.0  0.1318
  C  C474  1  0.640000  0.021400  0.456200  1.0  0.3932
  C  C475  1  0.756300  0.047400  0.494400  1.0  0.3372
  C  C476  1  0.769300  0.986000  0.447900  1.0  0.3885
  C  C477  1  0.929200  0.106500  0.566800  1.0  0.1896
  C  C478  1  0.893700  0.078300  0.534700  1.0  -0.1291
  C  C479  1  0.797900  0.079800  0.527100  1.0  -0.1127
  C  C480  1  0.750100  0.111400  0.554800  1.0  -0.1049
  C  C481  1  0.793400  0.138800  0.584800  1.0  0.1244
  C  C482  1  0.819600  0.872700  0.393000  1.0  0.1238
  C  C483  1  0.773200  0.909900  0.413000  1.0  -0.1052
  C  C484  1  0.818100  0.946100  0.428200  1.0  -0.0737
  C  C485  1  0.912100  0.946000  0.425000  1.0  -0.1681
  C  C486  1  0.953000  0.909000  0.403800  1.0  0.1309
  C  C487  1  0.799500  0.785200  0.299300  1.0  0.1118
  C  C488  1  0.724400  0.760400  0.291500  1.0  -0.1204
  C  C489  1  0.701200  0.734000  0.314800  1.0  -0.0574
  C  C490  1  0.758100  0.734000  0.346400  1.0  -0.1456
  C  C491  1  0.834600  0.759000  0.351800  1.0  0.1515
  C  C492  1  0.619400  0.707300  0.306900  1.0  0.381
  C  C493  1  0.490100  0.689200  0.273500  1.0  0.333
  C  C494  1  0.538000  0.653200  0.316000  1.0  0.4492
  C  C495  1  0.309700  0.665600  0.194100  1.0  0.1099
  C  C496  1  0.363400  0.662500  0.227800  1.0  -0.1259
  C  C497  1  0.426100  0.693500  0.242200  1.0  -0.0196
  C  C498  1  0.432200  0.725000  0.224000  1.0  -0.1818
  C  C499  1  0.377000  0.724900  0.192900  1.0  0.1467
  C  C500  1  0.584500  0.573300  0.370000  1.0  0.1249
  C  C501  1  0.597200  0.603100  0.350200  1.0  -0.1621
  C  C502  1  0.524300  0.621500  0.336600  1.0  -0.0654
  C  C503  1  0.438900  0.608000  0.344900  1.0  -0.1663
  C  C504  1  0.432100  0.576900  0.364700  1.0  0.1256
  I  I505  1  0.586300  0.339100  0.855710  1.0  -0.4449
  I  I506  1  0.748060  0.237190  0.888060  1.0  -0.3492
  I  I507  1  0.674580  0.642360  0.209700  1.0  -0.4005
  I  I508  1  0.600610  0.706930  0.113020  1.0  -0.3469
  I  I509  1  0.094120  0.956310  0.017680  1.0  -0.4111
  I  I510  1  0.171610  0.055930  0.126780  1.0  -0.4288
  I  I511  1  0.982810  0.180270  0.049490  1.0  -0.3349
  I  I512  1  0.064670  0.178690  0.170260  1.0  -0.3495
  I  I513  1  0.478400  0.562620  0.132590  1.0  -0.4688
  I  I514  1  0.552840  0.464010  0.020810  1.0  -0.4331
  I  I515  1  0.112620  0.341070  0.355440  1.0  -0.4049
  I  I516  1  0.269620  0.237970  0.384980  1.0  -0.3621
  I  I517  1  0.890540  0.730330  0.884340  1.0  -0.375
  I  I518  1  0.067030  0.828850  0.858000  1.0  -0.4604
  I  I519  1  0.174110  0.691640  0.555260  1.0  -0.3169
  I  I520  1  0.123750  0.675260  0.673670  1.0  -0.4
  I  I521  1  0.023820  0.554050  0.634490  1.0  -0.4541
  I  I522  1  0.100930  0.452150  0.528050  1.0  -0.4833
  I  I523  1  0.621650  0.964240  0.527320  1.0  -0.4289
  I  I524  1  0.694180  0.059330  0.639610  1.0  -0.4279
  I  I525  1  0.587140  0.856780  0.345610  1.0  -0.4402
  I  I526  1  0.454140  0.753340  0.385010  1.0  -0.3369
  I  I527  1  0.487450  0.139460  0.711120  1.0  -0.413
  I  I528  1  0.584470  0.211670  0.624770  1.0  -0.3784
  I  I529  1  0.086300  0.660900  0.144290  1.0  -0.4459
  I  I530  1  0.248060  0.762810  0.111940  1.0  -0.3487
  I  I531  1  0.174580  0.357640  0.790300  1.0  -0.401
  I  I532  1  0.100610  0.293070  0.886980  1.0  -0.35
  I  I533  1  0.594120  0.043690  0.982320  1.0  -0.4102
  I  I534  1  0.671610  0.944070  0.873220  1.0  -0.4307
  I  I535  1  0.482810  0.819730  0.950510  1.0  -0.3351
  I  I536  1  0.564670  0.821310  0.829740  1.0  -0.3497
  I  I537  1  0.978400  0.437380  0.867410  1.0  -0.4693
  I  I538  1  0.052840  0.535990  0.979190  1.0  -0.4324
  I  I539  1  0.612620  0.658930  0.644560  1.0  -0.4039
  I  I540  1  0.769620  0.762030  0.615020  1.0  -0.3616
  I  I541  1  0.390540  0.269670  0.115660  1.0  -0.3726
  I  I542  1  0.567030  0.171150  0.142000  1.0  -0.4613
  I  I543  1  0.674110  0.308360  0.444740  1.0  -0.3178
  I  I544  1  0.623750  0.324740  0.326330  1.0  -0.3998
  I  I545  1  0.523820  0.445950  0.365510  1.0  -0.4517
  I  I546  1  0.600930  0.547850  0.471950  1.0  -0.4809
  I  I547  1  0.121650  0.035760  0.472680  1.0  -0.4289
  I  I548  1  0.194180  0.940670  0.360390  1.0  -0.4275
  I  I549  1  0.087140  0.143220  0.654390  1.0  -0.4405
  I  I550  1  0.954140  0.246660  0.614990  1.0  -0.3377
  I  I551  1  0.987450  0.860540  0.288880  1.0  -0.4136
  I  I552  1  0.084470  0.788330  0.375230  1.0  -0.3776
  N  N553  1  0.795400  0.351800  0.912400  1.0  -0.3245
  N  N554  1  0.009200  0.440500  0.013500  1.0  -0.3548
  N  N555  1  0.995700  0.506000  0.066400  1.0  -0.3879
  N  N556  1  0.867500  0.477100  0.026300  1.0  -0.4461
  N  N557  1  0.323300  0.481900  0.068800  1.0  -0.2512
  N  N558  1  0.769400  0.619500  0.113400  1.0  -0.2878
  N  N559  1  0.817500  0.712300  0.165300  1.0  -0.3106
  N  N560  1  0.047200  0.824400  0.171500  1.0  -0.4072
  N  N561  1  0.184100  0.846800  0.205900  1.0  -0.4613
  N  N562  1  0.105400  0.787200  0.216200  1.0  -0.4504
  N  N563  1  0.162900  0.939800  0.113900  1.0  -0.2691
  N  N564  1  0.362000  0.813400  0.315800  1.0  -0.3111
  N  N565  1  0.322100  0.973000  0.067500  1.0  -0.3246
  N  N566  1  0.636400  0.939400  0.012000  1.0  -0.407
  N  N567  1  0.775000  0.976500  0.023500  1.0  -0.4026
  N  N568  1  0.646600  0.002600  0.063800  1.0  -0.4262
  N  N569  1  0.854400  0.848500  0.912300  1.0  -0.3511
  N  N570  1  0.876400  0.117400  0.106300  1.0  -0.2999
  N  N571  1  0.845600  0.218200  0.143700  1.0  -0.3112
  N  N572  1  0.608400  0.329100  0.164500  1.0  -0.4535
  N  N573  1  0.486000  0.352000  0.206700  1.0  -0.3542
  N  N574  1  0.571600  0.294100  0.213400  1.0  -0.3911
  N  N575  1  0.481100  0.446000  0.114900  1.0  -0.3186
  N  N576  1  0.337800  0.308100  0.320000  1.0  -0.3363
  N  N577  1  0.838700  0.803900  0.820800  1.0  -0.2845
  N  N578  1  0.610400  0.790500  0.714000  1.0  -0.3905
  N  N579  1  0.575200  0.828800  0.667000  1.0  -0.4838
  N  N580  1  0.703400  0.847500  0.708500  1.0  -0.3096
  N  N581  1  0.335300  0.719300  0.642000  1.0  -0.3364
  N  N582  1  0.706500  0.943700  0.616300  1.0  -0.3441
  N  N583  1  0.302400  0.622400  0.601300  1.0  -0.3626
  N  N584  1  0.409800  0.479900  0.520500  1.0  -0.4105
  N  N585  1  0.551300  0.444400  0.506200  1.0  -0.3799
  N  N586  1  0.539600  0.510300  0.556500  1.0  -0.3274
  N  N587  1  0.328100  0.353100  0.412400  1.0  -0.3064
  N  N588  1  0.865000  0.478200  0.567400  1.0  -0.307
  N  N589  1  0.859900  0.983500  0.573200  1.0  -0.3322
  N  N590  1  0.170900  0.947300  0.514200  1.0  -0.3832
  N  N591  1  0.310200  0.985400  0.523000  1.0  -0.4161
  N  N592  1  0.182900  0.012400  0.564000  1.0  -0.4409
  N  N593  1  0.385700  0.864900  0.408800  1.0  -0.3332
  N  N594  1  0.406200  0.126300  0.612700  1.0  -0.2945
  N  N595  1  0.355300  0.216800  0.670500  1.0  -0.3161
  N  N596  1  0.058500  0.282700  0.717500  1.0  -0.445
  N  N597  1  0.974700  0.341400  0.708400  1.0  -0.3903
  N  N598  1  0.113600  0.324000  0.676200  1.0  -0.4003
  N  N599  1  0.815600  0.303700  0.820300  1.0  -0.2611
  N  N600  1  0.002000  0.439700  0.619500  1.0  -0.3064
  N  N601  1  0.295400  0.648200  0.087600  1.0  -0.3222
  N  N602  1  0.509200  0.559500  0.986500  1.0  -0.3537
  N  N603  1  0.495700  0.494000  0.933600  1.0  -0.3884
  N  N604  1  0.367500  0.522900  0.973700  1.0  -0.4488
  N  N605  1  0.823300  0.518100  0.931200  1.0  -0.2515
  N  N606  1  0.269400  0.380500  0.886600  1.0  -0.2898
  N  N607  1  0.317500  0.287700  0.834700  1.0  -0.3099
  N  N608  1  0.547200  0.175600  0.828500  1.0  -0.4075
  N  N609  1  0.684100  0.153200  0.794100  1.0  -0.4621
  N  N610  1  0.605400  0.212800  0.783800  1.0  -0.4511
  N  N611  1  0.662900  0.060200  0.886100  1.0  -0.2685
  N  N612  1  0.862000  0.186600  0.684200  1.0  -0.3098
  N  N613  1  0.822100  0.027000  0.932500  1.0  -0.3242
  N  N614  1  0.136400  0.060600  0.988000  1.0  -0.4072
  N  N615  1  0.275000  0.023500  0.976500  1.0  -0.404
  N  N616  1  0.146600  0.997400  0.936200  1.0  -0.4268
  N  N617  1  0.354400  0.151500  0.087700  1.0  -0.3526
  N  N618  1  0.376400  0.882600  0.893700  1.0  -0.2988
  N  N619  1  0.345600  0.781800  0.856300  1.0  -0.3123
  N  N620  1  0.108400  0.670900  0.835500  1.0  -0.4522
  N  N621  1  0.986000  0.648000  0.793300  1.0  -0.3559
  N  N622  1  0.071600  0.705900  0.786600  1.0  -0.3907
  N  N623  1  0.981100  0.554000  0.885100  1.0  -0.3187
  N  N624  1  0.837800  0.691900  0.680000  1.0  -0.3361
  N  N625  1  0.338700  0.196100  0.179200  1.0  -0.2878
  N  N626  1  0.110400  0.209500  0.286000  1.0  -0.3874
  N  N627  1  0.075200  0.171200  0.333000  1.0  -0.4836
  N  N628  1  0.203400  0.152500  0.291500  1.0  -0.3092
  N  N629  1  0.835300  0.280700  0.358000  1.0  -0.3364
  N  N630  1  0.206500  0.056300  0.383700  1.0  -0.3445
  N  N631  1  0.802400  0.377600  0.398700  1.0  -0.3643
  N  N632  1  0.909800  0.520100  0.479500  1.0  -0.4122
  N  N633  1  0.051300  0.555600  0.493800  1.0  -0.3799
  N  N634  1  0.039600  0.489700  0.443500  1.0  -0.3299
  N  N635  1  0.828100  0.646900  0.587600  1.0  -0.3061
  N  N636  1  0.365000  0.521800  0.432600  1.0  -0.3073
  N  N637  1  0.359900  0.016500  0.426800  1.0  -0.3336
  N  N638  1  0.670900  0.052700  0.485800  1.0  -0.3818
  N  N639  1  0.810200  0.014600  0.477000  1.0  -0.4189
  N  N640  1  0.682900  0.987600  0.436000  1.0  -0.4424
  N  N641  1  0.885700  0.135100  0.591200  1.0  -0.3343
  N  N642  1  0.906200  0.873700  0.387300  1.0  -0.294
  N  N643  1  0.855300  0.783200  0.329500  1.0  -0.3172
  N  N644  1  0.558500  0.717300  0.282500  1.0  -0.4468
  N  N645  1  0.474700  0.658600  0.291600  1.0  -0.3908
  N  N646  1  0.613600  0.676000  0.323800  1.0  -0.3982
  N  N647  1  0.315600  0.696300  0.179700  1.0  -0.2637
  N  N648  1  0.502000  0.560300  0.380500  1.0  -0.3078
