# generated using pymatgen
data_ZnH8C12(IN2)2
_symmetry_space_group_name_H-M   'P 1'
_cell_length_a   14.77400000
_cell_length_b   19.34220000
_cell_length_c   30.59400000
_cell_angle_alpha   100.75300000
_cell_angle_beta   90.00000000
_cell_angle_gamma   112.45200000
_symmetry_Int_Tables_number   1
_chemical_formula_structural   ZnH8C12(IN2)2
_chemical_formula_sum   'Zn12 H96 C144 I24 N48'
_cell_volume   7913.54262228
_cell_formula_units_Z   12
loop_
 _symmetry_equiv_pos_site_id
 _symmetry_equiv_pos_as_xyz
  1  'x, y, z'
loop_
 _atom_site_type_symbol
 _atom_site_label
 _atom_site_symmetry_multiplicity
 _atom_site_fract_x
 _atom_site_fract_y
 _atom_site_fract_z
 _atom_site_occupancy
 _atom_site_charge
  Zn  Zn1  1  0.190610  0.667260  0.724540  1.0  0.8484
  Zn  Zn2  1  0.730550  0.250900  0.569680  1.0  0.8759
  Zn  Zn3  1  0.794410  0.851140  0.400010  1.0  0.8298
  Zn  Zn4  1  0.476650  0.667260  0.224540  1.0  0.8504
  Zn  Zn5  1  0.520350  0.250900  0.069680  1.0  0.8735
  Zn  Zn6  1  0.056730  0.851140  0.900010  1.0  0.8324
  Zn  Zn7  1  0.523350  0.332740  0.775460  1.0  0.8483
  Zn  Zn8  1  0.479650  0.749100  0.930320  1.0  0.8754
  Zn  Zn9  1  0.943270  0.148860  0.099990  1.0  0.8306
  Zn  Zn10  1  0.809390  0.332740  0.275460  1.0  0.8504
  Zn  Zn11  1  0.269450  0.749100  0.430320  1.0  0.8737
  Zn  Zn12  1  0.205590  0.148860  0.599990  1.0  0.8324
  H  H13  1  0.345600  0.782200  0.685800  1.0  0.083
  H  H14  1  0.367300  0.857200  0.634000  1.0  0.11
  H  H15  1  0.079700  0.751600  0.595300  1.0  0.1151
  H  H16  1  0.065800  0.674800  0.647300  1.0  0.1033
  H  H17  1  0.562600  0.151400  0.494700  1.0  0.0794
  H  H18  1  0.412100  0.047200  0.487300  1.0  0.1188
  H  H19  1  0.454000  0.049400  0.619500  1.0  0.111
  H  H20  1  0.594700  0.158200  0.622700  1.0  0.0817
  H  H21  1  0.860600  0.778400  0.463300  1.0  0.0827
  H  H22  1  0.998000  0.785000  0.503400  1.0  0.1204
  H  H23  1  0.146000  0.991800  0.472700  1.0  0.1265
  H  H24  1  0.999900  0.976000  0.433200  1.0  0.0755
  H  H25  1  0.959700  0.839600  0.351600  1.0  0.0971
  H  H26  1  0.005300  0.758000  0.299300  1.0  0.1145
  H  H27  1  0.723200  0.604400  0.287100  1.0  0.118
  H  H28  1  0.687000  0.690200  0.341000  1.0  0.0898
  H  H29  1  0.285800  0.541600  0.177100  1.0  0.092
  H  H30  1  0.120700  0.516800  0.172100  1.0  0.0993
  H  H31  1  0.169900  0.706400  0.264500  1.0  0.1081
  H  H32  1  0.336100  0.731600  0.265200  1.0  0.0908
  H  H33  1  0.543500  0.361800  0.157600  1.0  0.1009
  H  H34  1  0.667100  0.465600  0.201600  1.0  0.1046
  H  H35  1  0.867400  0.410800  0.130100  1.0  0.1172
  H  H36  1  0.739400  0.313000  0.083800  1.0  0.1034
  H  H37  1  0.436600  0.782200  0.185800  1.0  0.0831
  H  H38  1  0.489900  0.857200  0.134000  1.0  0.1104
  H  H39  1  0.671900  0.751600  0.095300  1.0  0.1146
  H  H40  1  0.609000  0.674800  0.147300  1.0  0.1036
  H  H41  1  0.588800  0.151400  0.994700  1.0  0.0796
  H  H42  1  0.635100  0.047200  0.987300  1.0  0.119
  H  H43  1  0.595400  0.049400  0.119500  1.0  0.1109
  H  H44  1  0.563500  0.158200  0.122700  1.0  0.0817
  H  H45  1  0.917800  0.778400  0.963300  1.0  0.0827
  H  H46  1  0.787000  0.785000  0.003400  1.0  0.1206
  H  H47  1  0.845800  0.991800  0.972700  1.0  0.1267
  H  H48  1  0.976100  0.976000  0.933200  1.0  0.0756
  H  H49  1  0.879900  0.839600  0.851600  1.0  0.0975
  H  H50  1  0.752700  0.758000  0.799300  1.0  0.1148
  H  H51  1  0.881200  0.604400  0.787100  1.0  0.1179
  H  H52  1  0.003200  0.690200  0.841000  1.0  0.0888
  H  H53  1  0.255800  0.541600  0.677100  1.0  0.0917
  H  H54  1  0.396100  0.516800  0.672100  1.0  0.0995
  H  H55  1  0.536500  0.706400  0.764500  1.0  0.1077
  H  H56  1  0.395500  0.731600  0.765200  1.0  0.0909
  H  H57  1  0.818300  0.361800  0.657600  1.0  0.1006
  H  H58  1  0.798500  0.465600  0.701600  1.0  0.1043
  H  H59  1  0.543400  0.410800  0.630100  1.0  0.117
  H  H60  1  0.573600  0.313000  0.583800  1.0  0.1042
  H  H61  1  0.563400  0.217800  0.814200  1.0  0.0822
  H  H62  1  0.510100  0.142800  0.866000  1.0  0.11
  H  H63  1  0.328100  0.248400  0.904700  1.0  0.1148
  H  H64  1  0.391000  0.325200  0.852700  1.0  0.1038
  H  H65  1  0.411200  0.848600  0.005300  1.0  0.0794
  H  H66  1  0.364900  0.952800  0.012700  1.0  0.1187
  H  H67  1  0.404600  0.950600  0.880500  1.0  0.1107
  H  H68  1  0.436500  0.841800  0.877300  1.0  0.0815
  H  H69  1  0.082200  0.221600  0.036700  1.0  0.0833
  H  H70  1  0.213000  0.215000  0.996600  1.0  0.1209
  H  H71  1  0.154200  0.008200  0.027300  1.0  0.1267
  H  H72  1  0.023900  0.024000  0.066800  1.0  0.0759
  H  H73  1  0.120100  0.160400  0.148400  1.0  0.0972
  H  H74  1  0.247300  0.242000  0.200700  1.0  0.1149
  H  H75  1  0.118800  0.395600  0.212900  1.0  0.1175
  H  H76  1  0.996800  0.309800  0.159000  1.0  0.0897
  H  H77  1  0.744200  0.458400  0.322900  1.0  0.0926
  H  H78  1  0.603900  0.483200  0.327900  1.0  0.0998
  H  H79  1  0.463500  0.293600  0.235500  1.0  0.108
  H  H80  1  0.604500  0.268400  0.234800  1.0  0.0902
  H  H81  1  0.181700  0.638200  0.342400  1.0  0.1006
  H  H82  1  0.201500  0.534400  0.298400  1.0  0.1056
  H  H83  1  0.456600  0.589200  0.369900  1.0  0.1169
  H  H84  1  0.426400  0.687000  0.416200  1.0  0.1035
  H  H85  1  0.654400  0.217800  0.314200  1.0  0.0824
  H  H86  1  0.632700  0.142800  0.366000  1.0  0.1103
  H  H87  1  0.920300  0.248400  0.404700  1.0  0.1145
  H  H88  1  0.934200  0.325200  0.352700  1.0  0.104
  H  H89  1  0.437400  0.848600  0.505300  1.0  0.079
  H  H90  1  0.587900  0.952800  0.512700  1.0  0.1181
  H  H91  1  0.546000  0.950600  0.380500  1.0  0.1107
  H  H92  1  0.405300  0.841800  0.377300  1.0  0.0816
  H  H93  1  0.139400  0.221600  0.536700  1.0  0.0831
  H  H94  1  0.002000  0.215000  0.496600  1.0  0.1212
  H  H95  1  0.854000  0.008200  0.527300  1.0  0.1265
  H  H96  1  0.000100  0.024000  0.566800  1.0  0.0759
  H  H97  1  0.040300  0.160400  0.648400  1.0  0.0975
  H  H98  1  0.994700  0.242000  0.700700  1.0  0.1149
  H  H99  1  0.276800  0.395600  0.712900  1.0  0.117
  H  H100  1  0.313000  0.309800  0.659000  1.0  0.0888
  H  H101  1  0.714200  0.458400  0.822900  1.0  0.093
  H  H102  1  0.879300  0.483200  0.827900  1.0  0.0998
  H  H103  1  0.830100  0.293600  0.735500  1.0  0.1079
  H  H104  1  0.663900  0.268400  0.734800  1.0  0.09
  H  H105  1  0.456500  0.638200  0.842400  1.0  0.1002
  H  H106  1  0.332900  0.534400  0.798400  1.0  0.1056
  H  H107  1  0.132600  0.589200  0.869900  1.0  0.117
  H  H108  1  0.260600  0.687000  0.916200  1.0  0.1048
  C  C109  1  0.289800  0.776800  0.667900  1.0  0.1699
  C  C110  1  0.303300  0.821600  0.637100  1.0  -0.15
  C  C111  1  0.224900  0.815600  0.610500  1.0  -0.0543
  C  C112  1  0.135400  0.759600  0.614200  1.0  -0.105
  C  C113  1  0.127000  0.715000  0.645500  1.0  0.1042
  C  C114  1  0.235300  0.869800  0.579400  1.0  0.3895
  C  C115  1  0.328000  0.968600  0.549700  1.0  0.3857
  C  C116  1  0.170400  0.903000  0.523300  1.0  0.3584
  C  C117  1  0.539100  0.130000  0.520000  1.0  0.134
  C  C118  1  0.451100  0.068000  0.514900  1.0  -0.1412
  C  C119  1  0.422800  0.037400  0.553200  1.0  -0.0761
  C  C120  1  0.474900  0.069800  0.593600  1.0  -0.1546
  C  C121  1  0.558500  0.132800  0.594700  1.0  0.1432
  C  C122  1  0.919800  0.822000  0.464600  1.0  0.1488
  C  C123  1  0.000300  0.826000  0.490000  1.0  -0.1729
  C  C124  1  0.083800  0.892000  0.494900  1.0  -0.0591
  C  C125  1  0.087500  0.947600  0.472000  1.0  -0.1513
  C  C126  1  0.000000  0.936000  0.447100  1.0  0.1457
  C  C127  1  0.912100  0.790600  0.338700  1.0  0.1473
  C  C128  1  0.939500  0.742200  0.307500  1.0  -0.0841
  C  C129  1  0.871600  0.672000  0.288800  1.0  -0.1026
  C  C130  1  0.773200  0.652000  0.300700  1.0  -0.1253
  C  C131  1  0.752200  0.703200  0.332400  1.0  0.138
  C  C132  1  0.899600  0.617600  0.255900  1.0  0.3377
  C  C133  1  0.015600  0.589800  0.219800  1.0  0.2222
  C  C134  1  0.859700  0.514400  0.200500  1.0  0.34
  C  C135  1  0.262200  0.576400  0.194500  1.0  0.1157
  C  C136  1  0.163800  0.561000  0.192100  1.0  -0.1039
  C  C137  1  0.125500  0.608000  0.218000  1.0  -0.0402
  C  C138  1  0.192300  0.672200  0.245700  1.0  -0.1168
  C  C139  1  0.291100  0.686800  0.246200  1.0  0.1409
  C  C140  1  0.610000  0.374000  0.151000  1.0  0.1282
  C  C141  1  0.683000  0.433800  0.177900  1.0  -0.0845
  C  C142  1  0.779600  0.447600  0.170500  1.0  -0.102
  C  C143  1  0.801100  0.402400  0.135500  1.0  -0.1015
  C  C144  1  0.725300  0.344800  0.108100  1.0  0.1384
  C  C145  1  0.487000  0.776800  0.167900  1.0  0.1692
  C  C146  1  0.518300  0.821600  0.137100  1.0  -0.1491
  C  C147  1  0.590700  0.815600  0.110500  1.0  -0.0541
  C  C148  1  0.624200  0.759600  0.114200  1.0  -0.1039
  C  C149  1  0.588000  0.715000  0.145500  1.0  0.1056
  C  C150  1  0.634500  0.869800  0.079400  1.0  0.3901
  C  C151  1  0.640600  0.968600  0.049700  1.0  0.3859
  C  C152  1  0.732600  0.903000  0.023300  1.0  0.3581
  C  C153  1  0.590900  0.130000  0.020000  1.0  0.1328
  C  C154  1  0.616900  0.068000  0.014900  1.0  -0.1412
  C  C155  1  0.614600  0.037400  0.053200  1.0  -0.0763
  C  C156  1  0.594900  0.069800  0.093600  1.0  -0.154
  C  C157  1  0.574300  0.132800  0.094700  1.0  0.1414
  C  C158  1  0.902200  0.822000  0.964600  1.0  0.1477
  C  C159  1  0.825700  0.826000  0.990000  1.0  -0.1731
  C  C160  1  0.808200  0.892000  0.994900  1.0  -0.0594
  C  C161  1  0.860100  0.947600  0.972000  1.0  -0.1519
  C  C162  1  0.936000  0.936000  0.947100  1.0  0.1458
  C  C163  1  0.878500  0.790600  0.838700  1.0  0.1475
  C  C164  1  0.802700  0.742200  0.807500  1.0  -0.0852
  C  C165  1  0.800400  0.672000  0.788800  1.0  -0.102
  C  C166  1  0.878800  0.652000  0.800700  1.0  -0.1261
  C  C167  1  0.951000  0.703200  0.832400  1.0  0.1379
  C  C168  1  0.718000  0.617600  0.755900  1.0  0.338
  C  C169  1  0.574200  0.589800  0.719800  1.0  0.2215
  C  C170  1  0.654700  0.514400  0.700500  1.0  0.34
  C  C171  1  0.314200  0.576400  0.694500  1.0  0.1175
  C  C172  1  0.397200  0.561000  0.692100  1.0  -0.1038
  C  C173  1  0.482500  0.608000  0.718000  1.0  -0.0391
  C  C174  1  0.479900  0.672200  0.745700  1.0  -0.116
  C  C175  1  0.395700  0.686800  0.746200  1.0  0.1391
  C  C176  1  0.764000  0.374000  0.651000  1.0  0.1281
  C  C177  1  0.750800  0.433800  0.677900  1.0  -0.0843
  C  C178  1  0.668000  0.447600  0.670500  1.0  -0.1019
  C  C179  1  0.601300  0.402400  0.635500  1.0  -0.1034
  C  C180  1  0.619500  0.344800  0.608100  1.0  0.1399
  C  C181  1  0.513000  0.223200  0.832100  1.0  0.1706
  C  C182  1  0.481700  0.178400  0.862900  1.0  -0.1502
  C  C183  1  0.409300  0.184400  0.889500  1.0  -0.0536
  C  C184  1  0.375800  0.240400  0.885800  1.0  -0.1058
  C  C185  1  0.412000  0.285000  0.854500  1.0  0.1038
  C  C186  1  0.365500  0.130200  0.920600  1.0  0.3888
  C  C187  1  0.359400  0.031400  0.950300  1.0  0.3855
  C  C188  1  0.267400  0.097000  0.976700  1.0  0.3578
  C  C189  1  0.409100  0.870000  0.980000  1.0  0.1356
  C  C190  1  0.383100  0.932000  0.985100  1.0  -0.1416
  C  C191  1  0.385400  0.962600  0.946800  1.0  -0.0763
  C  C192  1  0.405100  0.930200  0.906400  1.0  -0.1529
  C  C193  1  0.425700  0.867200  0.905300  1.0  0.1428
  C  C194  1  0.097800  0.178000  0.035400  1.0  0.1467
  C  C195  1  0.174300  0.174000  0.010000  1.0  -0.1734
  C  C196  1  0.191800  0.108000  0.005100  1.0  -0.0593
  C  C197  1  0.139900  0.052400  0.028000  1.0  -0.152
  C  C198  1  0.064000  0.064000  0.052900  1.0  0.1461
  C  C199  1  0.121500  0.209400  0.161300  1.0  0.1477
  C  C200  1  0.197300  0.257800  0.192500  1.0  -0.0844
  C  C201  1  0.199600  0.328000  0.211200  1.0  -0.1029
  C  C202  1  0.121200  0.348000  0.199300  1.0  -0.1249
  C  C203  1  0.049000  0.296800  0.167600  1.0  0.1365
  C  C204  1  0.282000  0.382400  0.244100  1.0  0.3378
  C  C205  1  0.425800  0.410200  0.280200  1.0  0.2221
  C  C206  1  0.345300  0.485600  0.299500  1.0  0.3411
  C  C207  1  0.685800  0.423600  0.305500  1.0  0.1166
  C  C208  1  0.602800  0.439000  0.307900  1.0  -0.1043
  C  C209  1  0.517500  0.392000  0.282000  1.0  -0.0405
  C  C210  1  0.520100  0.327800  0.254300  1.0  -0.1152
  C  C211  1  0.604300  0.313200  0.253800  1.0  0.1397
  C  C212  1  0.236000  0.626000  0.349000  1.0  0.1265
  C  C213  1  0.249200  0.566200  0.322100  1.0  -0.0859
  C  C214  1  0.332000  0.552400  0.329500  1.0  -0.1014
  C  C215  1  0.398700  0.597600  0.364500  1.0  -0.1022
  C  C216  1  0.380500  0.655200  0.391900  1.0  0.1395
  C  C217  1  0.710200  0.223200  0.332100  1.0  0.1699
  C  C218  1  0.696700  0.178400  0.362900  1.0  -0.1496
  C  C219  1  0.775100  0.184400  0.389500  1.0  -0.0539
  C  C220  1  0.864600  0.240400  0.385800  1.0  -0.1044
  C  C221  1  0.873000  0.285000  0.354500  1.0  0.105
  C  C222  1  0.764700  0.130200  0.420600  1.0  0.3895
  C  C223  1  0.672000  0.031400  0.450300  1.0  0.3856
  C  C224  1  0.829600  0.097000  0.476700  1.0  0.3575
  C  C225  1  0.460900  0.870000  0.480000  1.0  0.1345
  C  C226  1  0.548900  0.932000  0.485100  1.0  -0.1401
  C  C227  1  0.577200  0.962600  0.446800  1.0  -0.0767
  C  C228  1  0.525100  0.930200  0.406400  1.0  -0.1532
  C  C229  1  0.441500  0.867200  0.405300  1.0  0.1428
  C  C230  1  0.080200  0.178000  0.535400  1.0  0.147
  C  C231  1  0.999700  0.174000  0.510000  1.0  -0.1736
  C  C232  1  0.916200  0.108000  0.505100  1.0  -0.0591
  C  C233  1  0.912500  0.052400  0.528000  1.0  -0.1526
  C  C234  1  0.000000  0.064000  0.552900  1.0  0.1462
  C  C235  1  0.087900  0.209400  0.661300  1.0  0.1479
  C  C236  1  0.060500  0.257800  0.692500  1.0  -0.0847
  C  C237  1  0.128400  0.328000  0.711200  1.0  -0.1024
  C  C238  1  0.226800  0.348000  0.699300  1.0  -0.1253
  C  C239  1  0.247800  0.296800  0.667600  1.0  0.1363
  C  C240  1  0.100400  0.382400  0.744100  1.0  0.3383
  C  C241  1  0.984400  0.410200  0.780200  1.0  0.2221
  C  C242  1  0.140300  0.485600  0.799500  1.0  0.3413
  C  C243  1  0.737800  0.423600  0.805500  1.0  0.116
  C  C244  1  0.836200  0.439000  0.807900  1.0  -0.1033
  C  C245  1  0.874500  0.392000  0.782000  1.0  -0.0391
  C  C246  1  0.807700  0.327800  0.754300  1.0  -0.1166
  C  C247  1  0.708900  0.313200  0.753800  1.0  0.1382
  C  C248  1  0.390000  0.626000  0.849000  1.0  0.1265
  C  C249  1  0.317000  0.566200  0.822100  1.0  -0.0858
  C  C250  1  0.220400  0.552400  0.829500  1.0  -0.1017
  C  C251  1  0.198900  0.597600  0.864500  1.0  -0.1046
  C  C252  1  0.274700  0.655200  0.891900  1.0  0.1389
  I  I253  1  0.033790  0.546900  0.706000  1.0  -0.4702
  I  I254  1  0.218000  0.764380  0.797650  1.0  -0.4551
  I  I255  1  0.836980  0.205680  0.613810  1.0  -0.4254
  I  I256  1  0.777330  0.305180  0.500920  1.0  -0.3498
  I  I257  1  0.649880  0.783360  0.442060  1.0  -0.4314
  I  I258  1  0.828250  0.967320  0.366140  1.0  -0.3332
  I  I259  1  0.513110  0.546900  0.206000  1.0  -0.4692
  I  I260  1  0.546380  0.764380  0.297650  1.0  -0.4547
  I  I261  1  0.368700  0.205680  0.113810  1.0  -0.4245
  I  I262  1  0.527850  0.305180  0.000920  1.0  -0.3499
  I  I263  1  0.133480  0.783360  0.942060  1.0  -0.4316
  I  I264  1  0.139070  0.967320  0.866140  1.0  -0.3334
  I  I265  1  0.486890  0.453100  0.794000  1.0  -0.4713
  I  I266  1  0.453620  0.235620  0.702350  1.0  -0.4551
  I  I267  1  0.631300  0.794320  0.886190  1.0  -0.4246
  I  I268  1  0.472150  0.694820  0.999080  1.0  -0.3495
  I  I269  1  0.866520  0.216640  0.057940  1.0  -0.4322
  I  I270  1  0.860930  0.032680  0.133860  1.0  -0.3325
  I  I271  1  0.966210  0.453100  0.294000  1.0  -0.4714
  I  I272  1  0.782000  0.235620  0.202350  1.0  -0.4544
  I  I273  1  0.163020  0.794320  0.386190  1.0  -0.4238
  I  I274  1  0.222670  0.694820  0.499080  1.0  -0.3495
  I  I275  1  0.350120  0.216640  0.557940  1.0  -0.4326
  I  I276  1  0.171750  0.032680  0.633860  1.0  -0.333
  N  N277  1  0.205900  0.727800  0.674100  1.0  -0.3335
  N  N278  1  0.323600  0.924600  0.579300  1.0  -0.4483
  N  N279  1  0.255200  0.959600  0.520600  1.0  -0.4298
  N  N280  1  0.156800  0.855600  0.552000  1.0  -0.5194
  N  N281  1  0.593000  0.161600  0.558900  1.0  -0.3123
  N  N282  1  0.918600  0.873800  0.442000  1.0  -0.3076
  N  N283  1  0.820800  0.770400  0.351100  1.0  -0.299
  N  N284  1  0.995500  0.639000  0.251100  1.0  -0.3431
  N  N285  1  0.953200  0.528000  0.192400  1.0  -0.2427
  N  N286  1  0.826800  0.554600  0.233200  1.0  -0.4585
  N  N287  1  0.325500  0.639800  0.220700  1.0  -0.3119
  N  N288  1  0.631300  0.332800  0.115700  1.0  -0.2914
  N  N289  1  0.521900  0.727800  0.174100  1.0  -0.3347
  N  N290  1  0.601000  0.924600  0.079300  1.0  -0.4502
  N  N291  1  0.704400  0.959600  0.020600  1.0  -0.4291
  N  N292  1  0.698800  0.855600  0.052000  1.0  -0.5181
  N  N293  1  0.568600  0.161600  0.058900  1.0  -0.3123
  N  N294  1  0.955200  0.873800  0.942000  1.0  -0.3072
  N  N295  1  0.949600  0.770400  0.851100  1.0  -0.2983
  N  N296  1  0.643500  0.639000  0.751100  1.0  -0.3435
  N  N297  1  0.574800  0.528000  0.692400  1.0  -0.2416
  N  N298  1  0.727800  0.554600  0.733200  1.0  -0.4583
  N  N299  1  0.314300  0.639800  0.720700  1.0  -0.311
  N  N300  1  0.701500  0.332800  0.615700  1.0  -0.2914
  N  N301  1  0.478100  0.272200  0.825900  1.0  -0.3341
  N  N302  1  0.399000  0.075400  0.920700  1.0  -0.4474
  N  N303  1  0.295600  0.040400  0.979400  1.0  -0.4318
  N  N304  1  0.301200  0.144400  0.948000  1.0  -0.5194
  N  N305  1  0.431400  0.838400  0.941100  1.0  -0.3119
  N  N306  1  0.044800  0.126200  0.058000  1.0  -0.3069
  N  N307  1  0.050400  0.229600  0.148900  1.0  -0.2975
  N  N308  1  0.356500  0.361000  0.248900  1.0  -0.343
  N  N309  1  0.425200  0.472000  0.307600  1.0  -0.2402
  N  N310  1  0.272200  0.445400  0.266800  1.0  -0.4572
  N  N311  1  0.685700  0.360200  0.279300  1.0  -0.3108
  N  N312  1  0.298500  0.667200  0.384300  1.0  -0.2907
  N  N313  1  0.794100  0.272200  0.325900  1.0  -0.3352
  N  N314  1  0.676400  0.075400  0.420700  1.0  -0.4485
  N  N315  1  0.744800  0.040400  0.479400  1.0  -0.4309
  N  N316  1  0.843200  0.144400  0.448000  1.0  -0.5191
  N  N317  1  0.407000  0.838400  0.441100  1.0  -0.3133
  N  N318  1  0.081400  0.126200  0.558000  1.0  -0.3075
  N  N319  1  0.179200  0.229600  0.648900  1.0  -0.2966
  N  N320  1  0.004500  0.361000  0.748900  1.0  -0.3439
  N  N321  1  0.046800  0.472000  0.807600  1.0  -0.24
  N  N322  1  0.173200  0.445400  0.766800  1.0  -0.4568
  N  N323  1  0.674500  0.360200  0.779300  1.0  -0.3109
  N  N324  1  0.368700  0.667200  0.884300  1.0  -0.2909
