# generated using pymatgen
data_ZnH8C12(IN2)2
_symmetry_space_group_name_H-M   'P 1'
_cell_length_a   14.76720000
_cell_length_b   19.02150000
_cell_length_c   30.52700000
_cell_angle_alpha   100.20900000
_cell_angle_beta   90.00000000
_cell_angle_gamma   112.84100000
_symmetry_Int_Tables_number   1
_chemical_formula_structural   ZnH8C12(IN2)2
_chemical_formula_sum   'Zn12 H96 C144 I24 N48'
_cell_volume   7754.94661194
_cell_formula_units_Z   12
loop_
 _symmetry_equiv_pos_site_id
 _symmetry_equiv_pos_as_xyz
  1  'x, y, z'
loop_
 _atom_site_type_symbol
 _atom_site_label
 _atom_site_symmetry_multiplicity
 _atom_site_fract_x
 _atom_site_fract_y
 _atom_site_fract_z
 _atom_site_occupancy
 _atom_site_charge
  Zn  Zn1  1  0.474230  0.654840  0.227790  1.0  0.9017
  Zn  Zn2  1  0.052710  0.848480  0.900120  1.0  0.8791
  Zn  Zn3  1  0.521630  0.250980  0.064390  1.0  0.87
  Zn  Zn4  1  0.180610  0.654840  0.727790  1.0  0.9003
  Zn  Zn5  1  0.795770  0.848480  0.400120  1.0  0.8757
  Zn  Zn6  1  0.729350  0.250980  0.564390  1.0  0.8751
  Zn  Zn7  1  0.819390  0.345160  0.272210  1.0  0.9023
  Zn  Zn8  1  0.204230  0.151520  0.599880  1.0  0.8793
  Zn  Zn9  1  0.270650  0.749020  0.435610  1.0  0.8729
  Zn  Zn10  1  0.525770  0.345160  0.772210  1.0  0.9004
  Zn  Zn11  1  0.947290  0.151520  0.099880  1.0  0.8767
  Zn  Zn12  1  0.478370  0.749020  0.935610  1.0  0.8732
  H  H13  1  0.498700  0.808200  0.211200  1.0  0.0861
  H  H14  1  0.553900  0.887800  0.160100  1.0  0.1207
  H  H15  1  0.632700  0.723600  0.086800  1.0  0.1071
  H  H16  1  0.567200  0.645000  0.138600  1.0  0.1027
  H  H17  1  0.598100  0.152800  0.995100  1.0  0.0997
  H  H18  1  0.642200  0.047400  0.991300  1.0  0.1071
  H  H19  1  0.581700  0.042200  0.118900  1.0  0.1112
  H  H20  1  0.532100  0.143800  0.118900  1.0  0.0866
  H  H21  1  0.927100  0.776600  0.968600  1.0  0.0928
  H  H22  1  0.805700  0.788800  0.014500  1.0  0.1192
  H  H23  1  0.967600  0.971000  0.929400  1.0  0.0947
  H  H24  1  0.847400  0.989000  0.974500  1.0  0.1179
  H  H25  1  0.873600  0.839000  0.854400  1.0  0.0946
  H  H26  1  0.749100  0.760000  0.799200  1.0  0.1199
  H  H27  1  0.880200  0.606800  0.781300  1.0  0.1226
  H  H28  1  0.997400  0.688200  0.838800  1.0  0.0746
  H  H29  1  0.252100  0.533600  0.676800  1.0  0.0792
  H  H30  1  0.396300  0.511000  0.670600  1.0  0.1128
  H  H31  1  0.536800  0.712600  0.756900  1.0  0.1187
  H  H32  1  0.389600  0.728000  0.762600  1.0  0.0915
  H  H33  1  0.817200  0.363000  0.651500  1.0  0.0834
  H  H34  1  0.795700  0.462600  0.698600  1.0  0.1138
  H  H35  1  0.550400  0.420000  0.621300  1.0  0.1231
  H  H36  1  0.579400  0.319600  0.577000  1.0  0.0844
  H  H37  1  0.309500  0.808200  0.711200  1.0  0.0861
  H  H38  1  0.333900  0.887800  0.660100  1.0  0.1201
  H  H39  1  0.090900  0.723600  0.586800  1.0  0.1071
  H  H40  1  0.077800  0.645000  0.638600  1.0  0.1025
  H  H41  1  0.554700  0.152800  0.495100  1.0  0.0998
  H  H42  1  0.405200  0.047400  0.491300  1.0  0.107
  H  H43  1  0.460500  0.042200  0.618900  1.0  0.111
  H  H44  1  0.611700  0.143800  0.618900  1.0  0.0862
  H  H45  1  0.849500  0.776600  0.468600  1.0  0.0926
  H  H46  1  0.983100  0.788800  0.514500  1.0  0.1192
  H  H47  1  0.003400  0.971000  0.429400  1.0  0.0949
  H  H48  1  0.141600  0.989000  0.474500  1.0  0.1175
  H  H49  1  0.965400  0.839000  0.354400  1.0  0.0942
  H  H50  1  0.010900  0.760000  0.299200  1.0  0.1195
  H  H51  1  0.726600  0.606800  0.281300  1.0  0.1225
  H  H52  1  0.690800  0.688200  0.338800  1.0  0.0747
  H  H53  1  0.281500  0.533600  0.176800  1.0  0.0789
  H  H54  1  0.114700  0.511000  0.170600  1.0  0.1127
  H  H55  1  0.175800  0.712600  0.256900  1.0  0.1193
  H  H56  1  0.338400  0.728000  0.262600  1.0  0.0909
  H  H57  1  0.545800  0.363000  0.151500  1.0  0.0836
  H  H58  1  0.666900  0.462600  0.198600  1.0  0.1145
  H  H59  1  0.869600  0.420000  0.121300  1.0  0.1224
  H  H60  1  0.740200  0.319600  0.077000  1.0  0.0844
  H  H61  1  0.690500  0.191800  0.288800  1.0  0.0858
  H  H62  1  0.666100  0.112200  0.339900  1.0  0.1201
  H  H63  1  0.909100  0.276400  0.413200  1.0  0.1076
  H  H64  1  0.922200  0.355000  0.361400  1.0  0.1024
  H  H65  1  0.445300  0.847200  0.504900  1.0  0.0999
  H  H66  1  0.594800  0.952600  0.508700  1.0  0.1066
  H  H67  1  0.539500  0.957800  0.381100  1.0  0.1109
  H  H68  1  0.388300  0.856200  0.381100  1.0  0.0863
  H  H69  1  0.150500  0.223400  0.531400  1.0  0.0932
  H  H70  1  0.016900  0.211200  0.485500  1.0  0.1189
  H  H71  1  0.996600  0.029000  0.570600  1.0  0.0949
  H  H72  1  0.858400  0.011000  0.525500  1.0  0.1177
  H  H73  1  0.034600  0.161000  0.645600  1.0  0.0949
  H  H74  1  0.989100  0.240000  0.700800  1.0  0.1199
  H  H75  1  0.273400  0.393200  0.718700  1.0  0.1219
  H  H76  1  0.309200  0.311800  0.661200  1.0  0.0747
  H  H77  1  0.718500  0.466400  0.823200  1.0  0.0801
  H  H78  1  0.885300  0.489000  0.829400  1.0  0.1134
  H  H79  1  0.824200  0.287400  0.743100  1.0  0.1193
  H  H80  1  0.661600  0.272000  0.737400  1.0  0.0907
  H  H81  1  0.454200  0.637000  0.848500  1.0  0.083
  H  H82  1  0.333100  0.537400  0.801400  1.0  0.115
  H  H83  1  0.130400  0.580000  0.878700  1.0  0.1226
  H  H84  1  0.259800  0.680400  0.923000  1.0  0.0849
  H  H85  1  0.501300  0.191800  0.788800  1.0  0.086
  H  H86  1  0.446100  0.112200  0.839900  1.0  0.1201
  H  H87  1  0.367300  0.276400  0.913200  1.0  0.1075
  H  H88  1  0.432800  0.355000  0.861400  1.0  0.1021
  H  H89  1  0.401900  0.847200  0.004900  1.0  0.1002
  H  H90  1  0.357800  0.952600  0.008700  1.0  0.1072
  H  H91  1  0.418300  0.957800  0.881100  1.0  0.1109
  H  H92  1  0.467900  0.856200  0.881100  1.0  0.0864
  H  H93  1  0.072900  0.223400  0.031400  1.0  0.0928
  H  H94  1  0.194300  0.211200  0.985500  1.0  0.1191
  H  H95  1  0.032400  0.029000  0.070600  1.0  0.0949
  H  H96  1  0.152600  0.011000  0.025500  1.0  0.1179
  H  H97  1  0.126400  0.161000  0.145600  1.0  0.0943
  H  H98  1  0.250900  0.240000  0.200800  1.0  0.1192
  H  H99  1  0.119800  0.393200  0.218700  1.0  0.1223
  H  H100  1  0.002600  0.311800  0.161200  1.0  0.0746
  H  H101  1  0.747900  0.466400  0.323200  1.0  0.0795
  H  H102  1  0.603700  0.489000  0.329400  1.0  0.1133
  H  H103  1  0.463200  0.287400  0.243100  1.0  0.1189
  H  H104  1  0.610400  0.272000  0.237400  1.0  0.0906
  H  H105  1  0.182800  0.637000  0.348500  1.0  0.0834
  H  H106  1  0.204300  0.537400  0.301400  1.0  0.1154
  H  H107  1  0.449600  0.580000  0.378700  1.0  0.1218
  H  H108  1  0.420600  0.680400  0.423000  1.0  0.0849
  C  C109  1  0.524890  0.790580  0.185100  1.0  0.1354
  C  C110  1  0.558900  0.838800  0.155200  1.0  -0.1442
  C  C111  1  0.601670  0.815140  0.116950  1.0  -0.0653
  C  C112  1  0.604270  0.741940  0.111900  1.0  -0.0932
  C  C113  1  0.565830  0.695260  0.143000  1.0  0.1216
  C  C114  1  0.639170  0.865340  0.084540  1.0  0.3828
  C  C115  1  0.644090  0.966580  0.053760  1.0  0.3726
  C  C116  1  0.736960  0.899920  0.028700  1.0  0.3872
  C  C117  1  0.593640  0.129280  0.020400  1.0  0.1142
  C  C118  1  0.620060  0.066720  0.018200  1.0  -0.1227
  C  C119  1  0.614930  0.032060  0.054330  1.0  0.0159
  C  C120  1  0.584000  0.063000  0.092600  1.0  -0.1692
  C  C121  1  0.556200  0.124400  0.092600  1.0  0.1408
  C  C122  1  0.910400  0.820400  0.969800  1.0  0.1288
  C  C123  1  0.838200  0.827400  0.997400  1.0  -0.1362
  C  C124  1  0.814350  0.891100  0.999730  1.0  -0.0931
  C  C125  1  0.934080  0.933360  0.947000  1.0  0.1424
  C  C126  1  0.862520  0.944640  0.973970  1.0  -0.148
  C  C127  1  0.873950  0.790700  0.839700  1.0  0.1575
  C  C128  1  0.799810  0.744220  0.806700  1.0  -0.1252
  C  C129  1  0.801120  0.674840  0.785230  1.0  -0.0783
  C  C130  1  0.876420  0.653640  0.796360  1.0  -0.1541
  C  C131  1  0.946450  0.703100  0.830300  1.0  0.1423
  C  C132  1  0.722220  0.623440  0.750280  1.0  0.3294
  C  C133  1  0.573180  0.593560  0.715280  1.0  0.1765
  C  C134  1  0.660030  0.519460  0.694120  1.0  0.3337
  C  C135  1  0.310410  0.569620  0.694000  1.0  0.1353
  C  C136  1  0.396390  0.555780  0.690200  1.0  -0.0955
  C  C137  1  0.481690  0.607780  0.715000  1.0  -0.1054
  C  C138  1  0.478540  0.673680  0.741000  1.0  -0.1559
  C  C139  1  0.390930  0.683060  0.743700  1.0  0.1409
  C  C140  1  0.762630  0.375260  0.645400  1.0  0.1539
  C  C141  1  0.750410  0.434420  0.673400  1.0  -0.1514
  C  C142  1  0.670480  0.453160  0.664650  1.0  -0.0717
  C  C143  1  0.606100  0.409600  0.628200  1.0  -0.1512
  C  C144  1  0.624500  0.350000  0.601900  1.0  0.1609
  C  C145  1  0.265690  0.790580  0.685100  1.0  0.1352
  C  C146  1  0.279900  0.838800  0.655200  1.0  -0.1439
  C  C147  1  0.213470  0.815140  0.616950  1.0  -0.0647
  C  C148  1  0.137670  0.741940  0.611900  1.0  -0.0928
  C  C149  1  0.129430  0.695260  0.643000  1.0  0.1214
  C  C150  1  0.226170  0.865340  0.584540  1.0  0.3822
  C  C151  1  0.322490  0.966580  0.553760  1.0  0.3718
  C  C152  1  0.162960  0.899920  0.528700  1.0  0.3867
  C  C153  1  0.535640  0.129280  0.520400  1.0  0.1146
  C  C154  1  0.446660  0.066720  0.518200  1.0  -0.1224
  C  C155  1  0.417130  0.032060  0.554330  1.0  0.0156
  C  C156  1  0.479000  0.063000  0.592600  1.0  -0.1688
  C  C157  1  0.568200  0.124400  0.592600  1.0  0.1406
  C  C158  1  0.910000  0.820400  0.469800  1.0  0.1311
  C  C159  1  0.989200  0.827400  0.497400  1.0  -0.1353
  C  C160  1  0.076750  0.891100  0.499730  1.0  -0.0933
  C  C161  1  0.999280  0.933360  0.447000  1.0  0.1418
  C  C162  1  0.082120  0.944640  0.473970  1.0  -0.1469
  C  C163  1  0.916750  0.790700  0.339700  1.0  0.1574
  C  C164  1  0.944410  0.744220  0.306700  1.0  -0.1238
  C  C165  1  0.873720  0.674840  0.285230  1.0  -0.0782
  C  C166  1  0.777220  0.653640  0.296360  1.0  -0.1541
  C  C167  1  0.756650  0.703100  0.330300  1.0  0.1421
  C  C168  1  0.901220  0.623440  0.250280  1.0  0.3292
  C  C169  1  0.020380  0.593560  0.215280  1.0  0.1769
  C  C170  1  0.859430  0.519460  0.194120  1.0  0.3336
  C  C171  1  0.259210  0.569620  0.194000  1.0  0.1352
  C  C172  1  0.159390  0.555780  0.190200  1.0  -0.096
  C  C173  1  0.126090  0.607780  0.215000  1.0  -0.1076
  C  C174  1  0.195140  0.673680  0.241000  1.0  -0.1561
  C  C175  1  0.292130  0.683060  0.243700  1.0  0.1413
  C  C176  1  0.612630  0.375260  0.145400  1.0  0.1546
  C  C177  1  0.684010  0.434420  0.173400  1.0  -0.1503
  C  C178  1  0.782680  0.453160  0.164650  1.0  -0.073
  C  C179  1  0.803500  0.409600  0.128200  1.0  -0.1488
  C  C180  1  0.725500  0.350000  0.101900  1.0  0.1595
  C  C181  1  0.734310  0.209420  0.314900  1.0  0.136
  C  C182  1  0.720100  0.161200  0.344800  1.0  -0.1438
  C  C183  1  0.786530  0.184860  0.383050  1.0  -0.0646
  C  C184  1  0.862330  0.258060  0.388100  1.0  -0.0933
  C  C185  1  0.870570  0.304740  0.357000  1.0  0.121
  C  C186  1  0.773830  0.134660  0.415460  1.0  0.3824
  C  C187  1  0.677510  0.033420  0.446240  1.0  0.3724
  C  C188  1  0.837040  0.100080  0.471300  1.0  0.3876
  C  C189  1  0.464360  0.870720  0.479600  1.0  0.1148
  C  C190  1  0.553340  0.933280  0.481800  1.0  -0.1218
  C  C191  1  0.582870  0.967940  0.445670  1.0  0.0157
  C  C192  1  0.521000  0.937000  0.407400  1.0  -0.1682
  C  C193  1  0.431800  0.875600  0.407400  1.0  0.1409
  C  C194  1  0.090000  0.179600  0.530200  1.0  0.1277
  C  C195  1  0.010800  0.172600  0.502600  1.0  -0.1353
  C  C196  1  0.923250  0.108900  0.500270  1.0  -0.0927
  C  C197  1  0.000720  0.066640  0.553000  1.0  0.143
  C  C198  1  0.917880  0.055360  0.526030  1.0  -0.1487
  C  C199  1  0.083250  0.209300  0.660300  1.0  0.1583
  C  C200  1  0.055590  0.255780  0.693300  1.0  -0.1249
  C  C201  1  0.126280  0.325160  0.714770  1.0  -0.0766
  C  C202  1  0.222780  0.346360  0.703640  1.0  -0.1537
  C  C203  1  0.243350  0.296900  0.669700  1.0  0.1415
  C  C204  1  0.098780  0.376560  0.749720  1.0  0.3288
  C  C205  1  0.979620  0.406440  0.784720  1.0  0.1771
  C  C206  1  0.140570  0.480540  0.805880  1.0  0.3348
  C  C207  1  0.740790  0.430380  0.806000  1.0  0.134
  C  C208  1  0.840610  0.444220  0.809800  1.0  -0.0963
  C  C209  1  0.873910  0.392220  0.785000  1.0  -0.1044
  C  C210  1  0.804860  0.326320  0.759000  1.0  -0.1555
  C  C211  1  0.707870  0.316940  0.756300  1.0  0.1404
  C  C212  1  0.387370  0.624740  0.854600  1.0  0.1535
  C  C213  1  0.315990  0.565580  0.826600  1.0  -0.1514
  C  C214  1  0.217320  0.546840  0.835350  1.0  -0.0753
  C  C215  1  0.196500  0.590400  0.871800  1.0  -0.1522
  C  C216  1  0.274500  0.650000  0.898100  1.0  0.1615
  C  C217  1  0.475110  0.209420  0.814900  1.0  0.1349
  C  C218  1  0.441100  0.161200  0.844800  1.0  -0.1446
  C  C219  1  0.398330  0.184860  0.883050  1.0  -0.064
  C  C220  1  0.395730  0.258060  0.888100  1.0  -0.093
  C  C221  1  0.434170  0.304740  0.857000  1.0  0.1204
  C  C222  1  0.360830  0.134660  0.915460  1.0  0.3817
  C  C223  1  0.355910  0.033420  0.946240  1.0  0.3717
  C  C224  1  0.263040  0.100080  0.971300  1.0  0.3872
  C  C225  1  0.406360  0.870720  0.979600  1.0  0.1149
  C  C226  1  0.379940  0.933280  0.981800  1.0  -0.1226
  C  C227  1  0.385070  0.967940  0.945670  1.0  0.0148
  C  C228  1  0.416000  0.937000  0.907400  1.0  -0.168
  C  C229  1  0.443800  0.875600  0.907400  1.0  0.1402
  C  C230  1  0.089600  0.179600  0.030200  1.0  0.1297
  C  C231  1  0.161800  0.172600  0.002600  1.0  -0.1355
  C  C232  1  0.185650  0.108900  0.000270  1.0  -0.0932
  C  C233  1  0.065920  0.066640  0.053000  1.0  0.1425
  C  C234  1  0.137480  0.055360  0.026030  1.0  -0.1471
  C  C235  1  0.126050  0.209300  0.160300  1.0  0.1581
  C  C236  1  0.200190  0.255780  0.193300  1.0  -0.1245
  C  C237  1  0.198880  0.325160  0.214770  1.0  -0.0766
  C  C238  1  0.123580  0.346360  0.203640  1.0  -0.154
  C  C239  1  0.053550  0.296900  0.169700  1.0  0.1414
  C  C240  1  0.277780  0.376560  0.249720  1.0  0.3288
  C  C241  1  0.426820  0.406440  0.284720  1.0  0.1773
  C  C242  1  0.339970  0.480540  0.305880  1.0  0.3347
  C  C243  1  0.689590  0.430380  0.306000  1.0  0.1352
  C  C244  1  0.603610  0.444220  0.309800  1.0  -0.0974
  C  C245  1  0.518310  0.392220  0.285000  1.0  -0.1068
  C  C246  1  0.521460  0.326320  0.259000  1.0  -0.1548
  C  C247  1  0.609070  0.316940  0.256300  1.0  0.1408
  C  C248  1  0.237370  0.624740  0.354600  1.0  0.1545
  C  C249  1  0.249590  0.565580  0.326600  1.0  -0.1517
  C  C250  1  0.329520  0.546840  0.335350  1.0  -0.0739
  C  C251  1  0.393900  0.590400  0.371800  1.0  -0.1505
  C  C252  1  0.375500  0.650000  0.398100  1.0  0.1615
  I  I253  1  0.537130  0.746720  0.303050  1.0  -0.4385
  I  I254  1  0.498920  0.529300  0.204290  1.0  -0.4675
  I  I255  1  0.136030  0.965960  0.864290  1.0  -0.3257
  I  I256  1  0.130890  0.776740  0.938960  1.0  -0.3848
  I  I257  1  0.364970  0.215660  0.104830  1.0  -0.4688
  I  I258  1  0.547780  0.300280  0.991860  1.0  -0.3612
  I  I259  1  0.209590  0.746720  0.803050  1.0  -0.4379
  I  I260  1  0.030380  0.529300  0.704290  1.0  -0.466
  I  I261  1  0.829930  0.965960  0.364290  1.0  -0.3265
  I  I262  1  0.645850  0.776740  0.438960  1.0  -0.3852
  I  I263  1  0.850690  0.215660  0.604830  1.0  -0.4694
  I  I264  1  0.752500  0.300280  0.491860  1.0  -0.3607
  I  I265  1  0.790410  0.253280  0.196950  1.0  -0.4393
  I  I266  1  0.969620  0.470700  0.295710  1.0  -0.4678
  I  I267  1  0.170070  0.034040  0.635710  1.0  -0.3264
  I  I268  1  0.354150  0.223260  0.561040  1.0  -0.3849
  I  I269  1  0.149310  0.784340  0.395170  1.0  -0.4689
  I  I270  1  0.247500  0.699720  0.508140  1.0  -0.3573
  I  I271  1  0.462870  0.253280  0.696950  1.0  -0.4387
  I  I272  1  0.501080  0.470700  0.795710  1.0  -0.4665
  I  I273  1  0.863970  0.034040  0.135710  1.0  -0.3274
  I  I274  1  0.869110  0.223260  0.061040  1.0  -0.3852
  I  I275  1  0.635030  0.784340  0.895170  1.0  -0.4694
  I  I276  1  0.452220  0.699720  0.008140  1.0  -0.3561
  N  N277  1  0.526550  0.719900  0.179550  1.0  -0.3116
  N  N278  1  0.608000  0.921600  0.084400  1.0  -0.3884
  N  N279  1  0.707780  0.956960  0.024700  1.0  -0.4298
  N  N280  1  0.704660  0.851920  0.057000  1.0  -0.4351
  N  N281  1  0.561670  0.157140  0.058040  1.0  -0.2965
  N  N282  1  0.956730  0.872460  0.945080  1.0  -0.2991
  N  N283  1  0.945750  0.770100  0.851470  1.0  -0.3086
  N  N284  1  0.644270  0.643740  0.745680  1.0  -0.4713
  N  N285  1  0.576990  0.532980  0.687600  1.0  -0.3059
  N  N286  1  0.730920  0.561040  0.726520  1.0  -0.4273
  N  N287  1  0.307250  0.631300  0.720840  1.0  -0.3008
  N  N288  1  0.700650  0.333333  0.609230  1.0  -0.3167
  N  N289  1  0.193350  0.719900  0.679550  1.0  -0.3108
  N  N290  1  0.313600  0.921600  0.584400  1.0  -0.3872
  N  N291  1  0.249180  0.956960  0.524700  1.0  -0.4302
  N  N292  1  0.147260  0.851920  0.557000  1.0  -0.4357
  N  N293  1  0.595470  0.157140  0.558040  1.0  -0.2967
  N  N294  1  0.915730  0.872460  0.445080  1.0  -0.2977
  N  N295  1  0.824350  0.770100  0.351470  1.0  -0.308
  N  N296  1  0.999470  0.643740  0.245680  1.0  -0.4714
  N  N297  1  0.955990  0.532980  0.187600  1.0  -0.3065
  N  N298  1  0.830120  0.561040  0.226520  1.0  -0.4265
  N  N299  1  0.324050  0.631300  0.220840  1.0  -0.3001
  N  N300  1  0.632650  0.333333  0.109230  1.0  -0.305
  N  N301  1  0.806650  0.280100  0.320450  1.0  -0.3108
  N  N302  1  0.686400  0.078400  0.415600  1.0  -0.3883
  N  N303  1  0.750820  0.043040  0.475300  1.0  -0.433
  N  N304  1  0.852740  0.148080  0.443000  1.0  -0.4361
  N  N305  1  0.404530  0.842860  0.441960  1.0  -0.2974
  N  N306  1  0.084270  0.127540  0.554920  1.0  -0.2992
  N  N307  1  0.175650  0.229900  0.648530  1.0  -0.3072
  N  N308  1  0.000530  0.356260  0.754320  1.0  -0.472
  N  N309  1  0.044010  0.467020  0.812400  1.0  -0.3039
  N  N310  1  0.169880  0.438960  0.773480  1.0  -0.4263
  N  N311  1  0.675950  0.368700  0.779160  1.0  -0.3009
  N  N312  1  0.367350  0.666667  0.890770  1.0  -0.3043
  N  N313  1  0.473450  0.280100  0.820450  1.0  -0.3102
  N  N314  1  0.392000  0.078400  0.915600  1.0  -0.3877
  N  N315  1  0.292220  0.043040  0.975300  1.0  -0.4337
  N  N316  1  0.295340  0.148080  0.943000  1.0  -0.4357
  N  N317  1  0.438330  0.842860  0.941960  1.0  -0.2958
  N  N318  1  0.043270  0.127540  0.054920  1.0  -0.2969
  N  N319  1  0.054250  0.229900  0.148530  1.0  -0.3069
  N  N320  1  0.355730  0.356260  0.254320  1.0  -0.4716
  N  N321  1  0.423010  0.467020  0.312400  1.0  -0.3037
  N  N322  1  0.269080  0.438960  0.273480  1.0  -0.426
  N  N323  1  0.692750  0.368700  0.279160  1.0  -0.3002
  N  N324  1  0.299350  0.666667  0.390770  1.0  -0.3178
