# generated using pymatgen
data_ZnH8C12(IN2)2
_symmetry_space_group_name_H-M   'P 1'
_cell_length_a   14.88400000
_cell_length_b   18.82180000
_cell_length_c   30.64600000
_cell_angle_alpha   100.24900000
_cell_angle_beta   90.00000000
_cell_angle_gamma   113.29000000
_symmetry_Int_Tables_number   1
_chemical_formula_structural   ZnH8C12(IN2)2
_chemical_formula_sum   'Zn12 H96 C144 I24 N48'
_cell_volume   7736.34872309
_cell_formula_units_Z   12
loop_
 _symmetry_equiv_pos_site_id
 _symmetry_equiv_pos_as_xyz
  1  'x, y, z'
loop_
 _atom_site_type_symbol
 _atom_site_label
 _atom_site_symmetry_multiplicity
 _atom_site_fract_x
 _atom_site_fract_y
 _atom_site_fract_z
 _atom_site_occupancy
 _atom_site_charge
  Zn  Zn1  1  0.355540  0.959480  0.231510  1.0  0.8507
  Zn  Zn2  1  0.211910  0.145020  0.409580  1.0  0.8964
  Zn  Zn3  1  0.668300  0.542400  0.582660  1.0  0.8894
  Zn  Zn4  1  0.603940  0.959480  0.731510  1.0  0.8519
  Zn  Zn5  1  0.933110  0.145020  0.909580  1.0  0.896
  Zn  Zn6  1  0.874100  0.542400  0.082660  1.0  0.8898
  Zn  Zn7  1  0.923420  0.051040  0.194190  1.0  0.8984
  Zn  Zn8  1  0.191400  0.636840  0.543000  1.0  0.9121
  Zn  Zn9  1  0.862960  0.446520  0.364510  1.0  0.8378
  Zn  Zn10  1  0.127620  0.051040  0.694190  1.0  0.8994
  Zn  Zn11  1  0.445440  0.636840  0.043000  1.0  0.9162
  Zn  Zn12  1  0.583560  0.446520  0.864510  1.0  0.8368
  H  H13  1  0.558200  0.989000  0.271200  1.0  0.1133
  H  H14  1  0.704000  0.104000  0.308100  1.0  0.1439
  H  H15  1  0.518700  0.200200  0.354500  1.0  0.0972
  H  H16  1  0.383400  0.091200  0.308400  1.0  0.0667
  H  H17  1  0.136600  0.267400  0.469900  1.0  0.0996
  H  H18  1  0.984200  0.282800  0.473700  1.0  0.0849
  H  H19  1  0.869900  0.091400  0.379000  1.0  0.1093
  H  H20  1  0.031100  0.088000  0.376600  1.0  0.056
  H  H21  1  0.573300  0.437800  0.495300  1.0  0.0981
  H  H22  1  0.589300  0.327800  0.449600  1.0  0.0801
  H  H23  1  0.853000  0.385200  0.516300  1.0  0.1067
  H  H24  1  0.799200  0.462200  0.572100  1.0  0.0761
  H  H25  1  0.059200  0.004000  0.437400  1.0  0.0665
  H  H26  1  0.052100  0.902000  0.477600  1.0  0.1041
  H  H27  1  0.308600  0.089600  0.545900  1.0  0.1068
  H  H28  1  0.297800  0.153200  0.490100  1.0  0.0408
  H  H29  1  0.853600  0.641200  0.647000  1.0  0.0721
  H  H30  1  0.998100  0.725400  0.641700  1.0  0.0957
  H  H31  1  0.954200  0.737800  0.521900  1.0  0.0795
  H  H32  1  0.790900  0.635800  0.518000  1.0  0.1549
  H  H33  1  0.404400  0.995400  0.614100  1.0  0.0771
  H  H34  1  0.256200  0.810400  0.663000  1.0  0.1011
  H  H35  1  0.557700  0.012000  0.656900  1.0  0.0924
  H  H36  1  0.401900  0.833200  0.705100  1.0  0.0613
  H  H37  1  0.430800  0.989000  0.771200  1.0  0.113
  H  H38  1  0.400000  0.104000  0.808100  1.0  0.1435
  H  H39  1  0.681500  0.200200  0.854500  1.0  0.0971
  H  H40  1  0.707800  0.091200  0.808400  1.0  0.0665
  H  H41  1  0.130800  0.267400  0.969900  1.0  0.0995
  H  H42  1  0.298600  0.282800  0.973700  1.0  0.085
  H  H43  1  0.221500  0.091400  0.879000  1.0  0.1105
  H  H44  1  0.056900  0.088000  0.876600  1.0  0.0556
  H  H45  1  0.864500  0.437800  0.995300  1.0  0.099
  H  H46  1  0.738500  0.327800  0.949600  1.0  0.0801
  H  H47  1  0.532200  0.385200  0.016300  1.0  0.1074
  H  H48  1  0.663000  0.462200  0.072100  1.0  0.0761
  H  H49  1  0.944800  0.004000  0.937400  1.0  0.0667
  H  H50  1  0.849900  0.902000  0.977600  1.0  0.104
  H  H51  1  0.781000  0.089600  0.045900  1.0  0.1071
  H  H52  1  0.855400  0.153200  0.990100  1.0  0.0404
  H  H53  1  0.787600  0.641200  0.147000  1.0  0.0728
  H  H54  1  0.727300  0.725400  0.141700  1.0  0.0959
  H  H55  1  0.783600  0.737800  0.021900  1.0  0.0794
  H  H56  1  0.844900  0.635800  0.018000  1.0  0.1544
  H  H57  1  0.591000  0.995400  0.114100  1.0  0.0768
  H  H58  1  0.554200  0.810400  0.163000  1.0  0.1013
  H  H59  1  0.454300  0.012000  0.156900  1.0  0.092
  H  H60  1  0.431300  0.833200  0.205100  1.0  0.0607
  H  H61  1  0.949100  0.177800  0.283100  1.0  0.0771
  H  H62  1  0.069000  0.259000  0.332400  1.0  0.0913
  H  H63  1  0.272000  0.229600  0.253200  1.0  0.1025
  H  H64  1  0.152200  0.116800  0.213500  1.0  0.0796
  H  H65  1  0.362600  0.609200  0.515400  1.0  0.0826
  H  H66  1  0.407200  0.535200  0.454300  1.0  0.0994
  H  H67  1  0.128500  0.430000  0.409900  1.0  0.0606
  H  H68  1  0.085000  0.482000  0.476600  1.0  0.1027
  H  H69  1  0.688100  0.339200  0.314800  1.0  0.0946
  H  H70  1  0.512400  0.299000  0.315100  1.0  0.0949
  H  H71  1  0.553900  0.488000  0.401800  1.0  0.0583
  H  H72  1  0.722900  0.536600  0.400000  1.0  0.1046
  H  H73  1  0.896200  0.588200  0.344900  1.0  0.05
  H  H74  1  0.939200  0.672000  0.297000  1.0  0.1095
  H  H75  1  0.056600  0.538400  0.224700  1.0  0.0877
  H  H76  1  0.966000  0.434800  0.271300  1.0  0.1118
  H  H77  1  0.018700  0.964600  0.138400  1.0  0.0579
  H  H78  1  0.053800  0.848600  0.129100  1.0  0.0977
  H  H79  1  0.915400  0.819800  0.242100  1.0  0.1074
  H  H80  1  0.880200  0.918800  0.236700  1.0  0.0236
  H  H81  1  0.337900  0.580200  0.126700  1.0  0.0717
  H  H82  1  0.222600  0.592000  0.169000  1.0  0.1128
  H  H83  1  0.231200  0.776600  0.110900  1.0  0.1104
  H  H84  1  0.349400  0.753200  0.063900  1.0  0.1046
  H  H85  1  0.228700  0.177800  0.783100  1.0  0.0768
  H  H86  1  0.190000  0.259000  0.832400  1.0  0.0916
  H  H87  1  0.957600  0.229600  0.753200  1.0  0.1028
  H  H88  1  0.964600  0.116800  0.713500  1.0  0.0791
  H  H89  1  0.246600  0.609200  0.015400  1.0  0.0829
  H  H90  1  0.128000  0.535200  0.954300  1.0  0.0994
  H  H91  1  0.301500  0.430000  0.909900  1.0  0.0606
  H  H92  1  0.397000  0.482000  0.976600  1.0  0.1028
  H  H93  1  0.651100  0.339200  0.814800  1.0  0.0948
  H  H94  1  0.786600  0.299000  0.815100  1.0  0.0946
  H  H95  1  0.934100  0.488000  0.901800  1.0  0.0587
  H  H96  1  0.813700  0.536600  0.900000  1.0  0.1046
  H  H97  1  0.692000  0.588200  0.844900  1.0  0.05
  H  H98  1  0.732800  0.672000  0.797000  1.0  0.1089
  H  H99  1  0.481800  0.538400  0.724700  1.0  0.0878
  H  H100  1  0.468800  0.434800  0.771300  1.0  0.111
  H  H101  1  0.945900  0.964600  0.638400  1.0  0.0578
  H  H102  1  0.794800  0.848600  0.629100  1.0  0.098
  H  H103  1  0.904400  0.819800  0.742100  1.0  0.1069
  H  H104  1  0.038600  0.918800  0.736700  1.0  0.0235
  H  H105  1  0.242300  0.580200  0.626700  1.0  0.0715
  H  H106  1  0.369400  0.592000  0.669000  1.0  0.1129
  H  H107  1  0.545400  0.776600  0.610900  1.0  0.1101
  H  H108  1  0.403800  0.753200  0.563900  1.0  0.1047
  C  C109  1  0.551200  0.034400  0.287100  1.0  0.1091
  C  C110  1  0.637300  0.092400  0.313600  1.0  -0.1009
  C  C111  1  0.600200  0.128800  0.350300  1.0  -0.1014
  C  C112  1  0.521400  0.151600  0.341200  1.0  -0.087
  C  C113  1  0.447100  0.091000  0.309300  1.0  0.1324
  C  C114  1  0.677800  0.177400  0.385900  1.0  0.3901
  C  C115  1  0.826400  0.214000  0.422900  1.0  0.299
  C  C116  1  0.728600  0.271400  0.444800  1.0  0.2427
  C  C117  1  0.082400  0.231600  0.449900  1.0  0.121
  C  C118  1  0.988500  0.241200  0.452500  1.0  -0.1
  C  C119  1  0.912800  0.194400  0.426600  1.0  0.0968
  C  C120  1  0.923800  0.131200  0.397600  1.0  -0.1198
  C  C121  1  0.024800  0.129400  0.397300  1.0  0.1
  C  C122  1  0.626900  0.424400  0.500700  1.0  0.0914
  C  C123  1  0.639600  0.359400  0.472300  1.0  -0.0593
  C  C124  1  0.722100  0.339000  0.475800  1.0  -0.0584
  C  C125  1  0.791300  0.388200  0.512600  1.0  -0.088
  C  C126  1  0.764300  0.442200  0.543700  1.0  0.1549
  C  C127  1  0.114900  0.011600  0.455800  1.0  0.1326
  C  C128  1  0.103600  0.953200  0.482400  1.0  -0.0938
  C  C129  1  0.180000  0.982800  0.516700  1.0  -0.1387
  C  C130  1  0.259500  0.065400  0.521800  1.0  -0.1066
  C  C131  1  0.252000  0.100400  0.488100  1.0  0.1656
  C  C132  1  0.161600  0.929600  0.551200  1.0  0.3138
  C  C133  1  0.071900  0.827800  0.580400  1.0  0.4101
  C  C134  1  0.866700  0.664200  0.621200  1.0  0.1252
  C  C135  1  0.949200  0.717000  0.619100  1.0  -0.0815
  C  C136  1  0.980700  0.769200  0.585000  1.0  0.0047
  C  C137  1  0.239400  0.897400  0.604400  1.0  0.3862
  C  C138  1  0.927100  0.726000  0.549100  1.0  -0.1057
  C  C139  1  0.830500  0.661600  0.545100  1.0  0.0644
  C  C140  1  0.321700  0.902400  0.634400  1.0  0.068
  C  C141  1  0.401800  0.959200  0.632600  1.0  -0.1355
  C  C142  1  0.315900  0.853600  0.660800  1.0  -0.1778
  C  C143  1  0.495400  0.971800  0.659500  1.0  0.1092
  C  C144  1  0.404100  0.868800  0.686200  1.0  0.1536
  C  C145  1  0.483200  0.034400  0.787100  1.0  0.1093
  C  C146  1  0.455100  0.092400  0.813600  1.0  -0.1026
  C  C147  1  0.528600  0.128800  0.850300  1.0  -0.1013
  C  C148  1  0.630200  0.151600  0.841200  1.0  -0.0872
  C  C149  1  0.643900  0.091000  0.809300  1.0  0.1334
  C  C150  1  0.499600  0.177400  0.885900  1.0  0.3903
  C  C151  1  0.387600  0.214000  0.922900  1.0  0.299
  C  C152  1  0.542800  0.271400  0.944800  1.0  0.2428
  C  C153  1  0.149200  0.231600  0.949900  1.0  0.1207
  C  C154  1  0.252700  0.241200  0.952500  1.0  -0.1008
  C  C155  1  0.281600  0.194400  0.926600  1.0  0.1003
  C  C156  1  0.207400  0.131200  0.897600  1.0  -0.1209
  C  C157  1  0.104600  0.129400  0.897300  1.0  0.0988
  C  C158  1  0.797500  0.424400  0.000700  1.0  0.0931
  C  C159  1  0.719800  0.359400  0.972300  1.0  -0.0599
  C  C160  1  0.616900  0.339000  0.975800  1.0  -0.0587
  C  C161  1  0.596900  0.388200  0.012600  1.0  -0.0932
  C  C162  1  0.677900  0.442200  0.043700  1.0  0.154
  C  C163  1  0.896700  0.011600  0.955800  1.0  0.1322
  C  C164  1  0.849600  0.953200  0.982400  1.0  -0.0926
  C  C165  1  0.802800  0.982800  0.016700  1.0  -0.1377
  C  C166  1  0.805900  0.065400  0.021800  1.0  -0.1064
  C  C167  1  0.848400  0.100400  0.988100  1.0  0.1654
  C  C168  1  0.768000  0.929600  0.051200  1.0  0.3145
  C  C169  1  0.755900  0.827800  0.080400  1.0  0.4091
  C  C170  1  0.797500  0.664200  0.121200  1.0  0.1255
  C  C171  1  0.767800  0.717000  0.119100  1.0  -0.0821
  C  C172  1  0.788500  0.769200  0.085000  1.0  0.0045
  C  C173  1  0.658000  0.897400  0.104400  1.0  0.3863
  C  C174  1  0.798900  0.726000  0.049100  1.0  -0.1062
  C  C175  1  0.831100  0.661600  0.045100  1.0  0.0666
  C  C176  1  0.580700  0.902400  0.134400  1.0  0.0725
  C  C177  1  0.557400  0.959200  0.132600  1.0  -0.1348
  C  C178  1  0.537700  0.853600  0.160800  1.0  -0.1765
  C  C179  1  0.476400  0.971800  0.159500  1.0  0.1089
  C  C180  1  0.464700  0.868800  0.186200  1.0  0.1531
  C  C181  1  0.013900  0.182400  0.277800  1.0  0.0951
  C  C182  1  0.084100  0.233200  0.305600  1.0  -0.1571
  C  C183  1  0.178500  0.250200  0.297600  1.0  -0.1103
  C  C184  1  0.205600  0.212400  0.260400  1.0  -0.1227
  C  C185  1  0.135300  0.151200  0.235300  1.0  0.1159
  C  C186  1  0.256800  0.313000  0.330000  1.0  0.2674
  C  C187  1  0.297800  0.414600  0.389900  1.0  0.2763
  C  C188  1  0.414300  0.388600  0.356900  1.0  0.2567
  C  C189  1  0.313100  0.568800  0.494900  1.0  0.1212
  C  C190  1  0.339800  0.522800  0.458200  1.0  -0.0986
  C  C191  1  0.266900  0.458800  0.427400  1.0  -0.085
  C  C192  1  0.178200  0.458800  0.433400  1.0  -0.0802
  C  C193  1  0.152100  0.496600  0.470900  1.0  0.0994
  C  C194  1  0.660800  0.369800  0.333900  1.0  0.1397
  C  C195  1  0.555800  0.348200  0.332000  1.0  -0.1352
  C  C196  1  0.518700  0.400800  0.355500  1.0  0.0105
  C  C197  1  0.580200  0.458600  0.381300  1.0  -0.064
  C  C198  1  0.681000  0.485600  0.384300  1.0  0.0892
  C  C199  1  0.922300  0.572400  0.318400  1.0  0.1468
  C  C200  1  0.951700  0.625600  0.291400  1.0  -0.1696
  C  C201  1  0.000800  0.609200  0.255100  1.0  -0.0235
  C  C202  1  0.016800  0.547400  0.247400  1.0  -0.0708
  C  C203  1  0.966900  0.486400  0.277800  1.0  0.0936
  C  C204  1  0.035400  0.661400  0.221500  1.0  0.2747
  C  C205  1  0.039300  0.764400  0.187500  1.0  0.3442
  C  C206  1  0.134100  0.700800  0.168300  1.0  0.334
  C  C207  1  0.004600  0.934800  0.161500  1.0  0.0955
  C  C208  1  0.028800  0.867000  0.155200  1.0  -0.1732
  C  C209  1  0.012100  0.834600  0.189700  1.0  -0.0866
  C  C210  1  0.944500  0.852000  0.221000  1.0  -0.1302
  C  C211  1  0.927900  0.910200  0.218500  1.0  0.0741
  C  C212  1  0.311800  0.617400  0.122500  1.0  0.1665
  C  C213  1  0.247500  0.624400  0.147600  1.0  -0.1026
  C  C214  1  0.212800  0.686800  0.141800  1.0  -0.1648
  C  C215  1  0.250400  0.734800  0.112800  1.0  -0.0947
  C  C216  1  0.320900  0.720600  0.085000  1.0  0.12
  C  C217  1  0.168500  0.182400  0.777800  1.0  0.0946
  C  C218  1  0.149100  0.233200  0.805600  1.0  -0.1572
  C  C219  1  0.071700  0.250200  0.797600  1.0  -0.1094
  C  C220  1  0.006800  0.212400  0.760400  1.0  -0.1229
  C  C221  1  0.015900  0.151200  0.735300  1.0  0.1166
  C  C222  1  0.056200  0.313000  0.830000  1.0  0.2671
  C  C223  1  0.116800  0.414600  0.889900  1.0  0.2761
  C  C224  1  0.974300  0.388600  0.856900  1.0  0.257
  C  C225  1  0.255700  0.568800  0.994900  1.0  0.1215
  C  C226  1  0.183000  0.522800  0.958200  1.0  -0.1015
  C  C227  1  0.191900  0.458800  0.927400  1.0  -0.0858
  C  C228  1  0.280600  0.458800  0.933400  1.0  -0.0802
  C  C229  1  0.344500  0.496600  0.970900  1.0  0.0992
  C  C230  1  0.709000  0.369800  0.833900  1.0  0.1398
  C  C231  1  0.792400  0.348200  0.832000  1.0  -0.1348
  C  C232  1  0.882100  0.400800  0.855500  1.0  0.0129
  C  C233  1  0.878400  0.458600  0.881300  1.0  -0.0617
  C  C234  1  0.804600  0.485600  0.884300  1.0  0.0877
  C  C235  1  0.650100  0.572400  0.818400  1.0  0.1465
  C  C236  1  0.673900  0.625600  0.791400  1.0  -0.169
  C  C237  1  0.608400  0.609200  0.755100  1.0  -0.0245
  C  C238  1  0.530600  0.547400  0.747400  1.0  -0.0704
  C  C239  1  0.519500  0.486400  0.777800  1.0  0.0938
  C  C240  1  0.626000  0.661400  0.721500  1.0  0.2747
  C  C241  1  0.725100  0.764400  0.687500  1.0  0.3465
  C  C242  1  0.566700  0.700800  0.668300  1.0  0.3342
  C  C243  1  0.930200  0.934800  0.661500  1.0  0.0964
  C  C244  1  0.838200  0.867000  0.655200  1.0  -0.1747
  C  C245  1  0.822500  0.834600  0.689700  1.0  -0.0858
  C  C246  1  0.907500  0.852000  0.721000  1.0  -0.1297
  C  C247  1  0.982300  0.910200  0.718500  1.0  0.076
  C  C248  1  0.305600  0.617400  0.622500  1.0  0.1669
  C  C249  1  0.376900  0.624400  0.647600  1.0  -0.1016
  C  C250  1  0.474000  0.686800  0.641800  1.0  -0.1646
  C  C251  1  0.484400  0.734800  0.612800  1.0  -0.0952
  C  C252  1  0.399700  0.720600  0.585000  1.0  0.1191
  I  I253  1  0.278680  0.034320  0.195520  1.0  -0.4357
  I  I254  1  0.268090  0.844360  0.271410  1.0  -0.3576
  I  I255  1  0.193770  0.062480  0.336800  1.0  -0.4493
  I  I256  1  0.363240  0.276460  0.441790  1.0  -0.4659
  I  I257  1  0.657050  0.495500  0.653340  1.0  -0.3472
  I  I258  1  0.547110  0.576880  0.546250  1.0  -0.4537
  I  I259  1  0.755640  0.034320  0.695520  1.0  -0.4359
  I  I260  1  0.576270  0.844360  0.771410  1.0  -0.3577
  I  I261  1  0.868710  0.062480  0.836800  1.0  -0.4486
  I  I262  1  0.913220  0.276460  0.941790  1.0  -0.4657
  I  I263  1  0.838450  0.495500  0.153340  1.0  -0.3472
  I  I264  1  0.029770  0.576880  0.046250  1.0  -0.4548
  I  I265  1  0.766750  0.018260  0.230220  1.0  -0.4459
  I  I266  1  0.959720  0.099440  0.122510  1.0  -0.3454
  I  I267  1  0.041530  0.561420  0.581120  1.0  -0.4086
  I  I268  1  0.220520  0.749640  0.504860  1.0  -0.3781
  I  I269  1  0.896890  0.330320  0.345200  1.0  -0.4127
  I  I270  1  0.928200  0.542640  0.443920  1.0  -0.4471
  I  I271  1  0.251510  0.018260  0.730220  1.0  -0.4472
  I  I272  1  0.139720  0.099440  0.622510  1.0  -0.3449
  I  I273  1  0.519890  0.561420  0.081120  1.0  -0.4082
  I  I274  1  0.529120  0.749640  0.004860  1.0  -0.3771
  I  I275  1  0.433430  0.330320  0.845200  1.0  -0.4124
  I  I276  1  0.614440  0.542640  0.943920  1.0  -0.4465
  N  N277  1  0.461000  0.035800  0.281600  1.0  -0.3258
  N  N278  1  0.759100  0.165400  0.390800  1.0  -0.32
  N  N279  1  0.817100  0.272000  0.452400  1.0  -0.3681
  N  N280  1  0.660900  0.235200  0.410400  1.0  -0.3747
  N  N281  1  0.094900  0.172200  0.419100  1.0  -0.26
  N  N282  1  0.695100  0.465000  0.535300  1.0  -0.3148
  N  N283  1  0.193000  0.072600  0.454700  1.0  -0.166
  N  N284  1  0.072800  0.873600  0.551900  1.0  -0.3394
  N  N285  1  0.150300  0.842200  0.607200  1.0  -0.4723
  N  N286  1  0.243400  0.944000  0.575500  1.0  -0.4293
  N  N287  1  0.801600  0.641000  0.590700  1.0  -0.2597
  N  N288  1  0.482600  0.924400  0.685300  1.0  -0.1825
  N  N289  1  0.574800  0.035800  0.781600  1.0  -0.3247
  N  N290  1  0.406300  0.165400  0.890800  1.0  -0.3211
  N  N291  1  0.454900  0.272000  0.952400  1.0  -0.3681
  N  N292  1  0.574300  0.235200  0.910400  1.0  -0.3749
  N  N293  1  0.077300  0.172200  0.919100  1.0  -0.2589
  N  N294  1  0.769900  0.465000  0.035300  1.0  -0.3145
  N  N295  1  0.879600  0.072600  0.954700  1.0  -0.165
  N  N296  1  0.800800  0.873600  0.051900  1.0  -0.3415
  N  N297  1  0.691900  0.842200  0.107200  1.0  -0.4727
  N  N298  1  0.700600  0.944000  0.075500  1.0  -0.4302
  N  N299  1  0.839400  0.641000  0.090700  1.0  -0.2599
  N  N300  1  0.441800  0.924400  0.185300  1.0  -0.1807
  N  N301  1  0.025800  0.134400  0.240600  1.0  -0.3336
  N  N302  1  0.226000  0.353200  0.362900  1.0  -0.4592
  N  N303  1  0.396000  0.442000  0.387100  1.0  -0.4128
  N  N304  1  0.353400  0.331600  0.324300  1.0  -0.3606
  N  N305  1  0.223600  0.554800  0.499500  1.0  -0.3182
  N  N306  1  0.716100  0.431400  0.362100  1.0  -0.3149
  N  N307  1  0.924200  0.509800  0.314200  1.0  -0.1328
  N  N308  1  0.014100  0.726800  0.220800  1.0  -0.4202
  N  N309  1  0.104800  0.757600  0.160300  1.0  -0.3945
  N  N310  1  0.105900  0.652200  0.196500  1.0  -0.4939
  N  N311  1  0.966800  0.958600  0.194500  1.0  -0.1671
  N  N312  1  0.347100  0.660000  0.088900  1.0  -0.3716
  N  N313  1  0.108600  0.134400  0.740600  1.0  -0.3345
  N  N314  1  0.127200  0.353200  0.862900  1.0  -0.4594
  N  N315  1  0.046000  0.442000  0.887100  1.0  -0.4131
  N  N316  1  0.978200  0.331600  0.824300  1.0  -0.3602
  N  N317  1  0.331200  0.554800  0.999500  1.0  -0.3186
  N  N318  1  0.715300  0.431400  0.862100  1.0  -0.3136
  N  N319  1  0.585600  0.509800  0.814200  1.0  -0.132
  N  N320  1  0.712700  0.726800  0.720800  1.0  -0.4189
  N  N321  1  0.652800  0.757600  0.660300  1.0  -0.394
  N  N322  1  0.546300  0.652200  0.696500  1.0  -0.4946
  N  N323  1  0.991800  0.958600  0.694500  1.0  -0.167
  N  N324  1  0.312900  0.660000  0.588900  1.0  -0.37
