# generated using pymatgen
data_ZnH8C12(IN2)2
_symmetry_space_group_name_H-M   'P 1'
_cell_length_a   14.87900000
_cell_length_b   19.29300000
_cell_length_c   30.53800000
_cell_angle_alpha   102.12000000
_cell_angle_beta   90.00000000
_cell_angle_gamma   112.68100000
_symmetry_Int_Tables_number   1
_chemical_formula_structural   ZnH8C12(IN2)2
_chemical_formula_sum   'Zn12 H96 C144 I24 N48'
_cell_volume   7876.12482482
_cell_formula_units_Z   12
loop_
 _symmetry_equiv_pos_site_id
 _symmetry_equiv_pos_as_xyz
  1  'x, y, z'
loop_
 _atom_site_type_symbol
 _atom_site_label
 _atom_site_symmetry_multiplicity
 _atom_site_fract_x
 _atom_site_fract_y
 _atom_site_fract_z
 _atom_site_occupancy
 _atom_site_charge
  Zn  Zn1  1  0.541850  0.829960  0.411720  1.0  0.8764
  Zn  Zn2  1  0.024460  0.239520  0.557750  1.0  0.8952
  Zn  Zn3  1  0.961840  0.654600  0.731530  1.0  0.8722
  Zn  Zn4  1  0.288110  0.829960  0.911720  1.0  0.8733
  Zn  Zn5  1  0.215060  0.239520  0.057750  1.0  0.8971
  Zn  Zn6  1  0.692760  0.654600  0.231530  1.0  0.8713
  Zn  Zn7  1  0.711890  0.170040  0.088280  1.0  0.8764
  Zn  Zn8  1  0.784940  0.760480  0.942250  1.0  0.895
  Zn  Zn9  1  0.307240  0.345400  0.768470  1.0  0.8736
  Zn  Zn10  1  0.458150  0.170040  0.588280  1.0  0.8741
  Zn  Zn11  1  0.975540  0.760480  0.442250  1.0  0.8971
  Zn  Zn12  1  0.038160  0.345400  0.268470  1.0  0.8715
  H  H13  1  0.415000  0.765200  0.480800  1.0  0.0851
  H  H14  1  0.308200  0.787600  0.531100  1.0  0.1287
  H  H15  1  0.340300  0.974400  0.483600  1.0  0.1229
  H  H16  1  0.457000  0.953200  0.440100  1.0  0.0946
  H  H17  1  0.928800  0.778200  0.695900  1.0  0.106
  H  H18  1  0.994900  0.858400  0.647900  1.0  0.0959
  H  H19  1  0.197500  0.770600  0.624700  1.0  0.121
  H  H20  1  0.121800  0.685400  0.669100  1.0  0.0992
  H  H21  1  0.101100  0.132800  0.495800  1.0  0.0773
  H  H22  1  0.149000  0.034200  0.497200  1.0  0.1239
  H  H23  1  0.078600  0.045800  0.626100  1.0  0.1257
  H  H24  1  0.024700  0.139800  0.618600  1.0  0.0828
  H  H25  1  0.040500  0.357800  0.645500  1.0  0.0946
  H  H26  1  0.161400  0.461000  0.693300  1.0  0.1023
  H  H27  1  0.367300  0.418200  0.619800  1.0  0.1209
  H  H28  1  0.239100  0.322400  0.567300  1.0  0.102
  H  H29  1  0.456500  0.800200  0.878200  1.0  0.089
  H  H30  1  0.502200  0.726200  0.817200  1.0  0.1232
  H  H31  1  0.214300  0.604600  0.779400  1.0  0.1124
  H  H32  1  0.179000  0.680600  0.841600  1.0  0.0717
  H  H33  1  0.770800  0.531800  0.677000  1.0  0.1086
  H  H34  1  0.608000  0.514000  0.667800  1.0  0.105
  H  H35  1  0.661200  0.698600  0.768200  1.0  0.1061
  H  H36  1  0.824700  0.724000  0.768400  1.0  0.0934
  H  H37  1  0.350200  0.765200  0.980800  1.0  0.0851
  H  H38  1  0.479400  0.787600  0.031100  1.0  0.1289
  H  H39  1  0.634100  0.974400  0.983600  1.0  0.1228
  H  H40  1  0.496200  0.953200  0.940100  1.0  0.0947
  H  H41  1  0.849400  0.778200  0.195900  1.0  0.1059
  H  H42  1  0.863500  0.858400  0.147900  1.0  0.0959
  H  H43  1  0.573100  0.770600  0.124700  1.0  0.1208
  H  H44  1  0.563600  0.685400  0.169100  1.0  0.1012
  H  H45  1  0.031700  0.132800  0.995800  1.0  0.0747
  H  H46  1  0.885200  0.034200  0.997200  1.0  0.124
  H  H47  1  0.967200  0.045800  0.126100  1.0  0.1254
  H  H48  1  0.115100  0.139800  0.118600  1.0  0.0817
  H  H49  1  0.317300  0.357800  0.145500  1.0  0.0942
  H  H50  1  0.299600  0.461000  0.193300  1.0  0.102
  H  H51  1  0.050900  0.418200  0.119800  1.0  0.1212
  H  H52  1  0.083300  0.322400  0.067300  1.0  0.1021
  H  H53  1  0.343700  0.800200  0.378200  1.0  0.0896
  H  H54  1  0.224000  0.726200  0.317200  1.0  0.1234
  H  H55  1  0.390300  0.604600  0.279400  1.0  0.1148
  H  H56  1  0.501600  0.680600  0.341600  1.0  0.0708
  H  H57  1  0.761000  0.531800  0.177000  1.0  0.1089
  H  H58  1  0.906000  0.514000  0.167800  1.0  0.1051
  H  H59  1  0.037400  0.698600  0.268200  1.0  0.1058
  H  H60  1  0.899300  0.724000  0.268400  1.0  0.094
  H  H61  1  0.649800  0.234800  0.019200  1.0  0.0851
  H  H62  1  0.520600  0.212400  0.968900  1.0  0.1281
  H  H63  1  0.365900  0.025600  0.016400  1.0  0.1229
  H  H64  1  0.503800  0.046800  0.059900  1.0  0.0953
  H  H65  1  0.150600  0.221800  0.804100  1.0  0.1055
  H  H66  1  0.136500  0.141600  0.852100  1.0  0.096
  H  H67  1  0.426900  0.229400  0.875300  1.0  0.1212
  H  H68  1  0.436400  0.314600  0.830900  1.0  0.1008
  H  H69  1  0.968300  0.867200  0.004200  1.0  0.0782
  H  H70  1  0.114800  0.965800  0.002800  1.0  0.1242
  H  H71  1  0.032800  0.954200  0.873900  1.0  0.1265
  H  H72  1  0.884900  0.860200  0.881400  1.0  0.0828
  H  H73  1  0.682700  0.642200  0.854500  1.0  0.0949
  H  H74  1  0.700400  0.539000  0.806700  1.0  0.1027
  H  H75  1  0.949100  0.581800  0.880200  1.0  0.121
  H  H76  1  0.916700  0.677600  0.932700  1.0  0.102
  H  H77  1  0.656300  0.199800  0.621800  1.0  0.0899
  H  H78  1  0.776000  0.273800  0.682800  1.0  0.1227
  H  H79  1  0.609700  0.395400  0.720600  1.0  0.1127
  H  H80  1  0.498400  0.319400  0.658400  1.0  0.0719
  H  H81  1  0.239000  0.468200  0.823000  1.0  0.1061
  H  H82  1  0.094000  0.486000  0.832200  1.0  0.1055
  H  H83  1  0.962600  0.301400  0.731800  1.0  0.1052
  H  H84  1  0.100700  0.276000  0.731600  1.0  0.0929
  H  H85  1  0.585000  0.234800  0.519200  1.0  0.085
  H  H86  1  0.691800  0.212400  0.468900  1.0  0.1282
  H  H87  1  0.659700  0.025600  0.516400  1.0  0.1233
  H  H88  1  0.543000  0.046800  0.559900  1.0  0.0951
  H  H89  1  0.071200  0.221800  0.304100  1.0  0.1055
  H  H90  1  0.005100  0.141600  0.352100  1.0  0.0958
  H  H91  1  0.802500  0.229400  0.375300  1.0  0.1207
  H  H92  1  0.878200  0.314600  0.330900  1.0  0.0995
  H  H93  1  0.898900  0.867200  0.504200  1.0  0.077
  H  H94  1  0.851000  0.965800  0.502800  1.0  0.1246
  H  H95  1  0.921400  0.954200  0.373900  1.0  0.1265
  H  H96  1  0.975300  0.860200  0.381400  1.0  0.083
  H  H97  1  0.959500  0.642200  0.354500  1.0  0.094
  H  H98  1  0.838600  0.539000  0.306700  1.0  0.103
  H  H99  1  0.632700  0.581800  0.380200  1.0  0.1215
  H  H100  1  0.760900  0.677600  0.432700  1.0  0.102
  H  H101  1  0.543500  0.199800  0.121800  1.0  0.0896
  H  H102  1  0.497800  0.273800  0.182800  1.0  0.1232
  H  H103  1  0.785700  0.395400  0.220600  1.0  0.1139
  H  H104  1  0.821000  0.319400  0.158400  1.0  0.0711
  H  H105  1  0.229200  0.468200  0.323000  1.0  0.1095
  H  H106  1  0.392000  0.486000  0.332200  1.0  0.1056
  H  H107  1  0.338800  0.301400  0.231800  1.0  0.1048
  H  H108  1  0.175300  0.276000  0.231600  1.0  0.0941
  C  C109  1  0.401200  0.809800  0.482500  1.0  0.1468
  C  C110  1  0.335500  0.820800  0.511300  1.0  -0.1518
  C  C111  1  0.310300  0.882000  0.510300  1.0  -0.0812
  C  C112  1  0.355900  0.931200  0.484000  1.0  -0.1897
  C  C113  1  0.424400  0.917800  0.458000  1.0  0.1461
  C  C114  1  0.236500  0.896400  0.541300  1.0  0.3936
  C  C115  1  0.143600  0.869600  0.597700  1.0  0.4019
  C  C116  1  0.143200  0.961600  0.563500  1.0  0.3688
  C  C117  1  0.982800  0.774800  0.680300  1.0  0.1197
  C  C118  1  0.022500  0.822800  0.651600  1.0  -0.0746
  C  C119  1  0.098200  0.821400  0.628800  1.0  -0.0842
  C  C120  1  0.139600  0.770800  0.637700  1.0  -0.1267
  C  C121  1  0.096100  0.722000  0.665100  1.0  0.1437
  C  C122  1  0.096000  0.114600  0.522700  1.0  0.1363
  C  C123  1  0.123800  0.055000  0.522900  1.0  -0.1674
  C  C124  1  0.115300  0.025400  0.560400  1.0  -0.0398
  C  C125  1  0.081300  0.061400  0.598400  1.0  -0.1699
  C  C126  1  0.052900  0.119200  0.594000  1.0  0.1355
  C  C127  1  0.106900  0.370600  0.639500  1.0  0.1474
  C  C128  1  0.179100  0.431800  0.668300  1.0  -0.0719
  C  C129  1  0.276500  0.451000  0.661300  1.0  -0.119
  C  C130  1  0.300800  0.408200  0.624600  1.0  -0.1042
  C  C131  1  0.223500  0.348600  0.594200  1.0  0.1376
  C  C132  1  0.351500  0.514600  0.692800  1.0  0.3288
  C  C133  1  0.389600  0.613000  0.753600  1.0  0.3642
  C  C134  1  0.509200  0.584400  0.717900  1.0  0.2538
  C  C135  1  0.407200  0.760200  0.857100  1.0  0.1519
  C  C136  1  0.435400  0.716400  0.821000  1.0  -0.1092
  C  C137  1  0.362100  0.659000  0.791900  1.0  -0.1021
  C  C138  1  0.265900  0.645000  0.799200  1.0  -0.1439
  C  C139  1  0.245500  0.691600  0.836200  1.0  0.1466
  C  C140  1  0.748800  0.568000  0.694600  1.0  0.1186
  C  C141  1  0.650900  0.555600  0.690400  1.0  -0.0891
  C  C142  1  0.614200  0.602400  0.718500  1.0  0.0017
  C  C143  1  0.682200  0.664400  0.747900  1.0  -0.1312
  C  C144  1  0.779700  0.678400  0.748800  1.0  0.1305
  C  C145  1  0.408600  0.809800  0.982500  1.0  0.1474
  C  C146  1  0.485300  0.820800  0.011300  1.0  -0.1538
  C  C147  1  0.571700  0.882000  0.010300  1.0  -0.0818
  C  C148  1  0.575300  0.931200  0.984000  1.0  -0.1892
  C  C149  1  0.493400  0.917800  0.958000  1.0  0.1457
  C  C150  1  0.659900  0.896400  0.041300  1.0  0.3935
  C  C151  1  0.726000  0.869600  0.097700  1.0  0.4018
  C  C152  1  0.818400  0.961600  0.063500  1.0  0.3685
  C  C153  1  0.792000  0.774800  0.180300  1.0  0.1175
  C  C154  1  0.800300  0.822800  0.151600  1.0  -0.0742
  C  C155  1  0.723200  0.821400  0.128800  1.0  -0.0845
  C  C156  1  0.631200  0.770800  0.137700  1.0  -0.1288
  C  C157  1  0.625900  0.722000  0.165100  1.0  0.1492
  C  C158  1  0.018600  0.114600  0.022700  1.0  0.1402
  C  C159  1  0.931200  0.055000  0.022900  1.0  -0.1768
  C  C160  1  0.910100  0.025400  0.060400  1.0  -0.0389
  C  C161  1  0.980100  0.061400  0.098400  1.0  -0.1707
  C  C162  1  0.066300  0.119200  0.094000  1.0  0.1355
  C  C163  1  0.263700  0.370600  0.139500  1.0  0.1414
  C  C164  1  0.252700  0.431800  0.168300  1.0  -0.0719
  C  C165  1  0.174500  0.451000  0.161300  1.0  -0.1194
  C  C166  1  0.107400  0.408200  0.124600  1.0  -0.1049
  C  C167  1  0.125100  0.348600  0.094200  1.0  0.1461
  C  C168  1  0.163100  0.514600  0.192800  1.0  0.3287
  C  C169  1  0.223400  0.613000  0.253600  1.0  0.3631
  C  C170  1  0.075200  0.584400  0.217900  1.0  0.2538
  C  C171  1  0.353000  0.760200  0.357100  1.0  0.1593
  C  C172  1  0.281000  0.716400  0.321000  1.0  -0.1093
  C  C173  1  0.296900  0.659000  0.291900  1.0  -0.1023
  C  C174  1  0.379100  0.645000  0.299200  1.0  -0.1429
  C  C175  1  0.446100  0.691600  0.336200  1.0  0.1454
  C  C176  1  0.819200  0.568000  0.194600  1.0  0.1194
  C  C177  1  0.904700  0.555600  0.190400  1.0  -0.0888
  C  C178  1  0.988200  0.602400  0.218500  1.0  0.0028
  C  C179  1  0.982200  0.664400  0.247900  1.0  -0.128
  C  C180  1  0.898700  0.678400  0.248800  1.0  0.126
  C  C181  1  0.591400  0.190200  0.017500  1.0  0.1452
  C  C182  1  0.514700  0.179200  0.988700  1.0  -0.1534
  C  C183  1  0.428300  0.118000  0.989700  1.0  -0.0814
  C  C184  1  0.424700  0.068800  0.016000  1.0  -0.1925
  C  C185  1  0.506600  0.082200  0.042000  1.0  0.1458
  C  C186  1  0.340100  0.103600  0.958700  1.0  0.3925
  C  C187  1  0.274000  0.130400  0.902300  1.0  0.402
  C  C188  1  0.181600  0.038400  0.936500  1.0  0.3689
  C  C189  1  0.208000  0.225200  0.819700  1.0  0.122
  C  C190  1  0.199700  0.177200  0.848400  1.0  -0.0781
  C  C191  1  0.276800  0.178600  0.871200  1.0  -0.0836
  C  C192  1  0.368800  0.229200  0.862300  1.0  -0.1274
  C  C193  1  0.374100  0.278000  0.834900  1.0  0.1402
  C  C194  1  0.981400  0.885400  0.977300  1.0  0.1366
  C  C195  1  0.068800  0.945000  0.977100  1.0  -0.1671
  C  C196  1  0.089900  0.974600  0.939600  1.0  -0.0402
  C  C197  1  0.019900  0.938600  0.901600  1.0  -0.1686
  C  C198  1  0.933700  0.880800  0.906000  1.0  0.1418
  C  C199  1  0.736300  0.629400  0.860500  1.0  0.1485
  C  C200  1  0.747300  0.568200  0.831700  1.0  -0.0729
  C  C201  1  0.825500  0.549000  0.838700  1.0  -0.1202
  C  C202  1  0.892600  0.591800  0.875400  1.0  -0.1045
  C  C203  1  0.874900  0.651400  0.905800  1.0  0.1412
  C  C204  1  0.836900  0.485400  0.807200  1.0  0.3286
  C  C205  1  0.776600  0.387000  0.746400  1.0  0.3634
  C  C206  1  0.924800  0.415600  0.782100  1.0  0.2546
  C  C207  1  0.647000  0.239800  0.642900  1.0  0.1531
  C  C208  1  0.719000  0.283600  0.679000  1.0  -0.1077
  C  C209  1  0.703100  0.341000  0.708100  1.0  -0.1022
  C  C210  1  0.620900  0.355000  0.700800  1.0  -0.1441
  C  C211  1  0.553900  0.308400  0.663800  1.0  0.1444
  C  C212  1  0.180800  0.432000  0.805400  1.0  0.1151
  C  C213  1  0.095300  0.444400  0.809600  1.0  -0.0906
  C  C214  1  0.011800  0.397600  0.781500  1.0  0.0018
  C  C215  1  0.017800  0.335600  0.752100  1.0  -0.1303
  C  C216  1  0.101300  0.321600  0.751200  1.0  0.1296
  C  C217  1  0.598800  0.190200  0.517500  1.0  0.1462
  C  C218  1  0.664500  0.179200  0.488700  1.0  -0.1559
  C  C219  1  0.689700  0.118000  0.489700  1.0  -0.0816
  C  C220  1  0.644100  0.068800  0.516000  1.0  -0.189
  C  C221  1  0.575600  0.082200  0.542000  1.0  0.1448
  C  C222  1  0.763500  0.103600  0.458700  1.0  0.3926
  C  C223  1  0.856400  0.130400  0.402300  1.0  0.4016
  C  C224  1  0.856800  0.038400  0.436500  1.0  0.3688
  C  C225  1  0.017200  0.225200  0.319700  1.0  0.1215
  C  C226  1  0.977500  0.177200  0.348400  1.0  -0.0783
  C  C227  1  0.901800  0.178600  0.371200  1.0  -0.0837
  C  C228  1  0.860400  0.229200  0.362300  1.0  -0.1302
  C  C229  1  0.903900  0.278000  0.334900  1.0  0.1487
  C  C230  1  0.904000  0.885400  0.477300  1.0  0.1417
  C  C231  1  0.876200  0.945000  0.477100  1.0  -0.1683
  C  C232  1  0.884700  0.974600  0.439600  1.0  -0.0415
  C  C233  1  0.918700  0.938600  0.401600  1.0  -0.1695
  C  C234  1  0.947100  0.880800  0.406000  1.0  0.1397
  C  C235  1  0.893100  0.629400  0.360500  1.0  0.1473
  C  C236  1  0.820900  0.568200  0.331700  1.0  -0.0729
  C  C237  1  0.723500  0.549000  0.338700  1.0  -0.1221
  C  C238  1  0.699200  0.591800  0.375400  1.0  -0.1052
  C  C239  1  0.776500  0.651400  0.405800  1.0  0.1484
  C  C240  1  0.648500  0.485400  0.307200  1.0  0.3285
  C  C241  1  0.610400  0.387000  0.246400  1.0  0.364
  C  C242  1  0.490800  0.415600  0.282100  1.0  0.2549
  C  C243  1  0.592800  0.239800  0.142900  1.0  0.1608
  C  C244  1  0.564600  0.283600  0.179000  1.0  -0.1109
  C  C245  1  0.637900  0.341000  0.208100  1.0  -0.1024
  C  C246  1  0.734100  0.355000  0.200800  1.0  -0.1427
  C  C247  1  0.754500  0.308400  0.163800  1.0  0.143
  C  C248  1  0.251200  0.432000  0.305400  1.0  0.1162
  C  C249  1  0.349100  0.444400  0.309600  1.0  -0.0891
  C  C250  1  0.385800  0.397600  0.281500  1.0  0.0034
  C  C251  1  0.317800  0.335600  0.252100  1.0  -0.1288
  C  C252  1  0.220300  0.321600  0.251200  1.0  0.1252
  I  I253  1  0.629700  0.769960  0.451130  1.0  -0.4501
  I  I254  1  0.616060  0.939460  0.372290  1.0  -0.3369
  I  I255  1  0.864500  0.211080  0.594480  1.0  -0.4567
  I  I256  1  0.051820  0.270920  0.481410  1.0  -0.3442
  I  I257  1  0.994210  0.533520  0.702490  1.0  -0.4221
  I  I258  1  0.025740  0.741220  0.809590  1.0  -0.4593
  I  I259  1  0.140260  0.769960  0.951130  1.0  -0.4492
  I  I260  1  0.323400  0.939460  0.872290  1.0  -0.3374
  I  I261  1  0.346580  0.211080  0.094480  1.0  -0.4573
  I  I262  1  0.219100  0.270920  0.981410  1.0  -0.3439
  I  I263  1  0.539310  0.533520  0.202490  1.0  -0.4216
  I  I264  1  0.715480  0.741220  0.309590  1.0  -0.4596
  I  I265  1  0.859740  0.230040  0.048870  1.0  -0.4505
  I  I266  1  0.676600  0.060540  0.127710  1.0  -0.3356
  I  I267  1  0.653420  0.788920  0.905520  1.0  -0.4572
  I  I268  1  0.780900  0.729080  0.018590  1.0  -0.3423
  I  I269  1  0.460690  0.466480  0.797510  1.0  -0.4216
  I  I270  1  0.284520  0.258780  0.690410  1.0  -0.4592
  I  I271  1  0.370300  0.230040  0.548870  1.0  -0.449
  I  I272  1  0.383940  0.060540  0.627710  1.0  -0.3358
  I  I273  1  0.135500  0.788920  0.405520  1.0  -0.4568
  I  I274  1  0.948180  0.729080  0.518590  1.0  -0.3417
  I  I275  1  0.005790  0.466480  0.297510  1.0  -0.4213
  I  I276  1  0.974260  0.258780  0.190410  1.0  -0.4596
  N  N277  1  0.447700  0.858200  0.456600  1.0  -0.3102
  N  N278  1  0.208800  0.854000  0.571600  1.0  -0.4764
  N  N279  1  0.110300  0.924200  0.596100  1.0  -0.4475
  N  N280  1  0.203300  0.947800  0.533500  1.0  -0.4589
  N  N281  1  0.018100  0.724200  0.686700  1.0  -0.3011
  N  N282  1  0.061900  0.149200  0.557400  1.0  -0.3009
  N  N283  1  0.128600  0.328200  0.602700  1.0  -0.3412
  N  N284  1  0.320500  0.553600  0.727000  1.0  -0.4075
  N  N285  1  0.485900  0.632000  0.752600  1.0  -0.4615
  N  N286  1  0.448000  0.527600  0.687100  1.0  -0.3838
  N  N287  1  0.311200  0.747200  0.862800  1.0  -0.2918
  N  N288  1  0.813800  0.631000  0.723500  1.0  -0.3161
  N  N289  1  0.410500  0.858200  0.956600  1.0  -0.3107
  N  N290  1  0.645200  0.854000  0.071600  1.0  -0.478
  N  N291  1  0.813900  0.924200  0.096100  1.0  -0.437
  N  N292  1  0.744500  0.947800  0.033500  1.0  -0.4603
  N  N293  1  0.706100  0.724200  0.186700  1.0  -0.3005
  N  N294  1  0.087300  0.149200  0.057400  1.0  -0.2995
  N  N295  1  0.199600  0.328200  0.102700  1.0  -0.3416
  N  N296  1  0.233100  0.553600  0.227000  1.0  -0.4074
  N  N297  1  0.146100  0.632000  0.252600  1.0  -0.4627
  N  N298  1  0.079600  0.527600  0.187100  1.0  -0.3829
  N  N299  1  0.436000  0.747200  0.362800  1.0  -0.2908
  N  N300  1  0.817200  0.631000  0.223500  1.0  -0.3153
  N  N301  1  0.589500  0.141800  0.043400  1.0  -0.3097
  N  N302  1  0.354800  0.146000  0.928400  1.0  -0.4764
  N  N303  1  0.186100  0.075800  0.903900  1.0  -0.4492
  N  N304  1  0.255500  0.052200  0.966500  1.0  -0.4604
  N  N305  1  0.293900  0.275800  0.813300  1.0  -0.299
  N  N306  1  0.912700  0.850800  0.942600  1.0  -0.3022
  N  N307  1  0.800400  0.671800  0.897300  1.0  -0.342
  N  N308  1  0.766900  0.446400  0.773000  1.0  -0.4069
  N  N309  1  0.853900  0.368000  0.747400  1.0  -0.4626
  N  N310  1  0.920400  0.472400  0.812900  1.0  -0.3684
  N  N311  1  0.564000  0.252800  0.637200  1.0  -0.2924
  N  N312  1  0.182800  0.369000  0.776500  1.0  -0.3149
  N  N313  1  0.552300  0.141800  0.543400  1.0  -0.3103
  N  N314  1  0.791200  0.146000  0.428400  1.0  -0.4776
  N  N315  1  0.889700  0.075800  0.403900  1.0  -0.4409
  N  N316  1  0.796700  0.052200  0.466500  1.0  -0.4612
  N  N317  1  0.981900  0.275800  0.313300  1.0  -0.2988
  N  N318  1  0.938100  0.850800  0.442600  1.0  -0.2992
  N  N319  1  0.871400  0.671800  0.397300  1.0  -0.3421
  N  N320  1  0.679500  0.446400  0.273000  1.0  -0.4066
  N  N321  1  0.514100  0.368000  0.247400  1.0  -0.4634
  N  N322  1  0.552000  0.472400  0.312900  1.0  -0.3784
  N  N323  1  0.688800  0.252800  0.137200  1.0  -0.2909
  N  N324  1  0.186200  0.369000  0.276500  1.0  -0.3149
