# generated using pymatgen
data_ZnH8C12(IN2)2
_symmetry_space_group_name_H-M   'P 1'
_cell_length_a   14.87900000
_cell_length_b   18.85200000
_cell_length_c   30.83600000
_cell_angle_alpha   100.81800000
_cell_angle_beta   90.00000000
_cell_angle_gamma   113.24300000
_symmetry_Int_Tables_number   1
_chemical_formula_structural   ZnH8C12(IN2)2
_chemical_formula_sum   'Zn12 H96 C144 I24 N48'
_cell_volume   7779.89578716
_cell_formula_units_Z   12
loop_
 _symmetry_equiv_pos_site_id
 _symmetry_equiv_pos_as_xyz
  1  'x, y, z'
loop_
 _atom_site_type_symbol
 _atom_site_label
 _atom_site_symmetry_multiplicity
 _atom_site_fract_x
 _atom_site_fract_y
 _atom_site_fract_z
 _atom_site_occupancy
 _atom_site_charge
  Zn  Zn1  1  0.520400  0.252080  0.558320  1.0  0.9013
  Zn  Zn2  1  0.799750  0.846020  0.903310  1.0  0.9131
  Zn  Zn3  1  0.181320  0.648240  0.223690  1.0  0.889
  Zn  Zn4  1  0.731680  0.252080  0.058320  1.0  0.9027
  Zn  Zn5  1  0.046270  0.846020  0.403310  1.0  0.9144
  Zn  Zn6  1  0.466920  0.648240  0.723690  1.0  0.8884
  Zn  Zn7  1  0.268320  0.747920  0.941680  1.0  0.9018
  Zn  Zn8  1  0.953730  0.153980  0.596690  1.0  0.9136
  Zn  Zn9  1  0.533080  0.351760  0.276310  1.0  0.8897
  Zn  Zn10  1  0.479600  0.747920  0.441680  1.0  0.9034
  Zn  Zn11  1  0.200250  0.153980  0.096690  1.0  0.914
  Zn  Zn12  1  0.818680  0.351760  0.776310  1.0  0.8894
  H  H13  1  0.740400  0.323400  0.572700  1.0  0.0876
  H  H14  1  0.867300  0.413200  0.624400  1.0  0.1217
  H  H15  1  0.662800  0.462600  0.695700  1.0  0.1032
  H  H16  1  0.542600  0.366600  0.645400  1.0  0.0761
  H  H17  1  0.332800  0.721000  0.760500  1.0  0.0773
  H  H18  1  0.171200  0.703800  0.761200  1.0  0.125
  H  H19  1  0.106900  0.506600  0.670000  1.0  0.0911
  H  H20  1  0.270000  0.528600  0.669700  1.0  0.1071
  H  H21  1  0.691700  0.693000  0.836000  1.0  0.0802
  H  H22  1  0.724600  0.609200  0.780600  1.0  0.1074
  H  H23  1  0.010600  0.738600  0.813800  1.0  0.1157
  H  H24  1  0.970900  0.821600  0.865300  1.0  0.0808
  H  H25  1  0.008200  0.969800  0.933700  1.0  0.0687
  H  H26  1  0.144500  0.987400  0.974600  1.0  0.1247
  H  H27  1  0.978800  0.797800  0.023200  1.0  0.1252
  H  H28  1  0.850200  0.781400  0.974200  1.0  0.0821
  H  H29  1  0.632700  0.125400  0.106300  1.0  0.0943
  H  H30  1  0.479200  0.030600  0.110400  1.0  0.1113
  H  H31  1  0.395500  0.056400  0.994500  1.0  0.1124
  H  H32  1  0.542600  0.154400  0.995100  1.0  0.0725
  H  H33  1  0.077200  0.644800  0.137300  1.0  0.0924
  H  H34  1  0.088700  0.726000  0.088500  1.0  0.1158
  H  H35  1  0.343600  0.881200  0.156200  1.0  0.1048
  H  H36  1  0.319400  0.799600  0.206400  1.0  0.0952
  H  H37  1  0.583000  0.323400  0.072700  1.0  0.0877
  H  H38  1  0.545900  0.413200  0.124400  1.0  0.1221
  H  H39  1  0.799800  0.462600  0.195700  1.0  0.1028
  H  H40  1  0.824000  0.366600  0.145400  1.0  0.0757
  H  H41  1  0.388200  0.721000  0.260500  1.0  0.0776
  H  H42  1  0.532600  0.703800  0.261200  1.0  0.1249
  H  H43  1  0.399700  0.506600  0.170000  1.0  0.0911
  H  H44  1  0.258600  0.528600  0.169700  1.0  0.107
  H  H45  1  0.001300  0.693000  0.336000  1.0  0.0793
  H  H46  1  0.884600  0.609200  0.280600  1.0  0.1074
  H  H47  1  0.728000  0.738600  0.313800  1.0  0.1164
  H  H48  1  0.850700  0.821600  0.365300  1.0  0.0806
  H  H49  1  0.961600  0.969800  0.433700  1.0  0.0687
  H  H50  1  0.842900  0.987400  0.474600  1.0  0.1254
  H  H51  1  0.819000  0.797800  0.523200  1.0  0.125
  H  H52  1  0.931200  0.781400  0.474200  1.0  0.0818
  H  H53  1  0.492700  0.125400  0.606300  1.0  0.0949
  H  H54  1  0.551400  0.030600  0.610400  1.0  0.1119
  H  H55  1  0.660900  0.056400  0.494500  1.0  0.1124
  H  H56  1  0.611800  0.154400  0.495100  1.0  0.0728
  H  H57  1  0.567600  0.644800  0.637300  1.0  0.0926
  H  H58  1  0.637300  0.726000  0.588500  1.0  0.1157
  H  H59  1  0.537600  0.881200  0.656200  1.0  0.1048
  H  H60  1  0.480200  0.799600  0.706400  1.0  0.0948
  H  H61  1  0.417000  0.676600  0.927300  1.0  0.0878
  H  H62  1  0.454100  0.586800  0.875600  1.0  0.1216
  H  H63  1  0.200200  0.537400  0.804300  1.0  0.1032
  H  H64  1  0.176000  0.633400  0.854600  1.0  0.0762
  H  H65  1  0.611800  0.279000  0.739500  1.0  0.0772
  H  H66  1  0.467400  0.296200  0.738800  1.0  0.1236
  H  H67  1  0.600300  0.493400  0.830000  1.0  0.0912
  H  H68  1  0.741400  0.471400  0.830300  1.0  0.1079
  H  H69  1  0.998700  0.307000  0.664000  1.0  0.0803
  H  H70  1  0.115400  0.390800  0.719400  1.0  0.1072
  H  H71  1  0.272000  0.261400  0.686200  1.0  0.1156
  H  H72  1  0.149300  0.178400  0.634700  1.0  0.0814
  H  H73  1  0.038400  0.030200  0.566300  1.0  0.0688
  H  H74  1  0.157100  0.012600  0.525400  1.0  0.1248
  H  H75  1  0.181000  0.202200  0.476800  1.0  0.1251
  H  H76  1  0.068800  0.218600  0.525800  1.0  0.0822
  H  H77  1  0.507300  0.874600  0.393700  1.0  0.0947
  H  H78  1  0.448600  0.969400  0.389600  1.0  0.1111
  H  H79  1  0.339100  0.943600  0.505500  1.0  0.1131
  H  H80  1  0.388200  0.845600  0.504900  1.0  0.0727
  H  H81  1  0.432400  0.355200  0.362700  1.0  0.0919
  H  H82  1  0.362700  0.274000  0.411500  1.0  0.1156
  H  H83  1  0.462400  0.118800  0.343800  1.0  0.105
  H  H84  1  0.519800  0.200400  0.293600  1.0  0.0952
  H  H85  1  0.259600  0.676600  0.427300  1.0  0.0878
  H  H86  1  0.132700  0.586800  0.375600  1.0  0.1224
  H  H87  1  0.337200  0.537400  0.304300  1.0  0.1035
  H  H88  1  0.457400  0.633400  0.354600  1.0  0.0758
  H  H89  1  0.667200  0.279000  0.239500  1.0  0.0772
  H  H90  1  0.828800  0.296200  0.238800  1.0  0.1239
  H  H91  1  0.893100  0.493400  0.330000  1.0  0.0912
  H  H92  1  0.730000  0.471400  0.330300  1.0  0.1086
  H  H93  1  0.308300  0.307000  0.164000  1.0  0.0797
  H  H94  1  0.275400  0.390800  0.219400  1.0  0.1065
  H  H95  1  0.989400  0.261400  0.186200  1.0  0.1166
  H  H96  1  0.029100  0.178400  0.134700  1.0  0.0806
  H  H97  1  0.991800  0.030200  0.066300  1.0  0.069
  H  H98  1  0.855500  0.012600  0.025400  1.0  0.125
  H  H99  1  0.021200  0.202200  0.976800  1.0  0.125
  H  H100  1  0.149800  0.218600  0.025800  1.0  0.0823
  H  H101  1  0.367300  0.874600  0.893700  1.0  0.0946
  H  H102  1  0.520800  0.969400  0.889600  1.0  0.1114
  H  H103  1  0.604500  0.943600  0.005500  1.0  0.1132
  H  H104  1  0.457400  0.845600  0.004900  1.0  0.0719
  H  H105  1  0.922800  0.355200  0.862700  1.0  0.093
  H  H106  1  0.911300  0.274000  0.911500  1.0  0.1157
  H  H107  1  0.656400  0.118800  0.843800  1.0  0.1043
  H  H108  1  0.680600  0.200400  0.793600  1.0  0.0948
  C  C109  1  0.724900  0.350000  0.599100  1.0  0.1227
  C  C110  1  0.801100  0.405400  0.628600  1.0  -0.1681
  C  C111  1  0.777000  0.450200  0.665400  1.0  -0.1038
  C  C112  1  0.680600  0.433800  0.671000  1.0  -0.1261
  C  C113  1  0.609200  0.376000  0.641100  1.0  0.1383
  C  C114  1  0.856000  0.516600  0.694600  1.0  0.4177
  C  C115  1  0.015200  0.586600  0.716600  1.0  0.2956
  C  C116  1  0.900200  0.617200  0.751100  1.0  0.4099
  C  C117  1  0.285400  0.675200  0.742100  1.0  0.1513
  C  C118  1  0.189900  0.666667  0.742500  1.0  -0.1411
  C  C119  1  0.122500  0.601800  0.714600  1.0  -0.1487
  C  C120  1  0.153700  0.552000  0.689100  1.0  -0.054
  C  C121  1  0.250100  0.563600  0.689500  1.0  0.0891
  C  C122  1  0.758300  0.703200  0.831000  1.0  0.1378
  C  C123  1  0.777300  0.653600  0.797400  1.0  -0.1526
  C  C124  1  0.872400  0.667800  0.788000  1.0  -0.0691
  C  C125  1  0.943400  0.729200  0.816500  1.0  -0.1523
  C  C126  1  0.919000  0.776800  0.848300  1.0  0.162
  C  C127  1  0.002800  0.931800  0.951000  1.0  0.1804
  C  C128  1  0.084500  0.944200  0.975800  1.0  -0.1953
  C  C129  1  0.078500  0.893400  0.002200  1.0  -0.0587
  C  C130  1  0.987900  0.832600  0.003400  1.0  -0.1737
  C  C131  1  0.911300  0.824800  0.974700  1.0  0.1446
  C  C132  1  0.164800  0.903000  0.030700  1.0  0.3647
  C  C133  1  0.325900  0.965400  0.054500  1.0  0.3569
  C  C134  1  0.230000  0.865400  0.084900  1.0  0.3637
  C  C135  1  0.582100  0.113600  0.084000  1.0  0.0979
  C  C136  1  0.492500  0.054600  0.085300  1.0  -0.1256
  C  C137  1  0.422500  0.030200  0.051500  1.0  -0.0603
  C  C138  1  0.443200  0.070200  0.018600  1.0  -0.1999
  C  C139  1  0.530000  0.129000  0.019700  1.0  0.1612
  C  C140  1  0.131000  0.694600  0.141600  1.0  0.1319
  C  C141  1  0.137900  0.742200  0.112200  1.0  -0.1285
  C  C142  1  0.217200  0.814200  0.117300  1.0  -0.0786
  C  C143  1  0.286400  0.833400  0.152400  1.0  -0.1375
  C  C144  1  0.272700  0.783800  0.181700  1.0  0.1244
  C  C145  1  0.625100  0.350000  0.099100  1.0  0.1241
  C  C146  1  0.604300  0.405400  0.128600  1.0  -0.169
  C  C147  1  0.673200  0.450200  0.165400  1.0  -0.1031
  C  C148  1  0.753200  0.433800  0.171000  1.0  -0.1265
  C  C149  1  0.766800  0.376000  0.141100  1.0  0.1378
  C  C150  1  0.660600  0.516600  0.194600  1.0  0.4177
  C  C151  1  0.571400  0.586600  0.216600  1.0  0.2956
  C  C152  1  0.717000  0.617200  0.251100  1.0  0.4104
  C  C153  1  0.389800  0.675200  0.242100  1.0  0.1506
  C  C154  1  0.476700  0.666667  0.242500  1.0  -0.1383
  C  C155  1  0.479300  0.601800  0.214600  1.0  -0.1471
  C  C156  1  0.398300  0.552000  0.189100  1.0  -0.0554
  C  C157  1  0.313500  0.563600  0.189500  1.0  0.0886
  C  C158  1  0.944900  0.703200  0.331000  1.0  0.1368
  C  C159  1  0.876300  0.653600  0.297400  1.0  -0.1535
  C  C160  1  0.795400  0.667800  0.288000  1.0  -0.0699
  C  C161  1  0.785800  0.729200  0.316500  1.0  -0.1501
  C  C162  1  0.857800  0.776800  0.348300  1.0  0.1626
  C  C163  1  0.929000  0.931800  0.451000  1.0  0.1812
  C  C164  1  0.859700  0.944200  0.475800  1.0  -0.196
  C  C165  1  0.814900  0.893400  0.502200  1.0  -0.0602
  C  C166  1  0.844700  0.832600  0.503400  1.0  -0.1742
  C  C167  1  0.913500  0.824800  0.474700  1.0  0.143
  C  C168  1  0.738200  0.903000  0.530700  1.0  0.3645
  C  C169  1  0.639500  0.965400  0.554500  1.0  0.3568
  C  C170  1  0.635400  0.865400  0.584900  1.0  0.3644
  C  C171  1  0.531500  0.113600  0.584000  1.0  0.098
  C  C172  1  0.562100  0.054600  0.585300  1.0  -0.1256
  C  C173  1  0.607700  0.030200  0.551500  1.0  -0.0593
  C  C174  1  0.627000  0.070200  0.518600  1.0  -0.199
  C  C175  1  0.599000  0.129000  0.519700  1.0  0.1596
  C  C176  1  0.563600  0.694600  0.641600  1.0  0.1314
  C  C177  1  0.604300  0.742200  0.612200  1.0  -0.1285
  C  C178  1  0.597000  0.814200  0.617300  1.0  -0.0796
  C  C179  1  0.547000  0.833400  0.652400  1.0  -0.1379
  C  C180  1  0.511100  0.783800  0.681700  1.0  0.1246
  C  C181  1  0.374900  0.650000  0.900900  1.0  0.1233
  C  C182  1  0.395700  0.594600  0.871400  1.0  -0.1684
  C  C183  1  0.326800  0.549800  0.834600  1.0  -0.1041
  C  C184  1  0.246800  0.566200  0.829000  1.0  -0.1288
  C  C185  1  0.233200  0.624000  0.858900  1.0  0.1371
  C  C186  1  0.339400  0.483400  0.805400  1.0  0.4178
  C  C187  1  0.428600  0.413400  0.783400  1.0  0.2953
  C  C188  1  0.283000  0.382800  0.748900  1.0  0.4099
  C  C189  1  0.610200  0.324800  0.757900  1.0  0.1514
  C  C190  1  0.523300  0.333400  0.757500  1.0  -0.1392
  C  C191  1  0.520700  0.398200  0.785400  1.0  -0.1507
  C  C192  1  0.601700  0.448000  0.810900  1.0  -0.0566
  C  C193  1  0.686500  0.436400  0.810500  1.0  0.0897
  C  C194  1  0.055100  0.296800  0.669000  1.0  0.139
  C  C195  1  0.123700  0.346400  0.702600  1.0  -0.1529
  C  C196  1  0.204600  0.332200  0.712000  1.0  -0.0705
  C  C197  1  0.214200  0.270800  0.683500  1.0  -0.1536
  C  C198  1  0.142200  0.223200  0.651700  1.0  0.1634
  C  C199  1  0.071000  0.068200  0.549000  1.0  0.1796
  C  C200  1  0.140300  0.055800  0.524200  1.0  -0.1937
  C  C201  1  0.185100  0.106600  0.497800  1.0  -0.059
  C  C202  1  0.155300  0.167400  0.496600  1.0  -0.1743
  C  C203  1  0.086500  0.175200  0.525300  1.0  0.143
  C  C204  1  0.261800  0.097000  0.469300  1.0  0.3641
  C  C205  1  0.360500  0.034600  0.445500  1.0  0.3576
  C  C206  1  0.364600  0.134600  0.415100  1.0  0.3636
  C  C207  1  0.468500  0.886400  0.416000  1.0  0.0974
  C  C208  1  0.437900  0.945400  0.414700  1.0  -0.1265
  C  C209  1  0.392300  0.969800  0.448500  1.0  -0.0611
  C  C210  1  0.373000  0.929800  0.481400  1.0  -0.2018
  C  C211  1  0.401000  0.871000  0.480300  1.0  0.1611
  C  C212  1  0.436400  0.305400  0.358400  1.0  0.1315
  C  C213  1  0.395700  0.257800  0.387800  1.0  -0.129
  C  C214  1  0.403000  0.185800  0.382700  1.0  -0.0776
  C  C215  1  0.453000  0.166600  0.347600  1.0  -0.1383
  C  C216  1  0.488900  0.216200  0.318300  1.0  0.1232
  C  C217  1  0.275100  0.650000  0.400900  1.0  0.1232
  C  C218  1  0.198900  0.594600  0.371400  1.0  -0.1687
  C  C219  1  0.223000  0.549800  0.334600  1.0  -0.1039
  C  C220  1  0.319400  0.566200  0.329000  1.0  -0.1283
  C  C221  1  0.390800  0.624000  0.358900  1.0  0.1371
  C  C222  1  0.144000  0.483400  0.305400  1.0  0.4179
  C  C223  1  0.984800  0.413400  0.283400  1.0  0.2955
  C  C224  1  0.099800  0.382800  0.248900  1.0  0.4107
  C  C225  1  0.714600  0.324800  0.257900  1.0  0.1509
  C  C226  1  0.810100  0.333400  0.257500  1.0  -0.1403
  C  C227  1  0.877500  0.398200  0.285400  1.0  -0.1483
  C  C228  1  0.846300  0.448000  0.310900  1.0  -0.0555
  C  C229  1  0.749900  0.436400  0.310500  1.0  0.0873
  C  C230  1  0.241700  0.296800  0.169000  1.0  0.1378
  C  C231  1  0.222700  0.346400  0.202600  1.0  -0.1538
  C  C232  1  0.127600  0.332200  0.212000  1.0  -0.0715
  C  C233  1  0.056600  0.270800  0.183500  1.0  -0.151
  C  C234  1  0.081000  0.223200  0.151700  1.0  0.1644
  C  C235  1  0.997200  0.068200  0.049000  1.0  0.1807
  C  C236  1  0.915500  0.055800  0.024200  1.0  -0.1947
  C  C237  1  0.921500  0.106600  0.997800  1.0  -0.0595
  C  C238  1  0.012100  0.167400  0.996600  1.0  -0.1736
  C  C239  1  0.088700  0.175200  0.025300  1.0  0.1423
  C  C240  1  0.835200  0.097000  0.969300  1.0  0.3639
  C  C241  1  0.674100  0.034600  0.945500  1.0  0.3573
  C  C242  1  0.770000  0.134600  0.915100  1.0  0.3644
  C  C243  1  0.417900  0.886400  0.916000  1.0  0.0997
  C  C244  1  0.507500  0.945400  0.914700  1.0  -0.1262
  C  C245  1  0.577500  0.969800  0.948500  1.0  -0.0607
  C  C246  1  0.556800  0.929800  0.981400  1.0  -0.2005
  C  C247  1  0.470000  0.871000  0.980300  1.0  0.1603
  C  C248  1  0.869000  0.305400  0.858400  1.0  0.1314
  C  C249  1  0.862100  0.257800  0.887800  1.0  -0.1293
  C  C250  1  0.782800  0.185800  0.882700  1.0  -0.0789
  C  C251  1  0.713600  0.166600  0.847600  1.0  -0.1375
  C  C252  1  0.727300  0.216200  0.818300  1.0  0.1245
  I  I253  1  0.560880  0.304560  0.488050  1.0  -0.3204
  I  I254  1  0.365280  0.222240  0.594510  1.0  -0.4481
  I  I255  1  0.833920  0.962060  0.866170  1.0  -0.3488
  I  I256  1  0.646560  0.773620  0.939280  1.0  -0.3864
  I  I257  1  0.033110  0.521960  0.197740  1.0  -0.4583
  I  I258  1  0.201940  0.739520  0.299350  1.0  -0.4388
  I  I259  1  0.743680  0.304560  0.988050  1.0  -0.3208
  I  I260  1  0.856960  0.222240  0.094510  1.0  -0.4482
  I  I261  1  0.128140  0.962060  0.366170  1.0  -0.3488
  I  I262  1  0.127060  0.773620  0.439280  1.0  -0.3863
  I  I263  1  0.488850  0.521960  0.697740  1.0  -0.4585
  I  I264  1  0.537580  0.739520  0.799350  1.0  -0.4384
  I  I265  1  0.256320  0.695440  0.011950  1.0  -0.3189
  I  I266  1  0.143040  0.777760  0.905490  1.0  -0.4474
  I  I267  1  0.871860  0.037940  0.633830  1.0  -0.3468
  I  I268  1  0.872940  0.226380  0.560720  1.0  -0.3853
  I  I269  1  0.511150  0.478040  0.302260  1.0  -0.4582
  I  I270  1  0.462420  0.260480  0.200650  1.0  -0.4385
  I  I271  1  0.439120  0.695440  0.511950  1.0  -0.3186
  I  I272  1  0.634720  0.777760  0.405490  1.0  -0.4474
  I  I273  1  0.166080  0.037940  0.133830  1.0  -0.3475
  I  I274  1  0.353440  0.226380  0.060720  1.0  -0.3851
  I  I275  1  0.966890  0.478040  0.802260  1.0  -0.4579
  I  I276  1  0.798060  0.260480  0.700650  1.0  -0.4388
  N  N277  1  0.629100  0.331800  0.605900  1.0  -0.3282
  N  N278  1  0.948800  0.527800  0.688000  1.0  -0.2797
  N  N279  1  0.993700  0.637200  0.748000  1.0  -0.3084
  N  N280  1  0.828200  0.557200  0.726500  1.0  -0.3897
  N  N281  1  0.317600  0.625400  0.718400  1.0  -0.3119
  N  N282  1  0.829100  0.765800  0.857300  1.0  -0.3282
  N  N283  1  0.917300  0.873200  0.948300  1.0  -0.3382
  N  N284  1  0.252100  0.957800  0.026000  1.0  -0.5072
  N  N285  1  0.318500  0.921600  0.084000  1.0  -0.4077
  N  N286  1  0.148900  0.852200  0.058500  1.0  -0.43
  N  N287  1  0.600700  0.155400  0.051800  1.0  -0.3127
  N  N288  1  0.197600  0.715600  0.176700  1.0  -0.307
  N  N289  1  0.702700  0.331800  0.105900  1.0  -0.3275
  N  N290  1  0.579000  0.527800  0.188000  1.0  -0.2796
  N  N291  1  0.643500  0.637200  0.248000  1.0  -0.3074
  N  N292  1  0.729000  0.557200  0.226500  1.0  -0.3918
  N  N293  1  0.307800  0.625400  0.218400  1.0  -0.3125
  N  N294  1  0.936700  0.765800  0.357300  1.0  -0.3295
  N  N295  1  0.955900  0.873200  0.448300  1.0  -0.3387
  N  N296  1  0.705700  0.957800  0.526000  1.0  -0.5077
  N  N297  1  0.603100  0.921600  0.584000  1.0  -0.4084
  N  N298  1  0.703300  0.852200  0.558500  1.0  -0.43
  N  N299  1  0.554700  0.155400  0.551800  1.0  -0.3121
  N  N300  1  0.518000  0.715600  0.676700  1.0  -0.3078
  N  N301  1  0.297300  0.668200  0.894100  1.0  -0.3284
  N  N302  1  0.421000  0.472200  0.812000  1.0  -0.2757
  N  N303  1  0.356500  0.362800  0.752000  1.0  -0.3092
  N  N304  1  0.271000  0.442800  0.773500  1.0  -0.3899
  N  N305  1  0.692200  0.374600  0.781600  1.0  -0.3124
  N  N306  1  0.063300  0.234200  0.642700  1.0  -0.3284
  N  N307  1  0.044100  0.126800  0.551700  1.0  -0.3374
  N  N308  1  0.294300  0.042200  0.474000  1.0  -0.5108
  N  N309  1  0.396900  0.078400  0.416000  1.0  -0.4065
  N  N310  1  0.296700  0.147800  0.441500  1.0  -0.4298
  N  N311  1  0.445300  0.844600  0.448200  1.0  -0.3113
  N  N312  1  0.482000  0.284400  0.323300  1.0  -0.307
  N  N313  1  0.370900  0.668200  0.394100  1.0  -0.328
  N  N314  1  0.051200  0.472200  0.312000  1.0  -0.2767
  N  N315  1  0.006300  0.362800  0.252000  1.0  -0.3091
  N  N316  1  0.171800  0.442800  0.273500  1.0  -0.391
  N  N317  1  0.682400  0.374600  0.281600  1.0  -0.3123
  N  N318  1  0.170900  0.234200  0.142700  1.0  -0.3285
  N  N319  1  0.082700  0.126800  0.051700  1.0  -0.338
  N  N320  1  0.747900  0.042200  0.974000  1.0  -0.5108
  N  N321  1  0.681500  0.078400  0.916000  1.0  -0.4064
  N  N322  1  0.851100  0.147800  0.941500  1.0  -0.4299
  N  N323  1  0.399300  0.844600  0.948200  1.0  -0.3132
  N  N324  1  0.802400  0.284400  0.823300  1.0  -0.3078
