# generated using pymatgen
data_ZnH15C22N4O5
_symmetry_space_group_name_H-M   'P 1'
_cell_length_a   8.15800000
_cell_length_b   17.41800000
_cell_length_c   17.55800000
_cell_angle_alpha   90.00000000
_cell_angle_beta   98.28000000
_cell_angle_gamma   90.00000000
_symmetry_Int_Tables_number   1
_chemical_formula_structural   ZnH15C22N4O5
_chemical_formula_sum   'Zn4 H60 C88 N16 O20'
_cell_volume   2468.91556598
_cell_formula_units_Z   4
loop_
 _symmetry_equiv_pos_site_id
 _symmetry_equiv_pos_as_xyz
  1  'x, y, z'
loop_
 _atom_site_type_symbol
 _atom_site_label
 _atom_site_symmetry_multiplicity
 _atom_site_fract_x
 _atom_site_fract_y
 _atom_site_fract_z
 _atom_site_occupancy
 _atom_site_charge
  Zn  Zn1  1  0.754190  0.305830  0.751740  1.0  0.862
  Zn  Zn2  1  0.745810  0.805830  0.748260  1.0  0.8616
  Zn  Zn3  1  0.245810  0.694170  0.248260  1.0  0.8615
  Zn  Zn4  1  0.254190  0.194170  0.251740  1.0  0.8619
  H  H5  1  0.050900  0.272100  0.974700  1.0  0.1054
  H  H6  1  0.494200  0.333500  0.086300  1.0  0.1171
  H  H7  1  0.349100  0.402800  0.868300  1.0  0.1176
  H  H8  1  0.674700  0.434600  0.078400  1.0  0.078
  H  H9  1  0.751000  0.360200  0.047100  1.0  0.0772
  H  H10  1  0.005900  0.437700  0.115400  1.0  0.0956
  H  H11  1  0.768600  0.493200  0.908800  1.0  0.0942
  H  H12  1  0.414400  0.240200  0.694700  1.0  0.0785
  H  H13  1  0.200700  0.178800  0.738600  1.0  0.124
  H  H14  1  0.482400  0.165700  0.945900  1.0  0.1386
  H  H15  1  0.684700  0.231200  0.896200  1.0  0.0908
  H  H16  1  0.730800  0.090400  0.782400  1.0  0.126
  H  H17  1  0.627700  0.969800  0.747300  1.0  0.0802
  H  H18  1  0.065800  0.879900  0.788900  1.0  0.0846
  H  H19  1  0.182200  0.996200  0.827300  1.0  0.1255
  H  H20  1  0.449100  0.772100  0.525300  1.0  0.105
  H  H21  1  0.005800  0.833500  0.413700  1.0  0.1172
  H  H22  1  0.150900  0.902800  0.631700  1.0  0.1175
  H  H23  1  0.825300  0.934600  0.421600  1.0  0.0777
  H  H24  1  0.749000  0.860200  0.452900  1.0  0.0781
  H  H25  1  0.494100  0.937700  0.384600  1.0  0.097
  H  H26  1  0.731400  0.993200  0.591200  1.0  0.0942
  H  H27  1  0.085600  0.740200  0.805300  1.0  0.0778
  H  H28  1  0.299300  0.678800  0.761400  1.0  0.1251
  H  H29  1  0.017600  0.665700  0.554100  1.0  0.1379
  H  H30  1  0.815300  0.731200  0.603800  1.0  0.0906
  H  H31  1  0.769200  0.590400  0.717600  1.0  0.1252
  H  H32  1  0.872300  0.469800  0.752700  1.0  0.0799
  H  H33  1  0.434200  0.379900  0.711100  1.0  0.0842
  H  H34  1  0.317800  0.496200  0.672700  1.0  0.1276
  H  H35  1  0.949100  0.727900  0.025300  1.0  0.1054
  H  H36  1  0.505800  0.666500  0.913700  1.0  0.1174
  H  H37  1  0.650900  0.597200  0.131700  1.0  0.1185
  H  H38  1  0.325300  0.565400  0.921600  1.0  0.0779
  H  H39  1  0.249000  0.639800  0.952900  1.0  0.0787
  H  H40  1  0.994100  0.562300  0.884600  1.0  0.0968
  H  H41  1  0.231400  0.506800  0.091200  1.0  0.0944
  H  H42  1  0.585600  0.759800  0.305300  1.0  0.078
  H  H43  1  0.799300  0.821200  0.261400  1.0  0.1248
  H  H44  1  0.517600  0.834300  0.054100  1.0  0.1387
  H  H45  1  0.315300  0.768800  0.103800  1.0  0.09
  H  H46  1  0.269200  0.909600  0.217600  1.0  0.1254
  H  H47  1  0.372300  0.030200  0.252700  1.0  0.0796
  H  H48  1  0.934200  0.120100  0.211100  1.0  0.0841
  H  H49  1  0.817800  0.003800  0.172700  1.0  0.1271
  H  H50  1  0.550900  0.227900  0.474700  1.0  0.1051
  H  H51  1  0.994200  0.166500  0.586300  1.0  0.117
  H  H52  1  0.849100  0.097200  0.368300  1.0  0.1188
  H  H53  1  0.174700  0.065400  0.578400  1.0  0.0783
  H  H54  1  0.251000  0.139800  0.547100  1.0  0.0793
  H  H55  1  0.505900  0.062300  0.615400  1.0  0.0952
  H  H56  1  0.268600  0.006800  0.408800  1.0  0.0943
  H  H57  1  0.914400  0.259800  0.194700  1.0  0.0788
  H  H58  1  0.700700  0.321200  0.238600  1.0  0.124
  H  H59  1  0.982400  0.334300  0.445900  1.0  0.1389
  H  H60  1  0.184700  0.268800  0.396200  1.0  0.0902
  H  H61  1  0.230800  0.409600  0.282400  1.0  0.1259
  H  H62  1  0.127700  0.530200  0.247300  1.0  0.0798
  H  H63  1  0.565800  0.620100  0.288900  1.0  0.084
  H  H64  1  0.682200  0.503800  0.327300  1.0  0.1252
  C  C65  1  0.057000  0.338600  0.839600  1.0  0.6483
  C  C66  1  0.180800  0.337200  0.911500  1.0  -0.1134
  C  C67  1  0.150900  0.297800  0.975200  1.0  -0.0377
  C  C68  1  0.268300  0.295600  0.040400  1.0  -0.0868
  C  C69  1  0.231200  0.252800  0.110800  1.0  0.6485
  C  C70  1  0.416200  0.333900  0.042100  1.0  -0.2057
  C  C71  1  0.447300  0.373200  0.976800  1.0  0.2479
  C  C72  1  0.328900  0.375600  0.911500  1.0  -0.1327
  C  C73  1  0.716500  0.412400  0.034300  1.0  0.0886
  C  C74  1  0.862800  0.458700  0.015800  1.0  0.0197
  C  C75  1  0.002500  0.463100  0.068500  1.0  -0.1096
  C  C76  1  0.861800  0.496000  0.946000  1.0  -0.1055
  C  C77  1  0.426700  0.226000  0.746200  1.0  0.166
  C  C78  1  0.297700  0.188700  0.771900  1.0  -0.2308
  C  C79  1  0.313500  0.165800  0.848600  1.0  0.2492
  C  C80  1  0.464600  0.181500  0.894800  1.0  -0.2154
  C  C81  1  0.586300  0.220300  0.864300  1.0  0.1659
  C  C82  1  0.971400  0.057000  0.811300  1.0  0.2382
  C  C83  1  0.801600  0.048300  0.785400  1.0  -0.2029
  C  C84  1  0.740500  0.975100  0.764000  1.0  0.1854
  C  C85  1  0.997600  0.922700  0.788800  1.0  0.1711
  C  C86  1  0.068600  0.992700  0.811700  1.0  -0.2102
  C  C87  1  0.443000  0.838600  0.660400  1.0  0.6484
  C  C88  1  0.319200  0.837200  0.588500  1.0  -0.1164
  C  C89  1  0.349100  0.797800  0.524800  1.0  -0.0383
  C  C90  1  0.231700  0.795600  0.459600  1.0  -0.0887
  C  C91  1  0.268800  0.752800  0.389200  1.0  0.6486
  C  C92  1  0.083800  0.833900  0.457900  1.0  -0.2075
  C  C93  1  0.052700  0.873200  0.523200  1.0  0.2477
  C  C94  1  0.171100  0.875600  0.588500  1.0  -0.1387
  C  C95  1  0.783500  0.912400  0.465700  1.0  0.086
  C  C96  1  0.637200  0.958700  0.484200  1.0  0.0194
  C  C97  1  0.497500  0.963100  0.431500  1.0  -0.1091
  C  C98  1  0.638200  0.996000  0.554000  1.0  -0.1047
  C  C99  1  0.073300  0.726000  0.753800  1.0  0.1669
  C  C100  1  0.202300  0.688700  0.728100  1.0  -0.231
  C  C101  1  0.186500  0.665800  0.651400  1.0  0.2487
  C  C102  1  0.035400  0.681500  0.605200  1.0  -0.2127
  C  C103  1  0.913700  0.720300  0.635700  1.0  0.1654
  C  C104  1  0.528600  0.557000  0.688700  1.0  0.2411
  C  C105  1  0.698400  0.548300  0.714600  1.0  -0.2035
  C  C106  1  0.759500  0.475100  0.736000  1.0  0.1859
  C  C107  1  0.502400  0.422700  0.711200  1.0  0.1721
  C  C108  1  0.431400  0.492700  0.688300  1.0  -0.2117
  C  C109  1  0.943000  0.661400  0.160400  1.0  0.6485
  C  C110  1  0.819200  0.662800  0.088500  1.0  -0.1176
  C  C111  1  0.849100  0.702200  0.024800  1.0  -0.0386
  C  C112  1  0.731700  0.704400  0.959600  1.0  -0.088
  C  C113  1  0.768800  0.747200  0.889200  1.0  0.6491
  C  C114  1  0.583800  0.666100  0.957900  1.0  -0.2075
  C  C115  1  0.552700  0.626800  0.023200  1.0  0.2475
  C  C116  1  0.671100  0.624400  0.088500  1.0  -0.1373
  C  C117  1  0.283500  0.587600  0.965700  1.0  0.0863
  C  C118  1  0.137200  0.541300  0.984200  1.0  0.019
  C  C119  1  0.997500  0.536900  0.931500  1.0  -0.1095
  C  C120  1  0.138200  0.504000  0.054000  1.0  -0.1048
  C  C121  1  0.573300  0.774000  0.253800  1.0  0.1662
  C  C122  1  0.702300  0.811300  0.228100  1.0  -0.2313
  C  C123  1  0.686500  0.834200  0.151400  1.0  0.25
  C  C124  1  0.535400  0.818500  0.105200  1.0  -0.2146
  C  C125  1  0.413700  0.779700  0.135700  1.0  0.1659
  C  C126  1  0.028600  0.943000  0.188700  1.0  0.2398
  C  C127  1  0.198400  0.951700  0.214600  1.0  -0.2024
  C  C128  1  0.259500  0.024900  0.236000  1.0  0.1865
  C  C129  1  0.002400  0.077300  0.211200  1.0  0.1722
  C  C130  1  0.931400  0.007300  0.188300  1.0  -0.2116
  C  C131  1  0.557000  0.161400  0.339600  1.0  0.6484
  C  C132  1  0.680800  0.162800  0.411500  1.0  -0.114
  C  C133  1  0.650900  0.202200  0.475200  1.0  -0.0389
  C  C134  1  0.768300  0.204400  0.540400  1.0  -0.0875
  C  C135  1  0.731200  0.247200  0.610800  1.0  0.6487
  C  C136  1  0.916200  0.166100  0.542100  1.0  -0.2054
  C  C137  1  0.947300  0.126800  0.476800  1.0  0.2477
  C  C138  1  0.828900  0.124400  0.411500  1.0  -0.1304
  C  C139  1  0.216500  0.087600  0.534300  1.0  0.0892
  C  C140  1  0.362800  0.041300  0.515800  1.0  0.0193
  C  C141  1  0.502500  0.036900  0.568500  1.0  -0.1098
  C  C142  1  0.361800  0.004000  0.446000  1.0  -0.1054
  C  C143  1  0.926700  0.274000  0.246200  1.0  0.167
  C  C144  1  0.797700  0.311300  0.271900  1.0  -0.2313
  C  C145  1  0.813500  0.334200  0.348600  1.0  0.2496
  C  C146  1  0.964600  0.318500  0.394800  1.0  -0.2149
  C  C147  1  0.086300  0.279700  0.364300  1.0  0.1664
  C  C148  1  0.471400  0.443000  0.311300  1.0  0.2383
  C  C149  1  0.301600  0.451700  0.285400  1.0  -0.202
  C  C150  1  0.240500  0.524900  0.264000  1.0  0.1848
  C  C151  1  0.497600  0.577300  0.288800  1.0  0.171
  C  C152  1  0.568600  0.507300  0.311700  1.0  -0.21
  N  N153  1  0.570300  0.243400  0.790600  1.0  -0.3402
  N  N154  1  0.189600  0.129300  0.879300  1.0  -0.1676
  N  N155  1  0.032900  0.126800  0.836700  1.0  -0.0966
  N  N156  1  0.832800  0.914100  0.766400  1.0  -0.3258
  N  N157  1  0.929700  0.743400  0.709400  1.0  -0.3405
  N  N158  1  0.310400  0.629300  0.620700  1.0  -0.166
  N  N159  1  0.467100  0.626800  0.663300  1.0  -0.0935
  N  N160  1  0.667200  0.414100  0.733600  1.0  -0.3262
  N  N161  1  0.429700  0.756600  0.209400  1.0  -0.3408
  N  N162  1  0.810400  0.870700  0.120700  1.0  -0.1661
  N  N163  1  0.967100  0.873200  0.163300  1.0  -0.092
  N  N164  1  0.167200  0.085900  0.233600  1.0  -0.3261
  N  N165  1  0.070300  0.256600  0.290600  1.0  -0.3402
  N  N166  1  0.689600  0.370700  0.379300  1.0  -0.1668
  N  N167  1  0.532900  0.373200  0.336700  1.0  -0.0943
  N  N168  1  0.332800  0.585900  0.266400  1.0  -0.325
  O  O169  1  0.926700  0.296000  0.840700  1.0  -0.6166
  O  O170  1  0.080300  0.377600  0.783700  1.0  -0.582
  O  O171  1  0.096100  0.218900  0.109800  1.0  -0.6057
  O  O172  1  0.339700  0.253200  0.169900  1.0  -0.5906
  O  O173  1  0.590500  0.412300  0.970300  1.0  -0.2493
  O  O174  1  0.573300  0.796000  0.659300  1.0  -0.617
  O  O175  1  0.419700  0.877600  0.716300  1.0  -0.5818
  O  O176  1  0.403900  0.718900  0.390200  1.0  -0.605
  O  O177  1  0.160300  0.753200  0.330100  1.0  -0.5912
  O  O178  1  0.909500  0.912300  0.529700  1.0  -0.2486
  O  O179  1  0.073300  0.704000  0.159300  1.0  -0.6168
  O  O180  1  0.919700  0.622400  0.216300  1.0  -0.5813
  O  O181  1  0.903900  0.781100  0.890200  1.0  -0.604
  O  O182  1  0.660300  0.746800  0.830100  1.0  -0.5912
  O  O183  1  0.409500  0.587700  0.029700  1.0  -0.2486
  O  O184  1  0.426700  0.204000  0.340700  1.0  -0.6163
  O  O185  1  0.580300  0.122400  0.283700  1.0  -0.5819
  O  O186  1  0.596100  0.281100  0.609800  1.0  -0.6048
  O  O187  1  0.839700  0.246800  0.669900  1.0  -0.5907
  O  O188  1  0.090500  0.087700  0.470300  1.0  -0.2498
