# generated using pymatgen
data_ZnH7C12O5
_symmetry_space_group_name_H-M   'P 1'
_cell_length_a   8.00620000
_cell_length_b   12.71710000
_cell_length_c   12.71710000
_cell_angle_alpha   106.16000000
_cell_angle_beta   102.60800000
_cell_angle_gamma   77.39250000
_symmetry_Int_Tables_number   1
_chemical_formula_structural   ZnH7C12O5
_chemical_formula_sum   'Zn4 H28 C48 O20'
_cell_volume   1196.39085489
_cell_formula_units_Z   4
loop_
 _symmetry_equiv_pos_site_id
 _symmetry_equiv_pos_as_xyz
  1  'x, y, z'
loop_
 _atom_site_type_symbol
 _atom_site_label
 _atom_site_symmetry_multiplicity
 _atom_site_fract_x
 _atom_site_fract_y
 _atom_site_fract_z
 _atom_site_occupancy
 _atom_site_charge
  Zn  Zn1  1  0.968220  0.457000  0.713940  1.0  1.0475
  Zn  Zn2  1  0.531780  0.713940  0.457000  1.0  1.0424
  Zn  Zn3  1  0.031780  0.543000  0.286060  1.0  1.045
  Zn  Zn4  1  0.468220  0.286060  0.543000  1.0  1.0435
  H  H5  1  0.794600  0.554600  0.049400  1.0  0.122
  H  H6  1  0.333700  0.720900  0.132300  1.0  0.1162
  H  H7  1  0.400400  0.636800  0.814000  1.0  0.1229
  H  H8  1  0.027400  0.727100  0.039100  1.0  0.104
  H  H9  1  0.114500  0.834000  0.072200  1.0  0.0962
  H  H10  1  0.725800  0.788100  0.009300  1.0  0.1038
  H  H11  1  0.479600  0.879200  0.917400  1.0  0.113
  H  H12  1  0.705400  0.049400  0.554600  1.0  0.1216
  H  H13  1  0.166300  0.132300  0.720900  1.0  0.1145
  H  H14  1  0.099600  0.814000  0.636800  1.0  0.1238
  H  H15  1  0.472600  0.039100  0.727100  1.0  0.1044
  H  H16  1  0.385500  0.072200  0.834000  1.0  0.096
  H  H17  1  0.774200  0.009300  0.788100  1.0  0.1033
  H  H18  1  0.020400  0.917400  0.879200  1.0  0.1129
  H  H19  1  0.205400  0.445400  0.950600  1.0  0.1214
  H  H20  1  0.666300  0.279100  0.867700  1.0  0.1165
  H  H21  1  0.599600  0.363200  0.186000  1.0  0.1225
  H  H22  1  0.972600  0.272900  0.960900  1.0  0.1035
  H  H23  1  0.885500  0.166000  0.927800  1.0  0.0964
  H  H24  1  0.274200  0.211900  0.990700  1.0  0.1034
  H  H25  1  0.520400  0.120800  0.082600  1.0  0.1126
  H  H26  1  0.294600  0.950600  0.445400  1.0  0.1218
  H  H27  1  0.833700  0.867700  0.279100  1.0  0.1146
  H  H28  1  0.900400  0.186000  0.363200  1.0  0.1213
  H  H29  1  0.527400  0.960900  0.272900  1.0  0.1044
  H  H30  1  0.614500  0.927800  0.166000  1.0  0.0963
  H  H31  1  0.225800  0.990700  0.211900  1.0  0.1036
  H  H32  1  0.979600  0.082600  0.120800  1.0  0.113
  C  C33  1  0.729300  0.546280  0.832720  1.0  0.6504
  C  C34  1  0.614000  0.590960  0.918040  1.0  -0.1155
  C  C35  1  0.681400  0.589030  0.029570  1.0  -0.0563
  C  C36  1  0.576400  0.639420  0.109380  1.0  -0.1624
  C  C37  1  0.639000  0.640280  0.230120  1.0  0.7136
  C  C38  1  0.403800  0.687500  0.078500  1.0  -0.1413
  C  C39  1  0.337800  0.685540  0.968260  1.0  0.2662
  C  C40  1  0.444500  0.637350  0.888050  1.0  -0.1292
  C  C41  1  0.057800  0.782300  0.010500  1.0  0.0985
  C  C42  1  0.899200  0.842300  0.952300  1.0  0.0232
  C  C43  1  0.736400  0.832000  0.964200  1.0  -0.1044
  C  C44  1  0.588600  0.886900  0.909100  1.0  -0.1242
  C  C45  1  0.770700  0.832720  0.546280  1.0  0.6466
  C  C46  1  0.886000  0.918040  0.590960  1.0  -0.1177
  C  C47  1  0.818600  0.029570  0.589030  1.0  -0.0567
  C  C48  1  0.923600  0.109380  0.639420  1.0  -0.1621
  C  C49  1  0.861000  0.230120  0.640280  1.0  0.7128
  C  C50  1  0.096200  0.078500  0.687500  1.0  -0.1392
  C  C51  1  0.162200  0.968260  0.685540  1.0  0.2666
  C  C52  1  0.055500  0.888050  0.637350  1.0  -0.1313
  C  C53  1  0.442200  0.010500  0.782300  1.0  0.1044
  C  C54  1  0.600800  0.952300  0.842300  1.0  0.0231
  C  C55  1  0.763600  0.964200  0.832000  1.0  -0.1049
  C  C56  1  0.911400  0.909100  0.886900  1.0  -0.1282
  C  C57  1  0.270700  0.453720  0.167280  1.0  0.6531
  C  C58  1  0.386000  0.409040  0.081960  1.0  -0.1179
  C  C59  1  0.318600  0.410970  0.970430  1.0  -0.0557
  C  C60  1  0.423600  0.360580  0.890620  1.0  -0.1617
  C  C61  1  0.361000  0.359720  0.769880  1.0  0.7098
  C  C62  1  0.596200  0.312500  0.921500  1.0  -0.1396
  C  C63  1  0.662200  0.314460  0.031740  1.0  0.2654
  C  C64  1  0.555500  0.362650  0.111950  1.0  -0.1291
  C  C65  1  0.942200  0.217700  0.989500  1.0  0.0973
  C  C66  1  0.100800  0.157700  0.047700  1.0  0.0244
  C  C67  1  0.263600  0.168000  0.035800  1.0  -0.1014
  C  C68  1  0.411400  0.113100  0.090900  1.0  -0.1242
  C  C69  1  0.229300  0.167280  0.453720  1.0  0.6462
  C  C70  1  0.114000  0.081960  0.409040  1.0  -0.1172
  C  C71  1  0.181400  0.970430  0.410970  1.0  -0.0575
  C  C72  1  0.076400  0.890620  0.360580  1.0  -0.1622
  C  C73  1  0.139000  0.769880  0.359720  1.0  0.7131
  C  C74  1  0.903800  0.921500  0.312500  1.0  -0.1399
  C  C75  1  0.837800  0.031740  0.314460  1.0  0.2657
  C  C76  1  0.944500  0.111950  0.362650  1.0  -0.1318
  C  C77  1  0.557800  0.989500  0.217700  1.0  0.1033
  C  C78  1  0.399200  0.047700  0.157700  1.0  0.0229
  C  C79  1  0.236400  0.035800  0.168000  1.0  -0.1068
  C  C80  1  0.088600  0.090900  0.113100  1.0  -0.1258
  O  O81  1  0.887800  0.514630  0.862870  1.0  -0.5745
  O  O82  1  0.666200  0.541770  0.731050  1.0  -0.6239
  O  O83  1  0.771400  0.573660  0.257100  1.0  -0.6825
  O  O84  1  0.547100  0.705390  0.296410  1.0  -0.5975
  O  O85  1  0.171000  0.729900  0.930520  1.0  -0.2617
  O  O86  1  0.612200  0.862870  0.514630  1.0  -0.5727
  O  O87  1  0.833800  0.731050  0.541770  1.0  -0.6181
  O  O88  1  0.728600  0.257100  0.573660  1.0  -0.6905
  O  O89  1  0.952900  0.296410  0.705390  1.0  -0.5965
  O  O90  1  0.329000  0.930520  0.729900  1.0  -0.2584
  O  O91  1  0.112200  0.485370  0.137130  1.0  -0.5721
  O  O92  1  0.333800  0.458230  0.268950  1.0  -0.6232
  O  O93  1  0.228600  0.426340  0.742900  1.0  -0.6798
  O  O94  1  0.452900  0.294610  0.703590  1.0  -0.5985
  O  O95  1  0.829000  0.270100  0.069480  1.0  -0.2597
  O  O96  1  0.387800  0.137130  0.485370  1.0  -0.5731
  O  O97  1  0.166200  0.268950  0.458230  1.0  -0.6185
  O  O98  1  0.271400  0.742900  0.426340  1.0  -0.6918
  O  O99  1  0.047100  0.703590  0.294610  1.0  -0.5971
  O  O100  1  0.671000  0.069480  0.270100  1.0  -0.2565
