# generated using pymatgen
data_ZnH27C28N4O5
_symmetry_space_group_name_H-M   'P 1'
_cell_length_a   9.38980000
_cell_length_b   17.09170000
_cell_length_c   19.86010000
_cell_angle_alpha   90.00000000
_cell_angle_beta   90.00000000
_cell_angle_gamma   100.42800000
_symmetry_Int_Tables_number   1
_chemical_formula_structural   ZnH27C28N4O5
_chemical_formula_sum   'Zn4 H108 C112 N16 O20'
_cell_volume   3134.65645703
_cell_formula_units_Z   4
loop_
 _symmetry_equiv_pos_site_id
 _symmetry_equiv_pos_as_xyz
  1  'x, y, z'
loop_
 _atom_site_type_symbol
 _atom_site_label
 _atom_site_symmetry_multiplicity
 _atom_site_fract_x
 _atom_site_fract_y
 _atom_site_fract_z
 _atom_site_occupancy
 _atom_site_charge
  Zn  Zn1  1  0.067070  0.278100  0.818700  1.0  0.8622
  Zn  Zn2  1  0.432930  0.221900  0.318700  1.0  0.8626
  Zn  Zn3  1  0.932930  0.721900  0.181300  1.0  0.8624
  Zn  Zn4  1  0.567070  0.778100  0.681300  1.0  0.8619
  H  H5  1  0.783300  0.058100  0.767000  1.0  0.0995
  H  H6  1  0.381000  0.942300  0.809400  1.0  0.118
  H  H7  1  0.533500  0.153000  0.896500  1.0  0.1147
  H  H8  1  0.163100  0.969300  0.854000  1.0  0.0639
  H  H9  1  0.251600  0.930200  0.907800  1.0  0.0653
  H  H10  1  0.946700  0.015100  0.887200  1.0  0.115
  H  H11  1  0.214900  0.963400  0.030500  1.0  0.104
  H  H12  1  0.119200  0.125400  0.758200  1.0  0.0807
  H  H13  1  0.259800  0.077800  0.680300  1.0  0.1384
  H  H14  1  0.486900  0.296300  0.660000  1.0  0.1154
  H  H15  1  0.340900  0.338400  0.739400  1.0  0.0782
  H  H16  1  0.420800  0.155200  0.561200  1.0  0.0933
  H  H17  1  0.481300  0.099100  0.612100  1.0  0.0759
  H  H18  1  0.690100  0.133400  0.527800  1.0  0.0478
  H  H19  1  0.624400  0.203100  0.495800  1.0  0.0759
  H  H20  1  0.825400  0.294300  0.531000  1.0  0.0447
  H  H21  1  0.873900  0.230100  0.484000  1.0  0.0726
  H  H22  1  0.920300  0.217000  0.681700  1.0  0.0751
  H  H23  1  0.855600  0.287600  0.650800  1.0  0.0513
  H  H24  1  0.667500  0.191200  0.693500  1.0  0.0662
  H  H25  1  0.715600  0.126200  0.647200  1.0  0.053
  H  H26  1  0.061700  0.321300  0.576500  1.0  0.0681
  H  H27  1  0.120500  0.256200  0.618100  1.0  0.0776
  H  H28  1  0.050000  0.141400  0.490700  1.0  0.1191
  H  H29  1  0.194900  0.122300  0.401800  1.0  0.0863
  H  H30  1  0.444800  0.324300  0.434900  1.0  0.0645
  H  H31  1  0.309800  0.349200  0.525100  1.0  0.1171
  H  H32  1  0.716700  0.441900  0.267000  1.0  0.0997
  H  H33  1  0.119000  0.557700  0.309400  1.0  0.1185
  H  H34  1  0.966500  0.347000  0.396500  1.0  0.1157
  H  H35  1  0.336900  0.530700  0.354000  1.0  0.0635
  H  H36  1  0.248400  0.569800  0.407800  1.0  0.0662
  H  H37  1  0.553300  0.484900  0.387200  1.0  0.1149
  H  H38  1  0.285100  0.536600  0.530500  1.0  0.1037
  H  H39  1  0.380800  0.374600  0.258200  1.0  0.0797
  H  H40  1  0.240200  0.422200  0.180300  1.0  0.1376
  H  H41  1  0.013100  0.203700  0.160000  1.0  0.1144
  H  H42  1  0.159100  0.161600  0.239400  1.0  0.0793
  H  H43  1  0.079200  0.344800  0.061200  1.0  0.0929
  H  H44  1  0.018700  0.400900  0.112100  1.0  0.0741
  H  H45  1  0.809900  0.366600  0.027800  1.0  0.0518
  H  H46  1  0.875600  0.296900  0.995800  1.0  0.075
  H  H47  1  0.674600  0.205700  0.031000  1.0  0.0431
  H  H48  1  0.626100  0.269900  0.984000  1.0  0.0731
  H  H49  1  0.579700  0.283000  0.181700  1.0  0.0756
  H  H50  1  0.644400  0.212400  0.150800  1.0  0.0499
  H  H51  1  0.832500  0.308800  0.193500  1.0  0.0663
  H  H52  1  0.784400  0.373800  0.147200  1.0  0.0549
  H  H53  1  0.438300  0.178700  0.076500  1.0  0.069
  H  H54  1  0.379500  0.243800  0.118100  1.0  0.0778
  H  H55  1  0.450000  0.358600  0.990700  1.0  0.1188
  H  H56  1  0.305100  0.377700  0.901800  1.0  0.0878
  H  H57  1  0.055200  0.175700  0.934900  1.0  0.0645
  H  H58  1  0.190200  0.150800  0.025100  1.0  0.1179
  H  H59  1  0.216700  0.941900  0.233000  1.0  0.0998
  H  H60  1  0.619000  0.057700  0.190600  1.0  0.1185
  H  H61  1  0.466500  0.847000  0.103500  1.0  0.1161
  H  H62  1  0.836900  0.030700  0.146000  1.0  0.0641
  H  H63  1  0.748400  0.069800  0.092200  1.0  0.0659
  H  H64  1  0.053300  0.984900  0.112800  1.0  0.1144
  H  H65  1  0.785100  0.036600  0.969500  1.0  0.104
  H  H66  1  0.880800  0.874600  0.241800  1.0  0.0797
  H  H67  1  0.740200  0.922200  0.319700  1.0  0.1375
  H  H68  1  0.513100  0.703700  0.340000  1.0  0.1144
  H  H69  1  0.659100  0.661600  0.260600  1.0  0.0802
  H  H70  1  0.579200  0.844800  0.438800  1.0  0.0929
  H  H71  1  0.518700  0.900900  0.387900  1.0  0.0744
  H  H72  1  0.309900  0.866600  0.472200  1.0  0.0529
  H  H73  1  0.375600  0.796900  0.504200  1.0  0.077
  H  H74  1  0.174600  0.705700  0.469000  1.0  0.043
  H  H75  1  0.126100  0.769900  0.516000  1.0  0.0716
  H  H76  1  0.079700  0.783000  0.318300  1.0  0.0777
  H  H77  1  0.144400  0.712400  0.349200  1.0  0.0496
  H  H78  1  0.332500  0.808800  0.306500  1.0  0.0666
  H  H79  1  0.284400  0.873800  0.352800  1.0  0.0555
  H  H80  1  0.938300  0.678700  0.423500  1.0  0.0692
  H  H81  1  0.879500  0.743800  0.381900  1.0  0.0784
  H  H82  1  0.950000  0.858600  0.509300  1.0  0.1187
  H  H83  1  0.805100  0.877700  0.598200  1.0  0.0879
  H  H84  1  0.555200  0.675700  0.565100  1.0  0.0647
  H  H85  1  0.690200  0.650800  0.474900  1.0  0.1176
  H  H86  1  0.283300  0.558100  0.733000  1.0  0.1
  H  H87  1  0.881000  0.442300  0.690600  1.0  0.1187
  H  H88  1  0.033500  0.653000  0.603500  1.0  0.1161
  H  H89  1  0.663100  0.469300  0.646000  1.0  0.064
  H  H90  1  0.751600  0.430200  0.592200  1.0  0.0644
  H  H91  1  0.446700  0.515100  0.612800  1.0  0.1146
  H  H92  1  0.714900  0.463400  0.469500  1.0  0.1041
  H  H93  1  0.619200  0.625400  0.741800  1.0  0.0803
  H  H94  1  0.759800  0.577800  0.819700  1.0  0.1388
  H  H95  1  0.986900  0.796300  0.840000  1.0  0.1156
  H  H96  1  0.840900  0.838400  0.760600  1.0  0.0791
  H  H97  1  0.920800  0.655200  0.938800  1.0  0.0933
  H  H98  1  0.981300  0.599100  0.887900  1.0  0.0785
  H  H99  1  0.190100  0.633400  0.972200  1.0  0.0491
  H  H100  1  0.124400  0.703100  0.004200  1.0  0.0775
  H  H101  1  0.325400  0.794300  0.969000  1.0  0.0444
  H  H102  1  0.373900  0.730100  0.016000  1.0  0.0722
  H  H103  1  0.420300  0.717000  0.818300  1.0  0.0763
  H  H104  1  0.355600  0.787600  0.849200  1.0  0.0515
  H  H105  1  0.167500  0.691200  0.806500  1.0  0.0664
  H  H106  1  0.215600  0.626200  0.852800  1.0  0.0534
  H  H107  1  0.561700  0.821300  0.923500  1.0  0.0683
  H  H108  1  0.620500  0.756200  0.881900  1.0  0.0781
  H  H109  1  0.550000  0.641400  0.009300  1.0  0.1192
  H  H110  1  0.694900  0.622300  0.098200  1.0  0.0864
  H  H111  1  0.944800  0.824300  0.065100  1.0  0.0646
  H  H112  1  0.809800  0.849200  0.974900  1.0  0.1175
  C  C113  1  0.795100  0.188000  0.842500  1.0  0.6628
  C  C114  1  0.677000  0.117200  0.832900  1.0  -0.1184
  C  C115  1  0.695600  0.055900  0.789400  1.0  -0.0512
  C  C116  1  0.584600  0.991900  0.779200  1.0  -0.0942
  C  C117  1  0.607000  0.927300  0.731500  1.0  0.654
  C  C118  1  0.454800  0.986000  0.815200  1.0  -0.2277
  C  C119  1  0.438200  0.046400  0.859400  1.0  0.2409
  C  C120  1  0.547300  0.112200  0.867600  1.0  -0.1569
  C  C121  1  0.209000  0.976500  0.897800  1.0  0.1001
  C  C122  1  0.099800  0.987400  0.951000  1.0  0.0101
  C  C123  1  0.968500  0.009100  0.932400  1.0  -0.1307
  C  C124  1  0.128100  0.978300  0.018000  1.0  -0.0958
  C  C125  1  0.193800  0.160800  0.737900  1.0  0.1798
  C  C126  1  0.277400  0.131700  0.690700  1.0  -0.2353
  C  C127  1  0.388000  0.182600  0.658700  1.0  0.1366
  C  C128  1  0.411400  0.260100  0.678700  1.0  -0.2077
  C  C129  1  0.323000  0.285100  0.726800  1.0  0.1752
  C  C130  1  0.472600  0.153900  0.603300  1.0  -0.0392
  C  C131  1  0.684100  0.189200  0.532200  1.0  0.0193
  C  C132  1  0.832100  0.238500  0.527500  1.0  0.0176
  C  C133  1  0.860500  0.231700  0.645700  1.0  0.0183
  C  C134  1  0.709800  0.182200  0.650300  1.0  0.0136
  C  C135  1  0.069400  0.265400  0.577300  1.0  -0.011
  C  C136  1  0.158800  0.248900  0.517900  1.0  0.1394
  C  C137  1  0.129500  0.180400  0.480100  1.0  -0.2167
  C  C138  1  0.217200  0.169100  0.426400  1.0  0.1801
  C  C139  1  0.363200  0.287100  0.446000  1.0  0.1861
  C  C140  1  0.282100  0.302700  0.500300  1.0  -0.2152
  C  C141  1  0.704900  0.312000  0.342500  1.0  0.6645
  C  C142  1  0.823000  0.382800  0.332900  1.0  -0.1192
  C  C143  1  0.804400  0.444100  0.289400  1.0  -0.0487
  C  C144  1  0.915400  0.508100  0.279200  1.0  -0.0939
  C  C145  1  0.893000  0.572700  0.231500  1.0  0.6545
  C  C146  1  0.045200  0.514000  0.315200  1.0  -0.2259
  C  C147  1  0.061800  0.453600  0.359400  1.0  0.2404
  C  C148  1  0.952700  0.387800  0.367600  1.0  -0.1564
  C  C149  1  0.291000  0.523500  0.397800  1.0  0.1009
  C  C150  1  0.400200  0.512600  0.451000  1.0  0.01
  C  C151  1  0.531500  0.490900  0.432400  1.0  -0.1345
  C  C152  1  0.371900  0.521700  0.518000  1.0  -0.0932
  C  C153  1  0.306200  0.339200  0.237900  1.0  0.1796
  C  C154  1  0.222600  0.368300  0.190700  1.0  -0.23
  C  C155  1  0.112000  0.317400  0.158700  1.0  0.1369
  C  C156  1  0.088600  0.239900  0.178700  1.0  -0.2092
  C  C157  1  0.177000  0.214900  0.226800  1.0  0.176
  C  C158  1  0.027400  0.346100  0.103300  1.0  -0.0344
  C  C159  1  0.815900  0.310800  0.032200  1.0  0.019
  C  C160  1  0.667900  0.261500  0.027500  1.0  0.0175
  C  C161  1  0.639500  0.268300  0.145700  1.0  0.0158
  C  C162  1  0.790200  0.317800  0.150300  1.0  0.0171
  C  C163  1  0.430600  0.234600  0.077300  1.0  -0.0089
  C  C164  1  0.341200  0.251100  0.017900  1.0  0.1394
  C  C165  1  0.370500  0.319600  0.980100  1.0  -0.2158
  C  C166  1  0.282800  0.330900  0.926400  1.0  0.1766
  C  C167  1  0.136800  0.212900  0.946000  1.0  0.1842
  C  C168  1  0.217900  0.197300  0.000300  1.0  -0.2133
  C  C169  1  0.204900  0.812000  0.157500  1.0  0.6638
  C  C170  1  0.323000  0.882800  0.167100  1.0  -0.1183
  C  C171  1  0.304400  0.944100  0.210600  1.0  -0.0489
  C  C172  1  0.415400  0.008100  0.220800  1.0  -0.0936
  C  C173  1  0.393000  0.072700  0.268500  1.0  0.6531
  C  C174  1  0.545200  0.014000  0.184800  1.0  -0.225
  C  C175  1  0.561800  0.953600  0.140600  1.0  0.2412
  C  C176  1  0.452700  0.887800  0.132400  1.0  -0.1568
  C  C177  1  0.791000  0.023500  0.102200  1.0  0.0998
  C  C178  1  0.900200  0.012600  0.049000  1.0  0.0101
  C  C179  1  0.031500  0.990900  0.067600  1.0  -0.133
  C  C180  1  0.871900  0.021700  0.982000  1.0  -0.0922
  C  C181  1  0.806200  0.839200  0.262100  1.0  0.1794
  C  C182  1  0.722600  0.868300  0.309300  1.0  -0.2307
  C  C183  1  0.612000  0.817400  0.341300  1.0  0.1371
  C  C184  1  0.588600  0.739900  0.321300  1.0  -0.2097
  C  C185  1  0.677000  0.714900  0.273200  1.0  0.1754
  C  C186  1  0.527400  0.846100  0.396700  1.0  -0.0336
  C  C187  1  0.315900  0.810800  0.467800  1.0  0.0197
  C  C188  1  0.167900  0.761500  0.472500  1.0  0.0169
  C  C189  1  0.139500  0.768300  0.354300  1.0  0.017
  C  C190  1  0.290200  0.817800  0.349700  1.0  0.0137
  C  C191  1  0.930600  0.734600  0.422700  1.0  -0.0066
  C  C192  1  0.841200  0.751100  0.482100  1.0  0.14
  C  C193  1  0.870500  0.819600  0.519900  1.0  -0.2169
  C  C194  1  0.782800  0.830900  0.573600  1.0  0.1757
  C  C195  1  0.636800  0.712900  0.554000  1.0  0.1865
  C  C196  1  0.717900  0.697300  0.499700  1.0  -0.2145
  C  C197  1  0.295100  0.688000  0.657500  1.0  0.663
  C  C198  1  0.177000  0.617200  0.667100  1.0  -0.1179
  C  C199  1  0.195600  0.555900  0.710600  1.0  -0.0507
  C  C200  1  0.084600  0.491900  0.720800  1.0  -0.0931
  C  C201  1  0.107000  0.427300  0.768500  1.0  0.6537
  C  C202  1  0.954800  0.486000  0.684800  1.0  -0.2274
  C  C203  1  0.938200  0.546400  0.640600  1.0  0.2407
  C  C204  1  0.047300  0.612200  0.632400  1.0  -0.1572
  C  C205  1  0.709000  0.476500  0.602200  1.0  0.0989
  C  C206  1  0.599800  0.487400  0.549000  1.0  0.0102
  C  C207  1  0.468500  0.509100  0.567600  1.0  -0.1261
  C  C208  1  0.628100  0.478300  0.482000  1.0  -0.0916
  C  C209  1  0.693800  0.660800  0.762100  1.0  0.1791
  C  C210  1  0.777400  0.631700  0.809300  1.0  -0.2358
  C  C211  1  0.888000  0.682600  0.841300  1.0  0.1367
  C  C212  1  0.911400  0.760100  0.821300  1.0  -0.2078
  C  C213  1  0.823000  0.785100  0.773200  1.0  0.1753
  C  C214  1  0.972600  0.653900  0.896700  1.0  -0.0371
  C  C215  1  0.184100  0.689200  0.967800  1.0  0.0199
  C  C216  1  0.332100  0.738500  0.972500  1.0  0.0186
  C  C217  1  0.360500  0.731700  0.854300  1.0  0.0176
  C  C218  1  0.209800  0.682200  0.849700  1.0  0.0149
  C  C219  1  0.569400  0.765400  0.922700  1.0  -0.0079
  C  C220  1  0.658800  0.748900  0.982100  1.0  0.1399
  C  C221  1  0.629500  0.680400  0.019900  1.0  -0.2163
  C  C222  1  0.717200  0.669100  0.073600  1.0  0.1804
  C  C223  1  0.863200  0.787100  0.054000  1.0  0.1864
  C  C224  1  0.782100  0.802700  0.999700  1.0  -0.2213
  N  N225  1  0.213500  0.236600  0.756000  1.0  -0.3462
  N  N226  1  0.618500  0.202700  0.596900  1.0  -0.3363
  N  N227  1  0.925500  0.218600  0.580200  1.0  -0.3533
  N  N228  1  0.332000  0.222300  0.408630  1.0  -0.3611
  N  N229  1  0.286500  0.263400  0.256000  1.0  -0.3443
  N  N230  1  0.881500  0.297300  0.096900  1.0  -0.3325
  N  N231  1  0.574500  0.281400  0.080200  1.0  -0.3537
  N  N232  1  0.168000  0.277700  0.908630  1.0  -0.3607
  N  N233  1  0.786500  0.763400  0.244000  1.0  -0.3464
  N  N234  1  0.381500  0.797300  0.403100  1.0  -0.3333
  N  N235  1  0.074500  0.781400  0.419800  1.0  -0.3545
  N  N236  1  0.668000  0.777700  0.591370  1.0  -0.36
  N  N237  1  0.713500  0.736600  0.744000  1.0  -0.3463
  N  N238  1  0.118500  0.702700  0.903100  1.0  -0.3366
  N  N239  1  0.425500  0.718600  0.919800  1.0  -0.3542
  N  N240  1  0.832000  0.722300  0.091370  1.0  -0.3592
  O  O241  1  0.915310  0.183610  0.814980  1.0  -0.6176
  O  O242  1  0.773800  0.245700  0.875000  1.0  -0.583
  O  O243  1  0.718900  0.933800  0.697900  1.0  -0.6087
  O  O244  1  0.507970  0.865770  0.729150  1.0  -0.6022
  O  O245  1  0.316600  0.045900  0.898300  1.0  -0.2884
  O  O246  1  0.584690  0.316390  0.314980  1.0  -0.618
  O  O247  1  0.726200  0.254300  0.375000  1.0  -0.583
  O  O248  1  0.781100  0.566200  0.197900  1.0  -0.6078
  O  O249  1  0.992030  0.634230  0.229150  1.0  -0.6015
  O  O250  1  0.183400  0.454100  0.398300  1.0  -0.29
  O  O251  1  0.084690  0.816390  0.185020  1.0  -0.6178
  O  O252  1  0.226200  0.754300  0.125000  1.0  -0.5835
  O  O253  1  0.281100  0.066200  0.302100  1.0  -0.6073
  O  O254  1  0.492030  0.134230  0.270850  1.0  -0.6017
  O  O255  1  0.683400  0.954100  0.101700  1.0  -0.29
  O  O256  1  0.415310  0.683610  0.685020  1.0  -0.6174
  O  O257  1  0.273800  0.745700  0.625000  1.0  -0.5832
  O  O258  1  0.218900  0.433800  0.802100  1.0  -0.6078
  O  O259  1  0.007970  0.365770  0.770850  1.0  -0.6026
  O  O260  1  0.816600  0.545900  0.601700  1.0  -0.2884
