# generated using pymatgen
data_In2H20C37O20
_symmetry_space_group_name_H-M   'P 1'
_cell_length_a   12.26200000
_cell_length_b   13.57200000
_cell_length_c   24.93400000
_cell_angle_alpha   90.00000000
_cell_angle_beta   90.00000000
_cell_angle_gamma   90.00000000
_symmetry_Int_Tables_number   1
_chemical_formula_structural   In2H20C37O20
_chemical_formula_sum   'In4 H40 C74 O40'
_cell_volume   4149.51288898
_cell_formula_units_Z   2
loop_
 _symmetry_equiv_pos_site_id
 _symmetry_equiv_pos_as_xyz
  1  'x, y, z'
loop_
 _atom_site_type_symbol
 _atom_site_label
 _atom_site_symmetry_multiplicity
 _atom_site_fract_x
 _atom_site_fract_y
 _atom_site_fract_z
 _atom_site_occupancy
 _atom_site_charge
  In  In1  1  0.500000  0.087570  0.750000  1.0  1.576
  In  In2  1  0.500000  0.912430  0.250000  1.0  1.5764
  In  In3  1  0.994130  0.000000  0.000000  1.0  1.5338
  In  In4  1  0.005870  0.000000  0.500000  1.0  1.5336
  H  H5  1  0.747900  0.961000  0.866100  1.0  0.1449
  H  H6  1  0.950300  0.733800  0.865100  1.0  0.1574
  H  H7  1  0.734200  0.773500  0.746300  1.0  0.1525
  H  H8  1  0.003500  0.300200  0.611300  1.0  0.159
  H  H9  1  0.731400  0.134700  0.605500  1.0  0.1616
  H  H10  1  0.764900  0.345800  0.721800  1.0  0.1908
  H  H11  1  0.940600  0.565200  0.827400  1.0  0.1137
  H  H12  1  0.025600  0.642500  0.805600  1.0  0.1077
  H  H13  1  0.879500  0.422400  0.758200  1.0  0.1076
  H  H14  1  0.846600  0.509300  0.719200  1.0  0.1101
  H  H15  1  0.252100  0.039000  0.366100  1.0  0.1449
  H  H16  1  0.049700  0.266200  0.365100  1.0  0.1575
  H  H17  1  0.265800  0.226500  0.246300  1.0  0.1533
  H  H18  1  0.996500  0.699800  0.111300  1.0  0.1587
  H  H19  1  0.268600  0.865300  0.105500  1.0  0.1621
  H  H20  1  0.235100  0.654200  0.221800  1.0  0.1894
  H  H21  1  0.059400  0.434800  0.327400  1.0  0.1128
  H  H22  1  0.974400  0.357500  0.305600  1.0  0.1092
  H  H23  1  0.120500  0.577600  0.258200  1.0  0.1081
  H  H24  1  0.153400  0.490700  0.219200  1.0  0.11
  H  H25  1  0.252100  0.961000  0.633900  1.0  0.1445
  H  H26  1  0.049700  0.733800  0.634900  1.0  0.1575
  H  H27  1  0.265800  0.773500  0.753700  1.0  0.1521
  H  H28  1  0.996500  0.300200  0.888700  1.0  0.1589
  H  H29  1  0.268600  0.134700  0.894500  1.0  0.1617
  H  H30  1  0.235100  0.345800  0.778200  1.0  0.1892
  H  H31  1  0.059400  0.565200  0.672600  1.0  0.1111
  H  H32  1  0.974400  0.642500  0.694400  1.0  0.1082
  H  H33  1  0.120500  0.422400  0.741800  1.0  0.1089
  H  H34  1  0.153400  0.509300  0.780800  1.0  0.111
  H  H35  1  0.747900  0.039000  0.133900  1.0  0.1447
  H  H36  1  0.950300  0.266200  0.134900  1.0  0.1574
  H  H37  1  0.734200  0.226500  0.253700  1.0  0.1524
  H  H38  1  0.003500  0.699800  0.388700  1.0  0.1591
  H  H39  1  0.731400  0.865300  0.394500  1.0  0.1617
  H  H40  1  0.764900  0.654200  0.278200  1.0  0.1896
  H  H41  1  0.940600  0.434800  0.172600  1.0  0.1115
  H  H42  1  0.025600  0.357500  0.194400  1.0  0.1081
  H  H43  1  0.879500  0.577600  0.241800  1.0  0.1079
  H  H44  1  0.846600  0.490700  0.280800  1.0  0.1112
  C  C45  1  0.775100  0.905100  0.849200  1.0  0.0718
  C  C46  1  0.855000  0.855400  0.871700  1.0  -0.0095
  C  C47  1  0.893500  0.768200  0.848900  1.0  -0.1052
  C  C48  1  0.847900  0.733700  0.803100  1.0  0.2579
  C  C49  1  0.764900  0.793300  0.778600  1.0  0.0081
  C  C50  1  0.731500  0.876000  0.801600  1.0  -0.1236
  C  C51  1  0.642900  0.961100  0.779400  1.0  0.2715
  C  C52  1  0.911200  0.893700  0.920400  1.0  0.6879
  C  C53  1  0.892700  0.344100  0.672800  1.0  0.2682
  C  C54  1  0.936600  0.283400  0.626300  1.0  -0.0283
  C  C55  1  0.880000  0.204100  0.605700  1.0  -0.064
  C  C56  1  0.775700  0.178400  0.624200  1.0  0.0231
  C  C57  1  0.742600  0.220900  0.671000  1.0  -0.0077
  C  C58  1  0.797200  0.311800  0.693500  1.0  -0.109
  C  C59  1  0.921900  0.134000  0.562100  1.0  0.4646
  C  C60  1  0.647400  0.181000  0.701000  1.0  0.4674
  C  C61  1  0.964800  0.600500  0.795800  1.0  0.0715
  C  C62  1  0.905900  0.466900  0.730700  1.0  0.1111
  C  C63  1  0.224900  0.094900  0.349200  1.0  0.0729
  C  C64  1  0.145000  0.144600  0.371700  1.0  -0.0094
  C  C65  1  0.106500  0.231800  0.348900  1.0  -0.1078
  C  C66  1  0.152100  0.266300  0.303100  1.0  0.257
  C  C67  1  0.235100  0.206700  0.278600  1.0  0.0075
  C  C68  1  0.268500  0.124000  0.301600  1.0  -0.1226
  C  C69  1  0.357100  0.038900  0.279400  1.0  0.2702
  C  C70  1  0.088800  0.106300  0.420400  1.0  0.6874
  C  C71  1  0.107300  0.655900  0.172800  1.0  0.2664
  C  C72  1  0.063400  0.716600  0.126300  1.0  -0.0299
  C  C73  1  0.120000  0.795900  0.105700  1.0  -0.0636
  C  C74  1  0.224300  0.821600  0.124200  1.0  0.023
  C  C75  1  0.257400  0.779100  0.171000  1.0  -0.0088
  C  C76  1  0.202800  0.688200  0.193500  1.0  -0.1095
  C  C77  1  0.078100  0.866000  0.062100  1.0  0.4651
  C  C78  1  0.352600  0.819000  0.201000  1.0  0.4664
  C  C79  1  0.035200  0.399500  0.295800  1.0  0.0731
  C  C80  1  0.094100  0.533100  0.230700  1.0  0.1102
  C  C81  1  0.224900  0.905100  0.650800  1.0  0.0714
  C  C82  1  0.145000  0.855400  0.628300  1.0  -0.0081
  C  C83  1  0.106500  0.768200  0.651100  1.0  -0.1064
  C  C84  1  0.152100  0.733700  0.696900  1.0  0.2573
  C  C85  1  0.235100  0.793300  0.721400  1.0  0.0065
  C  C86  1  0.268500  0.876000  0.698400  1.0  -0.1238
  C  C87  1  0.357100  0.961100  0.720600  1.0  0.2702
  C  C88  1  0.088800  0.893700  0.579600  1.0  0.6876
  C  C89  1  0.107300  0.344100  0.827200  1.0  0.2672
  C  C90  1  0.063400  0.283400  0.873700  1.0  -0.0295
  C  C91  1  0.120000  0.204100  0.894300  1.0  -0.0639
  C  C92  1  0.224300  0.178400  0.875800  1.0  0.0242
  C  C93  1  0.257400  0.220900  0.829000  1.0  -0.0075
  C  C94  1  0.202800  0.311800  0.806500  1.0  -0.1079
  C  C95  1  0.078100  0.134000  0.937900  1.0  0.4632
  C  C96  1  0.352600  0.181000  0.799000  1.0  0.4665
  C  C97  1  0.035200  0.600500  0.704200  1.0  0.0721
  C  C98  1  0.094100  0.466900  0.769300  1.0  0.1103
  C  C99  1  0.775100  0.094900  0.150800  1.0  0.073
  C  C100  1  0.855000  0.144600  0.128300  1.0  -0.0083
  C  C101  1  0.893500  0.231800  0.151100  1.0  -0.1048
  C  C102  1  0.847900  0.266300  0.196900  1.0  0.2575
  C  C103  1  0.764900  0.206700  0.221400  1.0  0.0059
  C  C104  1  0.731500  0.124000  0.198400  1.0  -0.1235
  C  C105  1  0.642900  0.038900  0.220600  1.0  0.27
  C  C106  1  0.911200  0.106300  0.079600  1.0  0.6878
  C  C107  1  0.892700  0.655900  0.327200  1.0  0.2681
  C  C108  1  0.936600  0.716600  0.373700  1.0  -0.0269
  C  C109  1  0.880000  0.795900  0.394300  1.0  -0.0639
  C  C110  1  0.775700  0.821600  0.375800  1.0  0.0226
  C  C111  1  0.742600  0.779100  0.329000  1.0  -0.0073
  C  C112  1  0.797200  0.688200  0.306500  1.0  -0.1086
  C  C113  1  0.921900  0.866000  0.437900  1.0  0.4641
  C  C114  1  0.647400  0.819000  0.299000  1.0  0.4671
  C  C115  1  0.964800  0.399500  0.204200  1.0  0.0739
  C  C116  1  0.905900  0.533100  0.269300  1.0  0.111
  C  C117  1  0.000000  0.525300  0.750000  1.0  0.0421
  C  C118  1  0.000000  0.474700  0.250000  1.0  0.0422
  O  O119  1  0.611600  0.917500  0.730700  1.0  -0.515
  O  O120  1  0.600300  0.006500  0.802700  1.0  -0.5816
  O  O121  1  0.860600  0.958200  0.949600  1.0  -0.5399
  O  O122  1  0.002600  0.875300  0.932970  1.0  -0.54
  O  O123  1  0.027900  0.149100  0.553330  1.0  -0.5767
  O  O124  1  0.881500  0.071100  0.546900  1.0  -0.5306
  O  O125  1  0.582300  0.124200  0.675400  1.0  -0.5187
  O  O126  1  0.623600  0.212300  0.757000  1.0  -0.6942
  O  O127  1  0.876600  0.658700  0.773700  1.0  -0.307
  O  O128  1  0.950700  0.414600  0.687100  1.0  -0.4289
  O  O129  1  0.388400  0.082500  0.230700  1.0  -0.5155
  O  O130  1  0.399700  0.993500  0.302700  1.0  -0.5813
  O  O131  1  0.139400  0.041800  0.449600  1.0  -0.5406
  O  O132  1  0.997400  0.124700  0.432970  1.0  -0.541
  O  O133  1  0.972100  0.850900  0.053330  1.0  -0.5756
  O  O134  1  0.118500  0.928900  0.046900  1.0  -0.5295
  O  O135  1  0.417700  0.875800  0.175400  1.0  -0.5181
  O  O136  1  0.376400  0.787700  0.257000  1.0  -0.6955
  O  O137  1  0.123400  0.341300  0.273700  1.0  -0.3062
  O  O138  1  0.049300  0.585400  0.187100  1.0  -0.4281
  O  O139  1  0.388400  0.917500  0.769300  1.0  -0.5171
  O  O140  1  0.399700  0.006500  0.697300  1.0  -0.5814
  O  O141  1  0.139400  0.958200  0.550400  1.0  -0.5401
  O  O142  1  0.997400  0.875300  0.567030  1.0  -0.54
  O  O143  1  0.972100  0.149100  0.946670  1.0  -0.5768
  O  O144  1  0.118500  0.071100  0.953100  1.0  -0.5301
  O  O145  1  0.417700  0.124200  0.824600  1.0  -0.5174
  O  O146  1  0.376400  0.212300  0.743000  1.0  -0.6951
  O  O147  1  0.123400  0.658700  0.726300  1.0  -0.3068
  O  O148  1  0.049300  0.414600  0.812900  1.0  -0.4299
  O  O149  1  0.611600  0.082500  0.269300  1.0  -0.517
  O  O150  1  0.600300  0.993500  0.197300  1.0  -0.581
  O  O151  1  0.860600  0.041800  0.050400  1.0  -0.5403
  O  O152  1  0.002600  0.124700  0.067030  1.0  -0.5394
  O  O153  1  0.027900  0.850900  0.446670  1.0  -0.5775
  O  O154  1  0.881500  0.928900  0.453100  1.0  -0.531
  O  O155  1  0.582300  0.875800  0.324600  1.0  -0.518
  O  O156  1  0.623600  0.787700  0.243000  1.0  -0.6925
  O  O157  1  0.876600  0.341300  0.226300  1.0  -0.3073
  O  O158  1  0.950700  0.585400  0.312900  1.0  -0.4298
