# generated using pymatgen
data_Zn3H24C38(N3O2)4
_symmetry_space_group_name_H-M   'P 1'
_cell_length_a   11.45810000
_cell_length_b   11.68190000
_cell_length_c   11.86960000
_cell_angle_alpha   64.13200000
_cell_angle_beta   81.20200000
_cell_angle_gamma   72.66300000
_symmetry_Int_Tables_number   1
_chemical_formula_structural   Zn3H24C38(N3O2)4
_chemical_formula_sum   'Zn3 H24 C38 N12 O8'
_cell_volume   1364.14690548
_cell_formula_units_Z   1
loop_
 _symmetry_equiv_pos_site_id
 _symmetry_equiv_pos_as_xyz
  1  'x, y, z'
loop_
 _atom_site_type_symbol
 _atom_site_label
 _atom_site_symmetry_multiplicity
 _atom_site_fract_x
 _atom_site_fract_y
 _atom_site_fract_z
 _atom_site_occupancy
 _atom_site_charge
  Zn  Zn1  1  0.000000  0.000000  0.500000  1.0  0.9372
  Zn  Zn2  1  0.000000  0.500000  0.500000  1.0  0.7224
  Zn  Zn3  1  0.000000  0.000000  0.000000  1.0  0.7077
  H  H4  1  0.779800  0.999300  0.688000  1.0  0.0809
  H  H5  1  0.640100  0.401900  0.367400  1.0  0.1183
  H  H6  1  0.581900  0.117100  0.699600  1.0  0.1175
  H  H7  1  0.208400  0.372200  0.699800  1.0  0.079
  H  H8  1  0.836400  0.276200  0.366200  1.0  0.0891
  H  H9  1  0.416300  0.277100  0.714800  1.0  0.1254
  H  H10  1  0.441700  0.441900  0.339100  1.0  0.1289
  H  H11  1  0.233800  0.529800  0.336300  1.0  0.086
  H  H12  1  0.539600  0.194400  0.951400  1.0  0.1257
  H  H13  1  0.841100  0.813700  0.031600  1.0  0.0894
  H  H14  1  0.643900  0.807700  0.034700  1.0  0.1264
  H  H15  1  0.740400  0.190000  0.945700  1.0  0.0902
  H  H16  1  0.220200  0.000700  0.312000  1.0  0.0816
  H  H17  1  0.359900  0.598100  0.632600  1.0  0.1188
  H  H18  1  0.418100  0.882900  0.300400  1.0  0.1182
  H  H19  1  0.791600  0.627800  0.300200  1.0  0.079
  H  H20  1  0.163600  0.723800  0.633800  1.0  0.0889
  H  H21  1  0.583700  0.722900  0.285200  1.0  0.1251
  H  H22  1  0.558300  0.558100  0.660900  1.0  0.1291
  H  H23  1  0.766200  0.470200  0.663700  1.0  0.085
  H  H24  1  0.460400  0.805600  0.048600  1.0  0.1256
  H  H25  1  0.158900  0.186300  0.968400  1.0  0.0897
  H  H26  1  0.356100  0.192300  0.965300  1.0  0.1266
  H  H27  1  0.259600  0.810000  0.054300  1.0  0.0891
  C  C28  1  0.750800  0.080600  0.622300  1.0  0.1783
  C  C29  1  0.023300  0.220500  0.619500  1.0  -0.0597
  C  C30  1  0.039600  0.966800  0.766600  1.0  0.6621
  C  C31  1  0.453300  0.343700  0.527500  1.0  0.0997
  C  C32  1  0.665700  0.319600  0.433000  1.0  -0.205
  C  C33  1  0.631300  0.150600  0.629800  1.0  -0.1977
  C  C34  1  0.255800  0.384200  0.626600  1.0  0.1754
  C  C35  1  0.051500  0.247600  0.483900  1.0  0.6563
  C  C36  1  0.019600  0.111300  0.729800  1.0  -0.0604
  C  C37  1  0.585400  0.272400  0.531400  1.0  0.087
  C  C38  1  0.784000  0.243300  0.433100  1.0  0.1773
  C  C39  1  0.381200  0.326400  0.636600  1.0  -0.2025
  C  C40  1  0.396300  0.423900  0.413900  1.0  -0.1878
  C  C41  1  0.270900  0.476900  0.413200  1.0  0.1751
  C  C42  1  0.565600  0.000600  0.996700  1.0  0.0845
  C  C43  1  0.599200  0.115200  0.968400  1.0  -0.1977
  C  C44  1  0.779500  0.891300  0.015200  1.0  0.1729
  C  C45  1  0.660900  0.886600  0.018300  1.0  -0.1913
  C  C46  1  0.720300  0.111700  0.965500  1.0  0.1653
  C  C47  1  0.249200  0.919400  0.377700  1.0  0.178
  C  C48  1  0.976700  0.779500  0.380500  1.0  -0.0593
  C  C49  1  0.960400  0.033200  0.233400  1.0  0.6616
  C  C50  1  0.546700  0.656300  0.472500  1.0  0.1007
  C  C51  1  0.334300  0.680400  0.567000  1.0  -0.2054
  C  C52  1  0.368700  0.849400  0.370200  1.0  -0.1981
  C  C53  1  0.744200  0.615800  0.373400  1.0  0.1759
  C  C54  1  0.948500  0.752400  0.516100  1.0  0.6563
  C  C55  1  0.980400  0.888700  0.270200  1.0  -0.0602
  C  C56  1  0.414600  0.727600  0.468600  1.0  0.0866
  C  C57  1  0.216000  0.756700  0.566900  1.0  0.1784
  C  C58  1  0.618800  0.673600  0.363400  1.0  -0.2032
  C  C59  1  0.603700  0.576100  0.586100  1.0  -0.1902
  C  C60  1  0.729100  0.523100  0.586800  1.0  0.1749
  C  C61  1  0.434400  0.999400  0.003300  1.0  0.0847
  C  C62  1  0.400800  0.884800  0.031600  1.0  -0.1972
  C  C63  1  0.220500  0.108700  0.984800  1.0  0.1727
  C  C64  1  0.339100  0.113400  0.981700  1.0  -0.1926
  C  C65  1  0.279700  0.888300  0.034500  1.0  0.1632
  N  N66  1  0.996800  0.324000  0.650500  1.0  -0.1455
  N  N67  1  0.826800  0.124200  0.525100  1.0  -0.3169
  N  N68  1  0.200400  0.455900  0.517200  1.0  -0.2936
  N  N69  1  0.976600  0.282900  0.773500  1.0  -0.1687
  N  N70  1  0.990700  0.153700  0.822500  1.0  -0.1935
  N  N71  1  0.811300  0.001400  0.989800  1.0  -0.2974
  N  N72  1  0.003200  0.676000  0.349500  1.0  -0.1439
  N  N73  1  0.173200  0.875800  0.474900  1.0  -0.3162
  N  N74  1  0.799600  0.544100  0.482800  1.0  -0.2945
  N  N75  1  0.023400  0.717100  0.226500  1.0  -0.1676
  N  N76  1  0.009300  0.846300  0.177500  1.0  -0.1979
  N  N77  1  0.188700  0.998600  0.010200  1.0  -0.3023
  O  O78  1  0.083600  0.154900  0.449600  1.0  -0.5925
  O  O79  1  0.043700  0.367200  0.411500  1.0  -0.5686
  O  O80  1  0.043600  0.922200  0.688300  1.0  -0.5962
  O  O81  1  0.052100  0.895700  0.883500  1.0  -0.5935
  O  O82  1  0.916400  0.845100  0.550400  1.0  -0.5912
  O  O83  1  0.956300  0.632800  0.588500  1.0  -0.5676
  O  O84  1  0.956400  0.077800  0.311700  1.0  -0.5965
  O  O85  1  0.947900  0.104300  0.116500  1.0  -0.5948
