# generated using pymatgen
data_Zn3H20C33(N2O)8
_symmetry_space_group_name_H-M   'P 1'
_cell_length_a   39.49120000
_cell_length_b   23.79840000
_cell_length_c   8.91310000
_cell_angle_alpha   90.00000000
_cell_angle_beta   90.00000000
_cell_angle_gamma   90.00000000
_symmetry_Int_Tables_number   1
_chemical_formula_structural   Zn3H20C33(N2O)8
_chemical_formula_sum   'Zn24 H160 C264 N128 O64'
_cell_volume   8376.77536791
_cell_formula_units_Z   8
loop_
 _symmetry_equiv_pos_site_id
 _symmetry_equiv_pos_as_xyz
  1  'x, y, z'
loop_
 _atom_site_type_symbol
 _atom_site_label
 _atom_site_symmetry_multiplicity
 _atom_site_fract_x
 _atom_site_fract_y
 _atom_site_fract_z
 _atom_site_occupancy
 _atom_site_charge
  Zn  Zn1  1  0.021640  0.663730  0.585940  1.0  0.9524
  Zn  Zn2  1  0.900270  0.832760  0.428460  1.0  0.9263
  Zn  Zn3  1  0.144280  0.829620  0.419480  1.0  0.9263
  Zn  Zn4  1  0.478360  0.836270  0.585940  1.0  0.9506
  Zn  Zn5  1  0.599730  0.667240  0.428460  1.0  0.9272
  Zn  Zn6  1  0.355720  0.670380  0.419480  1.0  0.926
  Zn  Zn7  1  0.978360  0.163730  0.914060  1.0  0.9512
  Zn  Zn8  1  0.099730  0.332760  0.071540  1.0  0.9264
  Zn  Zn9  1  0.855720  0.329620  0.080520  1.0  0.9259
  Zn  Zn10  1  0.521640  0.336270  0.914060  1.0  0.95
  Zn  Zn11  1  0.400270  0.167240  0.071540  1.0  0.9265
  Zn  Zn12  1  0.644280  0.170380  0.080520  1.0  0.926
  Zn  Zn13  1  0.978360  0.336270  0.414060  1.0  0.9494
  Zn  Zn14  1  0.099730  0.167240  0.571540  1.0  0.9267
  Zn  Zn15  1  0.855720  0.170380  0.580520  1.0  0.9258
  Zn  Zn16  1  0.521640  0.163730  0.414060  1.0  0.9518
  Zn  Zn17  1  0.400270  0.332760  0.571540  1.0  0.9261
  Zn  Zn18  1  0.644280  0.329620  0.580520  1.0  0.9261
  Zn  Zn19  1  0.021640  0.836270  0.085940  1.0  0.9514
  Zn  Zn20  1  0.900270  0.667240  0.928460  1.0  0.9266
  Zn  Zn21  1  0.144280  0.670380  0.919480  1.0  0.9264
  Zn  Zn22  1  0.478360  0.663730  0.085940  1.0  0.9517
  Zn  Zn23  1  0.599730  0.832760  0.928460  1.0  0.9268
  Zn  Zn24  1  0.355720  0.829620  0.919480  1.0  0.9259
  H  H25  1  0.265500  0.895000  0.452300  1.0  0.1213
  H  H26  1  0.218400  0.842500  0.504500  1.0  0.0809
  H  H27  1  0.207100  0.998000  0.207100  1.0  0.1254
  H  H28  1  0.373000  0.085000  0.297800  1.0  0.0661
  H  H29  1  0.332800  0.132100  0.925000  1.0  0.0727
  H  H30  1  0.327500  0.029400  0.353600  1.0  0.1221
  H  H31  1  0.284800  0.080500  0.972700  1.0  0.1177
  H  H32  1  0.161400  0.942500  0.267700  1.0  0.0782
  H  H33  1  0.017200  0.543900  0.486100  1.0  0.0681
  H  H34  1  0.019800  0.679300  0.245400  1.0  0.0655
  H  H35  1  0.093600  0.917100  0.544000  1.0  0.0698
  H  H36  1  0.168000  0.844100  0.750700  1.0  0.0734
  H  H37  1  0.015800  0.628900  0.025400  1.0  0.1264
  H  H38  1  0.157600  0.895300  0.967200  1.0  0.1186
  H  H39  1  0.081800  0.972100  0.751000  1.0  0.1146
  H  H40  1  0.086700  0.041800  0.501300  1.0  0.0564
  H  H41  1  0.009300  0.487800  0.278400  1.0  0.1241
  H  H42  1  0.077700  0.165200  0.233300  1.0  0.0505
  H  H43  1  0.090700  0.979100  0.308400  1.0  0.1188
  H  H44  1  0.078700  0.107500  0.029200  1.0  0.1185
  H  H45  1  0.234500  0.605000  0.452300  1.0  0.1207
  H  H46  1  0.281600  0.657500  0.504500  1.0  0.0815
  H  H47  1  0.292900  0.502000  0.207100  1.0  0.1255
  H  H48  1  0.127000  0.415000  0.297800  1.0  0.0669
  H  H49  1  0.167200  0.367900  0.925000  1.0  0.0725
  H  H50  1  0.172500  0.470600  0.353600  1.0  0.1218
  H  H51  1  0.215200  0.419500  0.972700  1.0  0.1172
  H  H52  1  0.338600  0.557500  0.267700  1.0  0.0786
  H  H53  1  0.482800  0.956100  0.486100  1.0  0.068
  H  H54  1  0.480200  0.820700  0.245400  1.0  0.0677
  H  H55  1  0.406400  0.582900  0.544000  1.0  0.0703
  H  H56  1  0.332000  0.655900  0.750700  1.0  0.0726
  H  H57  1  0.484200  0.871100  0.025400  1.0  0.1263
  H  H58  1  0.342400  0.604700  0.967200  1.0  0.1185
  H  H59  1  0.418200  0.527900  0.751000  1.0  0.1148
  H  H60  1  0.413300  0.458200  0.501300  1.0  0.0561
  H  H61  1  0.490700  0.012200  0.278400  1.0  0.1237
  H  H62  1  0.422300  0.334800  0.233300  1.0  0.0501
  H  H63  1  0.409300  0.520900  0.308400  1.0  0.1192
  H  H64  1  0.421300  0.392500  0.029200  1.0  0.1187
  H  H65  1  0.734500  0.395000  0.047700  1.0  0.1208
  H  H66  1  0.781600  0.342500  0.995500  1.0  0.0813
  H  H67  1  0.792900  0.498000  0.292900  1.0  0.125
  H  H68  1  0.627000  0.585000  0.202200  1.0  0.0666
  H  H69  1  0.667200  0.632100  0.575000  1.0  0.0716
  H  H70  1  0.672500  0.529400  0.146400  1.0  0.1218
  H  H71  1  0.715200  0.580500  0.527300  1.0  0.1175
  H  H72  1  0.838600  0.442500  0.232300  1.0  0.0785
  H  H73  1  0.982800  0.043900  0.013900  1.0  0.0688
  H  H74  1  0.980200  0.179300  0.254600  1.0  0.0651
  H  H75  1  0.906400  0.417100  0.956000  1.0  0.0708
  H  H76  1  0.832000  0.344100  0.749300  1.0  0.0729
  H  H77  1  0.984200  0.128900  0.474600  1.0  0.1262
  H  H78  1  0.842400  0.395300  0.532800  1.0  0.1186
  H  H79  1  0.918200  0.472100  0.749000  1.0  0.1144
  H  H80  1  0.913300  0.541800  0.998700  1.0  0.0569
  H  H81  1  0.990700  0.987800  0.221600  1.0  0.124
  H  H82  1  0.922300  0.665200  0.266700  1.0  0.0501
  H  H83  1  0.909300  0.479100  0.191600  1.0  0.1188
  H  H84  1  0.921300  0.607500  0.470800  1.0  0.1178
  H  H85  1  0.765500  0.105000  0.047700  1.0  0.1212
  H  H86  1  0.718400  0.157500  0.995500  1.0  0.081
  H  H87  1  0.707100  0.002000  0.292900  1.0  0.1257
  H  H88  1  0.873000  0.915000  0.202200  1.0  0.0662
  H  H89  1  0.832800  0.867900  0.575000  1.0  0.072
  H  H90  1  0.827500  0.970600  0.146400  1.0  0.1219
  H  H91  1  0.784800  0.919500  0.527300  1.0  0.1181
  H  H92  1  0.661400  0.057500  0.232300  1.0  0.0779
  H  H93  1  0.517200  0.456100  0.013900  1.0  0.0682
  H  H94  1  0.519800  0.320700  0.254600  1.0  0.0682
  H  H95  1  0.593600  0.082900  0.956000  1.0  0.0704
  H  H96  1  0.668000  0.155900  0.749300  1.0  0.0731
  H  H97  1  0.515800  0.371100  0.474600  1.0  0.1263
  H  H98  1  0.657600  0.104700  0.532800  1.0  0.1183
  H  H99  1  0.581800  0.027900  0.749000  1.0  0.1144
  H  H100  1  0.586700  0.958200  0.998700  1.0  0.057
  H  H101  1  0.509300  0.512200  0.221600  1.0  0.1238
  H  H102  1  0.577700  0.834800  0.266700  1.0  0.0505
  H  H103  1  0.590700  0.020900  0.191600  1.0  0.1186
  H  H104  1  0.578700  0.892500  0.470800  1.0  0.1178
  H  H105  1  0.734500  0.105000  0.547700  1.0  0.121
  H  H106  1  0.781600  0.157500  0.495500  1.0  0.0814
  H  H107  1  0.792900  0.002000  0.792900  1.0  0.1256
  H  H108  1  0.627000  0.915000  0.702200  1.0  0.0665
  H  H109  1  0.667200  0.867900  0.075000  1.0  0.0714
  H  H110  1  0.672500  0.970600  0.646400  1.0  0.1217
  H  H111  1  0.715200  0.919500  0.027300  1.0  0.1177
  H  H112  1  0.838600  0.057500  0.732300  1.0  0.0788
  H  H113  1  0.982800  0.456100  0.513900  1.0  0.0684
  H  H114  1  0.980200  0.320700  0.754600  1.0  0.068
  H  H115  1  0.906400  0.082900  0.456000  1.0  0.0708
  H  H116  1  0.832000  0.155900  0.249300  1.0  0.0727
  H  H117  1  0.984200  0.371100  0.974600  1.0  0.1262
  H  H118  1  0.842400  0.104700  0.032800  1.0  0.1186
  H  H119  1  0.918200  0.027900  0.249000  1.0  0.1147
  H  H120  1  0.913300  0.958200  0.498700  1.0  0.057
  H  H121  1  0.990700  0.512200  0.721600  1.0  0.1237
  H  H122  1  0.922300  0.834800  0.766700  1.0  0.0489
  H  H123  1  0.909300  0.020900  0.691600  1.0  0.1188
  H  H124  1  0.921300  0.892500  0.970800  1.0  0.1182
  H  H125  1  0.765500  0.395000  0.547700  1.0  0.1212
  H  H126  1  0.718400  0.342500  0.495500  1.0  0.081
  H  H127  1  0.707100  0.498000  0.792900  1.0  0.1252
  H  H128  1  0.873000  0.585000  0.702200  1.0  0.066
  H  H129  1  0.832800  0.632100  0.075000  1.0  0.0722
  H  H130  1  0.827500  0.529400  0.646400  1.0  0.122
  H  H131  1  0.784800  0.580500  0.027300  1.0  0.1179
  H  H132  1  0.661400  0.442500  0.732300  1.0  0.078
  H  H133  1  0.517200  0.043900  0.513900  1.0  0.0685
  H  H134  1  0.519800  0.179300  0.754600  1.0  0.0656
  H  H135  1  0.593600  0.417100  0.456000  1.0  0.0704
  H  H136  1  0.668000  0.344100  0.249300  1.0  0.0734
  H  H137  1  0.515800  0.128900  0.974600  1.0  0.1264
  H  H138  1  0.657600  0.395300  0.032800  1.0  0.1184
  H  H139  1  0.581800  0.472100  0.249000  1.0  0.1145
  H  H140  1  0.586700  0.541800  0.498700  1.0  0.0574
  H  H141  1  0.509300  0.987800  0.721600  1.0  0.1242
  H  H142  1  0.577700  0.665200  0.766700  1.0  0.0493
  H  H143  1  0.590700  0.479100  0.691600  1.0  0.1185
  H  H144  1  0.578700  0.607500  0.970800  1.0  0.1175
  H  H145  1  0.265500  0.605000  0.952300  1.0  0.1213
  H  H146  1  0.218400  0.657500  0.004500  1.0  0.0811
  H  H147  1  0.207100  0.502000  0.707100  1.0  0.1256
  H  H148  1  0.373000  0.415000  0.797800  1.0  0.0666
  H  H149  1  0.332800  0.367900  0.425000  1.0  0.0726
  H  H150  1  0.327500  0.470600  0.853600  1.0  0.1221
  H  H151  1  0.284800  0.419500  0.472700  1.0  0.1176
  H  H152  1  0.161400  0.557500  0.767700  1.0  0.0777
  H  H153  1  0.017200  0.956100  0.986100  1.0  0.0678
  H  H154  1  0.019800  0.820700  0.745400  1.0  0.0679
  H  H155  1  0.093600  0.582900  0.044000  1.0  0.0701
  H  H156  1  0.168000  0.655900  0.250700  1.0  0.0728
  H  H157  1  0.015800  0.871100  0.525400  1.0  0.1263
  H  H158  1  0.157600  0.604700  0.467200  1.0  0.1185
  H  H159  1  0.081800  0.527900  0.251000  1.0  0.1145
  H  H160  1  0.086700  0.458200  0.001300  1.0  0.0566
  H  H161  1  0.009300  0.012200  0.778400  1.0  0.1239
  H  H162  1  0.077700  0.334800  0.733300  1.0  0.0495
  H  H163  1  0.090700  0.520900  0.808400  1.0  0.119
  H  H164  1  0.078700  0.392500  0.529200  1.0  0.1185
  H  H165  1  0.234500  0.895000  0.952300  1.0  0.1211
  H  H166  1  0.281600  0.842500  0.004500  1.0  0.0812
  H  H167  1  0.292900  0.998000  0.707100  1.0  0.1252
  H  H168  1  0.127000  0.085000  0.797800  1.0  0.0666
  H  H169  1  0.167200  0.132100  0.425000  1.0  0.0728
  H  H170  1  0.172500  0.029400  0.853600  1.0  0.1218
  H  H171  1  0.215200  0.080500  0.472700  1.0  0.1172
  H  H172  1  0.338600  0.942500  0.767700  1.0  0.0786
  H  H173  1  0.482800  0.543900  0.986100  1.0  0.0686
  H  H174  1  0.480200  0.679300  0.745400  1.0  0.0651
  H  H175  1  0.406400  0.917100  0.044000  1.0  0.0701
  H  H176  1  0.332000  0.844100  0.250700  1.0  0.073
  H  H177  1  0.484200  0.628900  0.525400  1.0  0.1263
  H  H178  1  0.342400  0.895300  0.467200  1.0  0.1186
  H  H179  1  0.418200  0.972100  0.251000  1.0  0.1145
  H  H180  1  0.413300  0.041800  0.001300  1.0  0.0564
  H  H181  1  0.490700  0.487800  0.778400  1.0  0.1239
  H  H182  1  0.422300  0.165200  0.733300  1.0  0.0491
  H  H183  1  0.409300  0.979100  0.808400  1.0  0.1191
  H  H184  1  0.421300  0.107500  0.529200  1.0  0.1186
  C  C185  1  0.119320  0.728500  0.577600  1.0  0.0035
  C  C186  1  0.924520  0.731800  0.589900  1.0  -0.0537
  C  C187  1  0.093490  0.691500  0.611000  1.0  -0.0437
  C  C188  1  0.950050  0.693500  0.616300  1.0  -0.0028
  C  C189  1  0.244600  0.905500  0.413300  1.0  -0.2127
  C  C190  1  0.216190  0.874300  0.444400  1.0  0.161
  C  C191  1  0.209900  0.966600  0.268000  1.0  -0.1598
  C  C192  1  0.241740  0.952400  0.323900  1.0  0.209
  C  C193  1  0.300400  0.049600  0.169900  1.0  0.1894
  C  C194  1  0.354900  0.083700  0.230700  1.0  0.1743
  C  C195  1  0.331600  0.111700  0.013800  1.0  0.1713
  C  C196  1  0.327600  0.050700  0.266100  1.0  -0.1828
  C  C197  1  0.302600  0.080400  0.041300  1.0  -0.1829
  C  C198  1  0.182700  0.933200  0.304800  1.0  0.1743
  C  C199  1  0.088380  0.640500  0.705500  1.0  0.6679
  C  C200  1  0.889040  0.742800  0.647500  1.0  0.6983
  C  C201  1  0.154990  0.737100  0.627700  1.0  0.6974
  C  C202  1  0.954650  0.640300  0.704200  1.0  0.6785
  C  C203  1  0.016040  0.560900  0.392300  1.0  0.1697
  C  C204  1  0.018100  0.640400  0.250600  1.0  0.1762
  C  C205  1  0.106700  0.912800  0.629900  1.0  0.1748
  C  C206  1  0.150200  0.869800  0.751600  1.0  0.1747
  C  C207  1  0.014900  0.611100  0.118200  1.0  -0.1837
  C  C208  1  0.144300  0.900500  0.882400  1.0  -0.15
  C  C209  1  0.118600  0.937900  0.882400  1.0  0.1759
  C  C210  1  0.099200  0.945700  0.753700  1.0  -0.1671
  C  C211  1  0.086600  0.055800  0.403900  1.0  0.1908
  C  C212  1  0.010100  0.553000  0.131200  1.0  0.1317
  C  C213  1  0.011400  0.526600  0.269100  1.0  -0.1826
  C  C214  1  0.081000  0.127000  0.249200  1.0  0.1968
  C  C215  1  0.087900  0.037500  0.146900  1.0  0.2133
  C  C216  1  0.088700  0.017400  0.289100  1.0  -0.218
  C  C217  1  0.082000  0.093000  0.125000  1.0  -0.2252
  C  C218  1  0.380680  0.771500  0.577600  1.0  0.0033
  C  C219  1  0.575480  0.768200  0.589900  1.0  -0.0525
  C  C220  1  0.406510  0.808500  0.611000  1.0  -0.0445
  C  C221  1  0.549950  0.806500  0.616300  1.0  -0.0026
  C  C222  1  0.255400  0.594500  0.413300  1.0  -0.2141
  C  C223  1  0.283810  0.625700  0.444400  1.0  0.1618
  C  C224  1  0.290100  0.533400  0.268000  1.0  -0.1597
  C  C225  1  0.258260  0.547600  0.323900  1.0  0.2091
  C  C226  1  0.199600  0.450400  0.169900  1.0  0.1873
  C  C227  1  0.145100  0.416300  0.230700  1.0  0.1744
  C  C228  1  0.168400  0.388300  0.013800  1.0  0.1724
  C  C229  1  0.172400  0.449300  0.266100  1.0  -0.1824
  C  C230  1  0.197400  0.419600  0.041300  1.0  -0.1821
  C  C231  1  0.317300  0.566800  0.304800  1.0  0.1739
  C  C232  1  0.411620  0.859500  0.705500  1.0  0.6685
  C  C233  1  0.610960  0.757200  0.647500  1.0  0.6979
  C  C234  1  0.345010  0.762900  0.627700  1.0  0.6968
  C  C235  1  0.545350  0.859700  0.704200  1.0  0.6779
  C  C236  1  0.483960  0.939100  0.392300  1.0  0.1701
  C  C237  1  0.481900  0.859600  0.250600  1.0  0.176
  C  C238  1  0.393300  0.587200  0.629900  1.0  0.1751
  C  C239  1  0.349800  0.630200  0.751600  1.0  0.1748
  C  C240  1  0.485100  0.888900  0.118200  1.0  -0.185
  C  C241  1  0.355700  0.599500  0.882400  1.0  -0.1487
  C  C242  1  0.381400  0.562100  0.882400  1.0  0.1766
  C  C243  1  0.400800  0.554300  0.753700  1.0  -0.1681
  C  C244  1  0.413400  0.444200  0.403900  1.0  0.1901
  C  C245  1  0.489900  0.947000  0.131200  1.0  0.1323
  C  C246  1  0.488600  0.973400  0.269100  1.0  -0.1828
  C  C247  1  0.419000  0.373000  0.249200  1.0  0.1972
  C  C248  1  0.412100  0.462500  0.146900  1.0  0.2144
  C  C249  1  0.411300  0.482600  0.289100  1.0  -0.217
  C  C250  1  0.418000  0.407000  0.125000  1.0  -0.224
  C  C251  1  0.880680  0.228500  0.922400  1.0  0.004
  C  C252  1  0.075480  0.231800  0.910100  1.0  -0.0523
  C  C253  1  0.906510  0.191500  0.889000  1.0  -0.0436
  C  C254  1  0.049950  0.193500  0.883700  1.0  -0.0024
  C  C255  1  0.755400  0.405500  0.086700  1.0  -0.2134
  C  C256  1  0.783810  0.374300  0.055600  1.0  0.1614
  C  C257  1  0.790100  0.466600  0.232000  1.0  -0.1595
  C  C258  1  0.758260  0.452400  0.176100  1.0  0.2087
  C  C259  1  0.699600  0.549600  0.330100  1.0  0.1882
  C  C260  1  0.645100  0.583700  0.269300  1.0  0.1739
  C  C261  1  0.668400  0.611700  0.486200  1.0  0.1711
  C  C262  1  0.672400  0.550700  0.233900  1.0  -0.1832
  C  C263  1  0.697400  0.580400  0.458700  1.0  -0.1824
  C  C264  1  0.817300  0.433200  0.195200  1.0  0.1737
  C  C265  1  0.911620  0.140500  0.794500  1.0  0.6679
  C  C266  1  0.110960  0.242800  0.852500  1.0  0.6977
  C  C267  1  0.845010  0.237100  0.872300  1.0  0.6972
  C  C268  1  0.045350  0.140300  0.795800  1.0  0.6782
  C  C269  1  0.983960  0.060900  0.107700  1.0  0.1705
  C  C270  1  0.981900  0.140400  0.249400  1.0  0.1766
  C  C271  1  0.893300  0.412800  0.870100  1.0  0.1749
  C  C272  1  0.849800  0.369800  0.748400  1.0  0.1757
  C  C273  1  0.985100  0.111100  0.381800  1.0  -0.1848
  C  C274  1  0.855700  0.400500  0.617600  1.0  -0.1495
  C  C275  1  0.881400  0.437900  0.617600  1.0  0.1786
  C  C276  1  0.900800  0.445700  0.746300  1.0  -0.1679
  C  C277  1  0.913400  0.555800  0.096100  1.0  0.1897
  C  C278  1  0.989900  0.053000  0.368800  1.0  0.1319
  C  C279  1  0.988600  0.026600  0.230900  1.0  -0.1819
  C  C280  1  0.919000  0.627000  0.250800  1.0  0.1953
  C  C281  1  0.912100  0.537500  0.353100  1.0  0.2133
  C  C282  1  0.911300  0.517400  0.210900  1.0  -0.2177
  C  C283  1  0.918000  0.593000  0.375000  1.0  -0.2241
  C  C284  1  0.619320  0.271500  0.922400  1.0  0.0039
  C  C285  1  0.424520  0.268200  0.910100  1.0  -0.0539
  C  C286  1  0.593490  0.308500  0.889000  1.0  -0.0439
  C  C287  1  0.450050  0.306500  0.883700  1.0  -0.0028
  C  C288  1  0.744600  0.094500  0.086700  1.0  -0.2127
  C  C289  1  0.716190  0.125700  0.055600  1.0  0.1611
  C  C290  1  0.709900  0.033400  0.232000  1.0  -0.1594
  C  C291  1  0.741740  0.047600  0.176100  1.0  0.2092
  C  C292  1  0.800400  0.950400  0.330100  1.0  0.1892
  C  C293  1  0.854900  0.916300  0.269300  1.0  0.1736
  C  C294  1  0.831600  0.888300  0.486200  1.0  0.1702
  C  C295  1  0.827600  0.949300  0.233900  1.0  -0.1821
  C  C296  1  0.802600  0.919600  0.458700  1.0  -0.1819
  C  C297  1  0.682700  0.066800  0.195200  1.0  0.1748
  C  C298  1  0.588380  0.359500  0.794500  1.0  0.6675
  C  C299  1  0.389040  0.257200  0.852500  1.0  0.6985
  C  C300  1  0.654990  0.262900  0.872300  1.0  0.697
  C  C301  1  0.454650  0.359700  0.795800  1.0  0.6777
  C  C302  1  0.516040  0.439100  0.107700  1.0  0.1701
  C  C303  1  0.518100  0.359600  0.249400  1.0  0.1759
  C  C304  1  0.606700  0.087200  0.870100  1.0  0.175
  C  C305  1  0.650200  0.130200  0.748400  1.0  0.1743
  C  C306  1  0.514900  0.388900  0.381800  1.0  -0.1844
  C  C307  1  0.644300  0.099500  0.617600  1.0  -0.1499
  C  C308  1  0.618600  0.062100  0.617600  1.0  0.1778
  C  C309  1  0.599200  0.054300  0.746300  1.0  -0.1674
  C  C310  1  0.586600  0.944200  0.096100  1.0  0.1905
  C  C311  1  0.510100  0.447000  0.368800  1.0  0.1318
  C  C312  1  0.511400  0.473400  0.230900  1.0  -0.1825
  C  C313  1  0.581000  0.873000  0.250800  1.0  0.1979
  C  C314  1  0.587900  0.962500  0.353100  1.0  0.213
  C  C315  1  0.588700  0.982600  0.210900  1.0  -0.2165
  C  C316  1  0.582000  0.907000  0.375000  1.0  -0.2243
  C  C317  1  0.880680  0.271500  0.422400  1.0  0.0038
  C  C318  1  0.075480  0.268200  0.410100  1.0  -0.0525
  C  C319  1  0.906510  0.308500  0.389000  1.0  -0.0441
  C  C320  1  0.049950  0.306500  0.383700  1.0  -0.0023
  C  C321  1  0.755400  0.094500  0.586700  1.0  -0.2136
  C  C322  1  0.783810  0.125700  0.555600  1.0  0.162
  C  C323  1  0.790100  0.033400  0.732000  1.0  -0.159
  C  C324  1  0.758260  0.047600  0.676100  1.0  0.2089
  C  C325  1  0.699600  0.950400  0.830100  1.0  0.1877
  C  C326  1  0.645100  0.916300  0.769300  1.0  0.1735
  C  C327  1  0.668400  0.888300  0.986200  1.0  0.1709
  C  C328  1  0.672400  0.949300  0.733900  1.0  -0.183
  C  C329  1  0.697400  0.919600  0.958700  1.0  -0.1819
  C  C330  1  0.817300  0.066800  0.695200  1.0  0.1738
  C  C331  1  0.911620  0.359500  0.294500  1.0  0.6679
  C  C332  1  0.110960  0.257200  0.352500  1.0  0.698
  C  C333  1  0.845010  0.262900  0.372300  1.0  0.6967
  C  C334  1  0.045350  0.359700  0.295800  1.0  0.6782
  C  C335  1  0.983960  0.439100  0.607700  1.0  0.1703
  C  C336  1  0.981900  0.359600  0.749400  1.0  0.1762
  C  C337  1  0.893300  0.087200  0.370100  1.0  0.1751
  C  C338  1  0.849800  0.130200  0.248400  1.0  0.1752
  C  C339  1  0.985100  0.388900  0.881800  1.0  -0.1846
  C  C340  1  0.855700  0.099500  0.117600  1.0  -0.149
  C  C341  1  0.881400  0.062100  0.117600  1.0  0.1783
  C  C342  1  0.900800  0.054300  0.246300  1.0  -0.1681
  C  C343  1  0.913400  0.944200  0.596100  1.0  0.1897
  C  C344  1  0.989900  0.447000  0.868800  1.0  0.1318
  C  C345  1  0.988600  0.473400  0.730900  1.0  -0.1825
  C  C346  1  0.919000  0.873000  0.750800  1.0  0.1967
  C  C347  1  0.912100  0.962500  0.853100  1.0  0.2132
  C  C348  1  0.911300  0.982600  0.710900  1.0  -0.2165
  C  C349  1  0.918000  0.907000  0.875000  1.0  -0.2237
  C  C350  1  0.619320  0.228500  0.422400  1.0  0.004
  C  C351  1  0.424520  0.231800  0.410100  1.0  -0.0535
  C  C352  1  0.593490  0.191500  0.389000  1.0  -0.0433
  C  C353  1  0.450050  0.193500  0.383700  1.0  -0.0028
  C  C354  1  0.744600  0.405500  0.586700  1.0  -0.2126
  C  C355  1  0.716190  0.374300  0.555600  1.0  0.1604
  C  C356  1  0.709900  0.466600  0.732000  1.0  -0.1597
  C  C357  1  0.741740  0.452400  0.676100  1.0  0.2087
  C  C358  1  0.800400  0.549600  0.830100  1.0  0.1894
  C  C359  1  0.854900  0.583700  0.769300  1.0  0.1747
  C  C360  1  0.831600  0.611700  0.986200  1.0  0.1695
  C  C361  1  0.827600  0.550700  0.733900  1.0  -0.1825
  C  C362  1  0.802600  0.580400  0.958700  1.0  -0.1818
  C  C363  1  0.682700  0.433200  0.695200  1.0  0.1744
  C  C364  1  0.588380  0.140500  0.294500  1.0  0.6674
  C  C365  1  0.389040  0.242800  0.352500  1.0  0.6981
  C  C366  1  0.654990  0.237100  0.372300  1.0  0.6973
  C  C367  1  0.454650  0.140300  0.295800  1.0  0.6777
  C  C368  1  0.516040  0.060900  0.607700  1.0  0.1703
  C  C369  1  0.518100  0.140400  0.749400  1.0  0.1763
  C  C370  1  0.606700  0.412800  0.370100  1.0  0.1749
  C  C371  1  0.650200  0.369800  0.248400  1.0  0.1748
  C  C372  1  0.514900  0.111100  0.881800  1.0  -0.1843
  C  C373  1  0.644300  0.400500  0.117600  1.0  -0.1504
  C  C374  1  0.618600  0.437900  0.117600  1.0  0.178
  C  C375  1  0.599200  0.445700  0.246300  1.0  -0.1673
  C  C376  1  0.586600  0.555800  0.596100  1.0  0.1904
  C  C377  1  0.510100  0.053000  0.868800  1.0  0.1319
  C  C378  1  0.511400  0.026600  0.730900  1.0  -0.1821
  C  C379  1  0.581000  0.627000  0.750800  1.0  0.1961
  C  C380  1  0.587900  0.537500  0.853100  1.0  0.2133
  C  C381  1  0.588700  0.517400  0.710900  1.0  -0.2176
  C  C382  1  0.582000  0.593000  0.875000  1.0  -0.2248
  C  C383  1  0.119320  0.771500  0.077600  1.0  0.0035
  C  C384  1  0.924520  0.768200  0.089900  1.0  -0.054
  C  C385  1  0.093490  0.808500  0.111000  1.0  -0.0442
  C  C386  1  0.950050  0.806500  0.116300  1.0  -0.0032
  C  C387  1  0.244600  0.594500  0.913300  1.0  -0.2131
  C  C388  1  0.216190  0.625700  0.944400  1.0  0.1611
  C  C389  1  0.209900  0.533400  0.768000  1.0  -0.16
  C  C390  1  0.241740  0.547600  0.823900  1.0  0.2094
  C  C391  1  0.300400  0.450400  0.669900  1.0  0.1888
  C  C392  1  0.354900  0.416300  0.730700  1.0  0.1741
  C  C393  1  0.331600  0.388300  0.513800  1.0  0.1709
  C  C394  1  0.327600  0.449300  0.766100  1.0  -0.1817
  C  C395  1  0.302600  0.419600  0.541300  1.0  -0.1826
  C  C396  1  0.182700  0.566800  0.804800  1.0  0.1746
  C  C397  1  0.088380  0.859500  0.205500  1.0  0.6681
  C  C398  1  0.889040  0.757200  0.147500  1.0  0.6988
  C  C399  1  0.154990  0.762900  0.127700  1.0  0.6973
  C  C400  1  0.954650  0.859700  0.204200  1.0  0.6783
  C  C401  1  0.016040  0.939100  0.892300  1.0  0.1698
  C  C402  1  0.018100  0.859600  0.750600  1.0  0.1756
  C  C403  1  0.106700  0.587200  0.129900  1.0  0.1751
  C  C404  1  0.150200  0.630200  0.251600  1.0  0.174
  C  C405  1  0.014900  0.888900  0.618200  1.0  -0.1847
  C  C406  1  0.144300  0.599500  0.382400  1.0  -0.1497
  C  C407  1  0.118600  0.562100  0.382400  1.0  0.1762
  C  C408  1  0.099200  0.554300  0.253700  1.0  -0.1673
  C  C409  1  0.086600  0.444200  0.903900  1.0  0.1908
  C  C410  1  0.010100  0.947000  0.631200  1.0  0.1322
  C  C411  1  0.011400  0.973400  0.769100  1.0  -0.1827
  C  C412  1  0.081000  0.373000  0.749200  1.0  0.1985
  C  C413  1  0.087900  0.462500  0.646900  1.0  0.2145
  C  C414  1  0.088700  0.482600  0.789100  1.0  -0.2169
  C  C415  1  0.082000  0.407000  0.625000  1.0  -0.225
  C  C416  1  0.380680  0.728500  0.077600  1.0  0.0035
  C  C417  1  0.575480  0.731800  0.089900  1.0  -0.0523
  C  C418  1  0.406510  0.691500  0.111000  1.0  -0.044
  C  C419  1  0.549950  0.693500  0.116300  1.0  -0.0022
  C  C420  1  0.255400  0.905500  0.913300  1.0  -0.2136
  C  C421  1  0.283810  0.874300  0.944400  1.0  0.1619
  C  C422  1  0.290100  0.966600  0.768000  1.0  -0.1595
  C  C423  1  0.258260  0.952400  0.823900  1.0  0.209
  C  C424  1  0.199600  0.049600  0.669900  1.0  0.1881
  C  C425  1  0.145100  0.083700  0.730700  1.0  0.1738
  C  C426  1  0.168400  0.111700  0.513800  1.0  0.174
  C  C427  1  0.172400  0.050700  0.766100  1.0  -0.1835
  C  C428  1  0.197400  0.080400  0.541300  1.0  -0.1828
  C  C429  1  0.317300  0.933200  0.804800  1.0  0.1738
  C  C430  1  0.411620  0.640500  0.205500  1.0  0.6684
  C  C431  1  0.610960  0.742800  0.147500  1.0  0.6977
  C  C432  1  0.345010  0.737100  0.127700  1.0  0.6972
  C  C433  1  0.545350  0.640300  0.204200  1.0  0.6783
  C  C434  1  0.483960  0.560900  0.892300  1.0  0.17
  C  C435  1  0.481900  0.640400  0.750600  1.0  0.1765
  C  C436  1  0.393300  0.912800  0.129900  1.0  0.1747
  C  C437  1  0.349800  0.869800  0.251600  1.0  0.1755
  C  C438  1  0.485100  0.611100  0.618200  1.0  -0.1841
  C  C439  1  0.355700  0.900500  0.382400  1.0  -0.149
  C  C440  1  0.381400  0.937900  0.382400  1.0  0.1763
  C  C441  1  0.400800  0.945700  0.253700  1.0  -0.1677
  C  C442  1  0.413400  0.055800  0.903900  1.0  0.1902
  C  C443  1  0.489900  0.553000  0.631200  1.0  0.1317
  C  C444  1  0.488600  0.526600  0.769100  1.0  -0.1826
  C  C445  1  0.419000  0.127000  0.749200  1.0  0.1959
  C  C446  1  0.412100  0.037500  0.646900  1.0  0.213
  C  C447  1  0.411300  0.017400  0.789100  1.0  -0.2182
  C  C448  1  0.418000  0.093000  0.625000  1.0  -0.224
  N  N449  1  0.976160  0.710700  0.531900  1.0  -0.1278
  N  N450  1  0.185840  0.887400  0.392600  1.0  -0.3203
  N  N451  1  0.357080  0.114000  0.106400  1.0  -0.3246
  N  N452  1  0.968410  0.756500  0.457300  1.0  -0.1207
  N  N453  1  0.936450  0.770000  0.489600  1.0  -0.228
  N  N454  1  0.107470  0.765900  0.477100  1.0  -0.1527
  N  N455  1  0.066160  0.708200  0.526900  1.0  -0.2278
  N  N456  1  0.075510  0.753600  0.447400  1.0  -0.0998
  N  N457  1  0.272260  0.983800  0.297800  1.0  -0.1629
  N  N458  1  0.269830  0.017600  0.193400  1.0  -0.1377
  N  N459  1  0.018900  0.616400  0.386200  1.0  -0.3333
  N  N460  1  0.131530  0.875600  0.627700  1.0  -0.3298
  N  N461  1  0.084260  0.110100  0.388300  1.0  -0.3254
  N  N462  1  0.008100  0.522000  0.992000  1.0  -0.1591
  N  N463  1  0.090710  0.003500  0.013500  1.0  -0.183
  N  N464  1  0.114630  0.971300  0.017300  1.0  -0.1931
  N  N465  1  0.523840  0.789300  0.531900  1.0  -0.1253
  N  N466  1  0.314160  0.612600  0.392600  1.0  -0.3203
  N  N467  1  0.142920  0.386000  0.106400  1.0  -0.3242
  N  N468  1  0.531590  0.743500  0.457300  1.0  -0.1223
  N  N469  1  0.563550  0.730000  0.489600  1.0  -0.2279
  N  N470  1  0.392530  0.734100  0.477100  1.0  -0.1547
  N  N471  1  0.433840  0.791800  0.526900  1.0  -0.2296
  N  N472  1  0.424490  0.746400  0.447400  1.0  -0.0995
  N  N473  1  0.227740  0.516200  0.297800  1.0  -0.163
  N  N474  1  0.230170  0.482400  0.193400  1.0  -0.1378
  N  N475  1  0.481100  0.883600  0.386200  1.0  -0.3325
  N  N476  1  0.368470  0.624400  0.627700  1.0  -0.3297
  N  N477  1  0.415740  0.389900  0.388300  1.0  -0.3234
  N  N478  1  0.491900  0.978000  0.992000  1.0  -0.1604
  N  N479  1  0.409290  0.496500  0.013500  1.0  -0.1826
  N  N480  1  0.385370  0.528700  0.017300  1.0  -0.1941
  N  N481  1  0.023840  0.210700  0.968100  1.0  -0.126
  N  N482  1  0.814160  0.387400  0.107400  1.0  -0.32
  N  N483  1  0.642920  0.614000  0.393600  1.0  -0.3234
  N  N484  1  0.031590  0.256500  0.042700  1.0  -0.1226
  N  N485  1  0.063550  0.270000  0.010400  1.0  -0.2291
  N  N486  1  0.892530  0.265900  0.022900  1.0  -0.1547
  N  N487  1  0.933840  0.208200  0.973100  1.0  -0.2301
  N  N488  1  0.924490  0.253600  0.052600  1.0  -0.0998
  N  N489  1  0.727740  0.483800  0.202200  1.0  -0.1633
  N  N490  1  0.730170  0.517600  0.306600  1.0  -0.1377
  N  N491  1  0.981100  0.116400  0.113800  1.0  -0.3356
  N  N492  1  0.868470  0.375600  0.872300  1.0  -0.327
  N  N493  1  0.915740  0.610100  0.111700  1.0  -0.3257
  N  N494  1  0.991900  0.022000  0.508000  1.0  -0.1604
  N  N495  1  0.909290  0.503500  0.486500  1.0  -0.1823
  N  N496  1  0.885370  0.471300  0.482700  1.0  -0.194
  N  N497  1  0.476160  0.289300  0.968100  1.0  -0.1263
  N  N498  1  0.685840  0.112600  0.107400  1.0  -0.3201
  N  N499  1  0.857080  0.886000  0.393600  1.0  -0.3249
  N  N500  1  0.468410  0.243500  0.042700  1.0  -0.1217
  N  N501  1  0.436450  0.230000  0.010400  1.0  -0.2287
  N  N502  1  0.607470  0.234100  0.022900  1.0  -0.1533
  N  N503  1  0.566160  0.291800  0.973100  1.0  -0.228
  N  N504  1  0.575510  0.246400  0.052600  1.0  -0.0995
  N  N505  1  0.772260  0.016200  0.202200  1.0  -0.1626
  N  N506  1  0.769830  0.982400  0.306600  1.0  -0.1381
  N  N507  1  0.518900  0.383600  0.113800  1.0  -0.3361
  N  N508  1  0.631530  0.124400  0.872300  1.0  -0.328
  N  N509  1  0.584260  0.889900  0.111700  1.0  -0.3266
  N  N510  1  0.508100  0.478000  0.508000  1.0  -0.1589
  N  N511  1  0.590710  0.996500  0.486500  1.0  -0.1824
  N  N512  1  0.614630  0.028700  0.482700  1.0  -0.1934
  N  N513  1  0.023840  0.289300  0.468100  1.0  -0.1251
  N  N514  1  0.814160  0.112600  0.607400  1.0  -0.3205
  N  N515  1  0.642920  0.886000  0.893600  1.0  -0.3244
  N  N516  1  0.031590  0.243500  0.542700  1.0  -0.1233
  N  N517  1  0.063550  0.230000  0.510400  1.0  -0.2285
  N  N518  1  0.892530  0.234100  0.522900  1.0  -0.1544
  N  N519  1  0.933840  0.291800  0.473100  1.0  -0.2299
  N  N520  1  0.924490  0.246400  0.552600  1.0  -0.0989
  N  N521  1  0.727740  0.016200  0.702200  1.0  -0.1633
  N  N522  1  0.730170  0.982400  0.806600  1.0  -0.1374
  N  N523  1  0.981100  0.383600  0.613800  1.0  -0.3365
  N  N524  1  0.868470  0.124400  0.372300  1.0  -0.3279
  N  N525  1  0.915740  0.889900  0.611700  1.0  -0.3263
  N  N526  1  0.991900  0.478000  0.008000  1.0  -0.1602
  N  N527  1  0.909290  0.996500  0.986500  1.0  -0.1819
  N  N528  1  0.885370  0.028700  0.982700  1.0  -0.194
  N  N529  1  0.476160  0.210700  0.468100  1.0  -0.1276
  N  N530  1  0.685840  0.387400  0.607400  1.0  -0.3203
  N  N531  1  0.857080  0.614000  0.893600  1.0  -0.3244
  N  N532  1  0.468410  0.256500  0.542700  1.0  -0.1215
  N  N533  1  0.436450  0.270000  0.510400  1.0  -0.2291
  N  N534  1  0.607470  0.265900  0.522900  1.0  -0.1537
  N  N535  1  0.566160  0.208200  0.473100  1.0  -0.2283
  N  N536  1  0.575510  0.253600  0.552600  1.0  -0.1
  N  N537  1  0.772260  0.483800  0.702200  1.0  -0.1629
  N  N538  1  0.769830  0.517600  0.806600  1.0  -0.138
  N  N539  1  0.518900  0.116400  0.613800  1.0  -0.3351
  N  N540  1  0.631530  0.375600  0.372300  1.0  -0.3268
  N  N541  1  0.584260  0.610100  0.611700  1.0  -0.326
  N  N542  1  0.508100  0.022000  0.008000  1.0  -0.1594
  N  N543  1  0.590710  0.503500  0.986500  1.0  -0.1828
  N  N544  1  0.614630  0.471300  0.982700  1.0  -0.1935
  N  N545  1  0.976160  0.789300  0.031900  1.0  -0.1267
  N  N546  1  0.185840  0.612600  0.892600  1.0  -0.32
  N  N547  1  0.357080  0.386000  0.606400  1.0  -0.3249
  N  N548  1  0.968410  0.743500  0.957300  1.0  -0.1216
  N  N549  1  0.936450  0.730000  0.989600  1.0  -0.2281
  N  N550  1  0.107470  0.734100  0.977100  1.0  -0.1533
  N  N551  1  0.066160  0.791800  0.026900  1.0  -0.2276
  N  N552  1  0.075510  0.746400  0.947400  1.0  -0.1002
  N  N553  1  0.272260  0.516200  0.797800  1.0  -0.1624
  N  N554  1  0.269830  0.482400  0.693400  1.0  -0.1384
  N  N555  1  0.018900  0.883600  0.886200  1.0  -0.3319
  N  N556  1  0.131530  0.624400  0.127700  1.0  -0.3296
  N  N557  1  0.084260  0.389900  0.888300  1.0  -0.3242
  N  N558  1  0.008100  0.978000  0.492000  1.0  -0.1595
  N  N559  1  0.090710  0.496500  0.513500  1.0  -0.183
  N  N560  1  0.114630  0.528700  0.517300  1.0  -0.1932
  N  N561  1  0.523840  0.710700  0.031900  1.0  -0.1259
  N  N562  1  0.314160  0.887400  0.892600  1.0  -0.32
  N  N563  1  0.142920  0.114000  0.606400  1.0  -0.3234
  N  N564  1  0.531590  0.756500  0.957300  1.0  -0.1208
  N  N565  1  0.563550  0.770000  0.989600  1.0  -0.2279
  N  N566  1  0.392530  0.765900  0.977100  1.0  -0.1541
  N  N567  1  0.433840  0.708200  0.026900  1.0  -0.2297
  N  N568  1  0.424490  0.753600  0.947400  1.0  -0.0997
  N  N569  1  0.227740  0.983800  0.797800  1.0  -0.1632
  N  N570  1  0.230170  0.017600  0.693400  1.0  -0.1373
  N  N571  1  0.481100  0.616400  0.886200  1.0  -0.3337
  N  N572  1  0.368470  0.875600  0.127700  1.0  -0.33
  N  N573  1  0.415740  0.110100  0.888300  1.0  -0.3245
  N  N574  1  0.491900  0.522000  0.492000  1.0  -0.1597
  N  N575  1  0.409290  0.003500  0.513500  1.0  -0.1827
  N  N576  1  0.385370  0.971300  0.517300  1.0  -0.194
  O  O577  1  0.873200  0.782200  0.584100  1.0  -0.5876
  O  O578  1  0.171850  0.773800  0.556700  1.0  -0.6103
  O  O579  1  0.060570  0.615200  0.688800  1.0  -0.5695
  O  O580  1  0.111590  0.623600  0.792100  1.0  -0.5922
  O  O581  1  0.166810  0.709500  0.734500  1.0  -0.5963
  O  O582  1  0.982480  0.616500  0.689600  1.0  -0.5841
  O  O583  1  0.878050  0.714400  0.753900  1.0  -0.5963
  O  O584  1  0.930460  0.622800  0.783200  1.0  -0.5912
  O  O585  1  0.626800  0.717800  0.584100  1.0  -0.5913
  O  O586  1  0.328150  0.726200  0.556700  1.0  -0.6094
  O  O587  1  0.439430  0.884800  0.688800  1.0  -0.5685
  O  O588  1  0.388410  0.876400  0.792100  1.0  -0.5922
  O  O589  1  0.333190  0.790500  0.734500  1.0  -0.5966
  O  O590  1  0.517520  0.883500  0.689600  1.0  -0.5845
  O  O591  1  0.621950  0.785600  0.753900  1.0  -0.5963
  O  O592  1  0.569540  0.877200  0.783200  1.0  -0.5922
  O  O593  1  0.126800  0.282200  0.915900  1.0  -0.5914
  O  O594  1  0.828150  0.273800  0.943300  1.0  -0.6115
  O  O595  1  0.939430  0.115200  0.811200  1.0  -0.5696
  O  O596  1  0.888410  0.123600  0.707900  1.0  -0.5922
  O  O597  1  0.833190  0.209500  0.765500  1.0  -0.597
  O  O598  1  0.017520  0.116500  0.810400  1.0  -0.5848
  O  O599  1  0.121950  0.214400  0.746100  1.0  -0.5967
  O  O600  1  0.069540  0.122800  0.716800  1.0  -0.5919
  O  O601  1  0.373200  0.217800  0.915900  1.0  -0.5882
  O  O602  1  0.671850  0.226200  0.943300  1.0  -0.6094
  O  O603  1  0.560570  0.384800  0.811200  1.0  -0.5694
  O  O604  1  0.611590  0.376400  0.707900  1.0  -0.5917
  O  O605  1  0.666810  0.290500  0.765500  1.0  -0.5966
  O  O606  1  0.482480  0.383500  0.810400  1.0  -0.5848
  O  O607  1  0.378050  0.285600  0.746100  1.0  -0.5959
  O  O608  1  0.430460  0.377200  0.716800  1.0  -0.5922
  O  O609  1  0.126800  0.217800  0.415900  1.0  -0.5914
  O  O610  1  0.828150  0.226200  0.443300  1.0  -0.6098
  O  O611  1  0.939430  0.384800  0.311200  1.0  -0.5693
  O  O612  1  0.888410  0.376400  0.207900  1.0  -0.5919
  O  O613  1  0.833190  0.290500  0.265500  1.0  -0.5969
  O  O614  1  0.017520  0.383500  0.310400  1.0  -0.5849
  O  O615  1  0.121950  0.285600  0.246100  1.0  -0.5965
  O  O616  1  0.069540  0.377200  0.216800  1.0  -0.5927
  O  O617  1  0.373200  0.282200  0.415900  1.0  -0.5881
  O  O618  1  0.671850  0.273800  0.443300  1.0  -0.6107
  O  O619  1  0.560570  0.115200  0.311200  1.0  -0.5701
  O  O620  1  0.611590  0.123600  0.207900  1.0  -0.5919
  O  O621  1  0.666810  0.209500  0.265500  1.0  -0.5966
  O  O622  1  0.482480  0.116500  0.310400  1.0  -0.5844
  O  O623  1  0.378050  0.214400  0.246100  1.0  -0.5957
  O  O624  1  0.430460  0.122800  0.216800  1.0  -0.5917
  O  O625  1  0.873200  0.717800  0.084100  1.0  -0.5877
  O  O626  1  0.171850  0.726200  0.056700  1.0  -0.6092
  O  O627  1  0.060570  0.884800  0.188800  1.0  -0.5687
  O  O628  1  0.111590  0.876400  0.292100  1.0  -0.592
  O  O629  1  0.166810  0.790500  0.234500  1.0  -0.5962
  O  O630  1  0.982480  0.883500  0.189600  1.0  -0.5842
  O  O631  1  0.878050  0.785600  0.253900  1.0  -0.596
  O  O632  1  0.930460  0.877200  0.283200  1.0  -0.5917
  O  O633  1  0.626800  0.782200  0.084100  1.0  -0.5913
  O  O634  1  0.328150  0.773800  0.056700  1.0  -0.611
  O  O635  1  0.439430  0.615200  0.188800  1.0  -0.5691
  O  O636  1  0.388410  0.623600  0.292100  1.0  -0.5925
  O  O637  1  0.333190  0.709500  0.234500  1.0  -0.5968
  O  O638  1  0.517520  0.616500  0.189600  1.0  -0.5846
  O  O639  1  0.621950  0.714400  0.253900  1.0  -0.5971
  O  O640  1  0.569540  0.622800  0.283200  1.0  -0.5913
