# generated using pymatgen
data_MnH3(CO2)3
_symmetry_space_group_name_H-M   'P 1'
_cell_length_a   12.19620000
_cell_length_b   12.36750000
_cell_length_c   12.81550000
_cell_angle_alpha   90.00000000
_cell_angle_beta   91.42800000
_cell_angle_gamma   90.00000000
_symmetry_Int_Tables_number   1
_chemical_formula_structural   MnH3(CO2)3
_chemical_formula_sum   'Mn8 H24 C24 O48'
_cell_volume   1932.44486590
_cell_formula_units_Z   8
loop_
 _symmetry_equiv_pos_site_id
 _symmetry_equiv_pos_as_xyz
  1  'x, y, z'
loop_
 _atom_site_type_symbol
 _atom_site_label
 _atom_site_symmetry_multiplicity
 _atom_site_fract_x
 _atom_site_fract_y
 _atom_site_fract_z
 _atom_site_occupancy
 _atom_site_charge
  Mn  Mn1  1  0.235340  0.254970  0.011770  1.0  1.139
  Mn  Mn2  1  0.736020  0.247090  0.010000  1.0  1.0688
  Mn  Mn3  1  0.264660  0.754970  0.488230  1.0  1.1394
  Mn  Mn4  1  0.763980  0.747090  0.490000  1.0  1.0681
  Mn  Mn5  1  0.764660  0.745030  0.988230  1.0  1.1392
  Mn  Mn6  1  0.263980  0.752910  0.990000  1.0  1.0678
  Mn  Mn7  1  0.735340  0.245030  0.511770  1.0  1.1389
  Mn  Mn8  1  0.236020  0.252910  0.510000  1.0  1.0685
  H  H9  1  0.489000  0.237000  0.062700  1.0  0.0786
  H  H10  1  0.989000  0.310000  0.071000  1.0  0.0824
  H  H11  1  0.189000  0.339000  0.262000  1.0  0.0846
  H  H12  1  0.288000  0.330000  0.763000  1.0  0.0977
  H  H13  1  0.731000  0.492000  0.910000  1.0  0.1256
  H  H14  1  0.788000  0.001000  0.062000  1.0  0.1012
  H  H15  1  0.011000  0.737000  0.437300  1.0  0.0771
  H  H16  1  0.511000  0.810000  0.429000  1.0  0.0823
  H  H17  1  0.311000  0.839000  0.238000  1.0  0.0854
  H  H18  1  0.212000  0.830000  0.737000  1.0  0.0971
  H  H19  1  0.769000  0.992000  0.590000  1.0  0.127
  H  H20  1  0.712000  0.501000  0.438000  1.0  0.1005
  H  H21  1  0.511000  0.763000  0.937300  1.0  0.0779
  H  H22  1  0.011000  0.690000  0.929000  1.0  0.0822
  H  H23  1  0.811000  0.661000  0.738000  1.0  0.0856
  H  H24  1  0.712000  0.670000  0.237000  1.0  0.0967
  H  H25  1  0.269000  0.508000  0.090000  1.0  0.127
  H  H26  1  0.212000  0.999000  0.938000  1.0  0.1008
  H  H27  1  0.989000  0.263000  0.562700  1.0  0.0788
  H  H28  1  0.489000  0.190000  0.571000  1.0  0.0827
  H  H29  1  0.689000  0.161000  0.762000  1.0  0.0846
  H  H30  1  0.788000  0.170000  0.263000  1.0  0.0972
  H  H31  1  0.231000  0.008000  0.410000  1.0  0.1258
  H  H32  1  0.288000  0.499000  0.562000  1.0  0.1013
  C  C33  1  0.245900  0.282450  0.261990  1.0  0.6875
  C  C34  1  0.724390  0.997670  0.012670  1.0  0.6512
  C  C35  1  0.230060  0.271290  0.758190  1.0  0.6249
  C  C36  1  0.784960  0.495480  0.974200  1.0  0.6562
  C  C37  1  0.986990  0.231160  0.048830  1.0  0.6659
  C  C38  1  0.483350  0.289290  0.005250  1.0  0.6645
  C  C39  1  0.254100  0.782450  0.238010  1.0  0.6867
  C  C40  1  0.775610  0.497670  0.487330  1.0  0.6507
  C  C41  1  0.269940  0.771290  0.741810  1.0  0.6241
  C  C42  1  0.715040  0.995480  0.525800  1.0  0.6564
  C  C43  1  0.513010  0.731160  0.451170  1.0  0.6659
  C  C44  1  0.016650  0.789290  0.494750  1.0  0.6642
  C  C45  1  0.754100  0.717550  0.738010  1.0  0.6874
  C  C46  1  0.275610  0.002330  0.987330  1.0  0.6505
  C  C47  1  0.769940  0.728710  0.241810  1.0  0.6221
  C  C48  1  0.215040  0.504520  0.025800  1.0  0.6561
  C  C49  1  0.013010  0.768840  0.951170  1.0  0.6656
  C  C50  1  0.516650  0.710710  0.994750  1.0  0.6645
  C  C51  1  0.745900  0.217550  0.761990  1.0  0.6884
  C  C52  1  0.224390  0.502330  0.512670  1.0  0.6508
  C  C53  1  0.730060  0.228710  0.258190  1.0  0.6256
  C  C54  1  0.284960  0.004520  0.474200  1.0  0.6561
  C  C55  1  0.486990  0.268840  0.548830  1.0  0.6655
  C  C56  1  0.983350  0.210710  0.505250  1.0  0.6649
  O  O57  1  0.199090  0.234550  0.844140  1.0  -0.6
  O  O58  1  0.574430  0.316670  0.969690  1.0  -0.5376
  O  O59  1  0.895820  0.185020  0.048920  1.0  -0.5653
  O  O60  1  0.074550  0.189370  0.023420  1.0  -0.5448
  O  O61  1  0.274570  0.241170  0.347120  1.0  -0.5627
  O  O62  1  0.835120  0.583150  0.992750  1.0  -0.5653
  O  O63  1  0.393120  0.323970  0.973880  1.0  -0.5208
  O  O64  1  0.676470  0.084080  0.990730  1.0  -0.5417
  O  O65  1  0.191940  0.240980  0.672340  1.0  -0.5616
  O  O66  1  0.693130  0.906420  0.978860  1.0  -0.5718
  O  O67  1  0.280810  0.254350  0.175410  1.0  -0.592
  O  O68  1  0.797310  0.411990  0.025740  1.0  -0.5618
  O  O69  1  0.300910  0.734550  0.655860  1.0  -0.5998
  O  O70  1  0.925570  0.816670  0.530310  1.0  -0.5367
  O  O71  1  0.604180  0.685020  0.451080  1.0  -0.565
  O  O72  1  0.425450  0.689370  0.476580  1.0  -0.5452
  O  O73  1  0.225430  0.741170  0.152880  1.0  -0.5616
  O  O74  1  0.664880  0.083150  0.507250  1.0  -0.5651
  O  O75  1  0.106880  0.823970  0.526120  1.0  -0.5223
  O  O76  1  0.823530  0.584080  0.509270  1.0  -0.5416
  O  O77  1  0.308060  0.740980  0.827660  1.0  -0.5631
  O  O78  1  0.806870  0.406420  0.521140  1.0  -0.5708
  O  O79  1  0.219190  0.754350  0.324590  1.0  -0.5936
  O  O80  1  0.702690  0.911990  0.474260  1.0  -0.5617
  O  O81  1  0.800910  0.765450  0.155860  1.0  -0.5999
  O  O82  1  0.425570  0.683330  0.030310  1.0  -0.5369
  O  O83  1  0.104180  0.814980  0.951080  1.0  -0.5656
  O  O84  1  0.925450  0.810630  0.976580  1.0  -0.5447
  O  O85  1  0.725430  0.758830  0.652880  1.0  -0.5617
  O  O86  1  0.164880  0.416850  0.007250  1.0  -0.5651
  O  O87  1  0.606880  0.676030  0.026120  1.0  -0.5212
  O  O88  1  0.323530  0.915920  0.009270  1.0  -0.5412
  O  O89  1  0.808060  0.759020  0.327660  1.0  -0.5636
  O  O90  1  0.306870  0.093580  0.021140  1.0  -0.5708
  O  O91  1  0.719190  0.745650  0.824590  1.0  -0.5939
  O  O92  1  0.202690  0.588010  0.974260  1.0  -0.5614
  O  O93  1  0.699090  0.265450  0.344140  1.0  -0.6007
  O  O94  1  0.074430  0.183330  0.469690  1.0  -0.5379
  O  O95  1  0.395820  0.314980  0.548920  1.0  -0.5652
  O  O96  1  0.574550  0.310630  0.523420  1.0  -0.5451
  O  O97  1  0.774570  0.258830  0.847120  1.0  -0.5627
  O  O98  1  0.335120  0.916850  0.492750  1.0  -0.5653
  O  O99  1  0.893120  0.176030  0.473880  1.0  -0.5208
  O  O100  1  0.176470  0.415920  0.490730  1.0  -0.5413
  O  O101  1  0.691940  0.259020  0.172340  1.0  -0.5626
  O  O102  1  0.193130  0.593580  0.478860  1.0  -0.5724
  O  O103  1  0.780810  0.245650  0.675410  1.0  -0.5921
  O  O104  1  0.297310  0.088010  0.525740  1.0  -0.5613
