# generated using pymatgen
data_MnH3(CO2)3
_symmetry_space_group_name_H-M   'P 1'
_cell_length_a   12.33200000
_cell_length_b   12.46100000
_cell_length_c   12.85000000
_cell_angle_alpha   90.00000000
_cell_angle_beta   91.31000000
_cell_angle_gamma   90.00000000
_symmetry_Int_Tables_number   1
_chemical_formula_structural   MnH3(CO2)3
_chemical_formula_sum   'Mn8 H24 C24 O48'
_cell_volume   1974.13121334
_cell_formula_units_Z   8
loop_
 _symmetry_equiv_pos_site_id
 _symmetry_equiv_pos_as_xyz
  1  'x, y, z'
loop_
 _atom_site_type_symbol
 _atom_site_label
 _atom_site_symmetry_multiplicity
 _atom_site_fract_x
 _atom_site_fract_y
 _atom_site_fract_z
 _atom_site_occupancy
 _atom_site_charge
  Mn  Mn1  1  0.239490  0.752870  0.008230  1.0  1.1089
  Mn  Mn2  1  0.739980  0.747680  0.006850  1.0  1.0831
  Mn  Mn3  1  0.260510  0.252870  0.491770  1.0  1.1086
  Mn  Mn4  1  0.760020  0.247680  0.493150  1.0  1.0827
  Mn  Mn5  1  0.760510  0.247130  0.991770  1.0  1.1083
  Mn  Mn6  1  0.260020  0.252320  0.993150  1.0  1.0829
  Mn  Mn7  1  0.739490  0.747130  0.508230  1.0  1.1087
  Mn  Mn8  1  0.239980  0.752320  0.506850  1.0  1.0833
  H  H9  1  0.490000  0.730800  0.055100  1.0  0.0548
  H  H10  1  0.994600  0.799300  0.070600  1.0  0.0413
  H  H11  1  0.199400  0.838800  0.259400  1.0  0.0571
  H  H12  1  0.788000  0.675500  0.257300  1.0  0.0828
  H  H13  1  0.729700  0.996800  0.923500  1.0  0.0487
  H  H14  1  0.785100  0.500600  0.057800  1.0  0.0517
  H  H15  1  0.010000  0.230800  0.444900  1.0  0.0541
  H  H16  1  0.505400  0.299300  0.429400  1.0  0.0418
  H  H17  1  0.300600  0.338800  0.240600  1.0  0.0588
  H  H18  1  0.712000  0.175500  0.242700  1.0  0.0826
  H  H19  1  0.770300  0.496800  0.576500  1.0  0.0506
  H  H20  1  0.714900  0.000600  0.442200  1.0  0.052
  H  H21  1  0.510000  0.269200  0.944900  1.0  0.0554
  H  H22  1  0.005400  0.200700  0.929400  1.0  0.0413
  H  H23  1  0.800600  0.161200  0.740600  1.0  0.0573
  H  H24  1  0.212000  0.324500  0.742700  1.0  0.0825
  H  H25  1  0.270300  0.003200  0.076500  1.0  0.0506
  H  H26  1  0.214900  0.499400  0.942200  1.0  0.052
  H  H27  1  0.990000  0.769200  0.555100  1.0  0.0546
  H  H28  1  0.494600  0.700700  0.570600  1.0  0.0418
  H  H29  1  0.699400  0.661200  0.759400  1.0  0.0562
  H  H30  1  0.288000  0.824500  0.757300  1.0  0.0838
  H  H31  1  0.229700  0.503200  0.423500  1.0  0.0488
  H  H32  1  0.285100  0.999400  0.557800  1.0  0.0518
  C  C33  1  0.488670  0.783330  0.003730  1.0  0.7217
  C  C34  1  0.991660  0.729880  0.044140  1.0  0.744
  C  C35  1  0.247110  0.781000  0.258540  1.0  0.7012
  C  C36  1  0.735720  0.729350  0.255610  1.0  0.6906
  C  C37  1  0.781790  0.997220  0.976980  1.0  0.7594
  C  C38  1  0.724750  0.498820  0.013050  1.0  0.7095
  C  C39  1  0.011330  0.283330  0.496270  1.0  0.7211
  C  C40  1  0.508340  0.229880  0.455860  1.0  0.7441
  C  C41  1  0.252890  0.281000  0.241460  1.0  0.7025
  C  C42  1  0.764280  0.229350  0.244390  1.0  0.6895
  C  C43  1  0.718210  0.497220  0.523020  1.0  0.759
  C  C44  1  0.775250  0.998820  0.486950  1.0  0.7107
  C  C45  1  0.511330  0.216670  0.996270  1.0  0.7226
  C  C46  1  0.008340  0.270120  0.955860  1.0  0.7431
  C  C47  1  0.752890  0.219000  0.741460  1.0  0.7012
  C  C48  1  0.264280  0.270650  0.744390  1.0  0.6885
  C  C49  1  0.218210  0.002780  0.023020  1.0  0.7586
  C  C50  1  0.275250  0.501180  0.986950  1.0  0.7099
  C  C51  1  0.988670  0.716670  0.503730  1.0  0.7232
  C  C52  1  0.491660  0.770120  0.544140  1.0  0.7427
  C  C53  1  0.747110  0.719000  0.758540  1.0  0.6992
  C  C54  1  0.235720  0.770650  0.755610  1.0  0.6881
  C  C55  1  0.281790  0.502780  0.476980  1.0  0.7591
  C  C56  1  0.224750  0.001180  0.513050  1.0  0.7088
  O  O57  1  0.077570  0.691950  0.018360  1.0  -0.5683
  O  O58  1  0.279060  0.751590  0.172790  1.0  -0.6047
  O  O59  1  0.398480  0.817630  0.974540  1.0  -0.5387
  O  O60  1  0.577600  0.813450  0.969910  1.0  -0.5383
  O  O61  1  0.799630  0.912190  0.020880  1.0  -0.5752
  O  O62  1  0.681500  0.585610  0.990420  1.0  -0.5563
  O  O63  1  0.701200  0.759070  0.170150  1.0  -0.5855
  O  O64  1  0.272670  0.740940  0.342570  1.0  -0.593
  O  O65  1  0.900710  0.688300  0.039880  1.0  -0.5713
  O  O66  1  0.693990  0.409180  0.980790  1.0  -0.5545
  O  O67  1  0.705660  0.766260  0.340450  1.0  -0.6098
  O  O68  1  0.826680  0.084930  0.996920  1.0  -0.5553
  O  O69  1  0.422430  0.191950  0.481640  1.0  -0.5678
  O  O70  1  0.220940  0.251590  0.327210  1.0  -0.606
  O  O71  1  0.101520  0.317630  0.525460  1.0  -0.5403
  O  O72  1  0.922400  0.313450  0.530090  1.0  -0.5381
  O  O73  1  0.700370  0.412190  0.479120  1.0  -0.5752
  O  O74  1  0.818500  0.085610  0.509580  1.0  -0.5572
  O  O75  1  0.798800  0.259070  0.329850  1.0  -0.5858
  O  O76  1  0.227330  0.240940  0.157430  1.0  -0.5936
  O  O77  1  0.599290  0.188300  0.460120  1.0  -0.5715
  O  O78  1  0.806010  0.909180  0.519210  1.0  -0.5544
  O  O79  1  0.794340  0.266260  0.159550  1.0  -0.6107
  O  O80  1  0.673320  0.584930  0.503080  1.0  -0.5552
  O  O81  1  0.922430  0.308050  0.981640  1.0  -0.5684
  O  O82  1  0.720940  0.248410  0.827210  1.0  -0.6065
  O  O83  1  0.601520  0.182370  0.025460  1.0  -0.5387
  O  O84  1  0.422400  0.186550  0.030090  1.0  -0.5376
  O  O85  1  0.200370  0.087810  0.979120  1.0  -0.5748
  O  O86  1  0.318500  0.414390  0.009580  1.0  -0.5582
  O  O87  1  0.298800  0.240930  0.829850  1.0  -0.5842
  O  O88  1  0.727330  0.259060  0.657430  1.0  -0.5945
  O  O89  1  0.099290  0.311700  0.960120  1.0  -0.5728
  O  O90  1  0.306010  0.590820  0.019210  1.0  -0.5538
  O  O91  1  0.294340  0.233740  0.659550  1.0  -0.6115
  O  O92  1  0.173320  0.915070  0.003080  1.0  -0.5561
  O  O93  1  0.577570  0.808050  0.518360  1.0  -0.569
  O  O94  1  0.779060  0.748410  0.672790  1.0  -0.605
  O  O95  1  0.898480  0.682370  0.474540  1.0  -0.5387
  O  O96  1  0.077600  0.686550  0.469910  1.0  -0.5383
  O  O97  1  0.299630  0.587810  0.520880  1.0  -0.5751
  O  O98  1  0.181500  0.914390  0.490420  1.0  -0.5576
  O  O99  1  0.201200  0.740930  0.670150  1.0  -0.5838
  O  O100  1  0.772670  0.759060  0.842570  1.0  -0.5938
  O  O101  1  0.400710  0.811700  0.539880  1.0  -0.5715
  O  O102  1  0.193990  0.090820  0.480790  1.0  -0.5545
  O  O103  1  0.205660  0.733740  0.840450  1.0  -0.6103
  O  O104  1  0.326680  0.415070  0.496920  1.0  -0.5556
