# generated using pymatgen
data_MnH3(CO2)3
_symmetry_space_group_name_H-M   'P 1'
_cell_length_a   12.30340000
_cell_length_b   12.44080000
_cell_length_c   12.81560000
_cell_angle_alpha   90.00000000
_cell_angle_beta   91.19000000
_cell_angle_gamma   90.00000000
_symmetry_Int_Tables_number   1
_chemical_formula_structural   MnH3(CO2)3
_chemical_formula_sum   'Mn8 H24 C24 O48'
_cell_volume   1961.18570305
_cell_formula_units_Z   8
loop_
 _symmetry_equiv_pos_site_id
 _symmetry_equiv_pos_as_xyz
  1  'x, y, z'
loop_
 _atom_site_type_symbol
 _atom_site_label
 _atom_site_symmetry_multiplicity
 _atom_site_fract_x
 _atom_site_fract_y
 _atom_site_fract_z
 _atom_site_occupancy
 _atom_site_charge
  Mn  Mn1  1  0.740300  0.252810  0.007800  1.0  1.1196
  Mn  Mn2  1  0.759290  0.752410  0.993470  1.0  1.0712
  Mn  Mn3  1  0.759700  0.752810  0.492200  1.0  1.1193
  Mn  Mn4  1  0.740710  0.252410  0.506530  1.0  1.0717
  Mn  Mn5  1  0.259700  0.747190  0.992200  1.0  1.119
  Mn  Mn6  1  0.240710  0.247590  0.006530  1.0  1.0713
  Mn  Mn7  1  0.240300  0.247190  0.507800  1.0  1.1193
  Mn  Mn8  1  0.259290  0.747590  0.493470  1.0  1.0709
  H  H9  1  0.790000  0.326000  0.759000  1.0  0.061
  H  H10  1  0.797000  0.833000  0.244000  1.0  0.268
  H  H11  1  0.005000  0.771000  0.938000  1.0  0.0679
  H  H12  1  0.496000  0.305000  0.077000  1.0  0.067
  H  H13  1  0.779000  0.504000  0.073000  1.0  0.0541
  H  H14  1  0.710000  0.996000  0.941000  1.0  0.0684
  H  H15  1  0.710000  0.826000  0.741000  1.0  0.0599
  H  H16  1  0.703000  0.333000  0.256000  1.0  0.2678
  H  H17  1  0.495000  0.271000  0.562000  1.0  0.0683
  H  H18  1  0.004000  0.805000  0.423000  1.0  0.0673
  H  H19  1  0.721000  0.004000  0.427000  1.0  0.0526
  H  H20  1  0.790000  0.496000  0.559000  1.0  0.0692
  H  H21  1  0.210000  0.674000  0.241000  1.0  0.0606
  H  H22  1  0.203000  0.167000  0.756000  1.0  0.2665
  H  H23  1  0.995000  0.229000  0.062000  1.0  0.0674
  H  H24  1  0.504000  0.695000  0.923000  1.0  0.0659
  H  H25  1  0.221000  0.496000  0.927000  1.0  0.0525
  H  H26  1  0.290000  0.004000  0.059000  1.0  0.0691
  H  H27  1  0.290000  0.174000  0.259000  1.0  0.0615
  H  H28  1  0.297000  0.667000  0.744000  1.0  0.2672
  H  H29  1  0.505000  0.729000  0.438000  1.0  0.0662
  H  H30  1  0.996000  0.195000  0.577000  1.0  0.0665
  H  H31  1  0.279000  0.996000  0.573000  1.0  0.0542
  H  H32  1  0.210000  0.504000  0.441000  1.0  0.0684
  C  C33  1  0.719200  0.502760  0.022900  1.0  0.7159
  C  C34  1  0.774800  0.001230  0.986900  1.0  0.6743
  C  C35  1  0.736900  0.271100  0.755300  1.0  0.6879
  C  C36  1  0.752800  0.780800  0.241500  1.0  0.6896
  C  C37  1  0.010500  0.717400  0.996500  1.0  0.6766
  C  C38  1  0.492500  0.229500  0.043200  1.0  0.6471
  C  C39  1  0.780800  0.002760  0.477100  1.0  0.7146
  C  C40  1  0.725200  0.501230  0.513100  1.0  0.6747
  C  C41  1  0.763100  0.771100  0.744700  1.0  0.6882
  C  C42  1  0.747200  0.280800  0.258500  1.0  0.6896
  C  C43  1  0.489500  0.217400  0.503500  1.0  0.6771
  C  C44  1  0.007500  0.729500  0.456800  1.0  0.6468
  C  C45  1  0.280800  0.497240  0.977100  1.0  0.7148
  C  C46  1  0.225200  0.998770  0.013100  1.0  0.6749
  C  C47  1  0.263100  0.728900  0.244700  1.0  0.6884
  C  C48  1  0.247200  0.219200  0.758500  1.0  0.6892
  C  C49  1  0.989500  0.282600  0.003500  1.0  0.6759
  C  C50  1  0.507500  0.770500  0.956800  1.0  0.6457
  C  C51  1  0.219200  0.997240  0.522900  1.0  0.7163
  C  C52  1  0.274800  0.498770  0.486900  1.0  0.6748
  C  C53  1  0.236900  0.228900  0.255300  1.0  0.6881
  C  C54  1  0.252800  0.719200  0.741500  1.0  0.6871
  C  C55  1  0.510500  0.782600  0.496500  1.0  0.6756
  C  C56  1  0.992500  0.270500  0.543200  1.0  0.6461
  O  O57  1  0.578210  0.191950  0.017820  1.0  -0.5592
  O  O58  1  0.921700  0.686970  0.029700  1.0  -0.54
  O  O59  1  0.806030  0.090380  0.018450  1.0  -0.5681
  O  O60  1  0.100340  0.683170  0.025200  1.0  -0.5225
  O  O61  1  0.401370  0.188230  0.037940  1.0  -0.5584
  O  O62  1  0.706900  0.233810  0.839950  1.0  -0.6048
  O  O63  1  0.817610  0.914450  0.009400  1.0  -0.5521
  O  O64  1  0.674440  0.415150  0.002620  1.0  -0.5487
  O  O65  1  0.702500  0.240790  0.670210  1.0  -0.5854
  O  O66  1  0.727500  0.740590  0.157710  1.0  -0.6122
  O  O67  1  0.721100  0.751030  0.327460  1.0  -0.6253
  O  O68  1  0.699650  0.587900  0.979760  1.0  -0.5891
  O  O69  1  0.921790  0.691950  0.482180  1.0  -0.5591
  O  O70  1  0.578300  0.186970  0.470300  1.0  -0.5401
  O  O71  1  0.693970  0.590380  0.481550  1.0  -0.5682
  O  O72  1  0.399660  0.183170  0.474800  1.0  -0.5212
  O  O73  1  0.098630  0.688230  0.462060  1.0  -0.5584
  O  O74  1  0.793100  0.733810  0.660050  1.0  -0.6053
  O  O75  1  0.682390  0.414450  0.490600  1.0  -0.5517
  O  O76  1  0.825560  0.915150  0.497380  1.0  -0.5495
  O  O77  1  0.797500  0.740790  0.829790  1.0  -0.5851
  O  O78  1  0.772500  0.240590  0.342290  1.0  -0.61
  O  O79  1  0.778900  0.251030  0.172540  1.0  -0.6237
  O  O80  1  0.800350  0.087900  0.520240  1.0  -0.5883
  O  O81  1  0.421790  0.808050  0.982180  1.0  -0.5591
  O  O82  1  0.078300  0.313030  0.970300  1.0  -0.5405
  O  O83  1  0.193970  0.909620  0.981550  1.0  -0.5679
  O  O84  1  0.899660  0.316830  0.974800  1.0  -0.5217
  O  O85  1  0.598630  0.811770  0.962060  1.0  -0.5593
  O  O86  1  0.293100  0.766190  0.160050  1.0  -0.6048
  O  O87  1  0.182390  0.085550  0.990600  1.0  -0.5509
  O  O88  1  0.325560  0.584850  0.997380  1.0  -0.5491
  O  O89  1  0.297500  0.759210  0.329790  1.0  -0.5864
  O  O90  1  0.272500  0.259410  0.842290  1.0  -0.61
  O  O91  1  0.278900  0.248970  0.672540  1.0  -0.6237
  O  O92  1  0.300350  0.412100  0.020240  1.0  -0.5889
  O  O93  1  0.078210  0.308050  0.517820  1.0  -0.5602
  O  O94  1  0.421700  0.813030  0.529700  1.0  -0.5407
  O  O95  1  0.306030  0.409620  0.518450  1.0  -0.5685
  O  O96  1  0.600340  0.816830  0.525200  1.0  -0.5245
  O  O97  1  0.901370  0.311770  0.537940  1.0  -0.5589
  O  O98  1  0.206900  0.266190  0.339950  1.0  -0.6042
  O  O99  1  0.317610  0.585550  0.509400  1.0  -0.5514
  O  O100  1  0.174440  0.084850  0.502620  1.0  -0.5478
  O  O101  1  0.202500  0.259210  0.170210  1.0  -0.5869
  O  O102  1  0.227500  0.759410  0.657710  1.0  -0.612
  O  O103  1  0.221100  0.748970  0.827460  1.0  -0.6256
  O  O104  1  0.199650  0.912100  0.479760  1.0  -0.59
