# generated using pymatgen
data_CoH12C15SN3O4
_symmetry_space_group_name_H-M   'P 1'
_cell_length_a   11.34570000
_cell_length_b   11.46800000
_cell_length_c   18.20770000
_cell_angle_alpha   97.52960000
_cell_angle_beta   90.00000000
_cell_angle_gamma   90.00000000
_symmetry_Int_Tables_number   1
_chemical_formula_structural   CoH12C15SN3O4
_chemical_formula_sum   'Co4 H48 C60 S4 N12 O16'
_cell_volume   2348.62153325
_cell_formula_units_Z   4
loop_
 _symmetry_equiv_pos_site_id
 _symmetry_equiv_pos_as_xyz
  1  'x, y, z'
loop_
 _atom_site_type_symbol
 _atom_site_label
 _atom_site_symmetry_multiplicity
 _atom_site_fract_x
 _atom_site_fract_y
 _atom_site_fract_z
 _atom_site_occupancy
 _atom_site_charge
  Co  Co1  1  0.500000  0.000000  0.000000  1.0  0.8185
  Co  Co2  1  0.500000  0.500000  0.500000  1.0  0.8185
  Co  Co3  1  0.248100  0.750000  0.750000  1.0  0.6728
  Co  Co4  1  0.751900  0.250000  0.250000  1.0  0.6712
  H  H5  1  0.554500  0.960900  0.834800  1.0  0.0707
  H  H6  1  0.658200  0.669800  0.841700  1.0  0.1353
  H  H7  1  0.455900  0.667400  0.836900  1.0  0.0835
  H  H8  1  0.567500  0.056200  0.731800  1.0  0.1222
  H  H9  1  0.215100  0.561600  0.857900  1.0  0.0936
  H  H10  1  0.488000  0.356900  0.859700  1.0  0.1273
  H  H11  1  0.195900  0.363000  0.859400  1.0  0.1238
  H  H12  1  0.479900  0.253800  0.959700  1.0  0.0916
  H  H13  1  0.233300  0.316800  0.640200  1.0  0.1287
  H  H14  1  0.836100  0.818800  0.856500  1.0  0.1339
  H  H15  1  0.253900  0.515800  0.644100  1.0  0.0809
  H  H16  1  0.037900  0.818800  0.853500  1.0  0.0945
  H  H17  1  0.554500  0.539100  0.665200  1.0  0.0709
  H  H18  1  0.658200  0.830200  0.658300  1.0  0.1354
  H  H19  1  0.455900  0.832600  0.663100  1.0  0.084
  H  H20  1  0.567500  0.443800  0.768200  1.0  0.1219
  H  H21  1  0.215100  0.938400  0.642100  1.0  0.0931
  H  H22  1  0.488000  0.143100  0.640300  1.0  0.128
  H  H23  1  0.195900  0.137000  0.640600  1.0  0.1234
  H  H24  1  0.479900  0.246200  0.540300  1.0  0.0919
  H  H25  1  0.233300  0.183200  0.859800  1.0  0.1289
  H  H26  1  0.836100  0.681200  0.643500  1.0  0.1333
  H  H27  1  0.253900  0.984200  0.855900  1.0  0.083
  H  H28  1  0.037900  0.681200  0.646500  1.0  0.095
  H  H29  1  0.445500  0.039100  0.165200  1.0  0.071
  H  H30  1  0.341800  0.330200  0.158300  1.0  0.1358
  H  H31  1  0.544100  0.332600  0.163100  1.0  0.0839
  H  H32  1  0.432500  0.943800  0.268200  1.0  0.1221
  H  H33  1  0.784900  0.438400  0.142100  1.0  0.0944
  H  H34  1  0.512000  0.643100  0.140300  1.0  0.1276
  H  H35  1  0.804100  0.637000  0.140600  1.0  0.1236
  H  H36  1  0.520100  0.746200  0.040300  1.0  0.0918
  H  H37  1  0.766700  0.683200  0.359800  1.0  0.1288
  H  H38  1  0.163900  0.181200  0.143500  1.0  0.1334
  H  H39  1  0.746100  0.484200  0.355900  1.0  0.0833
  H  H40  1  0.962100  0.181200  0.146500  1.0  0.0943
  H  H41  1  0.445500  0.460900  0.334800  1.0  0.0707
  H  H42  1  0.341800  0.169800  0.341700  1.0  0.1359
  H  H43  1  0.544100  0.167400  0.336900  1.0  0.0839
  H  H44  1  0.432500  0.556200  0.231800  1.0  0.1222
  H  H45  1  0.784900  0.061600  0.357900  1.0  0.0937
  H  H46  1  0.512000  0.856900  0.359700  1.0  0.1269
  H  H47  1  0.804100  0.863000  0.359400  1.0  0.1226
  H  H48  1  0.520100  0.753800  0.459700  1.0  0.0915
  H  H49  1  0.766700  0.816800  0.140200  1.0  0.1295
  H  H50  1  0.163900  0.318800  0.356500  1.0  0.1338
  H  H51  1  0.746100  0.015800  0.144100  1.0  0.083
  H  H52  1  0.962100  0.318800  0.353500  1.0  0.0937
  C  C53  1  0.540600  0.041450  0.839850  1.0  0.1846
  C  C54  1  0.619110  0.701840  0.804140  1.0  -0.2075
  C  C55  1  0.527000  0.218560  0.782960  1.0  0.0944
  C  C56  1  0.215300  0.314640  0.750040  1.0  0.0919
  C  C57  1  0.497330  0.702100  0.801400  1.0  0.179
  C  C58  1  0.548200  0.098380  0.777380  1.0  -0.1956
  C  C59  1  0.219700  0.511960  0.813360  1.0  0.1686
  C  C60  1  0.501600  0.276250  0.853050  1.0  -0.1907
  C  C61  1  0.208400  0.391790  0.814590  1.0  -0.201
  C  C62  1  0.496500  0.213410  0.913210  1.0  0.1879
  C  C63  1  0.230700  0.364490  0.685590  1.0  -0.1887
  C  C64  1  0.875400  0.790890  0.812890  1.0  -0.2121
  C  C65  1  0.242100  0.485030  0.688330  1.0  0.175
  C  C66  1  0.996900  0.790100  0.810700  1.0  0.1675
  C  C67  1  0.540600  0.458550  0.660150  1.0  0.1838
  C  C68  1  0.619110  0.798160  0.695860  1.0  -0.2082
  C  C69  1  0.527000  0.281440  0.717040  1.0  0.0946
  C  C70  1  0.215300  0.185360  0.749960  1.0  0.0916
  C  C71  1  0.497330  0.797900  0.698600  1.0  0.1783
  C  C72  1  0.548200  0.401620  0.722620  1.0  -0.1966
  C  C73  1  0.219700  0.988040  0.686640  1.0  0.1683
  C  C74  1  0.501600  0.223750  0.646950  1.0  -0.1888
  C  C75  1  0.208400  0.108210  0.685410  1.0  -0.1986
  C  C76  1  0.496500  0.286590  0.586790  1.0  0.1877
  C  C77  1  0.230700  0.135510  0.814410  1.0  -0.1892
  C  C78  1  0.875400  0.709110  0.687110  1.0  -0.2111
  C  C79  1  0.242100  0.014970  0.811670  1.0  0.1757
  C  C80  1  0.996900  0.709900  0.689300  1.0  0.1675
  C  C81  1  0.459400  0.958550  0.160150  1.0  0.1855
  C  C82  1  0.380890  0.298160  0.195860  1.0  -0.2079
  C  C83  1  0.473000  0.781440  0.217040  1.0  0.0936
  C  C84  1  0.784700  0.685360  0.249960  1.0  0.0915
  C  C85  1  0.502670  0.297900  0.198600  1.0  0.1777
  C  C86  1  0.451800  0.901620  0.222620  1.0  -0.1969
  C  C87  1  0.780300  0.488040  0.186640  1.0  0.1686
  C  C88  1  0.498400  0.723750  0.146950  1.0  -0.19
  C  C89  1  0.791600  0.608210  0.185410  1.0  -0.1999
  C  C90  1  0.503500  0.786590  0.086790  1.0  0.1889
  C  C91  1  0.769300  0.635510  0.314410  1.0  -0.1884
  C  C92  1  0.124600  0.209110  0.187110  1.0  -0.2109
  C  C93  1  0.757900  0.514970  0.311670  1.0  0.1753
  C  C94  1  0.003100  0.209900  0.189300  1.0  0.1671
  C  C95  1  0.459400  0.541450  0.339850  1.0  0.1869
  C  C96  1  0.380890  0.201840  0.304140  1.0  -0.2071
  C  C97  1  0.473000  0.718560  0.282960  1.0  0.0929
  C  C98  1  0.784700  0.814640  0.250040  1.0  0.0917
  C  C99  1  0.502670  0.202100  0.301400  1.0  0.1781
  C  C100  1  0.451800  0.598380  0.277380  1.0  -0.1969
  C  C101  1  0.780300  0.011960  0.313360  1.0  0.1695
  C  C102  1  0.498400  0.776250  0.353050  1.0  -0.1911
  C  C103  1  0.791600  0.891790  0.314590  1.0  -0.2003
  C  C104  1  0.503500  0.713410  0.413210  1.0  0.1893
  C  C105  1  0.769300  0.864490  0.185590  1.0  -0.189
  C  C106  1  0.124600  0.290890  0.312890  1.0  -0.2108
  C  C107  1  0.757900  0.985030  0.188330  1.0  0.1756
  C  C108  1  0.003100  0.290100  0.310700  1.0  0.1669
  C  C109  1  0.812500  0.750000  0.750000  1.0  0.0893
  C  C110  1  0.682300  0.750000  0.750000  1.0  0.0985
  C  C111  1  0.187500  0.250000  0.250000  1.0  0.0885
  C  C112  1  0.317700  0.250000  0.250000  1.0  0.0974
  S  S113  1  0.298100  0.800750  0.939750  1.0  1.6412
  S  S114  1  0.298100  0.699250  0.560250  1.0  1.6419
  S  S115  1  0.701900  0.199250  0.060250  1.0  1.6402
  S  S116  1  0.701900  0.300750  0.439750  1.0  1.6415
  N  N117  1  0.236970  0.559470  0.751080  1.0  -0.2915
  N  N118  1  0.514290  0.096970  0.907150  1.0  -0.329
  N  N119  1  0.236970  0.940530  0.748920  1.0  -0.2915
  N  N120  1  0.514290  0.403030  0.592850  1.0  -0.3294
  N  N121  1  0.763030  0.440530  0.248920  1.0  -0.2902
  N  N122  1  0.485710  0.903030  0.092850  1.0  -0.3302
  N  N123  1  0.763030  0.059470  0.251080  1.0  -0.2905
  N  N124  1  0.485710  0.596970  0.407150  1.0  -0.3283
  N  N125  1  0.436400  0.750000  0.750000  1.0  -0.2942
  N  N126  1  0.058500  0.750000  0.750000  1.0  -0.2829
  N  N127  1  0.563600  0.250000  0.250000  1.0  -0.2923
  N  N128  1  0.941500  0.250000  0.250000  1.0  -0.2799
  O  O129  1  0.409670  0.866220  0.933310  1.0  -0.7706
  O  O130  1  0.245550  0.774440  0.865280  1.0  -0.6923
  O  O131  1  0.321700  0.690710  0.967910  1.0  -0.7319
  O  O132  1  0.216100  0.875670  0.986670  1.0  -0.7183
  O  O133  1  0.409670  0.633780  0.566690  1.0  -0.7704
  O  O134  1  0.245550  0.725560  0.634720  1.0  -0.6904
  O  O135  1  0.321700  0.809290  0.532090  1.0  -0.7333
  O  O136  1  0.216100  0.624330  0.513330  1.0  -0.7206
  O  O137  1  0.590330  0.133780  0.066690  1.0  -0.7691
  O  O138  1  0.754450  0.225560  0.134720  1.0  -0.6916
  O  O139  1  0.678300  0.309290  0.032090  1.0  -0.7327
  O  O140  1  0.783900  0.124330  0.013330  1.0  -0.722
  O  O141  1  0.590330  0.366220  0.433310  1.0  -0.7696
  O  O142  1  0.754450  0.274440  0.365280  1.0  -0.6927
  O  O143  1  0.678300  0.190710  0.467910  1.0  -0.7323
  O  O144  1  0.783900  0.375670  0.486670  1.0  -0.7224
