# generated using pymatgen
data_Fe3C36O13
_symmetry_space_group_name_H-M   'P 1'
_cell_length_a   18.75290000
_cell_length_b   18.75290000
_cell_length_c   18.74250000
_cell_angle_alpha   90.00000000
_cell_angle_beta   90.00000000
_cell_angle_gamma   120.00000000
_symmetry_Int_Tables_number   1
_chemical_formula_structural   Fe3C36O13
_chemical_formula_sum   'Fe6 C72 O26'
_cell_volume   5708.14539500
_cell_formula_units_Z   2
loop_
 _symmetry_equiv_pos_site_id
 _symmetry_equiv_pos_as_xyz
  1  'x, y, z'
loop_
 _atom_site_type_symbol
 _atom_site_label
 _atom_site_symmetry_multiplicity
 _atom_site_fract_x
 _atom_site_fract_y
 _atom_site_fract_z
 _atom_site_occupancy
 _atom_site_charge
  Fe  Fe1  1  0.734500  0.275900  0.250000  1.0  1.1968
  Fe  Fe2  1  0.724100  0.458600  0.250000  1.0  1.1728
  Fe  Fe3  1  0.541400  0.265500  0.250000  1.0  1.1836
  Fe  Fe4  1  0.275900  0.734500  0.750000  1.0  1.1972
  Fe  Fe5  1  0.458600  0.724100  0.750000  1.0  1.174
  Fe  Fe6  1  0.265500  0.541400  0.750000  1.0  1.1844
  C  C7  1  0.822700  0.428100  0.150900  1.0  0.7268
  C  C8  1  0.900300  0.478500  0.104100  1.0  -0.0234
  C  C9  1  0.977000  0.520200  0.133800  1.0  -0.0102
  C  C10  1  0.048300  0.547900  0.086600  1.0  -0.0356
  C  C11  1  0.039800  0.562100  0.014600  1.0  0.0355
  C  C12  1  0.890500  0.475700  0.031500  1.0  0.0279
  C  C13  1  0.571900  0.394600  0.150900  1.0  0.7278
  C  C14  1  0.521500  0.421800  0.104100  1.0  -0.0222
  C  C15  1  0.479800  0.456800  0.133800  1.0  -0.0124
  C  C16  1  0.452100  0.500400  0.086600  1.0  -0.0378
  C  C17  1  0.437900  0.477700  0.014600  1.0  0.0417
  C  C18  1  0.524300  0.414800  0.031500  1.0  0.0276
  C  C19  1  0.605400  0.177300  0.150900  1.0  0.7281
  C  C20  1  0.578200  0.099700  0.104100  1.0  -0.0217
  C  C21  1  0.543200  0.023000  0.133800  1.0  -0.0101
  C  C22  1  0.499600  0.951700  0.086600  1.0  -0.0421
  C  C23  1  0.522300  0.960200  0.014600  1.0  0.0391
  C  C24  1  0.585200  0.109500  0.031500  1.0  0.0276
  C  C25  1  0.822700  0.428100  0.349100  1.0  0.7262
  C  C26  1  0.900300  0.478500  0.395900  1.0  -0.0228
  C  C27  1  0.977000  0.520200  0.366200  1.0  -0.0116
  C  C28  1  0.048300  0.547900  0.413400  1.0  -0.0372
  C  C29  1  0.039800  0.562100  0.485400  1.0  0.0371
  C  C30  1  0.890500  0.475700  0.468500  1.0  0.0256
  C  C31  1  0.571900  0.394600  0.349100  1.0  0.7269
  C  C32  1  0.521500  0.421800  0.395900  1.0  -0.0218
  C  C33  1  0.479800  0.456800  0.366200  1.0  -0.012
  C  C34  1  0.452100  0.500400  0.413400  1.0  -0.0387
  C  C35  1  0.437900  0.477700  0.485400  1.0  0.0424
  C  C36  1  0.524300  0.414800  0.468500  1.0  0.0256
  C  C37  1  0.605400  0.177300  0.349100  1.0  0.7274
  C  C38  1  0.578200  0.099700  0.395900  1.0  -0.0215
  C  C39  1  0.543200  0.023000  0.366200  1.0  -0.0104
  C  C40  1  0.499600  0.951700  0.413400  1.0  -0.0409
  C  C41  1  0.522300  0.960200  0.485400  1.0  0.0391
  C  C42  1  0.585200  0.109500  0.468500  1.0  0.0269
  C  C43  1  0.428100  0.822700  0.849100  1.0  0.7275
  C  C44  1  0.478500  0.900300  0.895900  1.0  -0.0145
  C  C45  1  0.520200  0.977000  0.866200  1.0  -0.0115
  C  C46  1  0.547900  0.048300  0.913400  1.0  -0.039
  C  C47  1  0.562100  0.039800  0.985400  1.0  0.0396
  C  C48  1  0.475700  0.890500  0.968500  1.0  0.0245
  C  C49  1  0.394600  0.571900  0.849100  1.0  0.7258
  C  C50  1  0.421800  0.521500  0.895900  1.0  -0.0154
  C  C51  1  0.456800  0.479800  0.866200  1.0  -0.0111
  C  C52  1  0.500400  0.452100  0.913400  1.0  -0.0376
  C  C53  1  0.477700  0.437900  0.985400  1.0  0.0405
  C  C54  1  0.414800  0.524300  0.968500  1.0  0.0255
  C  C55  1  0.177300  0.605400  0.849100  1.0  0.7271
  C  C56  1  0.099700  0.578200  0.895900  1.0  -0.0146
  C  C57  1  0.023000  0.543200  0.866200  1.0  -0.0111
  C  C58  1  0.951700  0.499600  0.913400  1.0  -0.0407
  C  C59  1  0.960200  0.522300  0.985400  1.0  0.04
  C  C60  1  0.109500  0.585200  0.968500  1.0  0.0252
  C  C61  1  0.428100  0.822700  0.650900  1.0  0.7281
  C  C62  1  0.478500  0.900300  0.604100  1.0  -0.0147
  C  C63  1  0.520200  0.977000  0.633800  1.0  -0.01
  C  C64  1  0.547900  0.048300  0.586600  1.0  -0.0371
  C  C65  1  0.562100  0.039800  0.514600  1.0  0.038
  C  C66  1  0.475700  0.890500  0.531500  1.0  0.0273
  C  C67  1  0.394600  0.571900  0.650900  1.0  0.7265
  C  C68  1  0.421800  0.521500  0.604100  1.0  -0.0156
  C  C69  1  0.456800  0.479800  0.633800  1.0  -0.0099
  C  C70  1  0.500400  0.452100  0.586600  1.0  -0.0362
  C  C71  1  0.477700  0.437900  0.514600  1.0  0.0409
  C  C72  1  0.414800  0.524300  0.531500  1.0  0.0268
  C  C73  1  0.177300  0.605400  0.650900  1.0  0.728
  C  C74  1  0.099700  0.578200  0.604100  1.0  -0.0148
  C  C75  1  0.023000  0.543200  0.633800  1.0  -0.0106
  C  C76  1  0.951700  0.499600  0.586600  1.0  -0.0413
  C  C77  1  0.960200  0.522300  0.514600  1.0  0.0386
  C  C78  1  0.109500  0.585200  0.531500  1.0  0.026
  O  O79  1  0.816100  0.367100  0.180600  1.0  -0.5558
  O  O80  1  0.787400  0.460800  0.173400  1.0  -0.5983
  O  O81  1  0.632900  0.449000  0.180600  1.0  -0.5568
  O  O82  1  0.539200  0.326600  0.173400  1.0  -0.5993
  O  O83  1  0.551000  0.183900  0.180600  1.0  -0.5546
  O  O84  1  0.673400  0.212600  0.173400  1.0  -0.5958
  O  O85  1  0.816100  0.367100  0.319400  1.0  -0.5548
  O  O86  1  0.787400  0.460800  0.326600  1.0  -0.5983
  O  O87  1  0.632900  0.449000  0.319400  1.0  -0.5568
  O  O88  1  0.539200  0.326600  0.326600  1.0  -0.5996
  O  O89  1  0.551000  0.183900  0.319400  1.0  -0.5535
  O  O90  1  0.673400  0.212600  0.326600  1.0  -0.5952
  O  O91  1  0.367100  0.816100  0.819400  1.0  -0.5544
  O  O92  1  0.460800  0.787400  0.826600  1.0  -0.5943
  O  O93  1  0.449000  0.632900  0.819400  1.0  -0.5567
  O  O94  1  0.326600  0.539200  0.826600  1.0  -0.5999
  O  O95  1  0.183900  0.551000  0.819400  1.0  -0.5542
  O  O96  1  0.212600  0.673400  0.826600  1.0  -0.6031
  O  O97  1  0.367100  0.816100  0.680600  1.0  -0.5553
  O  O98  1  0.460800  0.787400  0.673400  1.0  -0.5945
  O  O99  1  0.449000  0.632900  0.680600  1.0  -0.5579
  O  O100  1  0.326600  0.539200  0.673400  1.0  -0.6003
  O  O101  1  0.183900  0.551000  0.680600  1.0  -0.5542
  O  O102  1  0.212600  0.673400  0.673400  1.0  -0.6022
  O  O103  1  0.666667  0.333333  0.250000  1.0  -0.9801
  O  O104  1  0.333333  0.666667  0.750000  1.0  -0.9801
