# generated using pymatgen
data_Fe3C12O13
_symmetry_space_group_name_H-M   'P 1'
_cell_length_a   13.87110000
_cell_length_b   13.87110000
_cell_length_c   12.66300000
_cell_angle_alpha   90.00000000
_cell_angle_beta   90.00000000
_cell_angle_gamma   120.00000000
_symmetry_Int_Tables_number   1
_chemical_formula_structural   Fe3C12O13
_chemical_formula_sum   'Fe6 C24 O26'
_cell_volume   2110.03201074
_cell_formula_units_Z   2
loop_
 _symmetry_equiv_pos_site_id
 _symmetry_equiv_pos_as_xyz
  1  'x, y, z'
loop_
 _atom_site_type_symbol
 _atom_site_label
 _atom_site_symmetry_multiplicity
 _atom_site_fract_x
 _atom_site_fract_y
 _atom_site_fract_z
 _atom_site_occupancy
 _atom_site_charge
  Fe  Fe1  1  0.770600  0.286600  0.250000  1.0  0.9757
  Fe  Fe2  1  0.713400  0.484000  0.250000  1.0  0.9772
  Fe  Fe3  1  0.516000  0.229400  0.250000  1.0  0.975
  Fe  Fe4  1  0.286600  0.770600  0.750000  1.0  0.9744
  Fe  Fe5  1  0.484000  0.713400  0.750000  1.0  0.9774
  Fe  Fe6  1  0.229400  0.516000  0.750000  1.0  0.9784
  C  C7  1  0.882000  0.475400  0.111300  1.0  0.6904
  C  C8  1  0.991200  0.507200  0.058200  1.0  0.1092
  C  C9  1  0.524600  0.406600  0.111300  1.0  0.6917
  C  C10  1  0.492800  0.484000  0.058200  1.0  0.1084
  C  C11  1  0.593400  0.118000  0.111300  1.0  0.6895
  C  C12  1  0.516000  0.008800  0.058200  1.0  0.1061
  C  C13  1  0.882000  0.475400  0.388700  1.0  0.691
  C  C14  1  0.991200  0.507200  0.441800  1.0  0.1118
  C  C15  1  0.524600  0.406600  0.388700  1.0  0.6921
  C  C16  1  0.492800  0.484000  0.441800  1.0  0.1109
  C  C17  1  0.593400  0.118000  0.388700  1.0  0.6899
  C  C18  1  0.516000  0.008800  0.441800  1.0  0.1082
  C  C19  1  0.475400  0.882000  0.888700  1.0  0.69
  C  C20  1  0.507200  0.991200  0.941800  1.0  0.1093
  C  C21  1  0.406600  0.524600  0.888700  1.0  0.6905
  C  C22  1  0.484000  0.492800  0.941800  1.0  0.1099
  C  C23  1  0.118000  0.593400  0.888700  1.0  0.6918
  C  C24  1  0.008800  0.516000  0.941800  1.0  0.1067
  C  C25  1  0.475400  0.882000  0.611300  1.0  0.6895
  C  C26  1  0.507200  0.991200  0.558200  1.0  0.1071
  C  C27  1  0.406600  0.524600  0.611300  1.0  0.69
  C  C28  1  0.484000  0.492800  0.558200  1.0  0.1073
  C  C29  1  0.118000  0.593400  0.611300  1.0  0.6913
  C  C30  1  0.008800  0.516000  0.558200  1.0  0.1045
  O  O31  1  0.808100  0.378600  0.106500  1.0  -0.5557
  O  O32  1  0.852200  0.545400  0.135600  1.0  -0.5672
  O  O33  1  0.621400  0.429500  0.106500  1.0  -0.5575
  O  O34  1  0.454600  0.306800  0.135600  1.0  -0.5679
  O  O35  1  0.570500  0.191900  0.106500  1.0  -0.555
  O  O36  1  0.693200  0.147800  0.135600  1.0  -0.5675
  O  O37  1  0.808100  0.378600  0.393500  1.0  -0.5551
  O  O38  1  0.852200  0.545400  0.364400  1.0  -0.5664
  O  O39  1  0.621400  0.429500  0.393500  1.0  -0.5556
  O  O40  1  0.454600  0.306800  0.364400  1.0  -0.5679
  O  O41  1  0.570500  0.191900  0.393500  1.0  -0.5538
  O  O42  1  0.693200  0.147800  0.364400  1.0  -0.5676
  O  O43  1  0.378600  0.808100  0.893500  1.0  -0.5548
  O  O44  1  0.545400  0.852200  0.864400  1.0  -0.5664
  O  O45  1  0.429500  0.621400  0.893500  1.0  -0.5538
  O  O46  1  0.306800  0.454600  0.864400  1.0  -0.569
  O  O47  1  0.191900  0.570500  0.893500  1.0  -0.5556
  O  O48  1  0.147800  0.693200  0.864400  1.0  -0.5702
  O  O49  1  0.378600  0.808100  0.606500  1.0  -0.5556
  O  O50  1  0.545400  0.852200  0.635600  1.0  -0.5664
  O  O51  1  0.429500  0.621400  0.606500  1.0  -0.5557
  O  O52  1  0.306800  0.454600  0.635600  1.0  -0.5683
  O  O53  1  0.191900  0.570500  0.606500  1.0  -0.5576
  O  O54  1  0.147800  0.693200  0.635600  1.0  -0.5697
  O  O55  1  0.666667  0.333333  0.250000  1.0  -0.9824
  O  O56  1  0.333333  0.666667  0.750000  1.0  -0.9824
