# generated using pymatgen
data_Cr3C24O13
_symmetry_space_group_name_H-M   'P 1'
_cell_length_a   15.62610000
_cell_length_b   15.62610000
_cell_length_c   15.96040000
_cell_angle_alpha   90.00000000
_cell_angle_beta   90.00000000
_cell_angle_gamma   120.00000000
_symmetry_Int_Tables_number   1
_chemical_formula_structural   Cr3C24O13
_chemical_formula_sum   'Cr6 C48 O26'
_cell_volume   3375.01417881
_cell_formula_units_Z   2
loop_
 _symmetry_equiv_pos_site_id
 _symmetry_equiv_pos_as_xyz
  1  'x, y, z'
loop_
 _atom_site_type_symbol
 _atom_site_label
 _atom_site_symmetry_multiplicity
 _atom_site_fract_x
 _atom_site_fract_y
 _atom_site_fract_z
 _atom_site_occupancy
 _atom_site_charge
  Cr  Cr1  1  0.735200  0.470400  0.750000  1.0  1.427
  Cr  Cr2  1  0.529600  0.264800  0.750000  1.0  1.426
  Cr  Cr3  1  0.735200  0.264800  0.750000  1.0  1.4224
  Cr  Cr4  1  0.264800  0.529600  0.250000  1.0  1.4268
  Cr  Cr5  1  0.470400  0.735200  0.250000  1.0  1.4298
  Cr  Cr6  1  0.264800  0.735200  0.250000  1.0  1.4198
  C  C7  1  0.441400  0.407500  0.965200  1.0  -0.0338
  C  C8  1  0.592500  0.033900  0.965200  1.0  -0.0336
  C  C9  1  0.966100  0.558600  0.965200  1.0  -0.034
  C  C10  1  0.558600  0.592500  0.465200  1.0  -0.0336
  C  C11  1  0.407500  0.966100  0.465200  1.0  -0.035
  C  C12  1  0.033900  0.441400  0.465200  1.0  -0.0327
  C  C13  1  0.407500  0.441400  0.034800  1.0  -0.0331
  C  C14  1  0.033900  0.592500  0.034800  1.0  -0.0331
  C  C15  1  0.558600  0.966100  0.034800  1.0  -0.0332
  C  C16  1  0.592500  0.558600  0.534800  1.0  -0.0315
  C  C17  1  0.966100  0.407500  0.534800  1.0  -0.0327
  C  C18  1  0.441400  0.033900  0.534800  1.0  -0.0342
  C  C19  1  0.558600  0.592500  0.034800  1.0  -0.0323
  C  C20  1  0.407500  0.966100  0.034800  1.0  -0.0341
  C  C21  1  0.033900  0.441400  0.034800  1.0  -0.0329
  C  C22  1  0.441400  0.407500  0.534800  1.0  -0.0336
  C  C23  1  0.592500  0.033900  0.534800  1.0  -0.033
  C  C24  1  0.966100  0.558600  0.534800  1.0  -0.0331
  C  C25  1  0.592500  0.558600  0.965200  1.0  -0.0324
  C  C26  1  0.966100  0.407500  0.965200  1.0  -0.0327
  C  C27  1  0.441400  0.033900  0.965200  1.0  -0.0345
  C  C28  1  0.407500  0.441400  0.465200  1.0  -0.0338
  C  C29  1  0.033900  0.592500  0.465200  1.0  -0.0344
  C  C30  1  0.558600  0.966100  0.465200  1.0  -0.0334
  C  C31  1  0.575700  0.424300  0.878600  1.0  0.6908
  C  C32  1  0.542500  0.457500  0.948300  1.0  0.0371
  C  C33  1  0.575700  0.151400  0.878600  1.0  0.6906
  C  C34  1  0.542500  0.085000  0.948300  1.0  0.0361
  C  C35  1  0.848600  0.424300  0.878600  1.0  0.6908
  C  C36  1  0.915000  0.457500  0.948300  1.0  0.037
  C  C37  1  0.424300  0.575700  0.378600  1.0  0.6909
  C  C38  1  0.457500  0.542500  0.448300  1.0  0.0371
  C  C39  1  0.424300  0.848600  0.378600  1.0  0.6905
  C  C40  1  0.457500  0.915000  0.448300  1.0  0.0356
  C  C41  1  0.151400  0.575700  0.378600  1.0  0.691
  C  C42  1  0.085000  0.542500  0.448300  1.0  0.0373
  C  C43  1  0.424300  0.575700  0.121400  1.0  0.6922
  C  C44  1  0.457500  0.542500  0.051700  1.0  0.0366
  C  C45  1  0.151400  0.575700  0.121400  1.0  0.6926
  C  C46  1  0.085000  0.542500  0.051700  1.0  0.0372
  C  C47  1  0.424300  0.848600  0.121400  1.0  0.6917
  C  C48  1  0.457500  0.915000  0.051700  1.0  0.0354
  C  C49  1  0.575700  0.424300  0.621400  1.0  0.6926
  C  C50  1  0.542500  0.457500  0.551700  1.0  0.0371
  C  C51  1  0.848600  0.424300  0.621400  1.0  0.6923
  C  C52  1  0.915000  0.457500  0.551700  1.0  0.0368
  C  C53  1  0.575700  0.151400  0.621400  1.0  0.6915
  C  C54  1  0.542500  0.085000  0.551700  1.0  0.0357
  O  O55  1  0.655300  0.484500  0.841400  1.0  -0.5956
  O  O56  1  0.515500  0.170800  0.841400  1.0  -0.5916
  O  O57  1  0.829200  0.344700  0.841400  1.0  -0.5926
  O  O58  1  0.344700  0.515500  0.341400  1.0  -0.5915
  O  O59  1  0.484500  0.829200  0.341400  1.0  -0.5909
  O  O60  1  0.170800  0.655300  0.341400  1.0  -0.5942
  O  O61  1  0.484500  0.655300  0.158600  1.0  -0.5938
  O  O62  1  0.170800  0.515500  0.158600  1.0  -0.591
  O  O63  1  0.344700  0.829200  0.158600  1.0  -0.5917
  O  O64  1  0.515500  0.344700  0.658600  1.0  -0.5911
  O  O65  1  0.829200  0.484500  0.658600  1.0  -0.594
  O  O66  1  0.655300  0.170800  0.658600  1.0  -0.5913
  O  O67  1  0.344700  0.515500  0.158600  1.0  -0.5913
  O  O68  1  0.484500  0.829200  0.158600  1.0  -0.5898
  O  O69  1  0.170800  0.655300  0.158600  1.0  -0.5936
  O  O70  1  0.655300  0.484500  0.658600  1.0  -0.595
  O  O71  1  0.515500  0.170800  0.658600  1.0  -0.5914
  O  O72  1  0.829200  0.344700  0.658600  1.0  -0.5924
  O  O73  1  0.515500  0.344700  0.841400  1.0  -0.5914
  O  O74  1  0.829200  0.484500  0.841400  1.0  -0.5945
  O  O75  1  0.655300  0.170800  0.841400  1.0  -0.5915
  O  O76  1  0.484500  0.655300  0.341400  1.0  -0.594
  O  O77  1  0.170800  0.515500  0.341400  1.0  -0.5916
  O  O78  1  0.344700  0.829200  0.341400  1.0  -0.5922
  O  O79  1  0.666667  0.333333  0.750000  1.0  -1.1347
  O  O80  1  0.333333  0.666667  0.250000  1.0  -1.1347
