# generated using pymatgen
data_Cr3C42O13
_symmetry_space_group_name_H-M   'P 1'
_cell_length_a   20.04050000
_cell_length_b   20.04050000
_cell_length_c   22.91080000
_cell_angle_alpha   90.00000000
_cell_angle_beta   90.00000000
_cell_angle_gamma   120.00000000
_symmetry_Int_Tables_number   1
_chemical_formula_structural   Cr3C42O13
_chemical_formula_sum   'Cr6 C84 O26'
_cell_volume   7968.70943557
_cell_formula_units_Z   2
loop_
 _symmetry_equiv_pos_site_id
 _symmetry_equiv_pos_as_xyz
  1  'x, y, z'
loop_
 _atom_site_type_symbol
 _atom_site_label
 _atom_site_symmetry_multiplicity
 _atom_site_fract_x
 _atom_site_fract_y
 _atom_site_fract_z
 _atom_site_occupancy
 _atom_site_charge
  Cr  Cr1  1  0.727100  0.280000  0.250000  1.0  1.4076
  Cr  Cr2  1  0.720000  0.447100  0.250000  1.0  1.3587
  Cr  Cr3  1  0.552900  0.272900  0.250000  1.0  1.3687
  Cr  Cr4  1  0.280000  0.727100  0.750000  1.0  1.4079
  Cr  Cr5  1  0.447100  0.720000  0.750000  1.0  1.3576
  Cr  Cr6  1  0.272900  0.552900  0.750000  1.0  1.372
  C  C7  1  0.794700  0.405000  0.159200  1.0  0.5984
  C  C8  1  0.859700  0.438800  0.114700  1.0  0.0238
  C  C9  1  0.891000  0.514300  0.095700  1.0  0.0114
  C  C10  1  0.947700  0.543400  0.049400  1.0  0.0304
  C  C11  1  0.971800  0.496500  0.023900  1.0  0.1156
  C  C12  1  0.936300  0.419200  0.040900  1.0  -0.067
  C  C13  1  0.872700  0.388800  0.080700  1.0  0.0166
  C  C14  1  0.595000  0.389700  0.159200  1.0  0.5984
  C  C15  1  0.561200  0.420900  0.114700  1.0  0.0247
  C  C16  1  0.485700  0.376700  0.095700  1.0  0.0095
  C  C17  1  0.456600  0.404300  0.049400  1.0  0.0254
  C  C18  1  0.503500  0.475300  0.023900  1.0  0.1125
  C  C19  1  0.580800  0.517100  0.040900  1.0  -0.0659
  C  C20  1  0.611200  0.483900  0.080700  1.0  0.0119
  C  C21  1  0.610300  0.205300  0.159200  1.0  0.5999
  C  C22  1  0.579100  0.140300  0.114700  1.0  0.0243
  C  C23  1  0.623300  0.109000  0.095700  1.0  0.0075
  C  C24  1  0.595700  0.052300  0.049400  1.0  0.0322
  C  C25  1  0.524700  0.028200  0.023900  1.0  0.1153
  C  C26  1  0.482900  0.063700  0.040900  1.0  -0.0696
  C  C27  1  0.516100  0.127300  0.080700  1.0  0.0214
  C  C28  1  0.794700  0.405000  0.340800  1.0  0.5986
  C  C29  1  0.859700  0.438800  0.385300  1.0  0.0234
  C  C30  1  0.891000  0.514300  0.404300  1.0  0.0069
  C  C31  1  0.947700  0.543400  0.450600  1.0  0.027
  C  C32  1  0.971800  0.496500  0.476100  1.0  0.1155
  C  C33  1  0.936300  0.419200  0.459100  1.0  -0.0671
  C  C34  1  0.872700  0.388800  0.419300  1.0  0.0171
  C  C35  1  0.595000  0.389700  0.340800  1.0  0.598
  C  C36  1  0.561200  0.420900  0.385300  1.0  0.0244
  C  C37  1  0.485700  0.376700  0.404300  1.0  0.0026
  C  C38  1  0.456600  0.404300  0.450600  1.0  0.0255
  C  C39  1  0.503500  0.475300  0.476100  1.0  0.12
  C  C40  1  0.580800  0.517100  0.459100  1.0  -0.0649
  C  C41  1  0.611200  0.483900  0.419300  1.0  0.0132
  C  C42  1  0.610300  0.205300  0.340800  1.0  0.6003
  C  C43  1  0.579100  0.140300  0.385300  1.0  0.0239
  C  C44  1  0.623300  0.109000  0.404300  1.0  0.0075
  C  C45  1  0.595700  0.052300  0.450600  1.0  0.0329
  C  C46  1  0.524700  0.028200  0.476100  1.0  0.1152
  C  C47  1  0.482900  0.063700  0.459100  1.0  -0.0689
  C  C48  1  0.516100  0.127300  0.419300  1.0  0.0201
  C  C49  1  0.405000  0.794700  0.840800  1.0  0.5987
  C  C50  1  0.438800  0.859700  0.885300  1.0  0.0243
  C  C51  1  0.514300  0.891000  0.904300  1.0  0.0105
  C  C52  1  0.543400  0.947700  0.950600  1.0  0.0298
  C  C53  1  0.496500  0.971800  0.976100  1.0  0.1162
  C  C54  1  0.419200  0.936300  0.959100  1.0  -0.0684
  C  C55  1  0.388800  0.872700  0.919300  1.0  0.0206
  C  C56  1  0.389700  0.595000  0.840800  1.0  0.5993
  C  C57  1  0.420900  0.561200  0.885300  1.0  0.023
  C  C58  1  0.376700  0.485700  0.904300  1.0  0.0088
  C  C59  1  0.404300  0.456600  0.950600  1.0  0.0233
  C  C60  1  0.475300  0.503500  0.976100  1.0  0.1118
  C  C61  1  0.517100  0.580800  0.959100  1.0  -0.0663
  C  C62  1  0.483900  0.611200  0.919300  1.0  0.0125
  C  C63  1  0.205300  0.610300  0.840800  1.0  0.599
  C  C64  1  0.140300  0.579100  0.885300  1.0  0.0242
  C  C65  1  0.109000  0.623300  0.904300  1.0  0.0063
  C  C66  1  0.052300  0.595700  0.950600  1.0  0.0319
  C  C67  1  0.028200  0.524700  0.976100  1.0  0.116
  C  C68  1  0.063700  0.482900  0.959100  1.0  -0.0677
  C  C69  1  0.127300  0.516100  0.919300  1.0  0.0194
  C  C70  1  0.405000  0.794700  0.659200  1.0  0.5987
  C  C71  1  0.438800  0.859700  0.614700  1.0  0.0246
  C  C72  1  0.514300  0.891000  0.595700  1.0  0.0068
  C  C73  1  0.543400  0.947700  0.549400  1.0  0.0249
  C  C74  1  0.496500  0.971800  0.523900  1.0  0.1163
  C  C75  1  0.419200  0.936300  0.540900  1.0  -0.0689
  C  C76  1  0.388800  0.872700  0.580700  1.0  0.02
  C  C77  1  0.389700  0.595000  0.659200  1.0  0.5986
  C  C78  1  0.420900  0.561200  0.614700  1.0  0.0235
  C  C79  1  0.376700  0.485700  0.595700  1.0  0.0027
  C  C80  1  0.404300  0.456600  0.549400  1.0  0.0213
  C  C81  1  0.475300  0.503500  0.523900  1.0  0.1198
  C  C82  1  0.517100  0.580800  0.540900  1.0  -0.066
  C  C83  1  0.483900  0.611200  0.580700  1.0  0.0123
  C  C84  1  0.205300  0.610300  0.659200  1.0  0.5989
  C  C85  1  0.140300  0.579100  0.614700  1.0  0.0246
  C  C86  1  0.109000  0.623300  0.595700  1.0  0.0066
  C  C87  1  0.052300  0.595700  0.549400  1.0  0.0312
  C  C88  1  0.028200  0.524700  0.523900  1.0  0.1162
  C  C89  1  0.063700  0.482900  0.540900  1.0  -0.0673
  C  C90  1  0.127300  0.516100  0.580700  1.0  0.0174
  O  O91  1  0.788100  0.347500  0.187000  1.0  -0.6275
  O  O92  1  0.785700  0.452500  0.187900  1.0  -0.6054
  O  O93  1  0.652500  0.440600  0.187000  1.0  -0.6365
  O  O94  1  0.547500  0.333200  0.187900  1.0  -0.6065
  O  O95  1  0.559400  0.211900  0.187000  1.0  -0.6297
  O  O96  1  0.666800  0.214300  0.187900  1.0  -0.6049
  O  O97  1  0.788100  0.347500  0.313000  1.0  -0.6268
  O  O98  1  0.785700  0.452500  0.312100  1.0  -0.6041
  O  O99  1  0.652500  0.440600  0.313000  1.0  -0.6369
  O  O100  1  0.547500  0.333200  0.312100  1.0  -0.6045
  O  O101  1  0.559400  0.211900  0.313000  1.0  -0.6302
  O  O102  1  0.666800  0.214300  0.312100  1.0  -0.6044
  O  O103  1  0.347500  0.788100  0.813000  1.0  -0.6317
  O  O104  1  0.452500  0.785700  0.812100  1.0  -0.6049
  O  O105  1  0.440600  0.652500  0.813000  1.0  -0.6331
  O  O106  1  0.333200  0.547500  0.812100  1.0  -0.6051
  O  O107  1  0.211900  0.559400  0.813000  1.0  -0.6296
  O  O108  1  0.214300  0.666800  0.812100  1.0  -0.6049
  O  O109  1  0.347500  0.788100  0.687000  1.0  -0.6308
  O  O110  1  0.452500  0.785700  0.687900  1.0  -0.6039
  O  O111  1  0.440600  0.652500  0.687000  1.0  -0.633
  O  O112  1  0.333200  0.547500  0.687900  1.0  -0.604
  O  O113  1  0.211900  0.559400  0.687000  1.0  -0.6297
  O  O114  1  0.214300  0.666800  0.687900  1.0  -0.6046
  O  O115  1  0.666667  0.333333  0.250000  1.0  -1.0614
  O  O116  1  0.333333  0.666667  0.750000  1.0  -1.0614
