# generated using pymatgen
data_NiH3(C3O2)3
_symmetry_space_group_name_H-M   'P 1'
_cell_length_a   9.96160000
_cell_length_b   9.96160000
_cell_length_c   19.68000000
_cell_angle_alpha   90.00000000
_cell_angle_beta   90.00000000
_cell_angle_gamma   102.87900000
_symmetry_Int_Tables_number   1
_chemical_formula_structural   NiH3(C3O2)3
_chemical_formula_sum   'Ni4 H12 C36 O24'
_cell_volume   1903.78521271
_cell_formula_units_Z   4
loop_
 _symmetry_equiv_pos_site_id
 _symmetry_equiv_pos_as_xyz
  1  'x, y, z'
loop_
 _atom_site_type_symbol
 _atom_site_label
 _atom_site_symmetry_multiplicity
 _atom_site_fract_x
 _atom_site_fract_y
 _atom_site_fract_z
 _atom_site_occupancy
 _atom_site_charge
  Ni  Ni1  1  0.313040  0.431320  0.733650  1.0  0.9782
  Ni  Ni2  1  0.686960  0.568680  0.233650  1.0  0.9758
  Ni  Ni3  1  0.568680  0.686960  0.766350  1.0  0.9761
  Ni  Ni4  1  0.431320  0.313040  0.266350  1.0  0.9769
  H  H5  1  0.674400  0.712200  0.600000  1.0  0.111
  H  H6  1  0.336100  0.988300  0.748400  1.0  0.1288
  H  H7  1  0.325600  0.287800  0.100000  1.0  0.1109
  H  H8  1  0.663900  0.011700  0.248400  1.0  0.1278
  H  H9  1  0.287800  0.325600  0.900000  1.0  0.1109
  H  H10  1  0.011700  0.663900  0.751600  1.0  0.1285
  H  H11  1  0.712200  0.674400  0.400000  1.0  0.1112
  H  H12  1  0.988300  0.336100  0.251600  1.0  0.1286
  H  H13  1  0.413700  0.413700  0.500000  1.0  0.1252
  H  H14  1  0.586300  0.586300  0.000000  1.0  0.126
  H  H15  1  0.951100  0.048900  0.750000  1.0  0.1253
  H  H16  1  0.048900  0.951100  0.250000  1.0  0.1248
  C  C17  1  0.643100  0.667500  0.559600  1.0  0.0433
  C  C18  1  0.441700  0.504900  0.623400  1.0  0.7316
  C  C19  1  0.530300  0.559500  0.561000  1.0  -0.1344
  C  C20  1  0.209700  0.193900  0.746600  1.0  0.6525
  C  C21  1  0.241500  0.952700  0.749100  1.0  0.0435
  C  C22  1  0.151100  0.041900  0.749500  1.0  -0.1248
  C  C23  1  0.356900  0.332500  0.059600  1.0  0.043
  C  C24  1  0.558300  0.495100  0.123400  1.0  0.7318
  C  C25  1  0.469700  0.440500  0.061000  1.0  -0.1348
  C  C26  1  0.790300  0.806100  0.246600  1.0  0.653
  C  C27  1  0.758500  0.047300  0.249100  1.0  0.0425
  C  C28  1  0.848900  0.958100  0.249500  1.0  -0.1248
  C  C29  1  0.332500  0.356900  0.940400  1.0  0.0415
  C  C30  1  0.495100  0.558300  0.876600  1.0  0.7341
  C  C31  1  0.440500  0.469700  0.939000  1.0  -0.1348
  C  C32  1  0.806100  0.790300  0.753400  1.0  0.6515
  C  C33  1  0.047300  0.758500  0.750900  1.0  0.0453
  C  C34  1  0.958100  0.848900  0.750500  1.0  -0.126
  C  C35  1  0.667500  0.643100  0.440400  1.0  0.0419
  C  C36  1  0.504900  0.441700  0.376600  1.0  0.7344
  C  C37  1  0.559500  0.530300  0.439000  1.0  -0.1355
  C  C38  1  0.193900  0.209700  0.253400  1.0  0.6519
  C  C39  1  0.952700  0.241500  0.250900  1.0  0.0455
  C  C40  1  0.041900  0.151100  0.250500  1.0  -0.1258
  C  C41  1  0.831900  0.831900  0.500000  1.0  0.6621
  C  C42  1  0.711100  0.711100  0.500000  1.0  -0.1762
  C  C43  1  0.488500  0.488500  0.500000  1.0  0.0239
  C  C44  1  0.168100  0.168100  0.000000  1.0  0.662
  C  C45  1  0.288900  0.288900  0.000000  1.0  -0.1767
  C  C46  1  0.511500  0.511500  0.000000  1.0  0.0241
  C  C47  1  0.010800  0.989200  0.750000  1.0  0.0472
  C  C48  1  0.286300  0.713700  0.750000  1.0  0.7281
  C  C49  1  0.189900  0.810100  0.750000  1.0  -0.1572
  C  C50  1  0.989200  0.010800  0.250000  1.0  0.0478
  C  C51  1  0.713700  0.286300  0.250000  1.0  0.7285
  C  C52  1  0.810100  0.189900  0.250000  1.0  -0.1573
  O  O53  1  0.855900  0.895900  0.553700  1.0  -0.4195
  O  O54  1  0.327500  0.434100  0.614100  1.0  -0.5178
  O  O55  1  0.137900  0.278300  0.759800  1.0  -0.5214
  O  O56  1  0.336700  0.239100  0.732600  1.0  -0.5141
  O  O57  1  0.231200  0.588600  0.741600  1.0  -0.5608
  O  O58  1  0.488200  0.535800  0.679300  1.0  -0.585
  O  O59  1  0.144100  0.104100  0.053700  1.0  -0.4208
  O  O60  1  0.672500  0.565900  0.114100  1.0  -0.518
  O  O61  1  0.862100  0.721700  0.259800  1.0  -0.521
  O  O62  1  0.663300  0.760900  0.232600  1.0  -0.5111
  O  O63  1  0.768800  0.411400  0.241600  1.0  -0.5605
  O  O64  1  0.511800  0.464200  0.179300  1.0  -0.5849
  O  O65  1  0.104100  0.144100  0.946300  1.0  -0.4238
  O  O66  1  0.565900  0.672500  0.885900  1.0  -0.5151
  O  O67  1  0.721700  0.862100  0.740200  1.0  -0.5221
  O  O68  1  0.760900  0.663300  0.767400  1.0  -0.5106
  O  O69  1  0.411400  0.768800  0.758400  1.0  -0.559
  O  O70  1  0.464200  0.511800  0.820700  1.0  -0.5851
  O  O71  1  0.895900  0.855900  0.446300  1.0  -0.4236
  O  O72  1  0.434100  0.327500  0.385900  1.0  -0.5148
  O  O73  1  0.278300  0.137900  0.240200  1.0  -0.5217
  O  O74  1  0.239100  0.336700  0.267400  1.0  -0.5118
  O  O75  1  0.588600  0.231200  0.258400  1.0  -0.5607
  O  O76  1  0.535800  0.488200  0.320700  1.0  -0.5857
