# generated using pymatgen
data_CoH3(C3O2)3
_symmetry_space_group_name_H-M   'P 1'
_cell_length_a   10.05230000
_cell_length_b   10.05230000
_cell_length_c   19.32840000
_cell_angle_alpha   90.00000000
_cell_angle_beta   90.00000000
_cell_angle_gamma   103.95200000
_symmetry_Int_Tables_number   1
_chemical_formula_structural   CoH3(C3O2)3
_chemical_formula_sum   'Co4 H12 C36 O24'
_cell_volume   1895.48982572
_cell_formula_units_Z   4
loop_
 _symmetry_equiv_pos_site_id
 _symmetry_equiv_pos_as_xyz
  1  'x, y, z'
loop_
 _atom_site_type_symbol
 _atom_site_label
 _atom_site_symmetry_multiplicity
 _atom_site_fract_x
 _atom_site_fract_y
 _atom_site_fract_z
 _atom_site_occupancy
 _atom_site_charge
  Co  Co1  1  0.807960  0.937200  0.731750  1.0  1.1691
  Co  Co2  1  0.192040  0.062800  0.231750  1.0  1.1656
  Co  Co3  1  0.062800  0.192040  0.768250  1.0  1.1662
  Co  Co4  1  0.937200  0.807960  0.268250  1.0  1.1679
  H  H5  1  0.507100  0.165500  0.749600  1.0  0.1236
  H  H6  1  0.179700  0.219500  0.603200  1.0  0.1078
  H  H7  1  0.492900  0.834500  0.249600  1.0  0.1234
  H  H8  1  0.820300  0.780500  0.103200  1.0  0.1082
  H  H9  1  0.834500  0.492900  0.750400  1.0  0.1227
  H  H10  1  0.780500  0.820300  0.896800  1.0  0.1086
  H  H11  1  0.165500  0.507100  0.250400  1.0  0.1225
  H  H12  1  0.219500  0.179700  0.396800  1.0  0.1084
  H  H13  1  0.448600  0.551400  0.750000  1.0  0.1254
  H  H14  1  0.551400  0.448600  0.250000  1.0  0.1247
  H  H15  1  0.916700  0.916700  0.500000  1.0  0.1227
  H  H16  1  0.083300  0.083300  0.000000  1.0  0.1229
  C  C17  1  0.305500  0.286900  0.752780  1.0  0.6305
  C  C18  1  0.956400  0.019400  0.626200  1.0  0.6886
  C  C19  1  0.543500  0.261900  0.749880  1.0  0.0316
  C  C20  1  0.455050  0.349950  0.750130  1.0  -0.143
  C  C21  1  0.036290  0.064310  0.561390  1.0  -0.1509
  C  C22  1  0.148800  0.173600  0.561050  1.0  0.0315
  C  C23  1  0.694500  0.713100  0.252780  1.0  0.6305
  C  C24  1  0.043600  0.980600  0.126200  1.0  0.6893
  C  C25  1  0.456500  0.738100  0.249880  1.0  0.0317
  C  C26  1  0.544950  0.650050  0.250130  1.0  -0.1437
  C  C27  1  0.963710  0.935690  0.061390  1.0  -0.1513
  C  C28  1  0.851200  0.826400  0.061050  1.0  0.0317
  C  C29  1  0.713100  0.694500  0.747220  1.0  0.6333
  C  C30  1  0.980600  0.043600  0.873800  1.0  0.6897
  C  C31  1  0.738100  0.456500  0.750120  1.0  0.0337
  C  C32  1  0.650050  0.544950  0.749870  1.0  -0.1422
  C  C33  1  0.935690  0.963710  0.938610  1.0  -0.1512
  C  C34  1  0.826400  0.851200  0.938950  1.0  0.037
  C  C35  1  0.286900  0.305500  0.247220  1.0  0.6327
  C  C36  1  0.019400  0.956400  0.373800  1.0  0.6893
  C  C37  1  0.261900  0.543500  0.250120  1.0  0.0317
  C  C38  1  0.349950  0.455050  0.249870  1.0  -0.1426
  C  C39  1  0.064310  0.036290  0.438610  1.0  -0.1521
  C  C40  1  0.173600  0.148800  0.438950  1.0  0.0362
  C  C41  1  0.778800  0.221200  0.750000  1.0  0.7261
  C  C42  1  0.684500  0.315500  0.750000  1.0  -0.1621
  C  C43  1  0.508600  0.491400  0.750000  1.0  0.0372
  C  C44  1  0.221200  0.778800  0.250000  1.0  0.7266
  C  C45  1  0.315500  0.684500  0.250000  1.0  -0.1617
  C  C46  1  0.491400  0.508600  0.250000  1.0  0.0377
  C  C47  1  0.993400  0.993400  0.500000  1.0  0.0268
  C  C48  1  0.217800  0.217800  0.500000  1.0  -0.1607
  C  C49  1  0.339300  0.339300  0.500000  1.0  0.6218
  C  C50  1  0.006600  0.006600  0.000000  1.0  0.0268
  C  C51  1  0.782200  0.782200  0.000000  1.0  -0.1616
  C  C52  1  0.660700  0.660700  0.000000  1.0  0.6213
  O  O53  1  0.219810  0.361130  0.746460  1.0  -0.5118
  O  O54  1  0.263350  0.159870  0.762650  1.0  -0.5065
  O  O55  1  0.843430  0.932970  0.623580  1.0  -0.5222
  O  O56  1  0.005700  0.069100  0.682310  1.0  -0.6383
  O  O57  1  0.726530  0.097990  0.734930  1.0  -0.5733
  O  O58  1  0.361200  0.409000  0.554430  1.0  -0.4036
  O  O59  1  0.780190  0.638870  0.246460  1.0  -0.5125
  O  O60  1  0.736650  0.840130  0.262650  1.0  -0.5069
  O  O61  1  0.156570  0.067030  0.123580  1.0  -0.5239
  O  O62  1  0.994300  0.930900  0.182310  1.0  -0.6383
  O  O63  1  0.273470  0.902010  0.234930  1.0  -0.5732
  O  O64  1  0.638800  0.591000  0.054430  1.0  -0.4081
  O  O65  1  0.638870  0.780190  0.753540  1.0  -0.5105
  O  O66  1  0.840130  0.736650  0.737350  1.0  -0.5091
  O  O67  1  0.067030  0.156570  0.876420  1.0  -0.5238
  O  O68  1  0.930900  0.994300  0.817690  1.0  -0.6399
  O  O69  1  0.902010  0.273470  0.765070  1.0  -0.5723
  O  O70  1  0.591000  0.638800  0.945570  1.0  -0.4083
  O  O71  1  0.361130  0.219810  0.253540  1.0  -0.5114
  O  O72  1  0.159870  0.263350  0.237350  1.0  -0.5076
  O  O73  1  0.932970  0.843430  0.376420  1.0  -0.5206
  O  O74  1  0.069100  0.005700  0.317690  1.0  -0.6401
  O  O75  1  0.097990  0.726530  0.265070  1.0  -0.5733
  O  O76  1  0.409000  0.361200  0.445570  1.0  -0.4045
