# generated using pymatgen
data_Cu4H13C26(NO2)6
_symmetry_space_group_name_H-M   'P 1'
_cell_length_a   16.00000000
_cell_length_b   19.19800000
_cell_length_c   21.41100000
_cell_angle_alpha   90.00000000
_cell_angle_beta   90.00000000
_cell_angle_gamma   99.86100000
_symmetry_Int_Tables_number   1
_chemical_formula_structural   Cu4H13C26(NO2)6
_chemical_formula_sum   'Cu16 H52 C104 N24 O48'
_cell_volume   6479.60961926
_cell_formula_units_Z   4
loop_
 _symmetry_equiv_pos_site_id
 _symmetry_equiv_pos_as_xyz
  1  'x, y, z'
loop_
 _atom_site_type_symbol
 _atom_site_label
 _atom_site_symmetry_multiplicity
 _atom_site_fract_x
 _atom_site_fract_y
 _atom_site_fract_z
 _atom_site_occupancy
 _atom_site_charge
  Cu  Cu1  1  0.638770  0.978090  0.350950  1.0  1.0959
  Cu  Cu2  1  0.510470  0.904160  0.227950  1.0  0.7844
  Cu  Cu3  1  0.687440  0.870600  0.261570  1.0  0.9672
  Cu  Cu4  1  0.812680  0.914640  0.374100  1.0  0.9987
  Cu  Cu5  1  0.361230  0.521910  0.850950  1.0  1.0955
  Cu  Cu6  1  0.489530  0.595840  0.727950  1.0  0.7845
  Cu  Cu7  1  0.312560  0.629400  0.761570  1.0  0.9673
  Cu  Cu8  1  0.187320  0.585360  0.874100  1.0  0.9974
  Cu  Cu9  1  0.361230  0.021910  0.649050  1.0  1.0959
  Cu  Cu10  1  0.489530  0.095840  0.772060  1.0  0.7852
  Cu  Cu11  1  0.312560  0.129400  0.738430  1.0  0.967
  Cu  Cu12  1  0.187320  0.085360  0.625900  1.0  0.9967
  Cu  Cu13  1  0.638770  0.478090  0.149050  1.0  1.0962
  Cu  Cu14  1  0.510470  0.404160  0.272060  1.0  0.7839
  Cu  Cu15  1  0.687440  0.370600  0.238430  1.0  0.967
  Cu  Cu16  1  0.812680  0.414640  0.125900  1.0  0.9974
  H  H17  1  0.122600  0.036800  0.337600  1.0  0.3182
  H  H18  1  0.048400  0.167800  0.128700  1.0  0.3071
  H  H19  1  0.177300  0.034400  0.435900  1.0  0.1201
  H  H20  1  0.310000  0.988300  0.287900  1.0  0.1142
  H  H21  1  0.410200  0.987700  0.460500  1.0  0.1131
  H  H22  1  0.957700  0.250200  0.158600  1.0  0.1234
  H  H23  1  0.319500  0.035000  0.137100  1.0  0.3098
  H  H24  1  0.947800  0.061900  0.242900  1.0  0.1151
  H  H25  1  0.201200  0.126400  0.037700  1.0  0.1156
  H  H26  1  0.233400  0.145300  0.934100  1.0  0.1037
  H  H27  1  0.443900  0.063100  0.955700  1.0  0.1017
  H  H28  1  0.407400  0.036400  0.057600  1.0  0.1183
  H  H29  1  0.763900  0.175700  0.273500  1.0  0.1136
  H  H30  1  0.877400  0.463200  0.837600  1.0  0.3157
  H  H31  1  0.951600  0.332200  0.628700  1.0  0.3091
  H  H32  1  0.822700  0.465600  0.935900  1.0  0.1209
  H  H33  1  0.690000  0.511700  0.787900  1.0  0.1136
  H  H34  1  0.589800  0.512300  0.960500  1.0  0.1127
  H  H35  1  0.042300  0.249800  0.658600  1.0  0.1237
  H  H36  1  0.680500  0.465000  0.637100  1.0  0.3114
  H  H37  1  0.052200  0.438100  0.742900  1.0  0.1154
  H  H38  1  0.798800  0.373600  0.537700  1.0  0.1161
  H  H39  1  0.766600  0.354700  0.434100  1.0  0.1038
  H  H40  1  0.556100  0.436900  0.455700  1.0  0.1022
  H  H41  1  0.592600  0.463600  0.557600  1.0  0.1178
  H  H42  1  0.236100  0.324300  0.773500  1.0  0.1138
  H  H43  1  0.877400  0.963200  0.662400  1.0  0.3157
  H  H44  1  0.951600  0.832200  0.871300  1.0  0.3088
  H  H45  1  0.822700  0.965600  0.564100  1.0  0.1204
  H  H46  1  0.690000  0.011700  0.712100  1.0  0.1141
  H  H47  1  0.589800  0.012300  0.539500  1.0  0.113
  H  H48  1  0.042300  0.749800  0.841400  1.0  0.1238
  H  H49  1  0.680500  0.965000  0.862900  1.0  0.3117
  H  H50  1  0.052200  0.938100  0.757100  1.0  0.1151
  H  H51  1  0.798800  0.873600  0.962300  1.0  0.1165
  H  H52  1  0.766600  0.854700  0.065900  1.0  0.1038
  H  H53  1  0.556100  0.936900  0.044300  1.0  0.1019
  H  H54  1  0.592600  0.963600  0.942400  1.0  0.1183
  H  H55  1  0.236100  0.824300  0.726500  1.0  0.1134
  H  H56  1  0.122600  0.536800  0.162400  1.0  0.3175
  H  H57  1  0.048400  0.667800  0.371300  1.0  0.3073
  H  H58  1  0.177300  0.534400  0.064100  1.0  0.1197
  H  H59  1  0.310000  0.488300  0.212100  1.0  0.1145
  H  H60  1  0.410200  0.487700  0.039500  1.0  0.1129
  H  H61  1  0.957700  0.750200  0.341400  1.0  0.1236
  H  H62  1  0.319500  0.535000  0.362900  1.0  0.3108
  H  H63  1  0.947800  0.561900  0.257100  1.0  0.1148
  H  H64  1  0.201200  0.626400  0.462300  1.0  0.1159
  H  H65  1  0.233400  0.645300  0.565900  1.0  0.1034
  H  H66  1  0.443900  0.563100  0.544300  1.0  0.1018
  H  H67  1  0.407400  0.536400  0.442400  1.0  0.1183
  H  H68  1  0.763900  0.675700  0.226500  1.0  0.1135
  C  C69  1  0.966190  0.154700  0.197430  1.0  0.2055
  C  C70  1  0.226880  0.023030  0.419200  1.0  -0.1287
  C  C71  1  0.169080  0.058700  0.257830  1.0  0.6887
  C  C72  1  0.104490  0.113610  0.184470  1.0  0.6779
  C  C73  1  0.306000  0.995860  0.330670  1.0  -0.11
  C  C74  1  0.291190  0.010650  0.459070  1.0  -0.1426
  C  C75  1  0.235210  0.018770  0.355060  1.0  0.2075
  C  C76  1  0.221920  0.071410  0.161220  1.0  0.6775
  C  C77  1  0.365340  0.993170  0.434390  1.0  -0.0005
  C  C78  1  0.930940  0.215470  0.185590  1.0  -0.126
  C  C79  1  0.299800  0.077820  0.058460  1.0  0.2729
  C  C80  1  0.924480  0.102320  0.235490  1.0  -0.1021
  C  C81  1  0.249100  0.111900  0.021070  1.0  -0.1922
  C  C82  1  0.282890  0.019750  0.528600  1.0  0.7184
  C  C83  1  0.269400  0.124200  0.959200  1.0  -0.0034
  C  C84  1  0.342190  0.106040  0.933200  1.0  -0.1861
  C  C85  1  0.393800  0.074400  0.971580  1.0  0.013
  C  C86  1  0.363100  0.116280  0.865540  1.0  0.7195
  C  C87  1  0.372600  0.059300  0.033000  1.0  -0.2432
  C  C88  1  0.854730  0.223020  0.215070  1.0  -0.1366
  C  C89  1  0.847360  0.109400  0.263140  1.0  -0.1304
  C  C90  1  0.798300  0.048260  0.298930  1.0  0.7063
  C  C91  1  0.814090  0.170220  0.253680  1.0  0.0039
  C  C92  1  0.817100  0.288940  0.203630  1.0  0.7255
  C  C93  1  0.371670  0.984080  0.370630  1.0  -0.1073
  C  C94  1  0.450310  0.963360  0.342580  1.0  0.7356
  C  C95  1  0.033810  0.345300  0.697430  1.0  0.2048
  C  C96  1  0.773120  0.476970  0.919200  1.0  -0.1275
  C  C97  1  0.830920  0.441300  0.757830  1.0  0.6886
  C  C98  1  0.895510  0.386390  0.684470  1.0  0.6786
  C  C99  1  0.694000  0.504140  0.830670  1.0  -0.11
  C  C100  1  0.708810  0.489350  0.959070  1.0  -0.144
  C  C101  1  0.764790  0.481230  0.855060  1.0  0.2068
  C  C102  1  0.778080  0.428590  0.661220  1.0  0.6793
  C  C103  1  0.634660  0.506830  0.934390  1.0  0.0022
  C  C104  1  0.069060  0.284530  0.685590  1.0  -0.1253
  C  C105  1  0.700200  0.422180  0.558460  1.0  0.2736
  C  C106  1  0.075520  0.397680  0.735490  1.0  -0.1036
  C  C107  1  0.750900  0.388100  0.521070  1.0  -0.1932
  C  C108  1  0.717110  0.480250  0.028600  1.0  0.7192
  C  C109  1  0.730600  0.375800  0.459200  1.0  -0.0042
  C  C110  1  0.657810  0.393960  0.433200  1.0  -0.1871
  C  C111  1  0.606200  0.425600  0.471580  1.0  0.0134
  C  C112  1  0.636900  0.383720  0.365540  1.0  0.7198
  C  C113  1  0.627400  0.440700  0.533000  1.0  -0.2455
  C  C114  1  0.145270  0.276980  0.715070  1.0  -0.1372
  C  C115  1  0.152640  0.390600  0.763140  1.0  -0.1306
  C  C116  1  0.201700  0.451740  0.798930  1.0  0.7065
  C  C117  1  0.185910  0.329780  0.753680  1.0  0.006
  C  C118  1  0.182900  0.211060  0.703630  1.0  0.7252
  C  C119  1  0.628330  0.515920  0.870630  1.0  -0.1072
  C  C120  1  0.549690  0.536640  0.842580  1.0  0.7354
  C  C121  1  0.033810  0.845300  0.802570  1.0  0.2049
  C  C122  1  0.773120  0.976970  0.580800  1.0  -0.1245
  C  C123  1  0.830920  0.941300  0.742170  1.0  0.6887
  C  C124  1  0.895510  0.886390  0.815530  1.0  0.6782
  C  C125  1  0.694000  0.004140  0.669330  1.0  -0.1105
  C  C126  1  0.708810  0.989350  0.540930  1.0  -0.14
  C  C127  1  0.764790  0.981230  0.644940  1.0  0.2069
  C  C128  1  0.778080  0.928590  0.838780  1.0  0.6792
  C  C129  1  0.634660  0.006830  0.565610  1.0  0.0007
  C  C130  1  0.069060  0.784530  0.814410  1.0  -0.1251
  C  C131  1  0.700200  0.922180  0.941540  1.0  0.2732
  C  C132  1  0.075520  0.897680  0.764510  1.0  -0.1036
  C  C133  1  0.750900  0.888100  0.978930  1.0  -0.1933
  C  C134  1  0.717110  0.980250  0.471400  1.0  0.7182
  C  C135  1  0.730600  0.875800  0.040800  1.0  -0.0031
  C  C136  1  0.657810  0.893960  0.066800  1.0  -0.1888
  C  C137  1  0.606200  0.925600  0.028420  1.0  0.0136
  C  C138  1  0.636900  0.883720  0.134460  1.0  0.7189
  C  C139  1  0.627400  0.940700  0.967000  1.0  -0.2461
  C  C140  1  0.145270  0.776980  0.784930  1.0  -0.1377
  C  C141  1  0.152640  0.890600  0.736860  1.0  -0.1294
  C  C142  1  0.201700  0.951740  0.701070  1.0  0.7063
  C  C143  1  0.185910  0.829780  0.746320  1.0  0.0049
  C  C144  1  0.182900  0.711060  0.796370  1.0  0.7254
  C  C145  1  0.628330  0.015920  0.629370  1.0  -0.1071
  C  C146  1  0.549690  0.036640  0.657420  1.0  0.7354
  C  C147  1  0.966190  0.654700  0.302570  1.0  0.2056
  C  C148  1  0.226880  0.523030  0.080800  1.0  -0.1262
  C  C149  1  0.169080  0.558700  0.242170  1.0  0.6889
  C  C150  1  0.104490  0.613610  0.315530  1.0  0.6777
  C  C151  1  0.306000  0.495860  0.169330  1.0  -0.1105
  C  C152  1  0.291190  0.510650  0.040930  1.0  -0.1386
  C  C153  1  0.235210  0.518770  0.144940  1.0  0.2077
  C  C154  1  0.221920  0.571410  0.338780  1.0  0.6773
  C  C155  1  0.365340  0.493170  0.065610  1.0  -0.0021
  C  C156  1  0.930940  0.715470  0.314410  1.0  -0.1255
  C  C157  1  0.299800  0.577820  0.441540  1.0  0.2726
  C  C158  1  0.924480  0.602320  0.264510  1.0  -0.1024
  C  C159  1  0.249100  0.611900  0.478930  1.0  -0.1923
  C  C160  1  0.282890  0.519750  0.971400  1.0  0.7181
  C  C161  1  0.269400  0.624200  0.540800  1.0  -0.0027
  C  C162  1  0.342190  0.606040  0.566800  1.0  -0.1885
  C  C163  1  0.393800  0.574400  0.528420  1.0  0.013
  C  C164  1  0.363100  0.616280  0.634460  1.0  0.7185
  C  C165  1  0.372600  0.559300  0.467000  1.0  -0.2437
  C  C166  1  0.854730  0.723020  0.284930  1.0  -0.137
  C  C167  1  0.847360  0.609400  0.236860  1.0  -0.13
  C  C168  1  0.798300  0.548260  0.201070  1.0  0.7062
  C  C169  1  0.814090  0.670220  0.246320  1.0  0.0031
  C  C170  1  0.817100  0.788940  0.296370  1.0  0.7256
  C  C171  1  0.371670  0.484080  0.129370  1.0  -0.1073
  C  C172  1  0.450310  0.463360  0.157420  1.0  0.7356
  N  N173  1  0.229680  0.046070  0.218950  1.0  -0.6511
  N  N174  1  0.163150  0.107600  0.141150  1.0  -0.6193
  N  N175  1  0.103330  0.090850  0.243520  1.0  -0.6454
  N  N176  1  0.170050  0.038190  0.318310  1.0  -0.4344
  N  N177  1  0.041690  0.147980  0.164760  1.0  -0.451
  N  N178  1  0.283860  0.058840  0.121140  1.0  -0.4102
  N  N179  1  0.770320  0.453930  0.718950  1.0  -0.6496
  N  N180  1  0.836850  0.392400  0.641150  1.0  -0.6205
  N  N181  1  0.896670  0.409150  0.743520  1.0  -0.6485
  N  N182  1  0.829950  0.461810  0.818310  1.0  -0.4346
  N  N183  1  0.958310  0.352020  0.664760  1.0  -0.4508
  N  N184  1  0.716140  0.441160  0.621140  1.0  -0.4128
  N  N185  1  0.770320  0.953930  0.781050  1.0  -0.6494
  N  N186  1  0.836850  0.892400  0.858850  1.0  -0.618
  N  N187  1  0.896670  0.909150  0.756480  1.0  -0.6495
  N  N188  1  0.829950  0.961810  0.681690  1.0  -0.4343
  N  N189  1  0.958310  0.852020  0.835240  1.0  -0.4487
  N  N190  1  0.716140  0.941160  0.878860  1.0  -0.4124
  N  N191  1  0.229680  0.546070  0.281050  1.0  -0.6511
  N  N192  1  0.163150  0.607600  0.358850  1.0  -0.618
  N  N193  1  0.103330  0.590850  0.256480  1.0  -0.6461
  N  N194  1  0.170050  0.538190  0.181690  1.0  -0.4342
  N  N195  1  0.041690  0.647980  0.335240  1.0  -0.4493
  N  N196  1  0.283860  0.558840  0.378860  1.0  -0.4106
  O  O197  1  0.343960  0.006770  0.561380  1.0  -0.5512
  O  O198  1  0.216450  0.038920  0.548150  1.0  -0.6414
  O  O199  1  0.306600  0.129670  0.828850  1.0  -0.5455
  O  O200  1  0.437450  0.110540  0.850620  1.0  -0.5998
  O  O201  1  0.730820  0.058650  0.325340  1.0  -0.5832
  O  O202  1  0.824290  0.990210  0.297500  1.0  -0.652
  O  O203  1  0.757530  0.297890  0.239310  1.0  -0.5649
  O  O204  1  0.847870  0.328630  0.160850  1.0  -0.6185
  O  O205  1  0.695540  0.885080  0.351490  1.0  -0.7576
  O  O206  1  0.619350  0.949510  0.263130  1.0  -0.7644
  O  O207  1  0.517730  0.979620  0.370950  1.0  -0.5712
  O  O208  1  0.439570  0.930040  0.292340  1.0  -0.6014
  O  O209  1  0.656040  0.493230  0.061380  1.0  -0.5527
  O  O210  1  0.783550  0.461080  0.048150  1.0  -0.641
  O  O211  1  0.693400  0.370330  0.328850  1.0  -0.5466
  O  O212  1  0.562550  0.389460  0.350620  1.0  -0.5997
  O  O213  1  0.269180  0.441350  0.825340  1.0  -0.5826
  O  O214  1  0.175710  0.509790  0.797500  1.0  -0.6537
  O  O215  1  0.242470  0.202110  0.739310  1.0  -0.5647
  O  O216  1  0.152130  0.171370  0.660850  1.0  -0.6169
  O  O217  1  0.304460  0.614920  0.851490  1.0  -0.7564
  O  O218  1  0.380650  0.550490  0.763130  1.0  -0.7643
  O  O219  1  0.482270  0.520380  0.870950  1.0  -0.5724
  O  O220  1  0.560430  0.569960  0.792340  1.0  -0.6015
  O  O221  1  0.656040  0.993230  0.438620  1.0  -0.5521
  O  O222  1  0.783550  0.961080  0.451850  1.0  -0.6405
  O  O223  1  0.693400  0.870330  0.171150  1.0  -0.5463
  O  O224  1  0.562550  0.889460  0.149380  1.0  -0.5997
  O  O225  1  0.269180  0.941350  0.674660  1.0  -0.5826
  O  O226  1  0.175710  0.009790  0.702500  1.0  -0.6542
  O  O227  1  0.242470  0.702110  0.760690  1.0  -0.5656
  O  O228  1  0.152130  0.671370  0.839150  1.0  -0.6175
  O  O229  1  0.304460  0.114920  0.648510  1.0  -0.7563
  O  O230  1  0.380650  0.050490  0.736870  1.0  -0.7649
  O  O231  1  0.482270  0.020380  0.629050  1.0  -0.5725
  O  O232  1  0.560430  0.069960  0.707660  1.0  -0.6019
  O  O233  1  0.343960  0.506770  0.938620  1.0  -0.5505
  O  O234  1  0.216450  0.538920  0.951850  1.0  -0.6406
  O  O235  1  0.306600  0.629670  0.671150  1.0  -0.5459
  O  O236  1  0.437450  0.610540  0.649380  1.0  -0.5997
  O  O237  1  0.730820  0.558650  0.174660  1.0  -0.5825
  O  O238  1  0.824290  0.490210  0.202500  1.0  -0.6525
  O  O239  1  0.757530  0.797890  0.260690  1.0  -0.5663
  O  O240  1  0.847870  0.828630  0.339150  1.0  -0.6169
  O  O241  1  0.695540  0.385080  0.148510  1.0  -0.7572
  O  O242  1  0.619350  0.449510  0.236870  1.0  -0.7642
  O  O243  1  0.517730  0.479620  0.129050  1.0  -0.5713
  O  O244  1  0.439570  0.430040  0.207660  1.0  -0.6009
