# generated using pymatgen
data_CuH15C27O4
_symmetry_space_group_name_H-M   'P 1'
_cell_length_a   13.78100000
_cell_length_b   25.03690000
_cell_length_c   25.03690000
_cell_angle_alpha   73.23330000
_cell_angle_beta   74.02520000
_cell_angle_gamma   74.02510000
_symmetry_Int_Tables_number   1
_chemical_formula_structural   CuH15C27O4
_chemical_formula_sum   'Cu4 H60 C108 O16'
_cell_volume   7769.88911437
_cell_formula_units_Z   4
loop_
 _symmetry_equiv_pos_site_id
 _symmetry_equiv_pos_as_xyz
  1  'x, y, z'
loop_
 _atom_site_type_symbol
 _atom_site_label
 _atom_site_symmetry_multiplicity
 _atom_site_fract_x
 _atom_site_fract_y
 _atom_site_fract_z
 _atom_site_occupancy
 _atom_site_charge
  Cu  Cu1  1  0.558620  0.121180  0.918140  1.0  0.9107
  Cu  Cu2  1  0.441380  0.081860  0.878820  1.0  0.9119
  Cu  Cu3  1  0.902060  0.621180  0.418140  1.0  0.9118
  Cu  Cu4  1  0.097940  0.581860  0.378820  1.0  0.911
  H  H5  1  0.600700  0.103500  0.700300  1.0  0.098
  H  H6  1  0.086800  0.407700  0.396500  1.0  0.0879
  H  H7  1  0.840500  0.217000  0.667600  1.0  0.0901
  H  H8  1  0.764300  0.178800  0.760600  1.0  0.0895
  H  H9  1  0.969200  0.247100  0.417500  1.0  0.0897
  H  H10  1  0.703800  0.133400  0.613400  1.0  0.0917
  H  H11  1  0.778100  0.367100  0.511900  1.0  0.0968
  H  H12  1  0.073200  0.309900  0.425900  1.0  0.1282
  H  H13  1  0.662800  0.164900  0.410300  1.0  0.2238
  H  H14  1  0.819000  0.215200  0.397400  1.0  0.0752
  H  H15  1  0.835200  0.274700  0.575900  1.0  0.1
  H  H16  1  0.853100  0.126200  0.542600  1.0  0.0781
  H  H17  1  0.806200  0.460100  0.491900  1.0  0.0941
  H  H18  1  0.077900  0.099700  0.522700  1.0  0.0773
  H  H19  1  0.218300  0.034700  0.527900  1.0  0.0803
  H  H20  1  0.399300  0.299700  0.896500  1.0  0.0981
  H  H21  1  0.913200  0.603500  0.592300  1.0  0.0887
  H  H22  1  0.159500  0.332400  0.783000  1.0  0.089
  H  H23  1  0.235700  0.239400  0.821200  1.0  0.0889
  H  H24  1  0.030800  0.582500  0.752900  1.0  0.0896
  H  H25  1  0.296200  0.386600  0.866600  1.0  0.0895
  H  H26  1  0.221900  0.488100  0.632900  1.0  0.0968
  H  H27  1  0.926800  0.574100  0.690100  1.0  0.1273
  H  H28  1  0.337200  0.589700  0.835100  1.0  0.2224
  H  H29  1  0.181000  0.602600  0.784800  1.0  0.0763
  H  H30  1  0.164800  0.424100  0.725300  1.0  0.1005
  H  H31  1  0.146900  0.457400  0.873800  1.0  0.0776
  H  H32  1  0.193800  0.508100  0.539900  1.0  0.0942
  H  H33  1  0.922100  0.477300  0.900300  1.0  0.0748
  H  H34  1  0.781700  0.472100  0.965300  1.0  0.0815
  H  H35  1  0.095500  0.603500  0.200300  1.0  0.0976
  H  H36  1  0.609000  0.907700  0.896500  1.0  0.0882
  H  H37  1  0.774900  0.717000  0.167600  1.0  0.0902
  H  H38  1  0.796300  0.678800  0.260600  1.0  0.0903
  H  H39  1  0.866200  0.747100  0.917500  1.0  0.0894
  H  H40  1  0.049400  0.633400  0.113400  1.0  0.0917
  H  H41  1  0.842900  0.867100  0.011900  1.0  0.0961
  H  H42  1  0.691000  0.809900  0.925900  1.0  0.129
  H  H43  1  0.262000  0.664900  0.910300  1.0  0.2307
  H  H44  1  0.068400  0.715200  0.897400  1.0  0.0731
  H  H45  1  0.814200  0.774700  0.075900  1.0  0.0995
  H  H46  1  0.978100  0.626200  0.042600  1.0  0.0819
  H  H47  1  0.741800  0.960100  0.991900  1.0  0.0924
  H  H48  1  0.799700  0.599700  0.022700  1.0  0.0783
  H  H49  1  0.719100  0.534700  0.027900  1.0  0.0795
  H  H50  1  0.904500  0.799700  0.396500  1.0  0.099
  H  H51  1  0.391000  0.103500  0.092300  1.0  0.0895
  H  H52  1  0.225100  0.832400  0.283000  1.0  0.09
  H  H53  1  0.203700  0.739400  0.321200  1.0  0.0904
  H  H54  1  0.133800  0.082500  0.252900  1.0  0.0889
  H  H55  1  0.950600  0.886600  0.366600  1.0  0.0913
  H  H56  1  0.157100  0.988100  0.132900  1.0  0.0969
  H  H57  1  0.309000  0.074100  0.190100  1.0  0.1289
  H  H58  1  0.738000  0.089700  0.335100  1.0  0.2315
  H  H59  1  0.931600  0.102600  0.284800  1.0  0.0751
  H  H60  1  0.185800  0.924100  0.225300  1.0  0.1004
  H  H61  1  0.021900  0.957400  0.373800  1.0  0.0833
  H  H62  1  0.258200  0.008100  0.039900  1.0  0.0917
  H  H63  1  0.200300  0.977300  0.400300  1.0  0.0747
  H  H64  1  0.280900  0.972100  0.465300  1.0  0.0794
  C  C65  1  0.972100  0.500300  0.421100  1.0  0.6953
  C  C66  1  0.650900  0.123700  0.695700  1.0  -0.086
  C  C67  1  0.671000  0.140600  0.739800  1.0  -0.1076
  C  C68  1  0.950100  0.442300  0.439300  1.0  -0.19
  C  C69  1  0.027000  0.398200  0.421400  1.0  -0.063
  C  C70  1  0.802000  0.189800  0.674000  1.0  -0.1684
  C  C71  1  0.748600  0.171100  0.730100  1.0  -0.1375
  C  C72  1  0.938900  0.233400  0.455400  1.0  -0.0921
  C  C73  1  0.717900  0.141900  0.643900  1.0  -0.1209
  C  C74  1  0.968030  0.136670  0.437870  1.0  -0.0377
  C  C75  1  0.842000  0.375400  0.492200  1.0  -0.091
  C  C76  1  0.021600  0.339300  0.438300  1.0  -0.1439
  C  C77  1  0.731000  0.154900  0.391300  1.0  0.1271
  C  C78  1  0.841000  0.194400  0.570400  1.0  0.0595
  C  C79  1  0.919200  0.266900  0.496300  1.0  -0.0909
  C  C80  1  0.921400  0.143200  0.395600  1.0  0.2492
  C  C81  1  0.068400  0.096200  0.451200  1.0  0.1031
  C  C82  1  0.612000  0.126700  0.804300  1.0  0.5984
  C  C83  1  0.828500  0.177500  0.395300  1.0  -0.0346
  C  C84  1  0.860640  0.249560  0.551760  1.0  -0.1475
  C  C85  1  0.801700  0.170000  0.626600  1.0  0.0405
  C  C86  1  0.866800  0.162600  0.530600  1.0  -0.1332
  C  C87  1  0.925700  0.331900  0.476900  1.0  -0.0693
  C  C88  1  0.856100  0.431200  0.477400  1.0  -0.1194
  C  C89  1  0.913120  0.180980  0.471980  1.0  0.0387
  C  C90  1  0.107100  0.080700  0.493300  1.0  -0.114
  C  C91  1  0.184900  0.040000  0.498600  1.0  -0.0363
  C  C92  1  0.027900  0.578900  0.499700  1.0  0.6958
  C  C93  1  0.349100  0.304300  0.876300  1.0  -0.0823
  C  C94  1  0.329000  0.260200  0.859400  1.0  -0.1044
  C  C95  1  0.049900  0.560700  0.557700  1.0  -0.1918
  C  C96  1  0.973000  0.578600  0.601800  1.0  -0.0656
  C  C97  1  0.198000  0.326000  0.810200  1.0  -0.1683
  C  C98  1  0.251400  0.269900  0.828900  1.0  -0.1368
  C  C99  1  0.061100  0.544600  0.766600  1.0  -0.0932
  C  C100  1  0.282100  0.356100  0.858100  1.0  -0.1171
  C  C101  1  0.031970  0.562130  0.863330  1.0  -0.0353
  C  C102  1  0.158000  0.507800  0.624600  1.0  -0.0865
  C  C103  1  0.978400  0.561700  0.660700  1.0  -0.1457
  C  C104  1  0.269000  0.608700  0.845100  1.0  0.1297
  C  C105  1  0.159000  0.429600  0.805600  1.0  0.0578
  C  C106  1  0.080800  0.503700  0.733100  1.0  -0.0909
  C  C107  1  0.078600  0.604400  0.856800  1.0  0.2422
  C  C108  1  0.931600  0.548800  0.903800  1.0  0.1019
  C  C109  1  0.388000  0.195700  0.873300  1.0  0.5976
  C  C110  1  0.171500  0.604700  0.822500  1.0  -0.036
  C  C111  1  0.139360  0.448240  0.750440  1.0  -0.1459
  C  C112  1  0.198300  0.373400  0.830000  1.0  0.04
  C  C113  1  0.133200  0.469400  0.837400  1.0  -0.1272
  C  C114  1  0.074300  0.523100  0.668100  1.0  -0.0693
  C  C115  1  0.143900  0.522600  0.568800  1.0  -0.1155
  C  C116  1  0.086880  0.528020  0.819020  1.0  0.0391
  C  C117  1  0.892900  0.506700  0.919300  1.0  -0.1126
  C  C118  1  0.815100  0.501400  0.960000  1.0  -0.0394
  C  C119  1  0.606500  0.000300  0.921100  1.0  0.6943
  C  C120  1  0.029700  0.623700  0.195700  1.0  -0.0815
  C  C121  1  0.948600  0.640600  0.239800  1.0  -0.1063
  C  C122  1  0.668300  0.942300  0.939300  1.0  -0.192
  C  C123  1  0.653400  0.898200  0.921400  1.0  -0.0633
  C  C124  1  0.834200  0.689800  0.174000  1.0  -0.1702
  C  C125  1  0.850200  0.671100  0.230100  1.0  -0.1405
  C  C126  1  0.872300  0.733400  0.955400  1.0  -0.0902
  C  C127  1  0.996300  0.641900  0.143900  1.0  -0.1186
  C  C128  1  0.957430  0.636670  0.937870  1.0  -0.0217
  C  C129  1  0.790400  0.875400  0.992200  1.0  -0.0877
  C  C130  1  0.700800  0.839300  0.938300  1.0  -0.1456
  C  C131  1  0.222800  0.654900  0.891300  1.0  0.1275
  C  C132  1  0.894200  0.694400  0.070400  1.0  0.0601
  C  C133  1  0.817600  0.766900  0.996300  1.0  -0.0908
  C  C134  1  0.039800  0.643200  0.895600  1.0  0.2489
  C  C135  1  0.884200  0.596200  0.951200  1.0  0.1072
  C  C136  1  0.957000  0.626700  0.304300  1.0  0.5955
  C  C137  1  0.098700  0.677500  0.895300  1.0  -0.0343
  C  C138  1  0.838040  0.749560  0.051760  1.0  -0.1484
  C  C139  1  0.901700  0.670000  0.126600  1.0  0.0379
  C  C140  1  0.940000  0.662600  0.030600  1.0  -0.1319
  C  C141  1  0.765500  0.831900  0.976900  1.0  -0.0699
  C  C142  1  0.735300  0.931200  0.977400  1.0  -0.1166
  C  C143  1  0.933920  0.680980  0.971980  1.0  0.0395
  C  C144  1  0.818900  0.580700  0.993300  1.0  -0.1155
  C  C145  1  0.776500  0.540000  0.998600  1.0  -0.044
  C  C146  1  0.393500  0.078900  0.999700  1.0  0.6951
  C  C147  1  0.970300  0.804300  0.376300  1.0  -0.0856
  C  C148  1  0.051400  0.760200  0.359400  1.0  -0.1056
  C  C149  1  0.331700  0.060700  0.057700  1.0  -0.1907
  C  C150  1  0.346600  0.078600  0.101800  1.0  -0.0647
  C  C151  1  0.165800  0.826000  0.310200  1.0  -0.1675
  C  C152  1  0.149800  0.769900  0.328900  1.0  -0.1353
  C  C153  1  0.127700  0.044600  0.266600  1.0  -0.0934
  C  C154  1  0.003700  0.856100  0.358100  1.0  -0.1176
  C  C155  1  0.042570  0.062130  0.363330  1.0  -0.0213
  C  C156  1  0.209600  0.007800  0.124600  1.0  -0.0883
  C  C157  1  0.299200  0.061700  0.160700  1.0  -0.1427
  C  C158  1  0.777200  0.108700  0.345100  1.0  0.1293
  C  C159  1  0.105800  0.929600  0.305600  1.0  0.0575
  C  C160  1  0.182400  0.003700  0.233100  1.0  -0.0903
  C  C161  1  0.960200  0.104400  0.356800  1.0  0.247
  C  C162  1  0.115800  0.048800  0.403800  1.0  0.1047
  C  C163  1  0.043000  0.695700  0.373300  1.0  0.598
  C  C164  1  0.901300  0.104700  0.322500  1.0  -0.0358
  C  C165  1  0.161960  0.948240  0.250440  1.0  -0.1476
  C  C166  1  0.098300  0.873400  0.330000  1.0  0.0375
  C  C167  1  0.060000  0.969400  0.337400  1.0  -0.1311
  C  C168  1  0.234500  0.023100  0.168100  1.0  -0.071
  C  C169  1  0.264700  0.022600  0.068800  1.0  -0.1147
  C  C170  1  0.066080  0.028020  0.319020  1.0  0.0391
  C  C171  1  0.181100  0.006700  0.419300  1.0  -0.1134
  C  C172  1  0.223500  0.001400  0.460000  1.0  -0.0435
  O  O173  1  0.056630  0.506240  0.397700  1.0  -0.5864
  O  O174  1  0.533320  0.101380  0.807980  1.0  -0.583
  O  O175  1  0.642840  0.134990  0.840730  1.0  -0.563
  O  O176  1  0.895180  0.540270  0.431570  1.0  -0.6233
  O  O177  1  0.943370  0.602300  0.493760  1.0  -0.5869
  O  O178  1  0.466680  0.192020  0.898620  1.0  -0.58
  O  O179  1  0.357160  0.159270  0.865010  1.0  -0.5634
  O  O180  1  0.104820  0.568430  0.459730  1.0  -0.6225
  O  O181  1  0.539430  0.006240  0.897700  1.0  -0.5867
  O  O182  1  0.057320  0.601380  0.307980  1.0  -0.5807
  O  O183  1  0.881440  0.634990  0.340730  1.0  -0.5625
  O  O184  1  0.632980  0.040270  0.931570  1.0  -0.6243
  O  O185  1  0.460570  0.102300  0.993760  1.0  -0.5878
  O  O186  1  0.942680  0.692020  0.398620  1.0  -0.5821
  O  O187  1  0.118560  0.659270  0.365010  1.0  -0.5623
  O  O188  1  0.367020  0.068430  0.959730  1.0  -0.6241
