# generated using pymatgen
data_LaH15(C2O)6
_symmetry_space_group_name_H-M   'P 1'
_cell_length_a   9.87850000
_cell_length_b   11.19860000
_cell_length_c   14.74560000
_cell_angle_alpha   93.91900000
_cell_angle_beta   97.40900000
_cell_angle_gamma   104.51700000
_symmetry_Int_Tables_number   1
_chemical_formula_structural   LaH15(C2O)6
_chemical_formula_sum   'La4 H60 C48 O24'
_cell_volume   1557.33878438
_cell_formula_units_Z   4
loop_
 _symmetry_equiv_pos_site_id
 _symmetry_equiv_pos_as_xyz
  1  'x, y, z'
loop_
 _atom_site_type_symbol
 _atom_site_label
 _atom_site_symmetry_multiplicity
 _atom_site_fract_x
 _atom_site_fract_y
 _atom_site_fract_z
 _atom_site_occupancy
 _atom_site_charge
  La  La1  1  0.381970  0.524800  0.882450  1.0  2.216
  La  La2  1  0.175820  0.578470  0.614740  1.0  2.1591
  La  La3  1  0.618030  0.475200  0.117550  1.0  2.2138
  La  La4  1  0.824180  0.421530  0.385260  1.0  2.1595
  H  H5  1  0.136000  0.889700  0.807200  1.0  0.0826
  H  H6  1  0.412100  0.905700  0.880000  1.0  0.0713
  H  H7  1  0.354000  0.922900  0.779200  1.0  0.081
  H  H8  1  0.050100  0.862200  0.932400  1.0  0.0619
  H  H9  1  0.196500  0.863200  0.988300  1.0  0.0664
  H  H10  1  0.167700  0.053200  0.026000  1.0  0.0693
  H  H11  1  0.113800  0.068600  0.924100  1.0  0.0639
  H  H12  1  0.332900  0.112800  0.818500  1.0  0.0804
  H  H13  1  0.475200  0.111300  0.878800  1.0  0.0769
  H  H14  1  0.375300  0.077500  0.001500  1.0  0.0774
  H  H15  1  0.054700  0.232500  0.808900  1.0  0.101
  H  H16  1  0.841100  0.171600  0.700300  1.0  0.0843
  H  H17  1  0.827000  0.133400  0.799600  1.0  0.0888
  H  H18  1  0.086500  0.415700  0.911500  1.0  0.0524
  H  H19  1  0.982000  0.298000  0.938700  1.0  0.0784
  H  H20  1  0.885200  0.467800  0.951900  1.0  0.0708
  H  H21  1  0.895400  0.487600  0.848300  1.0  0.0763
  H  H22  1  0.634800  0.207800  0.752300  1.0  0.0806
  H  H23  1  0.731600  0.328300  0.723100  1.0  0.0868
  H  H24  1  0.723500  0.272100  0.906400  1.0  0.0886
  H  H25  1  0.908200  0.762500  0.638900  1.0  0.0943
  H  H26  1  0.769500  0.857300  0.544400  1.0  0.0813
  H  H27  1  0.633200  0.752000  0.550500  1.0  0.0834
  H  H28  1  0.812700  0.574700  0.697300  1.0  0.0855
  H  H29  1  0.660300  0.571000  0.649000  1.0  0.09
  H  H30  1  0.682100  0.641800  0.803400  1.0  0.0738
  H  H31  1  0.817400  0.747300  0.795500  1.0  0.0788
  H  H32  1  0.788300  0.927000  0.699000  1.0  0.0767
  H  H33  1  0.636300  0.923400  0.650100  1.0  0.0796
  H  H34  1  0.633600  0.837500  0.793100  1.0  0.1007
  H  H35  1  0.864000  0.110300  0.192800  1.0  0.0812
  H  H36  1  0.587900  0.094300  0.120000  1.0  0.0754
  H  H37  1  0.646000  0.077100  0.220800  1.0  0.082
  H  H38  1  0.949900  0.137800  0.067600  1.0  0.0635
  H  H39  1  0.803500  0.136800  0.011700  1.0  0.0669
  H  H40  1  0.832300  0.946800  0.974000  1.0  0.0701
  H  H41  1  0.886200  0.931400  0.075900  1.0  0.0648
  H  H42  1  0.667100  0.887200  0.181500  1.0  0.0814
  H  H43  1  0.524800  0.888700  0.121200  1.0  0.0757
  H  H44  1  0.624700  0.922500  0.998500  1.0  0.0802
  H  H45  1  0.945300  0.767500  0.191100  1.0  0.0993
  H  H46  1  0.158900  0.828400  0.299700  1.0  0.0858
  H  H47  1  0.173000  0.866600  0.200400  1.0  0.0809
  H  H48  1  0.913500  0.584300  0.088500  1.0  0.0492
  H  H49  1  0.018000  0.702000  0.061300  1.0  0.078
  H  H50  1  0.114800  0.532200  0.048100  1.0  0.0723
  H  H51  1  0.104600  0.512400  0.151700  1.0  0.077
  H  H52  1  0.365200  0.792200  0.247700  1.0  0.081
  H  H53  1  0.268400  0.671700  0.276900  1.0  0.0874
  H  H54  1  0.276500  0.727900  0.093600  1.0  0.0884
  H  H55  1  0.091800  0.237500  0.361100  1.0  0.0922
  H  H56  1  0.230500  0.142700  0.455600  1.0  0.0826
  H  H57  1  0.366800  0.248000  0.449500  1.0  0.0838
  H  H58  1  0.187300  0.425300  0.302700  1.0  0.0861
  H  H59  1  0.339700  0.429000  0.351000  1.0  0.091
  H  H60  1  0.317900  0.358200  0.196600  1.0  0.0747
  H  H61  1  0.182600  0.252700  0.204500  1.0  0.0776
  H  H62  1  0.211700  0.073000  0.301000  1.0  0.0774
  H  H63  1  0.363700  0.076600  0.349900  1.0  0.0816
  H  H64  1  0.366400  0.162500  0.206900  1.0  0.1005
  C  C65  1  0.181300  0.729400  0.828900  1.0  0.7618
  C  C66  1  0.199100  0.866000  0.855500  1.0  -0.1628
  C  C67  1  0.342800  0.937200  0.843100  1.0  -0.1155
  C  C68  1  0.151300  0.898500  0.938400  1.0  -0.1058
  C  C69  1  0.182100  0.038100  0.962800  1.0  -0.0992
  C  C70  1  0.373600  0.075500  0.869100  1.0  -0.1152
  C  C71  1  0.315800  0.105900  0.953700  1.0  -0.1422
  C  C72  1  0.355600  0.245000  0.980700  1.0  0.7611
  C  C73  1  0.055100  0.377200  0.733600  1.0  0.7222
  C  C74  1  0.992100  0.287300  0.798800  1.0  -0.1821
  C  C75  1  0.844300  0.203500  0.763600  1.0  -0.104
  C  C76  1  0.994800  0.356900  0.893200  1.0  -0.101
  C  C77  1  0.880300  0.425600  0.891400  1.0  -0.1205
  C  C78  1  0.725600  0.268700  0.768100  1.0  -0.1279
  C  C79  1  0.734000  0.335000  0.862800  1.0  -0.1729
  C  C80  1  0.619000  0.400200  0.869800  1.0  0.7272
  C  C81  1  0.834100  0.632700  0.528400  1.0  0.7263
  C  C82  1  0.814700  0.712500  0.609300  1.0  -0.1777
  C  C83  1  0.723700  0.799700  0.584300  1.0  -0.1359
  C  C84  1  0.749900  0.625700  0.678600  1.0  -0.1202
  C  C85  1  0.726700  0.698800  0.762700  1.0  -0.1114
  C  C86  1  0.699000  0.872400  0.668900  1.0  -0.1157
  C  C87  1  0.633600  0.785500  0.736900  1.0  -0.1883
  C  C88  1  0.480500  0.716500  0.701100  1.0  0.7458
  C  C89  1  0.818700  0.270600  0.171100  1.0  0.7647
  C  C90  1  0.800900  0.134000  0.144500  1.0  -0.1605
  C  C91  1  0.657200  0.062800  0.156900  1.0  -0.1166
  C  C92  1  0.848700  0.101500  0.061600  1.0  -0.1042
  C  C93  1  0.817900  0.961900  0.037200  1.0  -0.0967
  C  C94  1  0.626400  0.924500  0.130900  1.0  -0.1155
  C  C95  1  0.684200  0.894100  0.046300  1.0  -0.153
  C  C96  1  0.644400  0.755000  0.019300  1.0  0.7586
  C  C97  1  0.944900  0.622800  0.266400  1.0  0.722
  C  C98  1  0.007900  0.712700  0.201200  1.0  -0.1855
  C  C99  1  0.155700  0.796500  0.236400  1.0  -0.1051
  C  C100  1  0.005200  0.643100  0.106800  1.0  -0.1003
  C  C101  1  0.119700  0.574400  0.108600  1.0  -0.1209
  C  C102  1  0.274400  0.731300  0.231900  1.0  -0.1285
  C  C103  1  0.266000  0.665000  0.137200  1.0  -0.1757
  C  C104  1  0.381000  0.599800  0.130200  1.0  0.7278
  C  C105  1  0.165900  0.367300  0.471600  1.0  0.7263
  C  C106  1  0.185300  0.287500  0.390700  1.0  -0.1772
  C  C107  1  0.276300  0.200300  0.415700  1.0  -0.1255
  C  C108  1  0.250100  0.374300  0.321400  1.0  -0.1218
  C  C109  1  0.273300  0.301200  0.237300  1.0  -0.1121
  C  C110  1  0.301000  0.127600  0.331100  1.0  -0.119
  C  C111  1  0.366400  0.214500  0.263100  1.0  -0.1864
  C  C112  1  0.519500  0.283500  0.298900  1.0  0.7477
  O  O113  1  0.224700  0.664300  0.886400  1.0  -0.7126
  O  O114  1  0.127000  0.689300  0.747600  1.0  -0.732
  O  O115  1  0.437000  0.284400  0.054600  1.0  -0.7104
  O  O116  1  0.308500  0.312600  0.926700  1.0  -0.718
  O  O117  1  0.186800  0.430500  0.751400  1.0  -0.815
  O  O118  1  0.984600  0.397800  0.665100  1.0  -0.6274
  O  O119  1  0.614400  0.455900  0.947500  1.0  -0.8524
  O  O120  1  0.530600  0.402700  0.801800  1.0  -0.6442
  O  O121  1  0.421100  0.623400  0.739000  1.0  -0.8011
  O  O122  1  0.410800  0.751500  0.637700  1.0  -0.6857
  O  O123  1  0.941100  0.587700  0.535100  1.0  -0.8428
  O  O124  1  0.742900  0.600700  0.456900  1.0  -0.656
  O  O125  1  0.775300  0.335700  0.113600  1.0  -0.7125
  O  O126  1  0.873000  0.310700  0.252400  1.0  -0.7325
  O  O127  1  0.563000  0.715600  0.945400  1.0  -0.7121
  O  O128  1  0.691500  0.687400  0.073300  1.0  -0.7203
  O  O129  1  0.813200  0.569500  0.248600  1.0  -0.8164
  O  O130  1  0.015400  0.602200  0.334900  1.0  -0.6281
  O  O131  1  0.385600  0.544100  0.052500  1.0  -0.8511
  O  O132  1  0.469400  0.597300  0.198200  1.0  -0.644
  O  O133  1  0.578900  0.376600  0.261000  1.0  -0.8011
  O  O134  1  0.589200  0.248500  0.362300  1.0  -0.6864
  O  O135  1  0.058900  0.412300  0.464900  1.0  -0.8496
  O  O136  1  0.257100  0.399300  0.543100  1.0  -0.6567
