# generated using pymatgen
data_In3H9C24N5O22
_symmetry_space_group_name_H-M   'P 1'
_cell_length_a   22.45670000
_cell_length_b   22.45670000
_cell_length_c   22.45670000
_cell_angle_alpha   90.00000000
_cell_angle_beta   90.00000000
_cell_angle_gamma   90.00000000
_symmetry_Int_Tables_number   1
_chemical_formula_structural   In3H9C24N5O22
_chemical_formula_sum   'In24 H72 C192 N40 O176'
_cell_volume   11324.98959889
_cell_formula_units_Z   8
loop_
 _symmetry_equiv_pos_site_id
 _symmetry_equiv_pos_as_xyz
  1  'x, y, z'
loop_
 _atom_site_type_symbol
 _atom_site_label
 _atom_site_symmetry_multiplicity
 _atom_site_fract_x
 _atom_site_fract_y
 _atom_site_fract_z
 _atom_site_occupancy
 _atom_site_charge
  In  In1  1  0.321900  0.739570  0.806510  1.0  1.6993
  In  In2  1  0.678100  0.260430  0.806510  1.0  1.6973
  In  In3  1  0.678100  0.739570  0.193490  1.0  1.6968
  In  In4  1  0.321900  0.260430  0.193490  1.0  1.6985
  In  In5  1  0.806510  0.321900  0.739570  1.0  1.6997
  In  In6  1  0.806510  0.678100  0.260430  1.0  1.7009
  In  In7  1  0.193490  0.678100  0.739570  1.0  1.6995
  In  In8  1  0.193490  0.321900  0.260430  1.0  1.6963
  In  In9  1  0.739570  0.806510  0.321900  1.0  1.6953
  In  In10  1  0.260430  0.806510  0.678100  1.0  1.6932
  In  In11  1  0.739570  0.193490  0.678100  1.0  1.6965
  In  In12  1  0.260430  0.193490  0.321900  1.0  1.6967
  In  In13  1  0.239570  0.821900  0.306510  1.0  1.6997
  In  In14  1  0.760430  0.178100  0.306510  1.0  1.7018
  In  In15  1  0.239570  0.178100  0.693490  1.0  1.701
  In  In16  1  0.760430  0.821900  0.693490  1.0  1.6986
  In  In17  1  0.821900  0.306510  0.239570  1.0  1.6992
  In  In18  1  0.178100  0.306510  0.760430  1.0  1.6963
  In  In19  1  0.178100  0.693490  0.239570  1.0  1.6993
  In  In20  1  0.821900  0.693490  0.760430  1.0  1.7003
  In  In21  1  0.306510  0.239570  0.821900  1.0  1.6949
  In  In22  1  0.306510  0.760430  0.178100  1.0  1.6942
  In  In23  1  0.693490  0.239570  0.178100  1.0  1.6924
  In  In24  1  0.693490  0.760430  0.821900  1.0  1.6928
  H  H25  1  0.425200  0.795000  0.583300  1.0  0.1232
  H  H26  1  0.606600  0.804300  0.592300  1.0  0.1489
  H  H27  1  0.508200  0.778800  0.741600  1.0  0.145
  H  H28  1  0.574800  0.205000  0.583300  1.0  0.1232
  H  H29  1  0.393400  0.195700  0.592300  1.0  0.1491
  H  H30  1  0.491800  0.221200  0.741600  1.0  0.1451
  H  H31  1  0.574800  0.795000  0.416700  1.0  0.1236
  H  H32  1  0.393400  0.804300  0.407700  1.0  0.1499
  H  H33  1  0.491800  0.778800  0.258400  1.0  0.1451
  H  H34  1  0.425200  0.205000  0.416700  1.0  0.1231
  H  H35  1  0.606600  0.195700  0.407700  1.0  0.1492
  H  H36  1  0.508200  0.221200  0.258400  1.0  0.1453
  H  H37  1  0.583300  0.425200  0.795000  1.0  0.1235
  H  H38  1  0.592300  0.606600  0.804300  1.0  0.1505
  H  H39  1  0.741600  0.508200  0.778800  1.0  0.146
  H  H40  1  0.583300  0.574800  0.205000  1.0  0.1234
  H  H41  1  0.592300  0.393400  0.195700  1.0  0.1492
  H  H42  1  0.741600  0.491800  0.221200  1.0  0.1459
  H  H43  1  0.416700  0.574800  0.795000  1.0  0.1233
  H  H44  1  0.407700  0.393400  0.804300  1.0  0.1492
  H  H45  1  0.258400  0.491800  0.778800  1.0  0.1447
  H  H46  1  0.416700  0.425200  0.205000  1.0  0.1235
  H  H47  1  0.407700  0.606600  0.195700  1.0  0.1497
  H  H48  1  0.258400  0.508200  0.221200  1.0  0.1446
  H  H49  1  0.795000  0.583300  0.425200  1.0  0.1248
  H  H50  1  0.804300  0.592300  0.606600  1.0  0.15
  H  H51  1  0.778800  0.741600  0.508200  1.0  0.1469
  H  H52  1  0.205000  0.583300  0.574800  1.0  0.1246
  H  H53  1  0.195700  0.592300  0.393400  1.0  0.1498
  H  H54  1  0.221200  0.741600  0.491800  1.0  0.1471
  H  H55  1  0.795000  0.416700  0.574800  1.0  0.1245
  H  H56  1  0.804300  0.407700  0.393400  1.0  0.1498
  H  H57  1  0.778800  0.258400  0.491800  1.0  0.1472
  H  H58  1  0.205000  0.416700  0.425200  1.0  0.1241
  H  H59  1  0.195700  0.407700  0.606600  1.0  0.1509
  H  H60  1  0.221200  0.258400  0.508200  1.0  0.1474
  H  H61  1  0.295000  0.925200  0.083300  1.0  0.1234
  H  H62  1  0.304300  0.106600  0.092300  1.0  0.1494
  H  H63  1  0.278800  0.008200  0.241600  1.0  0.1444
  H  H64  1  0.705000  0.074800  0.083300  1.0  0.1227
  H  H65  1  0.695700  0.893400  0.092300  1.0  0.1489
  H  H66  1  0.721200  0.991800  0.241600  1.0  0.1444
  H  H67  1  0.295000  0.074800  0.916700  1.0  0.1228
  H  H68  1  0.304300  0.893400  0.907700  1.0  0.1491
  H  H69  1  0.278800  0.991800  0.758400  1.0  0.1444
  H  H70  1  0.705000  0.925200  0.916700  1.0  0.1231
  H  H71  1  0.695700  0.106600  0.907700  1.0  0.1499
  H  H72  1  0.721200  0.008200  0.758400  1.0  0.1444
  H  H73  1  0.925200  0.083300  0.295000  1.0  0.1233
  H  H74  1  0.106600  0.092300  0.304300  1.0  0.1491
  H  H75  1  0.008200  0.241600  0.278800  1.0  0.1477
  H  H76  1  0.074800  0.083300  0.705000  1.0  0.1232
  H  H77  1  0.893400  0.092300  0.695700  1.0  0.1493
  H  H78  1  0.991800  0.241600  0.721200  1.0  0.1475
  H  H79  1  0.074800  0.916700  0.295000  1.0  0.1236
  H  H80  1  0.893400  0.907700  0.304300  1.0  0.1503
  H  H81  1  0.991800  0.758400  0.278800  1.0  0.148
  H  H82  1  0.925200  0.916700  0.705000  1.0  0.1228
  H  H83  1  0.106600  0.907700  0.695700  1.0  0.1494
  H  H84  1  0.008200  0.758400  0.721200  1.0  0.1478
  H  H85  1  0.083300  0.295000  0.925200  1.0  0.125
  H  H86  1  0.092300  0.304300  0.106600  1.0  0.1508
  H  H87  1  0.241600  0.278800  0.008200  1.0  0.1461
  H  H88  1  0.083300  0.705000  0.074800  1.0  0.125
  H  H89  1  0.092300  0.695700  0.893400  1.0  0.1494
  H  H90  1  0.241600  0.721200  0.991800  1.0  0.146
  H  H91  1  0.916700  0.295000  0.074800  1.0  0.125
  H  H92  1  0.907700  0.304300  0.893400  1.0  0.1498
  H  H93  1  0.758400  0.278800  0.991800  1.0  0.1449
  H  H94  1  0.916700  0.705000  0.925200  1.0  0.1249
  H  H95  1  0.907700  0.695700  0.106600  1.0  0.1501
  H  H96  1  0.758400  0.721200  0.008200  1.0  0.1447
  C  C97  1  0.622900  0.794700  0.706300  1.0  0.7674
  C  C98  1  0.460700  0.795000  0.606400  1.0  0.013
  C  C99  1  0.569000  0.800900  0.611400  1.0  -0.0476
  C  C100  1  0.565500  0.795400  0.671800  1.0  -0.128
  C  C101  1  0.398700  0.779800  0.697200  1.0  0.7104
  C  C102  1  0.456600  0.788900  0.665200  1.0  -0.1208
  C  C103  1  0.510100  0.786400  0.700000  1.0  0.0349
  C  C104  1  0.515700  0.801500  0.577200  1.0  0.1425
  C  C105  1  0.377100  0.205300  0.706300  1.0  0.7676
  C  C106  1  0.539300  0.205000  0.606400  1.0  0.0134
  C  C107  1  0.431000  0.199100  0.611400  1.0  -0.0492
  C  C108  1  0.434500  0.204600  0.671800  1.0  -0.1301
  C  C109  1  0.601300  0.220200  0.697200  1.0  0.7112
  C  C110  1  0.543400  0.211100  0.665200  1.0  -0.1218
  C  C111  1  0.489900  0.213600  0.700000  1.0  0.035
  C  C112  1  0.484300  0.198500  0.577200  1.0  0.1413
  C  C113  1  0.377100  0.794700  0.293700  1.0  0.7676
  C  C114  1  0.539300  0.795000  0.393600  1.0  0.0136
  C  C115  1  0.431000  0.800900  0.388600  1.0  -0.0493
  C  C116  1  0.434500  0.795400  0.328200  1.0  -0.13
  C  C117  1  0.601300  0.779800  0.302800  1.0  0.7107
  C  C118  1  0.543400  0.788900  0.334800  1.0  -0.1214
  C  C119  1  0.489900  0.786400  0.300000  1.0  0.0357
  C  C120  1  0.484300  0.801500  0.422800  1.0  0.1403
  C  C121  1  0.622900  0.205300  0.293700  1.0  0.7665
  C  C122  1  0.460700  0.205000  0.393600  1.0  0.0131
  C  C123  1  0.569000  0.199100  0.388600  1.0  -0.0473
  C  C124  1  0.565500  0.204600  0.328200  1.0  -0.1295
  C  C125  1  0.398700  0.220200  0.302800  1.0  0.7107
  C  C126  1  0.456600  0.211100  0.334800  1.0  -0.1219
  C  C127  1  0.510100  0.213600  0.300000  1.0  0.0361
  C  C128  1  0.515700  0.198500  0.422800  1.0  0.14
  C  C129  1  0.706300  0.622900  0.794700  1.0  0.768
  C  C130  1  0.606400  0.460700  0.795000  1.0  0.0111
  C  C131  1  0.611400  0.569000  0.800900  1.0  -0.0484
  C  C132  1  0.671800  0.565500  0.795400  1.0  -0.1286
  C  C133  1  0.697200  0.398700  0.779800  1.0  0.7087
  C  C134  1  0.665200  0.456600  0.788900  1.0  -0.1191
  C  C135  1  0.700000  0.510100  0.786400  1.0  0.035
  C  C136  1  0.577200  0.515700  0.801500  1.0  0.1411
  C  C137  1  0.706300  0.377100  0.205300  1.0  0.768
  C  C138  1  0.606400  0.539300  0.205000  1.0  0.0117
  C  C139  1  0.611400  0.431000  0.199100  1.0  -0.0486
  C  C140  1  0.671800  0.434500  0.204600  1.0  -0.1296
  C  C141  1  0.697200  0.601300  0.220200  1.0  0.7101
  C  C142  1  0.665200  0.543400  0.211100  1.0  -0.1191
  C  C143  1  0.700000  0.489900  0.213600  1.0  0.0361
  C  C144  1  0.577200  0.484300  0.198500  1.0  0.141
  C  C145  1  0.293700  0.377100  0.794700  1.0  0.7679
  C  C146  1  0.393600  0.539300  0.795000  1.0  0.0115
  C  C147  1  0.388600  0.431000  0.800900  1.0  -0.0476
  C  C148  1  0.328200  0.434500  0.795400  1.0  -0.1273
  C  C149  1  0.302800  0.601300  0.779800  1.0  0.7099
  C  C150  1  0.334800  0.543400  0.788900  1.0  -0.119
  C  C151  1  0.300000  0.489900  0.786400  1.0  0.0331
  C  C152  1  0.422800  0.484300  0.801500  1.0  0.14
  C  C153  1  0.293700  0.622900  0.205300  1.0  0.768
  C  C154  1  0.393600  0.460700  0.205000  1.0  0.012
  C  C155  1  0.388600  0.569000  0.199100  1.0  -0.0495
  C  C156  1  0.328200  0.565500  0.204600  1.0  -0.1281
  C  C157  1  0.302800  0.398700  0.220200  1.0  0.7098
  C  C158  1  0.334800  0.456600  0.211100  1.0  -0.1192
  C  C159  1  0.300000  0.510100  0.213600  1.0  0.0332
  C  C160  1  0.422800  0.515700  0.198500  1.0  0.1404
  C  C161  1  0.794700  0.706300  0.622900  1.0  0.7706
  C  C162  1  0.795000  0.606400  0.460700  1.0  0.0132
  C  C163  1  0.800900  0.611400  0.569000  1.0  -0.0484
  C  C164  1  0.795400  0.671800  0.565500  1.0  -0.1313
  C  C165  1  0.779800  0.697200  0.398700  1.0  0.7133
  C  C166  1  0.788900  0.665200  0.456600  1.0  -0.1215
  C  C167  1  0.786400  0.700000  0.510100  1.0  0.0362
  C  C168  1  0.801500  0.577200  0.515700  1.0  0.1404
  C  C169  1  0.205300  0.706300  0.377100  1.0  0.7692
  C  C170  1  0.205000  0.606400  0.539300  1.0  0.0124
  C  C171  1  0.199100  0.611400  0.431000  1.0  -0.0486
  C  C172  1  0.204600  0.671800  0.434500  1.0  -0.1302
  C  C173  1  0.220200  0.697200  0.601300  1.0  0.7117
  C  C174  1  0.211100  0.665200  0.543400  1.0  -0.1216
  C  C175  1  0.213600  0.700000  0.489900  1.0  0.0372
  C  C176  1  0.198500  0.577200  0.484300  1.0  0.1406
  C  C177  1  0.794700  0.293700  0.377100  1.0  0.7703
  C  C178  1  0.795000  0.393600  0.539300  1.0  0.0128
  C  C179  1  0.800900  0.388600  0.431000  1.0  -0.0493
  C  C180  1  0.795400  0.328200  0.434500  1.0  -0.1305
  C  C181  1  0.779800  0.302800  0.601300  1.0  0.7122
  C  C182  1  0.788900  0.334800  0.543400  1.0  -0.1216
  C  C183  1  0.786400  0.300000  0.489900  1.0  0.0377
  C  C184  1  0.801500  0.422800  0.484300  1.0  0.1413
  C  C185  1  0.205300  0.293700  0.622900  1.0  0.7704
  C  C186  1  0.205000  0.393600  0.460700  1.0  0.0129
  C  C187  1  0.199100  0.388600  0.569000  1.0  -0.05
  C  C188  1  0.204600  0.328200  0.565500  1.0  -0.1303
  C  C189  1  0.220200  0.302800  0.398700  1.0  0.7124
  C  C190  1  0.211100  0.334800  0.456600  1.0  -0.1218
  C  C191  1  0.213600  0.300000  0.510100  1.0  0.0375
  C  C192  1  0.198500  0.422800  0.515700  1.0  0.1413
  C  C193  1  0.294700  0.122900  0.206300  1.0  0.7706
  C  C194  1  0.295000  0.960700  0.106400  1.0  0.0125
  C  C195  1  0.300900  0.069000  0.111400  1.0  -0.0478
  C  C196  1  0.295400  0.065500  0.171800  1.0  -0.1306
  C  C197  1  0.279800  0.898700  0.197200  1.0  0.7112
  C  C198  1  0.288900  0.956600  0.165200  1.0  -0.1216
  C  C199  1  0.286400  0.010100  0.200000  1.0  0.0338
  C  C200  1  0.301500  0.015700  0.077200  1.0  0.1432
  C  C201  1  0.705300  0.877100  0.206300  1.0  0.7699
  C  C202  1  0.705000  0.039300  0.106400  1.0  0.0117
  C  C203  1  0.699100  0.931000  0.111400  1.0  -0.0464
  C  C204  1  0.704600  0.934500  0.171800  1.0  -0.1297
  C  C205  1  0.720200  0.101300  0.197200  1.0  0.7114
  C  C206  1  0.711100  0.043400  0.165200  1.0  -0.1214
  C  C207  1  0.713600  0.989900  0.200000  1.0  0.0334
  C  C208  1  0.698500  0.984300  0.077200  1.0  0.143
  C  C209  1  0.294700  0.877100  0.793700  1.0  0.7703
  C  C210  1  0.295000  0.039300  0.893600  1.0  0.0125
  C  C211  1  0.300900  0.931000  0.888600  1.0  -0.0463
  C  C212  1  0.295400  0.934500  0.828200  1.0  -0.131
  C  C213  1  0.279800  0.101300  0.802800  1.0  0.7117
  C  C214  1  0.288900  0.043400  0.834800  1.0  -0.1217
  C  C215  1  0.286400  0.989900  0.800000  1.0  0.0353
  C  C216  1  0.301500  0.984300  0.922800  1.0  0.1407
  C  C217  1  0.705300  0.122900  0.793700  1.0  0.7697
  C  C218  1  0.705000  0.960700  0.893600  1.0  0.0122
  C  C219  1  0.699100  0.069000  0.888600  1.0  -0.048
  C  C220  1  0.704600  0.065500  0.828200  1.0  -0.1307
  C  C221  1  0.720200  0.898700  0.802800  1.0  0.7107
  C  C222  1  0.711100  0.956600  0.834800  1.0  -0.1219
  C  C223  1  0.713600  0.010100  0.800000  1.0  0.035
  C  C224  1  0.698500  0.015700  0.922800  1.0  0.1407
  C  C225  1  0.122900  0.206300  0.294700  1.0  0.7648
  C  C226  1  0.960700  0.106400  0.295000  1.0  0.0123
  C  C227  1  0.069000  0.111400  0.300900  1.0  -0.0478
  C  C228  1  0.065500  0.171800  0.295400  1.0  -0.1276
  C  C229  1  0.898700  0.197200  0.279800  1.0  0.7081
  C  C230  1  0.956600  0.165200  0.288900  1.0  -0.1184
  C  C231  1  0.010100  0.200000  0.286400  1.0  0.0371
  C  C232  1  0.015700  0.077200  0.301500  1.0  0.14
  C  C233  1  0.877100  0.206300  0.705300  1.0  0.7652
  C  C234  1  0.039300  0.106400  0.705000  1.0  0.0128
  C  C235  1  0.931000  0.111400  0.699100  1.0  -0.0502
  C  C236  1  0.934500  0.171800  0.704600  1.0  -0.1289
  C  C237  1  0.101300  0.197200  0.720200  1.0  0.7089
  C  C238  1  0.043400  0.165200  0.711100  1.0  -0.119
  C  C239  1  0.989900  0.200000  0.713600  1.0  0.0367
  C  C240  1  0.984300  0.077200  0.698500  1.0  0.1402
  C  C241  1  0.877100  0.793700  0.294700  1.0  0.7658
  C  C242  1  0.039300  0.893600  0.295000  1.0  0.0126
  C  C243  1  0.931000  0.888600  0.300900  1.0  -0.0503
  C  C244  1  0.934500  0.828200  0.295400  1.0  -0.1281
  C  C245  1  0.101300  0.802800  0.279800  1.0  0.708
  C  C246  1  0.043400  0.834800  0.288900  1.0  -0.1187
  C  C247  1  0.989900  0.800000  0.286400  1.0  0.037
  C  C248  1  0.984300  0.922800  0.301500  1.0  0.1413
  C  C249  1  0.122900  0.793700  0.705300  1.0  0.7659
  C  C250  1  0.960700  0.893600  0.705000  1.0  0.0128
  C  C251  1  0.069000  0.888600  0.699100  1.0  -0.0497
  C  C252  1  0.065500  0.828200  0.704600  1.0  -0.1283
  C  C253  1  0.898700  0.802800  0.720200  1.0  0.7082
  C  C254  1  0.956600  0.834800  0.711100  1.0  -0.1186
  C  C255  1  0.010100  0.800000  0.713600  1.0  0.0383
  C  C256  1  0.015700  0.922800  0.698500  1.0  0.1414
  C  C257  1  0.206300  0.294700  0.122900  1.0  0.7703
  C  C258  1  0.106400  0.295000  0.960700  1.0  0.0131
  C  C259  1  0.111400  0.300900  0.069000  1.0  -0.0485
  C  C260  1  0.171800  0.295400  0.065500  1.0  -0.1308
  C  C261  1  0.197200  0.279800  0.898700  1.0  0.7132
  C  C262  1  0.165200  0.288900  0.956600  1.0  -0.1217
  C  C263  1  0.200000  0.286400  0.010100  1.0  0.0363
  C  C264  1  0.077200  0.301500  0.015700  1.0  0.1405
  C  C265  1  0.206300  0.705300  0.877100  1.0  0.7692
  C  C266  1  0.106400  0.705000  0.039300  1.0  0.0125
  C  C267  1  0.111400  0.699100  0.931000  1.0  -0.0488
  C  C268  1  0.171800  0.704600  0.934500  1.0  -0.1309
  C  C269  1  0.197200  0.720200  0.101300  1.0  0.7132
  C  C270  1  0.165200  0.711100  0.043400  1.0  -0.1222
  C  C271  1  0.200000  0.713600  0.989900  1.0  0.0365
  C  C272  1  0.077200  0.698500  0.984300  1.0  0.1397
  C  C273  1  0.793700  0.294700  0.877100  1.0  0.7695
  C  C274  1  0.893600  0.295000  0.039300  1.0  0.0129
  C  C275  1  0.888600  0.300900  0.931000  1.0  -0.0479
  C  C276  1  0.828200  0.295400  0.934500  1.0  -0.1292
  C  C277  1  0.802800  0.279800  0.101300  1.0  0.7128
  C  C278  1  0.834800  0.288900  0.043400  1.0  -0.1217
  C  C279  1  0.800000  0.286400  0.989900  1.0  0.0348
  C  C280  1  0.922800  0.301500  0.984300  1.0  0.1402
  C  C281  1  0.793700  0.705300  0.122900  1.0  0.7704
  C  C282  1  0.893600  0.705000  0.960700  1.0  0.0135
  C  C283  1  0.888600  0.699100  0.069000  1.0  -0.0489
  C  C284  1  0.828200  0.704600  0.065500  1.0  -0.1306
  C  C285  1  0.802800  0.720200  0.898700  1.0  0.7137
  C  C286  1  0.834800  0.711100  0.956600  1.0  -0.1224
  C  C287  1  0.800000  0.713600  0.010100  1.0  0.0344
  C  C288  1  0.922800  0.698500  0.015700  1.0  0.1391
  N  N289  1  0.522500  0.807700  0.515800  1.0  -0.1718
  N  N290  1  0.477500  0.192300  0.515800  1.0  -0.172
  N  N291  1  0.477500  0.807700  0.484200  1.0  -0.1718
  N  N292  1  0.522500  0.192300  0.484200  1.0  -0.1719
  N  N293  1  0.515800  0.522500  0.807700  1.0  -0.1725
  N  N294  1  0.515800  0.477500  0.192300  1.0  -0.1731
  N  N295  1  0.484200  0.477500  0.807700  1.0  -0.1722
  N  N296  1  0.484200  0.522500  0.192300  1.0  -0.1734
  N  N297  1  0.807700  0.515800  0.522500  1.0  -0.1731
  N  N298  1  0.192300  0.515800  0.477500  1.0  -0.1765
  N  N299  1  0.807700  0.484200  0.477500  1.0  -0.1741
  N  N300  1  0.192300  0.484200  0.522500  1.0  -0.1746
  N  N301  1  0.307700  0.022500  0.015800  1.0  -0.1724
  N  N302  1  0.692300  0.977500  0.015800  1.0  -0.1738
  N  N303  1  0.307700  0.977500  0.984200  1.0  -0.1722
  N  N304  1  0.692300  0.022500  0.984200  1.0  -0.174
  N  N305  1  0.022500  0.015800  0.307700  1.0  -0.1726
  N  N306  1  0.977500  0.015800  0.692300  1.0  -0.1724
  N  N307  1  0.977500  0.984200  0.307700  1.0  -0.1723
  N  N308  1  0.022500  0.984200  0.692300  1.0  -0.1726
  N  N309  1  0.015800  0.307700  0.022500  1.0  -0.1735
  N  N310  1  0.015800  0.692300  0.977500  1.0  -0.1753
  N  N311  1  0.984200  0.307700  0.977500  1.0  -0.174
  N  N312  1  0.984200  0.692300  0.022500  1.0  -0.1734
  N  N313  1  0.140100  0.859900  0.859900  1.0  0.8264
  N  N314  1  0.395100  0.604900  0.604900  1.0  0.812
  N  N315  1  0.859900  0.140100  0.859900  1.0  0.8259
  N  N316  1  0.604900  0.395100  0.604900  1.0  0.8133
  N  N317  1  0.859900  0.859900  0.140100  1.0  0.8253
  N  N318  1  0.604900  0.604900  0.395100  1.0  0.8125
  N  N319  1  0.140100  0.140100  0.140100  1.0  0.8274
  N  N320  1  0.395100  0.395100  0.395100  1.0  0.8119
  N  N321  1  0.359900  0.640100  0.359900  1.0  0.8259
  N  N322  1  0.104900  0.895100  0.104900  1.0  0.8133
  N  N323  1  0.640100  0.359900  0.359900  1.0  0.8264
  N  N324  1  0.895100  0.104900  0.104900  1.0  0.812
  N  N325  1  0.359900  0.359900  0.640100  1.0  0.8253
  N  N326  1  0.104900  0.104900  0.895100  1.0  0.8125
  N  N327  1  0.640100  0.640100  0.640100  1.0  0.8274
  N  N328  1  0.895100  0.895100  0.895100  1.0  0.8119
  O  O329  1  0.397000  0.761300  0.748400  1.0  -0.5704
  O  O330  1  0.622200  0.779100  0.758800  1.0  -0.5939
  O  O331  1  0.353600  0.793900  0.663400  1.0  -0.6176
  O  O332  1  0.667300  0.810400  0.676300  1.0  -0.5849
  O  O333  1  0.389200  0.737500  0.876100  1.0  -0.2401
  O  O334  1  0.603000  0.238700  0.748400  1.0  -0.5704
  O  O335  1  0.377800  0.220900  0.758800  1.0  -0.5939
  O  O336  1  0.646400  0.206100  0.663400  1.0  -0.6168
  O  O337  1  0.332700  0.189600  0.676300  1.0  -0.5853
  O  O338  1  0.610800  0.262500  0.876100  1.0  -0.2398
  O  O339  1  0.603000  0.761300  0.251600  1.0  -0.57
  O  O340  1  0.377800  0.779100  0.241200  1.0  -0.5948
  O  O341  1  0.646400  0.793900  0.336600  1.0  -0.6164
  O  O342  1  0.332700  0.810400  0.323700  1.0  -0.5844
  O  O343  1  0.610800  0.737500  0.123900  1.0  -0.2405
  O  O344  1  0.397000  0.238700  0.251600  1.0  -0.5709
  O  O345  1  0.622200  0.220900  0.241200  1.0  -0.5938
  O  O346  1  0.353600  0.206100  0.336600  1.0  -0.6182
  O  O347  1  0.667300  0.189600  0.323700  1.0  -0.586
  O  O348  1  0.389200  0.262500  0.123900  1.0  -0.2393
  O  O349  1  0.748400  0.397000  0.761300  1.0  -0.5729
  O  O350  1  0.758800  0.622200  0.779100  1.0  -0.5964
  O  O351  1  0.663400  0.353600  0.793900  1.0  -0.6197
  O  O352  1  0.676300  0.667300  0.810400  1.0  -0.5891
  O  O353  1  0.876100  0.389200  0.737500  1.0  -0.2376
  O  O354  1  0.748400  0.603000  0.238700  1.0  -0.5728
  O  O355  1  0.758800  0.377800  0.220900  1.0  -0.5967
  O  O356  1  0.663400  0.646400  0.206100  1.0  -0.6191
  O  O357  1  0.676300  0.332700  0.189600  1.0  -0.588
  O  O358  1  0.876100  0.610800  0.262500  1.0  -0.238
  O  O359  1  0.251600  0.603000  0.761300  1.0  -0.5708
  O  O360  1  0.241200  0.377800  0.779100  1.0  -0.596
  O  O361  1  0.336600  0.646400  0.793900  1.0  -0.6179
  O  O362  1  0.323700  0.332700  0.810400  1.0  -0.5895
  O  O363  1  0.123900  0.610800  0.737500  1.0  -0.2381
  O  O364  1  0.251600  0.397000  0.238700  1.0  -0.5702
  O  O365  1  0.241200  0.622200  0.220900  1.0  -0.5962
  O  O366  1  0.336600  0.353600  0.206100  1.0  -0.6181
  O  O367  1  0.323700  0.667300  0.189600  1.0  -0.5883
  O  O368  1  0.123900  0.389200  0.262500  1.0  -0.2392
  O  O369  1  0.761300  0.748400  0.397000  1.0  -0.5664
  O  O370  1  0.779100  0.758800  0.622200  1.0  -0.5945
  O  O371  1  0.793900  0.663400  0.353600  1.0  -0.6172
  O  O372  1  0.810400  0.676300  0.667300  1.0  -0.5889
  O  O373  1  0.737500  0.876100  0.389200  1.0  -0.2403
  O  O374  1  0.238700  0.748400  0.603000  1.0  -0.5665
  O  O375  1  0.220900  0.758800  0.377800  1.0  -0.5948
  O  O376  1  0.206100  0.663400  0.646400  1.0  -0.6183
  O  O377  1  0.189600  0.676300  0.332700  1.0  -0.5882
  O  O378  1  0.262500  0.876100  0.610800  1.0  -0.2406
  O  O379  1  0.761300  0.251600  0.603000  1.0  -0.5665
  O  O380  1  0.779100  0.241200  0.377800  1.0  -0.5943
  O  O381  1  0.793900  0.336600  0.646400  1.0  -0.6171
  O  O382  1  0.810400  0.323700  0.332700  1.0  -0.5881
  O  O383  1  0.737500  0.123900  0.610800  1.0  -0.239
  O  O384  1  0.238700  0.251600  0.397000  1.0  -0.5674
  O  O385  1  0.220900  0.241200  0.622200  1.0  -0.5957
  O  O386  1  0.206100  0.336600  0.353600  1.0  -0.6185
  O  O387  1  0.189600  0.323700  0.667300  1.0  -0.5886
  O  O388  1  0.262500  0.123900  0.389200  1.0  -0.2411
  O  O389  1  0.261300  0.897000  0.248400  1.0  -0.5677
  O  O390  1  0.279100  0.122200  0.258800  1.0  -0.5943
  O  O391  1  0.293900  0.853600  0.163400  1.0  -0.6183
  O  O392  1  0.310400  0.167300  0.176300  1.0  -0.5887
  O  O393  1  0.237500  0.889200  0.376100  1.0  -0.2396
  O  O394  1  0.738700  0.103000  0.248400  1.0  -0.5681
  O  O395  1  0.720900  0.877800  0.258800  1.0  -0.595
  O  O396  1  0.706100  0.146400  0.163400  1.0  -0.6197
  O  O397  1  0.689600  0.832700  0.176300  1.0  -0.5896
  O  O398  1  0.762500  0.110800  0.376100  1.0  -0.2404
  O  O399  1  0.261300  0.103000  0.751600  1.0  -0.568
  O  O400  1  0.279100  0.877800  0.741200  1.0  -0.5949
  O  O401  1  0.293900  0.146400  0.836600  1.0  -0.6184
  O  O402  1  0.310400  0.832700  0.823700  1.0  -0.5889
  O  O403  1  0.237500  0.110800  0.623900  1.0  -0.2387
  O  O404  1  0.738700  0.897000  0.751600  1.0  -0.5684
  O  O405  1  0.720900  0.122200  0.741200  1.0  -0.595
  O  O406  1  0.706100  0.853600  0.836600  1.0  -0.62
  O  O407  1  0.689600  0.167300  0.823700  1.0  -0.5886
  O  O408  1  0.762500  0.889200  0.623900  1.0  -0.24
  O  O409  1  0.897000  0.248400  0.261300  1.0  -0.5703
  O  O410  1  0.122200  0.258800  0.279100  1.0  -0.5935
  O  O411  1  0.853600  0.163400  0.293900  1.0  -0.6182
  O  O412  1  0.167300  0.176300  0.310400  1.0  -0.5874
  O  O413  1  0.889200  0.376100  0.237500  1.0  -0.2381
  O  O414  1  0.103000  0.248400  0.738700  1.0  -0.5698
  O  O415  1  0.877800  0.258800  0.720900  1.0  -0.5943
  O  O416  1  0.146400  0.163400  0.706100  1.0  -0.6164
  O  O417  1  0.832700  0.176300  0.689600  1.0  -0.5857
  O  O418  1  0.110800  0.376100  0.762500  1.0  -0.2395
  O  O419  1  0.103000  0.751600  0.261300  1.0  -0.57
  O  O420  1  0.877800  0.741200  0.279100  1.0  -0.5942
  O  O421  1  0.146400  0.836600  0.293900  1.0  -0.6164
  O  O422  1  0.832700  0.823700  0.310400  1.0  -0.5867
  O  O423  1  0.110800  0.623900  0.237500  1.0  -0.2382
  O  O424  1  0.897000  0.751600  0.738700  1.0  -0.5707
  O  O425  1  0.122200  0.741200  0.720900  1.0  -0.5943
  O  O426  1  0.853600  0.836600  0.706100  1.0  -0.6176
  O  O427  1  0.167300  0.823700  0.689600  1.0  -0.5862
  O  O428  1  0.889200  0.623900  0.762500  1.0  -0.2383
  O  O429  1  0.248400  0.261300  0.897000  1.0  -0.572
  O  O430  1  0.258800  0.279100  0.122200  1.0  -0.5957
  O  O431  1  0.163400  0.293900  0.853600  1.0  -0.6181
  O  O432  1  0.176300  0.310400  0.167300  1.0  -0.5866
  O  O433  1  0.376100  0.237500  0.889200  1.0  -0.2402
  O  O434  1  0.248400  0.738700  0.103000  1.0  -0.5718
  O  O435  1  0.258800  0.720900  0.877800  1.0  -0.5953
  O  O436  1  0.163400  0.706100  0.146400  1.0  -0.6185
  O  O437  1  0.176300  0.689600  0.832700  1.0  -0.587
  O  O438  1  0.376100  0.762500  0.110800  1.0  -0.2394
  O  O439  1  0.751600  0.261300  0.103000  1.0  -0.5694
  O  O440  1  0.741200  0.279100  0.877800  1.0  -0.5946
  O  O441  1  0.836600  0.293900  0.146400  1.0  -0.617
  O  O442  1  0.823700  0.310400  0.832700  1.0  -0.5864
  O  O443  1  0.623900  0.237500  0.110800  1.0  -0.2402
  O  O444  1  0.751600  0.738700  0.897000  1.0  -0.57
  O  O445  1  0.741200  0.720900  0.122200  1.0  -0.5954
  O  O446  1  0.836600  0.706100  0.853600  1.0  -0.6174
  O  O447  1  0.823700  0.689600  0.167300  1.0  -0.5881
  O  O448  1  0.623900  0.762500  0.889200  1.0  -0.2398
  O  O449  1  0.259300  0.740700  0.740700  1.0  -0.8824
  O  O450  1  0.740700  0.259300  0.740700  1.0  -0.8827
  O  O451  1  0.740700  0.740700  0.259300  1.0  -0.883
  O  O452  1  0.259300  0.259300  0.259300  1.0  -0.8825
  O  O453  1  0.240700  0.759300  0.240700  1.0  -0.8827
  O  O454  1  0.759300  0.240700  0.240700  1.0  -0.8824
  O  O455  1  0.240700  0.240700  0.759300  1.0  -0.883
  O  O456  1  0.759300  0.759300  0.759300  1.0  -0.8825
  O  O457  1  0.171000  0.904000  0.847000  1.0  -0.4651
  O  O458  1  0.153000  0.829000  0.904000  1.0  -0.4651
  O  O459  1  0.096000  0.847000  0.829000  1.0  -0.462
  O  O460  1  0.441300  0.623000  0.632000  1.0  -0.4903
  O  O461  1  0.368000  0.558700  0.623000  1.0  -0.4893
  O  O462  1  0.377000  0.632000  0.558700  1.0  -0.4942
  O  O463  1  0.829000  0.096000  0.847000  1.0  -0.4648
  O  O464  1  0.847000  0.171000  0.904000  1.0  -0.4644
  O  O465  1  0.904000  0.153000  0.829000  1.0  -0.4647
  O  O466  1  0.558700  0.377000  0.632000  1.0  -0.4898
  O  O467  1  0.632000  0.441300  0.623000  1.0  -0.4897
  O  O468  1  0.623000  0.368000  0.558700  1.0  -0.4949
  O  O469  1  0.829000  0.904000  0.153000  1.0  -0.4641
  O  O470  1  0.847000  0.829000  0.096000  1.0  -0.466
  O  O471  1  0.904000  0.847000  0.171000  1.0  -0.4653
  O  O472  1  0.558700  0.623000  0.368000  1.0  -0.4913
  O  O473  1  0.632000  0.558700  0.377000  1.0  -0.4883
  O  O474  1  0.623000  0.632000  0.441300  1.0  -0.4934
  O  O475  1  0.171000  0.096000  0.153000  1.0  -0.4639
  O  O476  1  0.153000  0.171000  0.096000  1.0  -0.4654
  O  O477  1  0.096000  0.153000  0.171000  1.0  -0.4648
  O  O478  1  0.441300  0.377000  0.368000  1.0  -0.4911
  O  O479  1  0.368000  0.441300  0.377000  1.0  -0.4882
  O  O480  1  0.377000  0.368000  0.441300  1.0  -0.4937
  O  O481  1  0.404000  0.671000  0.347000  1.0  -0.4641
  O  O482  1  0.329000  0.653000  0.404000  1.0  -0.4657
  O  O483  1  0.347000  0.596000  0.329000  1.0  -0.4635
  O  O484  1  0.123000  0.941300  0.132000  1.0  -0.4905
  O  O485  1  0.058700  0.868000  0.123000  1.0  -0.4896
  O  O486  1  0.132000  0.877000  0.058700  1.0  -0.4943
  O  O487  1  0.596000  0.329000  0.347000  1.0  -0.4636
  O  O488  1  0.671000  0.347000  0.404000  1.0  -0.4662
  O  O489  1  0.653000  0.404000  0.329000  1.0  -0.4629
  O  O490  1  0.877000  0.058700  0.132000  1.0  -0.4908
  O  O491  1  0.941300  0.132000  0.123000  1.0  -0.4894
  O  O492  1  0.868000  0.123000  0.058700  1.0  -0.4945
  O  O493  1  0.404000  0.329000  0.653000  1.0  -0.4642
  O  O494  1  0.329000  0.347000  0.596000  1.0  -0.4663
  O  O495  1  0.347000  0.404000  0.671000  1.0  -0.4656
  O  O496  1  0.123000  0.058700  0.868000  1.0  -0.4917
  O  O497  1  0.058700  0.132000  0.877000  1.0  -0.4882
  O  O498  1  0.132000  0.123000  0.941300  1.0  -0.4931
  O  O499  1  0.596000  0.671000  0.653000  1.0  -0.462
  O  O500  1  0.671000  0.653000  0.596000  1.0  -0.467
  O  O501  1  0.653000  0.596000  0.671000  1.0  -0.4644
  O  O502  1  0.877000  0.941300  0.868000  1.0  -0.4915
  O  O503  1  0.941300  0.868000  0.877000  1.0  -0.4888
  O  O504  1  0.868000  0.877000  0.941300  1.0  -0.4933
