# generated using pymatgen
data_Cu4B3H32C32N16F13
_symmetry_space_group_name_H-M   'P 1'
_cell_length_a   13.15620000
_cell_length_b   13.15620000
_cell_length_c   15.91200000
_cell_angle_alpha   90.00000000
_cell_angle_beta   90.00000000
_cell_angle_gamma   101.78100000
_symmetry_Int_Tables_number   1
_chemical_formula_structural   Cu4B3H32C32N16F13
_chemical_formula_sum   'Cu8 B6 H64 C64 N32 F26'
_cell_volume   2696.12253322
_cell_formula_units_Z   2
loop_
 _symmetry_equiv_pos_site_id
 _symmetry_equiv_pos_as_xyz
  1  'x, y, z'
loop_
 _atom_site_type_symbol
 _atom_site_label
 _atom_site_symmetry_multiplicity
 _atom_site_fract_x
 _atom_site_fract_y
 _atom_site_fract_z
 _atom_site_occupancy
 _atom_site_charge
  Cu  Cu1  1  0.575670  0.287150  0.503090  1.0  0.381
  Cu  Cu2  1  0.596690  0.885770  0.329260  1.0  0.3895
  Cu  Cu3  1  0.424330  0.712850  0.003090  1.0  0.3807
  Cu  Cu4  1  0.403310  0.114230  0.829260  1.0  0.3885
  Cu  Cu5  1  0.712850  0.424330  0.003090  1.0  0.381
  Cu  Cu6  1  0.114230  0.403310  0.829260  1.0  0.3878
  Cu  Cu7  1  0.287150  0.575670  0.503090  1.0  0.3801
  Cu  Cu8  1  0.885770  0.596690  0.329260  1.0  0.3898
  B  B9  1  0.636300  0.047500  0.029700  1.0  1.0385
  B  B10  1  0.363700  0.952500  0.529700  1.0  1.038
  B  B11  1  0.952500  0.363700  0.529700  1.0  1.0391
  B  B12  1  0.047500  0.636300  0.029700  1.0  1.0394
  B  B13  1  0.471500  0.471500  0.764400  1.0  1.1351
  B  B14  1  0.528500  0.528500  0.264400  1.0  1.1331
  H  H15  1  0.594400  0.070600  0.450100  1.0  0.019
  H  H16  1  0.611800  0.054600  0.207600  1.0  0.0494
  H  H17  1  0.615200  0.228600  0.196100  1.0  0.1168
  H  H18  1  0.586100  0.315900  0.320100  1.0  0.0675
  H  H19  1  0.470200  0.230200  0.664700  1.0  0.022
  H  H20  1  0.722900  0.169300  0.577200  1.0  0.0746
  H  H21  1  0.747200  0.084600  0.702700  1.0  0.1064
  H  H22  1  0.384000  0.933600  0.301200  1.0  0.061
  H  H23  1  0.774300  0.964700  0.210100  1.0  0.0524
  H  H24  1  0.731700  0.424500  0.392300  1.0  0.0355
  H  H25  1  0.639200  0.475800  0.616700  1.0  0.0559
  H  H26  1  0.755800  0.626200  0.623700  1.0  0.1209
  H  H27  1  0.674800  0.862800  0.506600  1.0  0.0658
  H  H28  1  0.361700  0.167100  0.468700  1.0  0.0604
  H  H29  1  0.405600  0.929400  0.950100  1.0  0.0184
  H  H30  1  0.388200  0.945400  0.707600  1.0  0.0496
  H  H31  1  0.384800  0.771400  0.696100  1.0  0.1172
  H  H32  1  0.413900  0.684100  0.820100  1.0  0.0679
  H  H33  1  0.529800  0.769800  0.164700  1.0  0.0221
  H  H34  1  0.277100  0.830700  0.077200  1.0  0.0742
  H  H35  1  0.252800  0.915400  0.202700  1.0  0.1043
  H  H36  1  0.616000  0.066400  0.801200  1.0  0.06
  H  H37  1  0.225700  0.035300  0.710100  1.0  0.0515
  H  H38  1  0.268300  0.575500  0.892300  1.0  0.0368
  H  H39  1  0.360800  0.524200  0.116700  1.0  0.0559
  H  H40  1  0.244200  0.373800  0.123700  1.0  0.1214
  H  H41  1  0.325200  0.137200  0.006600  1.0  0.0657
  H  H42  1  0.638300  0.832900  0.968700  1.0  0.0606
  H  H43  1  0.929400  0.405600  0.950100  1.0  0.0192
  H  H44  1  0.945400  0.388200  0.707600  1.0  0.0495
  H  H45  1  0.771400  0.384800  0.696100  1.0  0.1167
  H  H46  1  0.684100  0.413900  0.820100  1.0  0.0706
  H  H47  1  0.769800  0.529800  0.164700  1.0  0.0221
  H  H48  1  0.830700  0.277100  0.077200  1.0  0.0734
  H  H49  1  0.915400  0.252800  0.202700  1.0  0.1071
  H  H50  1  0.066400  0.616000  0.801200  1.0  0.0601
  H  H51  1  0.035300  0.225700  0.710100  1.0  0.0519
  H  H52  1  0.575500  0.268300  0.892300  1.0  0.0362
  H  H53  1  0.524200  0.360800  0.116700  1.0  0.0552
  H  H54  1  0.373800  0.244200  0.123700  1.0  0.1209
  H  H55  1  0.137200  0.325200  0.006600  1.0  0.0656
  H  H56  1  0.832900  0.638300  0.968700  1.0  0.0586
  H  H57  1  0.070600  0.594400  0.450100  1.0  0.0185
  H  H58  1  0.054600  0.611800  0.207600  1.0  0.0501
  H  H59  1  0.228600  0.615200  0.196100  1.0  0.1169
  H  H60  1  0.315900  0.586100  0.320100  1.0  0.0696
  H  H61  1  0.230200  0.470200  0.664700  1.0  0.0223
  H  H62  1  0.169300  0.722900  0.577200  1.0  0.0733
  H  H63  1  0.084600  0.747200  0.702700  1.0  0.1061
  H  H64  1  0.933600  0.384000  0.301200  1.0  0.0596
  H  H65  1  0.964700  0.774300  0.210100  1.0  0.0502
  H  H66  1  0.424500  0.731700  0.392300  1.0  0.0368
  H  H67  1  0.475800  0.639200  0.616700  1.0  0.0549
  H  H68  1  0.626200  0.755800  0.623700  1.0  0.1201
  H  H69  1  0.862800  0.674800  0.506600  1.0  0.064
  H  H70  1  0.167100  0.361700  0.468700  1.0  0.0591
  H  H71  1  0.197200  0.197200  0.439200  1.0  0.1098
  H  H72  1  0.455600  0.455600  0.515700  1.0  0.0317
  H  H73  1  0.802800  0.802800  0.939200  1.0  0.1105
  H  H74  1  0.544400  0.544400  0.015700  1.0  0.0317
  H  H75  1  0.720000  0.720000  0.346900  1.0  0.0254
  H  H76  1  0.922300  0.922300  0.156800  1.0  0.094
  H  H77  1  0.280000  0.280000  0.846900  1.0  0.0251
  H  H78  1  0.077700  0.077700  0.656800  1.0  0.0933
  C  C79  1  0.598000  0.102800  0.397800  1.0  0.3632
  C  C80  1  0.609500  0.093100  0.256300  1.0  0.1901
  C  C81  1  0.607800  0.195400  0.247900  1.0  -0.2054
  C  C82  1  0.594200  0.247400  0.322500  1.0  0.1527
  C  C83  1  0.526700  0.198700  0.671700  1.0  0.3716
  C  C84  1  0.674600  0.165000  0.620400  1.0  0.2029
  C  C85  1  0.688600  0.112600  0.693900  1.0  -0.216
  C  C86  1  0.388800  0.895600  0.252500  1.0  0.1858
  C  C87  1  0.792000  0.903400  0.228000  1.0  0.1953
  C  C88  1  0.736800  0.466200  0.439900  1.0  0.3537
  C  C89  1  0.682900  0.495300  0.571000  1.0  0.1942
  C  C90  1  0.750600  0.584600  0.576000  1.0  -0.214
  C  C91  1  0.612900  0.813900  0.505300  1.0  0.2044
  C  C92  1  0.349700  0.234100  0.472200  1.0  0.2082
  C  C93  1  0.402000  0.897200  0.897800  1.0  0.363
  C  C94  1  0.390500  0.906900  0.756300  1.0  0.1903
  C  C95  1  0.392200  0.804600  0.747900  1.0  -0.2053
  C  C96  1  0.405800  0.752600  0.822500  1.0  0.1517
  C  C97  1  0.473300  0.801300  0.171700  1.0  0.3709
  C  C98  1  0.325400  0.835000  0.120400  1.0  0.2001
  C  C99  1  0.311400  0.887400  0.193900  1.0  -0.2219
  C  C100  1  0.611200  0.104400  0.752500  1.0  0.1893
  C  C101  1  0.208000  0.096600  0.728000  1.0  0.1923
  C  C102  1  0.263200  0.533800  0.939900  1.0  0.353
  C  C103  1  0.317100  0.504700  0.071000  1.0  0.1932
  C  C104  1  0.249400  0.415400  0.076000  1.0  -0.2129
  C  C105  1  0.387100  0.186100  0.005300  1.0  0.2066
  C  C106  1  0.650300  0.765900  0.972200  1.0  0.2094
  C  C107  1  0.897200  0.402000  0.897800  1.0  0.3628
  C  C108  1  0.906900  0.390500  0.756300  1.0  0.1945
  C  C109  1  0.804600  0.392200  0.747900  1.0  -0.2065
  C  C110  1  0.752600  0.405800  0.822500  1.0  0.1495
  C  C111  1  0.801300  0.473300  0.171700  1.0  0.3698
  C  C112  1  0.835000  0.325400  0.120400  1.0  0.1997
  C  C113  1  0.887400  0.311400  0.193900  1.0  -0.2169
  C  C114  1  0.104400  0.611200  0.752500  1.0  0.1848
  C  C115  1  0.096600  0.208000  0.728000  1.0  0.1967
  C  C116  1  0.533800  0.263200  0.939900  1.0  0.3541
  C  C117  1  0.504700  0.317100  0.071000  1.0  0.1942
  C  C118  1  0.415400  0.249400  0.076000  1.0  -0.2161
  C  C119  1  0.186100  0.387100  0.005300  1.0  0.2079
  C  C120  1  0.765900  0.650300  0.972200  1.0  0.2089
  C  C121  1  0.102800  0.598000  0.397800  1.0  0.3636
  C  C122  1  0.093100  0.609500  0.256300  1.0  0.192
  C  C123  1  0.195400  0.607800  0.247900  1.0  -0.2061
  C  C124  1  0.247400  0.594200  0.322500  1.0  0.151
  C  C125  1  0.198700  0.526700  0.671700  1.0  0.3701
  C  C126  1  0.165000  0.674600  0.620400  1.0  0.1981
  C  C127  1  0.112600  0.688600  0.693900  1.0  -0.2207
  C  C128  1  0.895600  0.388800  0.252500  1.0  0.1878
  C  C129  1  0.903400  0.792000  0.228000  1.0  0.1933
  C  C130  1  0.466200  0.736800  0.439900  1.0  0.3547
  C  C131  1  0.495300  0.682900  0.571000  1.0  0.1933
  C  C132  1  0.584600  0.750600  0.576000  1.0  -0.2124
  C  C133  1  0.813900  0.612900  0.505300  1.0  0.2052
  C  C134  1  0.234100  0.349700  0.472200  1.0  0.2074
  C  C135  1  0.250300  0.250300  0.457700  1.0  -0.2312
  C  C136  1  0.401600  0.401600  0.500100  1.0  0.3554
  C  C137  1  0.749700  0.749700  0.957700  1.0  -0.2311
  C  C138  1  0.598400  0.598400  0.000100  1.0  0.3566
  C  C139  1  0.761100  0.761100  0.307300  1.0  0.3262
  C  C140  1  0.881000  0.881000  0.196200  1.0  -0.1844
  C  C141  1  0.238900  0.238900  0.807300  1.0  0.3259
  C  C142  1  0.119000  0.119000  0.696200  1.0  -0.1846
  N  N143  1  0.592400  0.200400  0.397000  1.0  -0.3461
  N  N144  1  0.672800  0.430800  0.504400  1.0  -0.3748
  N  N145  1  0.593100  0.208900  0.611100  1.0  -0.3622
  N  N146  1  0.426000  0.309600  0.490300  1.0  -0.3536
  N  N147  1  0.608100  0.043900  0.330400  1.0  -0.33
  N  N148  1  0.468700  0.852500  0.243200  1.0  -0.3736
  N  N149  1  0.729000  0.846400  0.281700  1.0  -0.3341
  N  N150  1  0.555200  0.806600  0.437600  1.0  -0.358
  N  N151  1  0.407600  0.799600  0.897000  1.0  -0.3464
  N  N152  1  0.327200  0.569200  0.004400  1.0  -0.3747
  N  N153  1  0.406900  0.791100  0.111100  1.0  -0.3621
  N  N154  1  0.574000  0.690400  0.990300  1.0  -0.3541
  N  N155  1  0.391900  0.956100  0.830400  1.0  -0.332
  N  N156  1  0.531300  0.147500  0.743200  1.0  -0.3725
  N  N157  1  0.271000  0.153600  0.781700  1.0  -0.3322
  N  N158  1  0.444800  0.193400  0.937600  1.0  -0.3579
  N  N159  1  0.799600  0.407600  0.897000  1.0  -0.3447
  N  N160  1  0.569200  0.327200  0.004400  1.0  -0.3777
  N  N161  1  0.791100  0.406900  0.111100  1.0  -0.3614
  N  N162  1  0.690400  0.574000  0.990300  1.0  -0.3523
  N  N163  1  0.956100  0.391900  0.830400  1.0  -0.33
  N  N164  1  0.147500  0.531300  0.743200  1.0  -0.3726
  N  N165  1  0.153600  0.271000  0.781700  1.0  -0.3355
  N  N166  1  0.193400  0.444800  0.937600  1.0  -0.3578
  N  N167  1  0.200400  0.592400  0.397000  1.0  -0.3416
  N  N168  1  0.430800  0.672800  0.504400  1.0  -0.3782
  N  N169  1  0.208900  0.593100  0.611100  1.0  -0.3615
  N  N170  1  0.309600  0.426000  0.490300  1.0  -0.3521
  N  N171  1  0.043900  0.608100  0.330400  1.0  -0.3312
  N  N172  1  0.852500  0.468700  0.243200  1.0  -0.3733
  N  N173  1  0.846400  0.729000  0.281700  1.0  -0.3356
  N  N174  1  0.806600  0.555200  0.437600  1.0  -0.3573
  F  F175  1  0.619900  0.014700  0.947000  1.0  -0.377
  F  F176  1  0.686300  0.987300  0.072300  1.0  -0.3786
  F  F177  1  0.528500  0.024900  0.061700  1.0  -0.5059
  F  F178  1  0.671900  0.140500  0.042400  1.0  -0.3205
  F  F179  1  0.380100  0.985300  0.447000  1.0  -0.3734
  F  F180  1  0.313700  0.012700  0.572300  1.0  -0.3732
  F  F181  1  0.471500  0.975100  0.561700  1.0  -0.5046
  F  F182  1  0.328100  0.859500  0.542400  1.0  -0.3168
  F  F183  1  0.985300  0.380100  0.447000  1.0  -0.3767
  F  F184  1  0.012700  0.313700  0.572300  1.0  -0.3763
  F  F185  1  0.975100  0.471500  0.561700  1.0  -0.5104
  F  F186  1  0.859500  0.328100  0.542400  1.0  -0.3236
  F  F187  1  0.014700  0.619900  0.947000  1.0  -0.3743
  F  F188  1  0.987300  0.686300  0.072300  1.0  -0.3759
  F  F189  1  0.024900  0.528500  0.061700  1.0  -0.5103
  F  F190  1  0.140500  0.671900  0.042400  1.0  -0.3212
  F  F191  1  0.534300  0.418700  0.745500  1.0  -0.4042
  F  F192  1  0.418700  0.534300  0.745500  1.0  -0.4043
  F  F193  1  0.400900  0.400900  0.699000  1.0  -0.4921
  F  F194  1  0.556700  0.556700  0.754900  1.0  -0.4461
  F  F195  1  0.440200  0.440200  0.840500  1.0  -0.4826
  F  F196  1  0.465700  0.581300  0.245500  1.0  -0.4034
  F  F197  1  0.581300  0.465700  0.245500  1.0  -0.404
  F  F198  1  0.599100  0.599100  0.199000  1.0  -0.4919
  F  F199  1  0.443300  0.443300  0.254900  1.0  -0.4487
  F  F200  1  0.559800  0.559800  0.340500  1.0  -0.4812
