# generated using pymatgen
data_ZnH2(C3O2)2
_symmetry_space_group_name_H-M   'P 1'
_cell_length_a   18.76660000
_cell_length_b   18.76660000
_cell_length_c   18.76660000
_cell_angle_alpha   60.00000000
_cell_angle_beta   60.00000000
_cell_angle_gamma   60.00000000
_symmetry_Int_Tables_number   1
_chemical_formula_structural   ZnH2(C3O2)2
_chemical_formula_sum   'Zn12 H24 C72 O48'
_cell_volume   4673.49512703
_cell_formula_units_Z   12
loop_
 _symmetry_equiv_pos_site_id
 _symmetry_equiv_pos_as_xyz
  1  'x, y, z'
loop_
 _atom_site_type_symbol
 _atom_site_label
 _atom_site_symmetry_multiplicity
 _atom_site_fract_x
 _atom_site_fract_y
 _atom_site_fract_z
 _atom_site_occupancy
 _atom_site_charge
  Zn  Zn1  1  0.500000  0.079160  0.500000  1.0  1.1493
  Zn  Zn2  1  0.079160  0.500000  0.920840  1.0  1.1492
  Zn  Zn3  1  0.500000  0.920840  0.500000  1.0  1.1472
  Zn  Zn4  1  0.920840  0.500000  0.079160  1.0  1.1501
  Zn  Zn5  1  0.500000  0.500000  0.920840  1.0  1.1451
  Zn  Zn6  1  0.079160  0.920840  0.500000  1.0  1.1479
  Zn  Zn7  1  0.500000  0.500000  0.079160  1.0  1.1458
  Zn  Zn8  1  0.920840  0.079160  0.500000  1.0  1.149
  Zn  Zn9  1  0.500000  0.920840  0.079160  1.0  1.1484
  Zn  Zn10  1  0.079160  0.500000  0.500000  1.0  1.1498
  Zn  Zn11  1  0.500000  0.079160  0.920840  1.0  1.1481
  Zn  Zn12  1  0.920840  0.500000  0.500000  1.0  1.1483
  H  H13  1  0.770700  0.987500  0.471100  1.0  0.115
  H  H14  1  0.987500  0.770700  0.770700  1.0  0.1138
  H  H15  1  0.471100  0.770700  0.770700  1.0  0.1138
  H  H16  1  0.770700  0.471100  0.987500  1.0  0.114
  H  H17  1  0.770700  0.471100  0.770700  1.0  0.114
  H  H18  1  0.987500  0.770700  0.471100  1.0  0.1136
  H  H19  1  0.471100  0.770700  0.987500  1.0  0.1141
  H  H20  1  0.770700  0.987500  0.770700  1.0  0.1152
  H  H21  1  0.770700  0.770700  0.987500  1.0  0.1138
  H  H22  1  0.987500  0.471100  0.770700  1.0  0.1143
  H  H23  1  0.471100  0.987500  0.770700  1.0  0.1149
  H  H24  1  0.770700  0.770700  0.471100  1.0  0.1134
  H  H25  1  0.012500  0.229300  0.528900  1.0  0.1142
  H  H26  1  0.229300  0.012500  0.229300  1.0  0.1149
  H  H27  1  0.229300  0.528900  0.229300  1.0  0.1139
  H  H28  1  0.528900  0.229300  0.012500  1.0  0.1141
  H  H29  1  0.528900  0.229300  0.229300  1.0  0.1141
  H  H30  1  0.229300  0.012500  0.528900  1.0  0.1152
  H  H31  1  0.229300  0.528900  0.012500  1.0  0.1141
  H  H32  1  0.012500  0.229300  0.229300  1.0  0.114
  H  H33  1  0.229300  0.229300  0.012500  1.0  0.1138
  H  H34  1  0.528900  0.012500  0.229300  1.0  0.1151
  H  H35  1  0.012500  0.528900  0.229300  1.0  0.1142
  H  H36  1  0.229300  0.229300  0.528900  1.0  0.1137
  C  C37  1  0.663720  0.930200  0.475880  1.0  0.7323
  C  C38  1  0.756340  0.885700  0.472260  1.0  -0.1793
  C  C39  1  0.930200  0.663720  0.930200  1.0  0.7326
  C  C40  1  0.885700  0.756340  0.885700  1.0  -0.1791
  C  C41  1  0.475880  0.930200  0.663720  1.0  0.7331
  C  C42  1  0.472260  0.885700  0.756340  1.0  -0.1792
  C  C43  1  0.930200  0.475880  0.930200  1.0  0.7333
  C  C44  1  0.885700  0.472260  0.885700  1.0  -0.1791
  C  C45  1  0.663720  0.475880  0.930200  1.0  0.7326
  C  C46  1  0.756340  0.472260  0.885700  1.0  -0.179
  C  C47  1  0.930200  0.930200  0.475880  1.0  0.7325
  C  C48  1  0.885700  0.885700  0.472260  1.0  -0.1791
  C  C49  1  0.475880  0.663720  0.930200  1.0  0.7333
  C  C50  1  0.472260  0.756340  0.885700  1.0  -0.1788
  C  C51  1  0.930200  0.930200  0.663720  1.0  0.7321
  C  C52  1  0.885700  0.885700  0.756340  1.0  -0.1792
  C  C53  1  0.663720  0.930200  0.930200  1.0  0.7325
  C  C54  1  0.756340  0.885700  0.885700  1.0  -0.1794
  C  C55  1  0.930200  0.475880  0.663720  1.0  0.7331
  C  C56  1  0.885700  0.472260  0.756340  1.0  -0.1786
  C  C57  1  0.475880  0.930200  0.930200  1.0  0.7333
  C  C58  1  0.472260  0.885700  0.885700  1.0  -0.1797
  C  C59  1  0.930200  0.663720  0.475880  1.0  0.7322
  C  C60  1  0.885700  0.756340  0.472260  1.0  -0.1792
  C  C61  1  0.069800  0.336280  0.524120  1.0  0.7323
  C  C62  1  0.114300  0.243660  0.527740  1.0  -0.1788
  C  C63  1  0.336280  0.069800  0.069800  1.0  0.7312
  C  C64  1  0.243660  0.114300  0.114300  1.0  -0.1791
  C  C65  1  0.069800  0.524120  0.336280  1.0  0.7331
  C  C66  1  0.114300  0.527740  0.243660  1.0  -0.1794
  C  C67  1  0.524120  0.069800  0.069800  1.0  0.7336
  C  C68  1  0.527740  0.114300  0.114300  1.0  -0.1794
  C  C69  1  0.524120  0.336280  0.069800  1.0  0.7339
  C  C70  1  0.527740  0.243660  0.114300  1.0  -0.179
  C  C71  1  0.069800  0.069800  0.524120  1.0  0.7313
  C  C72  1  0.114300  0.114300  0.527740  1.0  -0.1795
  C  C73  1  0.336280  0.524120  0.069800  1.0  0.7318
  C  C74  1  0.243660  0.527740  0.114300  1.0  -0.1784
  C  C75  1  0.069800  0.069800  0.336280  1.0  0.7317
  C  C76  1  0.114300  0.114300  0.243660  1.0  -0.1793
  C  C77  1  0.069800  0.336280  0.069800  1.0  0.7321
  C  C78  1  0.114300  0.243660  0.114300  1.0  -0.1787
  C  C79  1  0.524120  0.069800  0.336280  1.0  0.7339
  C  C80  1  0.527740  0.114300  0.243660  1.0  -0.1798
  C  C81  1  0.069800  0.524120  0.069800  1.0  0.7327
  C  C82  1  0.114300  0.527740  0.114300  1.0  -0.1788
  C  C83  1  0.336280  0.069800  0.524120  1.0  0.7317
  C  C84  1  0.243660  0.114300  0.527740  1.0  -0.1792
  C  C85  1  0.799700  0.928780  0.471820  1.0  0.0236
  C  C86  1  0.928780  0.799700  0.799700  1.0  0.023
  C  C87  1  0.471820  0.799700  0.799700  1.0  0.0222
  C  C88  1  0.799700  0.471820  0.928780  1.0  0.0234
  C  C89  1  0.799700  0.471820  0.799700  1.0  0.0229
  C  C90  1  0.928780  0.799700  0.471820  1.0  0.0234
  C  C91  1  0.471820  0.799700  0.928780  1.0  0.0227
  C  C92  1  0.799700  0.928780  0.799700  1.0  0.0234
  C  C93  1  0.799700  0.799700  0.928780  1.0  0.0244
  C  C94  1  0.928780  0.471820  0.799700  1.0  0.0234
  C  C95  1  0.471820  0.928780  0.799700  1.0  0.0238
  C  C96  1  0.799700  0.799700  0.471820  1.0  0.0236
  C  C97  1  0.071220  0.200300  0.528180  1.0  0.0239
  C  C98  1  0.200300  0.071220  0.200300  1.0  0.0237
  C  C99  1  0.200300  0.528180  0.200300  1.0  0.0231
  C  C100  1  0.528180  0.200300  0.071220  1.0  0.0216
  C  C101  1  0.528180  0.200300  0.200300  1.0  0.0226
  C  C102  1  0.200300  0.071220  0.528180  1.0  0.0236
  C  C103  1  0.200300  0.528180  0.071220  1.0  0.0219
  C  C104  1  0.071220  0.200300  0.200300  1.0  0.0241
  C  C105  1  0.200300  0.200300  0.071220  1.0  0.0224
  C  C106  1  0.528180  0.071220  0.200300  1.0  0.0232
  C  C107  1  0.071220  0.528180  0.200300  1.0  0.024
  C  C108  1  0.200300  0.200300  0.528180  1.0  0.0231
  O  O109  1  0.627950  0.006390  0.478410  1.0  -0.6328
  O  O110  1  0.006390  0.627950  0.887250  1.0  -0.6325
  O  O111  1  0.478410  0.887250  0.627950  1.0  -0.6323
  O  O112  1  0.887250  0.478410  0.006390  1.0  -0.6305
  O  O113  1  0.627950  0.478410  0.887250  1.0  -0.6327
  O  O114  1  0.006390  0.887250  0.478410  1.0  -0.6337
  O  O115  1  0.478410  0.627950  0.006390  1.0  -0.6322
  O  O116  1  0.887250  0.006390  0.627950  1.0  -0.6338
  O  O117  1  0.627950  0.887250  0.006390  1.0  -0.6317
  O  O118  1  0.006390  0.478410  0.627950  1.0  -0.6327
  O  O119  1  0.478410  0.006390  0.887250  1.0  -0.6331
  O  O120  1  0.887250  0.627950  0.478410  1.0  -0.632
  O  O121  1  0.993610  0.372050  0.521590  1.0  -0.6322
  O  O122  1  0.372050  0.993610  0.112750  1.0  -0.633
  O  O123  1  0.112750  0.521590  0.372050  1.0  -0.6317
  O  O124  1  0.521590  0.112750  0.993610  1.0  -0.6325
  O  O125  1  0.521590  0.372050  0.112750  1.0  -0.6315
  O  O126  1  0.112750  0.993610  0.521590  1.0  -0.6332
  O  O127  1  0.372050  0.521590  0.993610  1.0  -0.6317
  O  O128  1  0.993610  0.112750  0.372050  1.0  -0.6334
  O  O129  1  0.112750  0.372050  0.993610  1.0  -0.6327
  O  O130  1  0.521590  0.993610  0.372050  1.0  -0.6326
  O  O131  1  0.993610  0.521590  0.112750  1.0  -0.632
  O  O132  1  0.372050  0.112750  0.521590  1.0  -0.6327
  O  O133  1  0.372050  0.993610  0.521590  1.0  -0.6336
  O  O134  1  0.993610  0.372050  0.112750  1.0  -0.6314
  O  O135  1  0.521590  0.112750  0.372050  1.0  -0.6325
  O  O136  1  0.112750  0.521590  0.993610  1.0  -0.6317
  O  O137  1  0.372050  0.521590  0.112750  1.0  -0.6309
  O  O138  1  0.993610  0.112750  0.521590  1.0  -0.6332
  O  O139  1  0.521590  0.372050  0.993610  1.0  -0.6334
  O  O140  1  0.112750  0.993610  0.372050  1.0  -0.6334
  O  O141  1  0.372050  0.112750  0.993610  1.0  -0.6334
  O  O142  1  0.993610  0.521590  0.372050  1.0  -0.6324
  O  O143  1  0.521590  0.993610  0.112750  1.0  -0.6327
  O  O144  1  0.112750  0.372050  0.521590  1.0  -0.6327
  O  O145  1  0.006390  0.627950  0.478410  1.0  -0.6319
  O  O146  1  0.627950  0.006390  0.887250  1.0  -0.6333
  O  O147  1  0.887250  0.478410  0.627950  1.0  -0.6311
  O  O148  1  0.478410  0.887250  0.006390  1.0  -0.6321
  O  O149  1  0.478410  0.627950  0.887250  1.0  -0.6332
  O  O150  1  0.887250  0.006390  0.478410  1.0  -0.634
  O  O151  1  0.627950  0.478410  0.006390  1.0  -0.6314
  O  O152  1  0.006390  0.887250  0.627950  1.0  -0.6334
  O  O153  1  0.887250  0.627950  0.006390  1.0  -0.6317
  O  O154  1  0.478410  0.006390  0.627950  1.0  -0.6322
  O  O155  1  0.006390  0.478410  0.887250  1.0  -0.633
  O  O156  1  0.627950  0.887250  0.478410  1.0  -0.6321
