# generated using pymatgen
data_CuH2(C3O2)2
_symmetry_space_group_name_H-M   'P 1'
_cell_length_a   26.33680000
_cell_length_b   26.33680000
_cell_length_c   26.33680000
_cell_angle_alpha   90.00000000
_cell_angle_beta   90.00000000
_cell_angle_gamma   90.00000000
_symmetry_Int_Tables_number   1
_chemical_formula_structural   CuH2(C3O2)2
_chemical_formula_sum   'Cu48 H96 C288 O192'
_cell_volume   18267.91647537
_cell_formula_units_Z   48
loop_
 _symmetry_equiv_pos_site_id
 _symmetry_equiv_pos_as_xyz
  1  'x, y, z'
loop_
 _atom_site_type_symbol
 _atom_site_label
 _atom_site_symmetry_multiplicity
 _atom_site_fract_x
 _atom_site_fract_y
 _atom_site_fract_z
 _atom_site_occupancy
 _atom_site_charge
  Cu  Cu1  1  0.714600  0.000000  0.285400  1.0  0.8898
  Cu  Cu2  1  0.714600  0.500000  0.785400  1.0  0.8898
  Cu  Cu3  1  0.214600  0.000000  0.785400  1.0  0.8898
  Cu  Cu4  1  0.214600  0.500000  0.285400  1.0  0.8898
  Cu  Cu5  1  0.285400  0.000000  0.285400  1.0  0.889
  Cu  Cu6  1  0.285400  0.500000  0.785400  1.0  0.889
  Cu  Cu7  1  0.785400  0.000000  0.785400  1.0  0.889
  Cu  Cu8  1  0.785400  0.500000  0.285400  1.0  0.889
  Cu  Cu9  1  0.285400  0.000000  0.714600  1.0  0.8893
  Cu  Cu10  1  0.285400  0.500000  0.214600  1.0  0.8893
  Cu  Cu11  1  0.785400  0.000000  0.214600  1.0  0.8893
  Cu  Cu12  1  0.785400  0.500000  0.714600  1.0  0.8893
  Cu  Cu13  1  0.714600  0.000000  0.714600  1.0  0.8903
  Cu  Cu14  1  0.714600  0.500000  0.214600  1.0  0.8903
  Cu  Cu15  1  0.214600  0.000000  0.214600  1.0  0.8903
  Cu  Cu16  1  0.214600  0.500000  0.714600  1.0  0.8903
  Cu  Cu17  1  0.285400  0.714600  0.000000  1.0  0.8902
  Cu  Cu18  1  0.285400  0.214600  0.500000  1.0  0.8902
  Cu  Cu19  1  0.785400  0.714600  0.500000  1.0  0.8902
  Cu  Cu20  1  0.785400  0.214600  0.000000  1.0  0.8902
  Cu  Cu21  1  0.285400  0.285400  0.000000  1.0  0.8916
  Cu  Cu22  1  0.285400  0.785400  0.500000  1.0  0.8916
  Cu  Cu23  1  0.785400  0.285400  0.500000  1.0  0.8916
  Cu  Cu24  1  0.785400  0.785400  0.000000  1.0  0.8916
  Cu  Cu25  1  0.714600  0.285400  0.000000  1.0  0.8912
  Cu  Cu26  1  0.714600  0.785400  0.500000  1.0  0.8912
  Cu  Cu27  1  0.214600  0.285400  0.500000  1.0  0.8912
  Cu  Cu28  1  0.214600  0.785400  0.000000  1.0  0.8912
  Cu  Cu29  1  0.714600  0.714600  0.000000  1.0  0.891
  Cu  Cu30  1  0.714600  0.214600  0.500000  1.0  0.891
  Cu  Cu31  1  0.214600  0.714600  0.500000  1.0  0.891
  Cu  Cu32  1  0.214600  0.214600  0.000000  1.0  0.891
  Cu  Cu33  1  0.000000  0.285400  0.714600  1.0  0.8889
  Cu  Cu34  1  0.000000  0.785400  0.214600  1.0  0.8889
  Cu  Cu35  1  0.500000  0.285400  0.214600  1.0  0.8889
  Cu  Cu36  1  0.500000  0.785400  0.714600  1.0  0.8889
  Cu  Cu37  1  0.000000  0.285400  0.285400  1.0  0.8893
  Cu  Cu38  1  0.000000  0.785400  0.785400  1.0  0.8893
  Cu  Cu39  1  0.500000  0.285400  0.785400  1.0  0.8893
  Cu  Cu40  1  0.500000  0.785400  0.285400  1.0  0.8893
  Cu  Cu41  1  0.000000  0.714600  0.285400  1.0  0.8884
  Cu  Cu42  1  0.000000  0.214600  0.785400  1.0  0.8884
  Cu  Cu43  1  0.500000  0.714600  0.785400  1.0  0.8884
  Cu  Cu44  1  0.500000  0.214600  0.285400  1.0  0.8884
  Cu  Cu45  1  0.000000  0.714600  0.714600  1.0  0.8887
  Cu  Cu46  1  0.000000  0.214600  0.214600  1.0  0.8887
  Cu  Cu47  1  0.500000  0.714600  0.214600  1.0  0.8887
  Cu  Cu48  1  0.500000  0.214600  0.714600  1.0  0.8887
  H  H49  1  0.774100  0.882100  0.382100  1.0  0.115
  H  H50  1  0.274100  0.882100  0.882100  1.0  0.115
  H  H51  1  0.225900  0.117900  0.382100  1.0  0.1153
  H  H52  1  0.225900  0.617900  0.882100  1.0  0.1153
  H  H53  1  0.725900  0.117900  0.882100  1.0  0.1153
  H  H54  1  0.225900  0.882100  0.617900  1.0  0.1148
  H  H55  1  0.725900  0.882100  0.117900  1.0  0.1148
  H  H56  1  0.774100  0.117900  0.617900  1.0  0.115
  H  H57  1  0.274100  0.117900  0.117900  1.0  0.115
  H  H58  1  0.274100  0.617900  0.617900  1.0  0.115
  H  H59  1  0.382100  0.774100  0.882100  1.0  0.1152
  H  H60  1  0.382100  0.274100  0.382100  1.0  0.1152
  H  H61  1  0.882100  0.274100  0.882100  1.0  0.1152
  H  H62  1  0.382100  0.225900  0.117900  1.0  0.1154
  H  H63  1  0.382100  0.725900  0.617900  1.0  0.1154
  H  H64  1  0.882100  0.225900  0.617900  1.0  0.1154
  H  H65  1  0.617900  0.225900  0.882100  1.0  0.1154
  H  H66  1  0.617900  0.725900  0.382100  1.0  0.1154
  H  H67  1  0.617900  0.774100  0.117900  1.0  0.1148
  H  H68  1  0.617900  0.274100  0.617900  1.0  0.1148
  H  H69  1  0.882100  0.382100  0.774100  1.0  0.116
  H  H70  1  0.882100  0.882100  0.274100  1.0  0.116
  H  H71  1  0.117900  0.382100  0.225900  1.0  0.1158
  H  H72  1  0.117900  0.882100  0.725900  1.0  0.1158
  H  H73  1  0.617900  0.882100  0.225900  1.0  0.1158
  H  H74  1  0.882100  0.617900  0.225900  1.0  0.1159
  H  H75  1  0.882100  0.117900  0.725900  1.0  0.1159
  H  H76  1  0.117900  0.617900  0.774100  1.0  0.1157
  H  H77  1  0.117900  0.117900  0.274100  1.0  0.1157
  H  H78  1  0.617900  0.617900  0.274100  1.0  0.1157
  H  H79  1  0.882100  0.774100  0.617900  1.0  0.1151
  H  H80  1  0.882100  0.274100  0.117900  1.0  0.1151
  H  H81  1  0.117900  0.225900  0.617900  1.0  0.1152
  H  H82  1  0.117900  0.725900  0.117900  1.0  0.1152
  H  H83  1  0.617900  0.725900  0.617900  1.0  0.1152
  H  H84  1  0.882100  0.225900  0.382100  1.0  0.1155
  H  H85  1  0.882100  0.725900  0.882100  1.0  0.1155
  H  H86  1  0.117900  0.774100  0.382100  1.0  0.1151
  H  H87  1  0.117900  0.274100  0.882100  1.0  0.1151
  H  H88  1  0.617900  0.774100  0.882100  1.0  0.1151
  H  H89  1  0.774100  0.382100  0.117900  1.0  0.115
  H  H90  1  0.774100  0.882100  0.617900  1.0  0.115
  H  H91  1  0.274100  0.382100  0.617900  1.0  0.115
  H  H92  1  0.225900  0.382100  0.882100  1.0  0.1152
  H  H93  1  0.725900  0.382100  0.382100  1.0  0.1152
  H  H94  1  0.725900  0.882100  0.882100  1.0  0.1152
  H  H95  1  0.225900  0.617900  0.117900  1.0  0.1148
  H  H96  1  0.725900  0.617900  0.617900  1.0  0.1148
  H  H97  1  0.774100  0.617900  0.882100  1.0  0.1152
  H  H98  1  0.274100  0.617900  0.382100  1.0  0.1152
  H  H99  1  0.382100  0.882100  0.225900  1.0  0.1159
  H  H100  1  0.382100  0.382100  0.725900  1.0  0.1159
  H  H101  1  0.882100  0.882100  0.725900  1.0  0.1159
  H  H102  1  0.382100  0.117900  0.774100  1.0  0.1161
  H  H103  1  0.382100  0.617900  0.274100  1.0  0.1161
  H  H104  1  0.882100  0.617900  0.774100  1.0  0.1161
  H  H105  1  0.617900  0.882100  0.774100  1.0  0.1156
  H  H106  1  0.617900  0.382100  0.274100  1.0  0.1156
  H  H107  1  0.617900  0.117900  0.225900  1.0  0.1159
  H  H108  1  0.617900  0.617900  0.725900  1.0  0.1159
  H  H109  1  0.225900  0.117900  0.617900  1.0  0.1148
  H  H110  1  0.725900  0.117900  0.117900  1.0  0.1148
  H  H111  1  0.274100  0.882100  0.117900  1.0  0.115
  H  H112  1  0.774100  0.117900  0.382100  1.0  0.1152
  H  H113  1  0.274100  0.117900  0.882100  1.0  0.1152
  H  H114  1  0.225900  0.882100  0.382100  1.0  0.1152
  H  H115  1  0.617900  0.225900  0.117900  1.0  0.1152
  H  H116  1  0.617900  0.274100  0.382100  1.0  0.1151
  H  H117  1  0.382100  0.774100  0.117900  1.0  0.1151
  H  H118  1  0.382100  0.274100  0.617900  1.0  0.1151
  H  H119  1  0.382100  0.225900  0.882100  1.0  0.1155
  H  H120  1  0.382100  0.725900  0.382100  1.0  0.1155
  H  H121  1  0.117900  0.617900  0.225900  1.0  0.1159
  H  H122  1  0.117900  0.117900  0.725900  1.0  0.1159
  H  H123  1  0.882100  0.117900  0.274100  1.0  0.1161
  H  H124  1  0.117900  0.382100  0.774100  1.0  0.1156
  H  H125  1  0.117900  0.882100  0.274100  1.0  0.1156
  H  H126  1  0.882100  0.382100  0.225900  1.0  0.1159
  H  H127  1  0.117900  0.225900  0.382100  1.0  0.1154
  H  H128  1  0.117900  0.725900  0.882100  1.0  0.1154
  H  H129  1  0.882100  0.774100  0.382100  1.0  0.1152
  H  H130  1  0.117900  0.774100  0.617900  1.0  0.1148
  H  H131  1  0.117900  0.274100  0.117900  1.0  0.1148
  H  H132  1  0.882100  0.725900  0.117900  1.0  0.1154
  H  H133  1  0.725900  0.617900  0.382100  1.0  0.1153
  H  H134  1  0.774100  0.617900  0.117900  1.0  0.115
  H  H135  1  0.774100  0.382100  0.882100  1.0  0.115
  H  H136  1  0.274100  0.382100  0.382100  1.0  0.115
  H  H137  1  0.225900  0.382100  0.117900  1.0  0.1148
  H  H138  1  0.725900  0.382100  0.617900  1.0  0.1148
  H  H139  1  0.617900  0.117900  0.774100  1.0  0.1157
  H  H140  1  0.617900  0.382100  0.725900  1.0  0.1158
  H  H141  1  0.382100  0.117900  0.225900  1.0  0.1159
  H  H142  1  0.382100  0.617900  0.725900  1.0  0.1159
  H  H143  1  0.382100  0.882100  0.774100  1.0  0.116
  H  H144  1  0.382100  0.382100  0.274100  1.0  0.116
  C  C145  1  0.823400  0.888900  0.323400  1.0  -0.1702
  C  C146  1  0.797700  0.931400  0.297700  1.0  0.7141
  C  C147  1  0.823400  0.388900  0.823400  1.0  -0.1702
  C  C148  1  0.797700  0.431400  0.797700  1.0  0.7141
  C  C149  1  0.176600  0.111100  0.323400  1.0  -0.1701
  C  C150  1  0.202300  0.068600  0.297700  1.0  0.714
  C  C151  1  0.176600  0.611100  0.823400  1.0  -0.1701
  C  C152  1  0.202300  0.568600  0.797700  1.0  0.714
  C  C153  1  0.676600  0.111100  0.823400  1.0  -0.1701
  C  C154  1  0.702300  0.068600  0.797700  1.0  0.714
  C  C155  1  0.176600  0.888900  0.676600  1.0  -0.1697
  C  C156  1  0.202300  0.931400  0.702300  1.0  0.7134
  C  C157  1  0.176600  0.388900  0.176600  1.0  -0.1697
  C  C158  1  0.202300  0.431400  0.202300  1.0  0.7134
  C  C159  1  0.676600  0.388900  0.676600  1.0  -0.1697
  C  C160  1  0.702300  0.431400  0.702300  1.0  0.7134
  C  C161  1  0.823400  0.111100  0.676600  1.0  -0.1699
  C  C162  1  0.797700  0.068600  0.702300  1.0  0.7134
  C  C163  1  0.823400  0.611100  0.176600  1.0  -0.1699
  C  C164  1  0.797700  0.568600  0.202300  1.0  0.7134
  C  C165  1  0.323400  0.823400  0.888900  1.0  -0.1717
  C  C166  1  0.297700  0.797700  0.931400  1.0  0.7147
  C  C167  1  0.323400  0.323400  0.388900  1.0  -0.1717
  C  C168  1  0.297700  0.297700  0.431400  1.0  0.7147
  C  C169  1  0.823400  0.823400  0.388900  1.0  -0.1717
  C  C170  1  0.797700  0.797700  0.431400  1.0  0.7147
  C  C171  1  0.323400  0.176600  0.111100  1.0  -0.1713
  C  C172  1  0.297700  0.202300  0.068600  1.0  0.7153
  C  C173  1  0.323400  0.676600  0.611100  1.0  -0.1713
  C  C174  1  0.297700  0.702300  0.568600  1.0  0.7153
  C  C175  1  0.823400  0.676600  0.111100  1.0  -0.1713
  C  C176  1  0.797700  0.702300  0.068600  1.0  0.7153
  C  C177  1  0.676600  0.176600  0.888900  1.0  -0.1715
  C  C178  1  0.702300  0.202300  0.931400  1.0  0.715
  C  C179  1  0.676600  0.676600  0.388900  1.0  -0.1715
  C  C180  1  0.702300  0.702300  0.431400  1.0  0.715
  C  C181  1  0.676600  0.823400  0.111100  1.0  -0.171
  C  C182  1  0.702300  0.797700  0.068600  1.0  0.7153
  C  C183  1  0.676600  0.323400  0.611100  1.0  -0.171
  C  C184  1  0.702300  0.297700  0.568600  1.0  0.7153
  C  C185  1  0.888900  0.323400  0.823400  1.0  -0.1698
  C  C186  1  0.931400  0.297700  0.797700  1.0  0.714
  C  C187  1  0.388900  0.323400  0.323400  1.0  -0.1698
  C  C188  1  0.431400  0.297700  0.297700  1.0  0.714
  C  C189  1  0.388900  0.823400  0.823400  1.0  -0.1698
  C  C190  1  0.431400  0.797700  0.797700  1.0  0.714
  C  C191  1  0.111100  0.323400  0.176600  1.0  -0.1698
  C  C192  1  0.068600  0.297700  0.202300  1.0  0.7129
  C  C193  1  0.111100  0.823400  0.676600  1.0  -0.1698
  C  C194  1  0.068600  0.797700  0.702300  1.0  0.7129
  C  C195  1  0.611100  0.323400  0.676600  1.0  -0.1698
  C  C196  1  0.568600  0.297700  0.702300  1.0  0.7129
  C  C197  1  0.888900  0.676600  0.176600  1.0  -0.1694
  C  C198  1  0.931400  0.702300  0.202300  1.0  0.7134
  C  C199  1  0.388900  0.676600  0.676600  1.0  -0.1694
  C  C200  1  0.431400  0.702300  0.702300  1.0  0.7134
  C  C201  1  0.111100  0.676600  0.823400  1.0  -0.1702
  C  C202  1  0.068600  0.702300  0.797700  1.0  0.7134
  C  C203  1  0.611100  0.676600  0.323400  1.0  -0.1702
  C  C204  1  0.568600  0.702300  0.297700  1.0  0.7134
  C  C205  1  0.888900  0.823400  0.676600  1.0  -0.1695
  C  C206  1  0.931400  0.797700  0.702300  1.0  0.7133
  C  C207  1  0.388900  0.823400  0.176600  1.0  -0.1695
  C  C208  1  0.431400  0.797700  0.202300  1.0  0.7133
  C  C209  1  0.111100  0.176600  0.676600  1.0  -0.1698
  C  C210  1  0.068600  0.202300  0.702300  1.0  0.713
  C  C211  1  0.611100  0.176600  0.176600  1.0  -0.1698
  C  C212  1  0.568600  0.202300  0.202300  1.0  0.713
  C  C213  1  0.611100  0.676600  0.676600  1.0  -0.1698
  C  C214  1  0.568600  0.702300  0.702300  1.0  0.713
  C  C215  1  0.888900  0.176600  0.323400  1.0  -0.1697
  C  C216  1  0.931400  0.202300  0.297700  1.0  0.714
  C  C217  1  0.888900  0.676600  0.823400  1.0  -0.1697
  C  C218  1  0.931400  0.702300  0.797700  1.0  0.714
  C  C219  1  0.388900  0.176600  0.823400  1.0  -0.1697
  C  C220  1  0.431400  0.202300  0.797700  1.0  0.714
  C  C221  1  0.111100  0.823400  0.323400  1.0  -0.1702
  C  C222  1  0.068600  0.797700  0.297700  1.0  0.7134
  C  C223  1  0.611100  0.823400  0.823400  1.0  -0.1702
  C  C224  1  0.568600  0.797700  0.797700  1.0  0.7134
  C  C225  1  0.823400  0.323400  0.111100  1.0  -0.1713
  C  C226  1  0.797700  0.297700  0.068600  1.0  0.7152
  C  C227  1  0.823400  0.823400  0.611100  1.0  -0.1713
  C  C228  1  0.797700  0.797700  0.568600  1.0  0.7152
  C  C229  1  0.176600  0.323400  0.888900  1.0  -0.1715
  C  C230  1  0.202300  0.297700  0.931400  1.0  0.7147
  C  C231  1  0.176600  0.823400  0.388900  1.0  -0.1715
  C  C232  1  0.202300  0.797700  0.431400  1.0  0.7147
  C  C233  1  0.676600  0.823400  0.888900  1.0  -0.1715
  C  C234  1  0.702300  0.797700  0.931400  1.0  0.7147
  C  C235  1  0.176600  0.676600  0.111100  1.0  -0.171
  C  C236  1  0.202300  0.702300  0.068600  1.0  0.7154
  C  C237  1  0.176600  0.176600  0.611100  1.0  -0.171
  C  C238  1  0.202300  0.202300  0.568600  1.0  0.7154
  C  C239  1  0.676600  0.676600  0.611100  1.0  -0.171
  C  C240  1  0.702300  0.702300  0.568600  1.0  0.7154
  C  C241  1  0.823400  0.676600  0.888900  1.0  -0.1717
  C  C242  1  0.797700  0.702300  0.931400  1.0  0.7149
  C  C243  1  0.823400  0.176600  0.388900  1.0  -0.1717
  C  C244  1  0.797700  0.202300  0.431400  1.0  0.7149
  C  C245  1  0.323400  0.888900  0.176600  1.0  -0.17
  C  C246  1  0.297700  0.931400  0.202300  1.0  0.7135
  C  C247  1  0.323400  0.388900  0.676600  1.0  -0.17
  C  C248  1  0.297700  0.431400  0.702300  1.0  0.7135
  C  C249  1  0.823400  0.888900  0.676600  1.0  -0.17
  C  C250  1  0.797700  0.931400  0.702300  1.0  0.7135
  C  C251  1  0.323400  0.111100  0.823400  1.0  -0.1703
  C  C252  1  0.297700  0.068600  0.797700  1.0  0.7139
  C  C253  1  0.323400  0.611100  0.323400  1.0  -0.1703
  C  C254  1  0.297700  0.568600  0.297700  1.0  0.7139
  C  C255  1  0.823400  0.611100  0.823400  1.0  -0.1703
  C  C256  1  0.797700  0.568600  0.797700  1.0  0.7139
  C  C257  1  0.676600  0.888900  0.823400  1.0  -0.17
  C  C258  1  0.702300  0.931400  0.797700  1.0  0.7141
  C  C259  1  0.676600  0.388900  0.323400  1.0  -0.17
  C  C260  1  0.702300  0.431400  0.297700  1.0  0.7141
  C  C261  1  0.676600  0.111100  0.176600  1.0  -0.1697
  C  C262  1  0.702300  0.068600  0.202300  1.0  0.7133
  C  C263  1  0.676600  0.611100  0.676600  1.0  -0.1697
  C  C264  1  0.702300  0.568600  0.702300  1.0  0.7133
  C  C265  1  0.176600  0.111100  0.676600  1.0  -0.1697
  C  C266  1  0.202300  0.068600  0.702300  1.0  0.7133
  C  C267  1  0.176600  0.611100  0.176600  1.0  -0.1697
  C  C268  1  0.202300  0.568600  0.202300  1.0  0.7133
  C  C269  1  0.823400  0.388900  0.176600  1.0  -0.17
  C  C270  1  0.797700  0.431400  0.202300  1.0  0.7135
  C  C271  1  0.823400  0.111100  0.323400  1.0  -0.1703
  C  C272  1  0.797700  0.068600  0.297700  1.0  0.7139
  C  C273  1  0.176600  0.888900  0.323400  1.0  -0.17
  C  C274  1  0.202300  0.931400  0.297700  1.0  0.7141
  C  C275  1  0.176600  0.388900  0.823400  1.0  -0.17
  C  C276  1  0.202300  0.431400  0.797700  1.0  0.7141
  C  C277  1  0.676600  0.176600  0.111100  1.0  -0.171
  C  C278  1  0.702300  0.202300  0.068600  1.0  0.7154
  C  C279  1  0.676600  0.323400  0.388900  1.0  -0.1715
  C  C280  1  0.702300  0.297700  0.431400  1.0  0.7147
  C  C281  1  0.323400  0.823400  0.111100  1.0  -0.1713
  C  C282  1  0.297700  0.797700  0.068600  1.0  0.7152
  C  C283  1  0.323400  0.323400  0.611100  1.0  -0.1713
  C  C284  1  0.297700  0.297700  0.568600  1.0  0.7152
  C  C285  1  0.323400  0.176600  0.888900  1.0  -0.1717
  C  C286  1  0.297700  0.202300  0.931400  1.0  0.7149
  C  C287  1  0.323400  0.676600  0.388900  1.0  -0.1717
  C  C288  1  0.297700  0.702300  0.431400  1.0  0.7149
  C  C289  1  0.111100  0.676600  0.176600  1.0  -0.1698
  C  C290  1  0.068600  0.702300  0.202300  1.0  0.713
  C  C291  1  0.388900  0.676600  0.323400  1.0  -0.1697
  C  C292  1  0.431400  0.702300  0.297700  1.0  0.714
  C  C293  1  0.111100  0.323400  0.823400  1.0  -0.1702
  C  C294  1  0.068600  0.297700  0.797700  1.0  0.7134
  C  C295  1  0.611100  0.323400  0.323400  1.0  -0.1702
  C  C296  1  0.568600  0.297700  0.297700  1.0  0.7134
  C  C297  1  0.888900  0.323400  0.176600  1.0  -0.1695
  C  C298  1  0.931400  0.297700  0.202300  1.0  0.7133
  C  C299  1  0.388900  0.323400  0.676600  1.0  -0.1695
  C  C300  1  0.431400  0.297700  0.702300  1.0  0.7133
  C  C301  1  0.111100  0.176600  0.323400  1.0  -0.1702
  C  C302  1  0.068600  0.202300  0.297700  1.0  0.7134
  C  C303  1  0.611100  0.176600  0.823400  1.0  -0.1702
  C  C304  1  0.568600  0.202300  0.797700  1.0  0.7134
  C  C305  1  0.888900  0.823400  0.323400  1.0  -0.1698
  C  C306  1  0.931400  0.797700  0.297700  1.0  0.714
  C  C307  1  0.611100  0.823400  0.176600  1.0  -0.1698
  C  C308  1  0.568600  0.797700  0.202300  1.0  0.7129
  C  C309  1  0.888900  0.176600  0.676600  1.0  -0.1694
  C  C310  1  0.931400  0.202300  0.702300  1.0  0.7134
  C  C311  1  0.388900  0.176600  0.176600  1.0  -0.1694
  C  C312  1  0.431400  0.202300  0.202300  1.0  0.7134
  C  C313  1  0.176600  0.676600  0.888900  1.0  -0.1715
  C  C314  1  0.202300  0.702300  0.931400  1.0  0.715
  C  C315  1  0.176600  0.176600  0.388900  1.0  -0.1715
  C  C316  1  0.202300  0.202300  0.431400  1.0  0.715
  C  C317  1  0.823400  0.176600  0.611100  1.0  -0.1713
  C  C318  1  0.797700  0.202300  0.568600  1.0  0.7153
  C  C319  1  0.823400  0.323400  0.888900  1.0  -0.1717
  C  C320  1  0.797700  0.297700  0.931400  1.0  0.7147
  C  C321  1  0.176600  0.323400  0.111100  1.0  -0.171
  C  C322  1  0.202300  0.297700  0.068600  1.0  0.7153
  C  C323  1  0.176600  0.823400  0.611100  1.0  -0.171
  C  C324  1  0.202300  0.797700  0.568600  1.0  0.7153
  C  C325  1  0.676600  0.611100  0.323400  1.0  -0.1701
  C  C326  1  0.702300  0.568600  0.297700  1.0  0.714
  C  C327  1  0.676600  0.888900  0.176600  1.0  -0.1697
  C  C328  1  0.702300  0.931400  0.202300  1.0  0.7134
  C  C329  1  0.323400  0.111100  0.176600  1.0  -0.1699
  C  C330  1  0.297700  0.068600  0.202300  1.0  0.7134
  C  C331  1  0.323400  0.611100  0.676600  1.0  -0.1699
  C  C332  1  0.297700  0.568600  0.702300  1.0  0.7134
  C  C333  1  0.323400  0.888900  0.823400  1.0  -0.1702
  C  C334  1  0.297700  0.931400  0.797700  1.0  0.7141
  C  C335  1  0.323400  0.388900  0.323400  1.0  -0.1702
  C  C336  1  0.297700  0.431400  0.297700  1.0  0.7141
  C  C337  1  0.802400  0.867200  0.367200  1.0  0.0282
  C  C338  1  0.302400  0.867200  0.867200  1.0  0.0282
  C  C339  1  0.197600  0.132800  0.367200  1.0  0.0295
  C  C340  1  0.197600  0.632800  0.867200  1.0  0.0295
  C  C341  1  0.697600  0.132800  0.867200  1.0  0.0295
  C  C342  1  0.197600  0.867200  0.632800  1.0  0.0285
  C  C343  1  0.697600  0.867200  0.132800  1.0  0.0285
  C  C344  1  0.802400  0.132800  0.632800  1.0  0.0282
  C  C345  1  0.302400  0.132800  0.132800  1.0  0.0282
  C  C346  1  0.302400  0.632800  0.632800  1.0  0.0282
  C  C347  1  0.367200  0.802400  0.867200  1.0  0.0313
  C  C348  1  0.367200  0.302400  0.367200  1.0  0.0313
  C  C349  1  0.867200  0.302400  0.867200  1.0  0.0313
  C  C350  1  0.367200  0.197600  0.132800  1.0  0.0308
  C  C351  1  0.367200  0.697600  0.632800  1.0  0.0308
  C  C352  1  0.867200  0.197600  0.632800  1.0  0.0308
  C  C353  1  0.632800  0.197600  0.867200  1.0  0.0304
  C  C354  1  0.632800  0.697600  0.367200  1.0  0.0304
  C  C355  1  0.632800  0.802400  0.132800  1.0  0.0298
  C  C356  1  0.632800  0.302400  0.632800  1.0  0.0298
  C  C357  1  0.867200  0.367200  0.802400  1.0  0.0306
  C  C358  1  0.867200  0.867200  0.302400  1.0  0.0306
  C  C359  1  0.132800  0.367200  0.197600  1.0  0.0299
  C  C360  1  0.132800  0.867200  0.697600  1.0  0.0299
  C  C361  1  0.632800  0.867200  0.197600  1.0  0.0299
  C  C362  1  0.867200  0.632800  0.197600  1.0  0.0313
  C  C363  1  0.867200  0.132800  0.697600  1.0  0.0313
  C  C364  1  0.132800  0.632800  0.802400  1.0  0.0299
  C  C365  1  0.132800  0.132800  0.302400  1.0  0.0299
  C  C366  1  0.632800  0.632800  0.302400  1.0  0.0299
  C  C367  1  0.867200  0.802400  0.632800  1.0  0.0307
  C  C368  1  0.867200  0.302400  0.132800  1.0  0.0307
  C  C369  1  0.132800  0.197600  0.632800  1.0  0.0301
  C  C370  1  0.132800  0.697600  0.132800  1.0  0.0301
  C  C371  1  0.632800  0.697600  0.632800  1.0  0.0301
  C  C372  1  0.867200  0.197600  0.367200  1.0  0.0313
  C  C373  1  0.867200  0.697600  0.867200  1.0  0.0313
  C  C374  1  0.132800  0.802400  0.367200  1.0  0.0303
  C  C375  1  0.132800  0.302400  0.867200  1.0  0.0303
  C  C376  1  0.632800  0.802400  0.867200  1.0  0.0303
  C  C377  1  0.802400  0.367200  0.132800  1.0  0.028
  C  C378  1  0.802400  0.867200  0.632800  1.0  0.028
  C  C379  1  0.302400  0.367200  0.632800  1.0  0.028
  C  C380  1  0.197600  0.367200  0.867200  1.0  0.0288
  C  C381  1  0.697600  0.367200  0.367200  1.0  0.0288
  C  C382  1  0.697600  0.867200  0.867200  1.0  0.0288
  C  C383  1  0.197600  0.632800  0.132800  1.0  0.0288
  C  C384  1  0.697600  0.632800  0.632800  1.0  0.0288
  C  C385  1  0.802400  0.632800  0.867200  1.0  0.0289
  C  C386  1  0.302400  0.632800  0.367200  1.0  0.0289
  C  C387  1  0.367200  0.867200  0.197600  1.0  0.0304
  C  C388  1  0.367200  0.367200  0.697600  1.0  0.0304
  C  C389  1  0.867200  0.867200  0.697600  1.0  0.0304
  C  C390  1  0.367200  0.132800  0.802400  1.0  0.0307
  C  C391  1  0.367200  0.632800  0.302400  1.0  0.0307
  C  C392  1  0.867200  0.632800  0.802400  1.0  0.0307
  C  C393  1  0.632800  0.867200  0.802400  1.0  0.03
  C  C394  1  0.632800  0.367200  0.302400  1.0  0.03
  C  C395  1  0.632800  0.132800  0.197600  1.0  0.0304
  C  C396  1  0.632800  0.632800  0.697600  1.0  0.0304
  C  C397  1  0.197600  0.132800  0.632800  1.0  0.0288
  C  C398  1  0.697600  0.132800  0.132800  1.0  0.0288
  C  C399  1  0.302400  0.867200  0.132800  1.0  0.028
  C  C400  1  0.802400  0.132800  0.367200  1.0  0.0289
  C  C401  1  0.302400  0.132800  0.867200  1.0  0.0289
  C  C402  1  0.197600  0.867200  0.367200  1.0  0.0288
  C  C403  1  0.632800  0.197600  0.132800  1.0  0.0301
  C  C404  1  0.632800  0.302400  0.367200  1.0  0.0303
  C  C405  1  0.367200  0.802400  0.132800  1.0  0.0307
  C  C406  1  0.367200  0.302400  0.632800  1.0  0.0307
  C  C407  1  0.367200  0.197600  0.867200  1.0  0.0313
  C  C408  1  0.367200  0.697600  0.367200  1.0  0.0313
  C  C409  1  0.132800  0.632800  0.197600  1.0  0.0304
  C  C410  1  0.132800  0.132800  0.697600  1.0  0.0304
  C  C411  1  0.867200  0.132800  0.302400  1.0  0.0307
  C  C412  1  0.132800  0.367200  0.802400  1.0  0.03
  C  C413  1  0.132800  0.867200  0.302400  1.0  0.03
  C  C414  1  0.867200  0.367200  0.197600  1.0  0.0304
  C  C415  1  0.132800  0.197600  0.367200  1.0  0.0304
  C  C416  1  0.132800  0.697600  0.867200  1.0  0.0304
  C  C417  1  0.867200  0.802400  0.367200  1.0  0.0313
  C  C418  1  0.132800  0.802400  0.632800  1.0  0.0298
  C  C419  1  0.132800  0.302400  0.132800  1.0  0.0298
  C  C420  1  0.867200  0.697600  0.132800  1.0  0.0308
  C  C421  1  0.697600  0.632800  0.367200  1.0  0.0295
  C  C422  1  0.802400  0.632800  0.132800  1.0  0.0282
  C  C423  1  0.802400  0.367200  0.867200  1.0  0.0282
  C  C424  1  0.302400  0.367200  0.367200  1.0  0.0282
  C  C425  1  0.197600  0.367200  0.132800  1.0  0.0285
  C  C426  1  0.697600  0.367200  0.632800  1.0  0.0285
  C  C427  1  0.632800  0.132800  0.802400  1.0  0.0299
  C  C428  1  0.632800  0.367200  0.697600  1.0  0.0299
  C  C429  1  0.367200  0.132800  0.197600  1.0  0.0313
  C  C430  1  0.367200  0.632800  0.697600  1.0  0.0313
  C  C431  1  0.367200  0.867200  0.802400  1.0  0.0306
  C  C432  1  0.367200  0.367200  0.302400  1.0  0.0306
  O  O433  1  0.756970  0.947650  0.316790  1.0  -0.5669
  O  O434  1  0.756970  0.447650  0.816790  1.0  -0.5669
  O  O435  1  0.256970  0.947650  0.816790  1.0  -0.5669
  O  O436  1  0.256970  0.447650  0.316790  1.0  -0.5669
  O  O437  1  0.243030  0.052350  0.316790  1.0  -0.5672
  O  O438  1  0.243030  0.552350  0.816790  1.0  -0.5672
  O  O439  1  0.743030  0.052350  0.816790  1.0  -0.5672
  O  O440  1  0.743030  0.552350  0.316790  1.0  -0.5672
  O  O441  1  0.243030  0.947650  0.683210  1.0  -0.5672
  O  O442  1  0.243030  0.447650  0.183210  1.0  -0.5672
  O  O443  1  0.743030  0.947650  0.183210  1.0  -0.5672
  O  O444  1  0.743030  0.447650  0.683210  1.0  -0.5672
  O  O445  1  0.756970  0.052350  0.683210  1.0  -0.5669
  O  O446  1  0.756970  0.552350  0.183210  1.0  -0.5669
  O  O447  1  0.256970  0.052350  0.183210  1.0  -0.5669
  O  O448  1  0.256970  0.552350  0.683210  1.0  -0.5669
  O  O449  1  0.316790  0.756970  0.947650  1.0  -0.5674
  O  O450  1  0.316790  0.256970  0.447650  1.0  -0.5674
  O  O451  1  0.816790  0.756970  0.447650  1.0  -0.5674
  O  O452  1  0.816790  0.256970  0.947650  1.0  -0.5674
  O  O453  1  0.316790  0.243030  0.052350  1.0  -0.5677
  O  O454  1  0.316790  0.743030  0.552350  1.0  -0.5677
  O  O455  1  0.816790  0.243030  0.552350  1.0  -0.5677
  O  O456  1  0.816790  0.743030  0.052350  1.0  -0.5677
  O  O457  1  0.683210  0.243030  0.947650  1.0  -0.567
  O  O458  1  0.683210  0.743030  0.447650  1.0  -0.567
  O  O459  1  0.183210  0.243030  0.447650  1.0  -0.567
  O  O460  1  0.183210  0.743030  0.947650  1.0  -0.567
  O  O461  1  0.683210  0.756970  0.052350  1.0  -0.5669
  O  O462  1  0.683210  0.256970  0.552350  1.0  -0.5669
  O  O463  1  0.183210  0.756970  0.552350  1.0  -0.5669
  O  O464  1  0.183210  0.256970  0.052350  1.0  -0.5669
  O  O465  1  0.947650  0.316790  0.756970  1.0  -0.5662
  O  O466  1  0.947650  0.816790  0.256970  1.0  -0.5662
  O  O467  1  0.447650  0.316790  0.256970  1.0  -0.5662
  O  O468  1  0.447650  0.816790  0.756970  1.0  -0.5662
  O  O469  1  0.052350  0.316790  0.243030  1.0  -0.5661
  O  O470  1  0.052350  0.816790  0.743030  1.0  -0.5661
  O  O471  1  0.552350  0.316790  0.743030  1.0  -0.5661
  O  O472  1  0.552350  0.816790  0.243030  1.0  -0.5661
  O  O473  1  0.947650  0.683210  0.243030  1.0  -0.5658
  O  O474  1  0.947650  0.183210  0.743030  1.0  -0.5658
  O  O475  1  0.447650  0.683210  0.743030  1.0  -0.5658
  O  O476  1  0.447650  0.183210  0.243030  1.0  -0.5658
  O  O477  1  0.052350  0.683210  0.756970  1.0  -0.5667
  O  O478  1  0.052350  0.183210  0.256970  1.0  -0.5667
  O  O479  1  0.552350  0.683210  0.256970  1.0  -0.5667
  O  O480  1  0.552350  0.183210  0.756970  1.0  -0.5667
  O  O481  1  0.947650  0.756970  0.683210  1.0  -0.5673
  O  O482  1  0.947650  0.256970  0.183210  1.0  -0.5673
  O  O483  1  0.447650  0.756970  0.183210  1.0  -0.5673
  O  O484  1  0.447650  0.256970  0.683210  1.0  -0.5673
  O  O485  1  0.052350  0.243030  0.683210  1.0  -0.5674
  O  O486  1  0.052350  0.743030  0.183210  1.0  -0.5674
  O  O487  1  0.552350  0.243030  0.183210  1.0  -0.5674
  O  O488  1  0.552350  0.743030  0.683210  1.0  -0.5674
  O  O489  1  0.947650  0.243030  0.316790  1.0  -0.5671
  O  O490  1  0.947650  0.743030  0.816790  1.0  -0.5671
  O  O491  1  0.447650  0.243030  0.816790  1.0  -0.5671
  O  O492  1  0.447650  0.743030  0.316790  1.0  -0.5671
  O  O493  1  0.052350  0.756970  0.316790  1.0  -0.5675
  O  O494  1  0.052350  0.256970  0.816790  1.0  -0.5675
  O  O495  1  0.552350  0.756970  0.816790  1.0  -0.5675
  O  O496  1  0.552350  0.256970  0.316790  1.0  -0.5675
  O  O497  1  0.756970  0.316790  0.052350  1.0  -0.5674
  O  O498  1  0.756970  0.816790  0.552350  1.0  -0.5674
  O  O499  1  0.256970  0.316790  0.552350  1.0  -0.5674
  O  O500  1  0.256970  0.816790  0.052350  1.0  -0.5674
  O  O501  1  0.243030  0.316790  0.947650  1.0  -0.5678
  O  O502  1  0.243030  0.816790  0.447650  1.0  -0.5678
  O  O503  1  0.743030  0.316790  0.447650  1.0  -0.5678
  O  O504  1  0.743030  0.816790  0.947650  1.0  -0.5678
  O  O505  1  0.243030  0.683210  0.052350  1.0  -0.5678
  O  O506  1  0.243030  0.183210  0.552350  1.0  -0.5678
  O  O507  1  0.743030  0.683210  0.552350  1.0  -0.5678
  O  O508  1  0.743030  0.183210  0.052350  1.0  -0.5678
  O  O509  1  0.756970  0.683210  0.947650  1.0  -0.5673
  O  O510  1  0.756970  0.183210  0.447650  1.0  -0.5673
  O  O511  1  0.256970  0.683210  0.447650  1.0  -0.5673
  O  O512  1  0.256970  0.183210  0.947650  1.0  -0.5673
  O  O513  1  0.316790  0.947650  0.243030  1.0  -0.5659
  O  O514  1  0.316790  0.447650  0.743030  1.0  -0.5659
  O  O515  1  0.816790  0.947650  0.743030  1.0  -0.5659
  O  O516  1  0.816790  0.447650  0.243030  1.0  -0.5661
  O  O517  1  0.316790  0.052350  0.756970  1.0  -0.5667
  O  O518  1  0.316790  0.552350  0.256970  1.0  -0.5667
  O  O519  1  0.816790  0.052350  0.256970  1.0  -0.5667
  O  O520  1  0.816790  0.552350  0.756970  1.0  -0.5667
  O  O521  1  0.683210  0.947650  0.756970  1.0  -0.566
  O  O522  1  0.683210  0.447650  0.256970  1.0  -0.566
  O  O523  1  0.183210  0.947650  0.256970  1.0  -0.566
  O  O524  1  0.183210  0.447650  0.756970  1.0  -0.566
  O  O525  1  0.683210  0.052350  0.243030  1.0  -0.5653
  O  O526  1  0.683210  0.552350  0.743030  1.0  -0.5653
  O  O527  1  0.183210  0.052350  0.743030  1.0  -0.5653
  O  O528  1  0.183210  0.552350  0.243030  1.0  -0.5653
  O  O529  1  0.243030  0.052350  0.683210  1.0  -0.5675
  O  O530  1  0.243030  0.552350  0.183210  1.0  -0.5675
  O  O531  1  0.743030  0.052350  0.183210  1.0  -0.5675
  O  O532  1  0.743030  0.552350  0.683210  1.0  -0.5675
  O  O533  1  0.756970  0.947650  0.683210  1.0  -0.5666
  O  O534  1  0.756970  0.447650  0.183210  1.0  -0.5666
  O  O535  1  0.256970  0.947650  0.183210  1.0  -0.5666
  O  O536  1  0.256970  0.447650  0.683210  1.0  -0.5666
  O  O537  1  0.756970  0.052350  0.316790  1.0  -0.5668
  O  O538  1  0.756970  0.552350  0.816790  1.0  -0.5668
  O  O539  1  0.256970  0.052350  0.816790  1.0  -0.5668
  O  O540  1  0.256970  0.552350  0.316790  1.0  -0.5668
  O  O541  1  0.243030  0.947650  0.316790  1.0  -0.5673
  O  O542  1  0.243030  0.447650  0.816790  1.0  -0.5673
  O  O543  1  0.743030  0.947650  0.816790  1.0  -0.5673
  O  O544  1  0.743030  0.447650  0.316790  1.0  -0.5673
  O  O545  1  0.683210  0.243030  0.052350  1.0  -0.5674
  O  O546  1  0.683210  0.743030  0.552350  1.0  -0.5674
  O  O547  1  0.183210  0.243030  0.552350  1.0  -0.5674
  O  O548  1  0.183210  0.743030  0.052350  1.0  -0.5674
  O  O549  1  0.683210  0.756970  0.947650  1.0  -0.5663
  O  O550  1  0.683210  0.256970  0.447650  1.0  -0.5663
  O  O551  1  0.183210  0.756970  0.447650  1.0  -0.5663
  O  O552  1  0.183210  0.256970  0.947650  1.0  -0.5663
  O  O553  1  0.316790  0.756970  0.052350  1.0  -0.5676
  O  O554  1  0.316790  0.256970  0.552350  1.0  -0.5676
  O  O555  1  0.816790  0.756970  0.552350  1.0  -0.5676
  O  O556  1  0.816790  0.256970  0.052350  1.0  -0.5676
  O  O557  1  0.316790  0.243030  0.947650  1.0  -0.5675
  O  O558  1  0.316790  0.743030  0.447650  1.0  -0.5673
  O  O559  1  0.816790  0.243030  0.447650  1.0  -0.5673
  O  O560  1  0.816790  0.743030  0.947650  1.0  -0.5675
  O  O561  1  0.052350  0.683210  0.243030  1.0  -0.566
  O  O562  1  0.052350  0.183210  0.743030  1.0  -0.566
  O  O563  1  0.552350  0.683210  0.743030  1.0  -0.566
  O  O564  1  0.552350  0.183210  0.243030  1.0  -0.566
  O  O565  1  0.947650  0.683210  0.756970  1.0  -0.5664
  O  O566  1  0.947650  0.183210  0.256970  1.0  -0.5664
  O  O567  1  0.447650  0.683210  0.256970  1.0  -0.5664
  O  O568  1  0.447650  0.183210  0.756970  1.0  -0.5664
  O  O569  1  0.052350  0.316790  0.756970  1.0  -0.5664
  O  O570  1  0.052350  0.816790  0.256970  1.0  -0.5664
  O  O571  1  0.552350  0.316790  0.256970  1.0  -0.5664
  O  O572  1  0.552350  0.816790  0.756970  1.0  -0.5664
  O  O573  1  0.947650  0.316790  0.243030  1.0  -0.566
  O  O574  1  0.947650  0.816790  0.743030  1.0  -0.566
  O  O575  1  0.447650  0.316790  0.743030  1.0  -0.566
  O  O576  1  0.447650  0.816790  0.243030  1.0  -0.566
  O  O577  1  0.052350  0.243030  0.316790  1.0  -0.5672
  O  O578  1  0.052350  0.743030  0.816790  1.0  -0.5672
  O  O579  1  0.552350  0.243030  0.816790  1.0  -0.5672
  O  O580  1  0.552350  0.743030  0.316790  1.0  -0.5672
  O  O581  1  0.947650  0.756970  0.316790  1.0  -0.5674
  O  O582  1  0.947650  0.256970  0.816790  1.0  -0.5674
  O  O583  1  0.447650  0.756970  0.816790  1.0  -0.5674
  O  O584  1  0.447650  0.256970  0.316790  1.0  -0.5674
  O  O585  1  0.052350  0.756970  0.683210  1.0  -0.5677
  O  O586  1  0.052350  0.256970  0.183210  1.0  -0.5677
  O  O587  1  0.552350  0.756970  0.183210  1.0  -0.5677
  O  O588  1  0.552350  0.256970  0.683210  1.0  -0.5677
  O  O589  1  0.947650  0.243030  0.683210  1.0  -0.5672
  O  O590  1  0.947650  0.743030  0.183210  1.0  -0.5672
  O  O591  1  0.447650  0.243030  0.183210  1.0  -0.5672
  O  O592  1  0.447650  0.743030  0.683210  1.0  -0.5672
  O  O593  1  0.243030  0.683210  0.947650  1.0  -0.5674
  O  O594  1  0.243030  0.183210  0.447650  1.0  -0.5674
  O  O595  1  0.743030  0.683210  0.447650  1.0  -0.5674
  O  O596  1  0.743030  0.183210  0.947650  1.0  -0.5674
  O  O597  1  0.756970  0.683210  0.052350  1.0  -0.5677
  O  O598  1  0.756970  0.183210  0.552350  1.0  -0.5677
  O  O599  1  0.256970  0.683210  0.552350  1.0  -0.5677
  O  O600  1  0.256970  0.183210  0.052350  1.0  -0.5677
  O  O601  1  0.756970  0.316790  0.947650  1.0  -0.5671
  O  O602  1  0.756970  0.816790  0.447650  1.0  -0.5671
  O  O603  1  0.256970  0.316790  0.447650  1.0  -0.5671
  O  O604  1  0.256970  0.816790  0.947650  1.0  -0.5671
  O  O605  1  0.243030  0.316790  0.052350  1.0  -0.5681
  O  O606  1  0.243030  0.816790  0.552350  1.0  -0.5681
  O  O607  1  0.743030  0.316790  0.552350  1.0  -0.5681
  O  O608  1  0.743030  0.816790  0.052350  1.0  -0.5681
  O  O609  1  0.683210  0.052350  0.756970  1.0  -0.5666
  O  O610  1  0.683210  0.552350  0.256970  1.0  -0.5666
  O  O611  1  0.183210  0.052350  0.256970  1.0  -0.5666
  O  O612  1  0.183210  0.552350  0.756970  1.0  -0.5666
  O  O613  1  0.683210  0.947650  0.243030  1.0  -0.5653
  O  O614  1  0.683210  0.447650  0.743030  1.0  -0.5653
  O  O615  1  0.183210  0.947650  0.743030  1.0  -0.5653
  O  O616  1  0.183210  0.447650  0.243030  1.0  -0.5653
  O  O617  1  0.316790  0.052350  0.243030  1.0  -0.5661
  O  O618  1  0.316790  0.552350  0.743030  1.0  -0.5663
  O  O619  1  0.816790  0.052350  0.743030  1.0  -0.5663
  O  O620  1  0.816790  0.552350  0.243030  1.0  -0.5663
  O  O621  1  0.316790  0.947650  0.756970  1.0  -0.5664
  O  O622  1  0.316790  0.447650  0.256970  1.0  -0.5659
  O  O623  1  0.816790  0.947650  0.256970  1.0  -0.5661
  O  O624  1  0.816790  0.447650  0.756970  1.0  -0.5664
