# generated using pymatgen
data_La2NiH52C66N13O17
_symmetry_space_group_name_H-M   'P 1'
_cell_length_a   14.29100000
_cell_length_b   17.34500000
_cell_length_c   19.37100000
_cell_angle_alpha   63.73700000
_cell_angle_beta   83.57100000
_cell_angle_gamma   82.35900000
_symmetry_Int_Tables_number   1
_chemical_formula_structural   La2NiH52C66N13O17
_chemical_formula_sum   'La4 Ni2 H104 C132 N26 O34'
_cell_volume   4260.10428331
_cell_formula_units_Z   2
loop_
 _symmetry_equiv_pos_site_id
 _symmetry_equiv_pos_as_xyz
  1  'x, y, z'
loop_
 _atom_site_type_symbol
 _atom_site_label
 _atom_site_symmetry_multiplicity
 _atom_site_fract_x
 _atom_site_fract_y
 _atom_site_fract_z
 _atom_site_occupancy
 _atom_site_charge
  La  La1  1  0.176640  0.540130  0.770550  1.0  2.1106
  La  La2  1  0.071520  0.516840  0.579330  1.0  2.1962
  La  La3  1  0.823360  0.459870  0.229450  1.0  2.1099
  La  La4  1  0.928480  0.483160  0.420670  1.0  2.1967
  Ni  Ni5  1  0.520270  0.011400  0.760960  1.0  0.6986
  Ni  Ni6  1  0.479730  0.988600  0.239040  1.0  0.7003
  H  H7  1  0.897400  0.195700  0.604700  1.0  0.1154
  H  H8  1  0.113700  0.759100  0.885700  1.0  0.1147
  H  H9  1  0.371100  0.434500  0.529800  1.0  0.103
  H  H10  1  0.512300  0.349000  0.537800  1.0  0.1139
  H  H11  1  0.700600  0.349300  0.576100  1.0  0.1259
  H  H12  1  0.691600  0.310500  0.666400  1.0  0.1124
  H  H13  1  0.511500  0.838100  0.913100  1.0  0.0951
  H  H14  1  0.401900  0.829400  0.926900  1.0  0.0866
  H  H15  1  0.094800  0.082700  0.739400  1.0  0.1048
  H  H16  1  0.134100  0.041400  0.822000  1.0  0.1057
  H  H17  1  0.970900  0.264600  0.759800  1.0  0.102
  H  H18  1  0.575900  0.218600  0.763100  1.0  0.0802
  H  H19  1  0.480700  0.203600  0.739000  1.0  0.1046
  H  H20  1  0.806900  0.202200  0.425000  1.0  0.0937
  H  H21  1  0.519600  0.951400  0.941800  1.0  0.0835
  H  H22  1  0.412800  0.975000  0.960400  1.0  0.0878
  H  H23  1  0.855500  0.068000  0.700900  1.0  0.1036
  H  H24  1  0.446800  0.490100  0.694300  1.0  0.1046
  H  H25  1  0.105900  0.893000  0.882900  1.0  0.1207
  H  H26  1  0.911900  0.965800  0.870600  1.0  0.1148
  H  H27  1  0.830500  0.016500  0.899500  1.0  0.116
  H  H28  1  0.685400  0.113900  0.819200  1.0  0.0963
  H  H29  1  0.642200  0.049200  0.899000  1.0  0.0895
  H  H30  1  0.589900  0.406700  0.699300  1.0  0.1105
  H  H31  1  0.588700  0.680800  0.866700  1.0  0.11
  H  H32  1  0.920700  0.140500  0.858200  1.0  0.1403
  H  H33  1  0.462800  0.188400  0.573700  1.0  0.1212
  H  H34  1  0.133100  0.185600  0.606800  1.0  0.1236
  H  H35  1  0.654000  0.814000  0.758700  1.0  0.1214
  H  H36  1  0.416900  0.110800  0.856500  1.0  0.0819
  H  H37  1  0.495000  0.097600  0.912800  1.0  0.085
  H  H38  1  0.762900  0.288300  0.485500  1.0  0.131
  H  H39  1  0.763800  0.062200  0.475700  1.0  0.1034
  H  H40  1  0.670400  0.005800  0.591700  1.0  0.1324
  H  H41  1  0.509300  0.958600  0.593300  1.0  0.1316
  H  H42  1  0.413700  0.679600  0.731600  1.0  0.1285
  H  H43  1  0.384500  0.654900  0.863800  1.0  0.121
  H  H44  1  0.344200  0.708600  0.909500  1.0  0.1186
  H  H45  1  0.204000  0.988300  0.661900  1.0  0.1294
  H  H46  1  0.296800  0.934000  0.856800  1.0  0.0979
  H  H47  1  0.300600  0.006700  0.883400  1.0  0.1018
  H  H48  1  0.384900  0.601600  0.033200  1.0  0.1211
  H  H49  1  0.791700  0.734400  0.747400  1.0  0.1094
  H  H50  1  0.497400  0.527600  0.123300  1.0  0.1103
  H  H51  1  0.944600  0.859900  0.818900  1.0  0.1194
  H  H52  1  0.931700  0.754200  0.780200  1.0  0.0962
  H  H53  1  0.364200  0.277600  0.474400  1.0  0.1093
  H  H54  1  0.438300  0.742300  0.597200  1.0  0.0974
  H  H55  1  0.491300  0.871700  0.533200  1.0  0.0957
  H  H56  1  0.206600  0.274700  0.490200  1.0  0.1019
  H  H57  1  0.220900  0.852500  0.669400  1.0  0.0961
  H  H58  1  0.702100  0.615000  0.955600  1.0  0.1174
  H  H59  1  0.102600  0.804300  0.395300  1.0  0.1151
  H  H60  1  0.886300  0.240900  0.114300  1.0  0.1143
  H  H61  1  0.628900  0.565500  0.470200  1.0  0.1033
  H  H62  1  0.487700  0.651000  0.462200  1.0  0.1132
  H  H63  1  0.299400  0.650700  0.423900  1.0  0.1272
  H  H64  1  0.308400  0.689500  0.333600  1.0  0.1125
  H  H65  1  0.488500  0.161900  0.086900  1.0  0.0937
  H  H66  1  0.598100  0.170600  0.073100  1.0  0.0847
  H  H67  1  0.905200  0.917300  0.260600  1.0  0.1054
  H  H68  1  0.865900  0.958600  0.178000  1.0  0.1055
  H  H69  1  0.029100  0.735400  0.240200  1.0  0.1019
  H  H70  1  0.424100  0.781400  0.236900  1.0  0.0801
  H  H71  1  0.519300  0.796400  0.261000  1.0  0.1035
  H  H72  1  0.193100  0.797800  0.575000  1.0  0.0934
  H  H73  1  0.480400  0.048600  0.058200  1.0  0.0841
  H  H74  1  0.587200  0.025000  0.039600  1.0  0.0881
  H  H75  1  0.144500  0.932000  0.299100  1.0  0.1032
  H  H76  1  0.553200  0.509900  0.305700  1.0  0.1051
  H  H77  1  0.894100  0.107000  0.117100  1.0  0.121
  H  H78  1  0.088100  0.034200  0.129400  1.0  0.1146
  H  H79  1  0.169500  0.983500  0.100500  1.0  0.1163
  H  H80  1  0.314600  0.886100  0.180800  1.0  0.0967
  H  H81  1  0.357800  0.950800  0.101000  1.0  0.0902
  H  H82  1  0.410100  0.593300  0.300700  1.0  0.1106
  H  H83  1  0.411300  0.319200  0.133300  1.0  0.1087
  H  H84  1  0.079300  0.859500  0.141800  1.0  0.1419
  H  H85  1  0.537200  0.811600  0.426300  1.0  0.119
  H  H86  1  0.866900  0.814400  0.393200  1.0  0.1239
  H  H87  1  0.346000  0.186000  0.241300  1.0  0.1211
  H  H88  1  0.583100  0.889200  0.143500  1.0  0.0826
  H  H89  1  0.505000  0.902400  0.087200  1.0  0.0854
  H  H90  1  0.237100  0.711700  0.514500  1.0  0.1309
  H  H91  1  0.236200  0.937800  0.524300  1.0  0.1039
  H  H92  1  0.329600  0.994200  0.408300  1.0  0.1309
  H  H93  1  0.490700  0.041400  0.406700  1.0  0.1329
  H  H94  1  0.586300  0.320400  0.268400  1.0  0.1278
  H  H95  1  0.615500  0.345100  0.136200  1.0  0.1216
  H  H96  1  0.655800  0.291400  0.090500  1.0  0.1192
  H  H97  1  0.796000  0.011700  0.338100  1.0  0.1288
  H  H98  1  0.703200  0.066000  0.143200  1.0  0.0986
  H  H99  1  0.699400  0.993300  0.116600  1.0  0.1012
  H  H100  1  0.615100  0.398400  0.966800  1.0  0.1213
  H  H101  1  0.208300  0.265600  0.252600  1.0  0.111
  H  H102  1  0.502600  0.472400  0.876700  1.0  0.1099
  H  H103  1  0.055400  0.140100  0.181100  1.0  0.1191
  H  H104  1  0.068300  0.245800  0.219800  1.0  0.0965
  H  H105  1  0.635800  0.722400  0.525600  1.0  0.1101
  H  H106  1  0.561700  0.257700  0.402800  1.0  0.0974
  H  H107  1  0.508700  0.128300  0.466800  1.0  0.097
  H  H108  1  0.793400  0.725300  0.509800  1.0  0.102
  H  H109  1  0.779100  0.147500  0.330600  1.0  0.096
  H  H110  1  0.297900  0.385000  0.044400  1.0  0.1179
  C  C111  1  0.692300  0.992800  0.829600  1.0  0.3573
  C  C112  1  0.471800  0.869700  0.699100  1.0  0.1564
  C  C113  1  0.882000  0.090100  0.789500  1.0  0.1084
  C  C114  1  0.902500  0.184300  0.655800  1.0  -0.0831
  C  C115  1  0.685600  0.200100  0.573300  1.0  0.0629
  C  C116  1  0.320700  0.048700  0.768700  1.0  0.349
  C  C117  1  0.132700  0.805400  0.840700  1.0  -0.0631
  C  C118  1  0.611600  0.564800  0.049500  1.0  -0.1291
  C  C119  1  0.353000  0.140300  0.650100  1.0  0.158
  C  C120  1  0.394000  0.471500  0.611000  1.0  -0.1552
  C  C121  1  0.597000  0.173600  0.680700  1.0  0.3817
  C  C122  1  0.716400  0.887900  0.795400  1.0  0.149
  C  C123  1  0.452500  0.845400  0.820400  1.0  0.3667
  C  C124  1  0.414700  0.429100  0.564300  1.0  -0.0109
  C  C125  1  0.255500  0.141300  0.659900  1.0  0.1207
  C  C126  1  0.500000  0.378600  0.568300  1.0  -0.0983
  C  C127  1  0.149600  0.955000  0.772900  1.0  0.0655
  C  C128  1  0.166700  0.792100  0.776800  1.0  -0.1301
  C  C129  1  0.660300  0.318600  0.621400  1.0  -0.0465
  C  C130  1  0.566400  0.372500  0.617500  1.0  0.0586
  C  C131  1  0.803200  0.899400  0.815200  1.0  0.1113
  C  C132  1  0.451200  0.859600  0.889600  1.0  -0.0328
  C  C133  1  0.146000  0.045500  0.770200  1.0  -0.043
  C  C134  1  0.945000  0.225800  0.748000  1.0  -0.0143
  C  C135  1  0.476100  0.648300  0.940500  1.0  0.0259
  C  C136  1  0.545900  0.180600  0.749500  1.0  -0.0646
  C  C137  1  0.769800  0.181400  0.470900  1.0  -0.0937
  C  C138  1  0.461400  0.984000  0.919100  1.0  -0.0182
  C  C139  1  0.443900  0.786800  0.740200  1.0  0.0842
  C  C140  1  0.876900  0.108400  0.713400  1.0  -0.1103
  C  C141  1  0.459800  0.462700  0.662000  1.0  -0.0231
  C  C142  1  0.126400  0.885900  0.838600  1.0  -0.1258
  C  C143  1  0.855500  0.005800  0.855600  1.0  -0.082
  C  C144  1  0.936300  0.245200  0.672900  1.0  -0.1278
  C  C145  1  0.301400  0.522300  0.610700  1.0  0.6919
  C  C146  1  0.647100  0.065600  0.844000  1.0  -0.0796
  C  C147  1  0.546100  0.412600  0.664800  1.0  -0.1059
  C  C148  1  0.570200  0.651100  0.918600  1.0  -0.122
  C  C149  1  0.684900  0.525100  0.108800  1.0  0.6838
  C  C150  1  0.916800  0.150900  0.807200  1.0  -0.1455
  C  C151  1  0.397300  0.189300  0.580900  1.0  -0.1465
  C  C152  1  0.198200  0.188000  0.601000  1.0  -0.1443
  C  C153  1  0.711200  0.823800  0.770600  1.0  -0.1432
  C  C154  1  0.475800  0.077900  0.877300  1.0  -0.0209
  C  C155  1  0.743600  0.233000  0.505500  1.0  -0.1124
  C  C156  1  0.743300  0.096100  0.501600  1.0  -0.1343
  C  C157  1  0.686800  0.062200  0.570200  1.0  -0.1027
  C  C158  1  0.489900  0.903400  0.621400  1.0  -0.1272
  C  C159  1  0.431700  0.735400  0.704200  1.0  -0.1079
  C  C160  1  0.400700  0.693900  0.883300  1.0  -0.0587
  C  C161  1  0.186200  0.942000  0.707400  1.0  -0.1419
  C  C162  1  0.329800  0.983000  0.848400  1.0  -0.0881
  C  C163  1  0.448800  0.603100  0.017500  1.0  -0.0848
  C  C164  1  0.793100  0.776300  0.764700  1.0  -0.088
  C  C165  1  0.516300  0.559800  0.071900  1.0  -0.0246
  C  C166  1  0.886400  0.850800  0.807900  1.0  -0.1459
  C  C167  1  0.877900  0.789100  0.783800  1.0  -0.1162
  C  C168  1  0.337700  0.241000  0.522000  1.0  -0.1327
  C  C169  1  0.448300  0.772900  0.624400  1.0  -0.1163
  C  C170  1  0.477900  0.850900  0.586100  1.0  -0.096
  C  C171  1  0.243200  0.239600  0.531700  1.0  -0.1007
  C  C172  1  0.963800  0.330200  0.608100  1.0  0.7145
  C  C173  1  0.173800  0.704000  0.779200  1.0  0.6878
  C  C174  1  0.194900  0.861200  0.711900  1.0  -0.0277
  C  C175  1  0.638300  0.611100  0.971700  1.0  -0.064
  C  C176  1  0.656900  0.117000  0.603900  1.0  0.1562
  C  C177  1  0.307700  0.007200  0.170400  1.0  0.357
  C  C178  1  0.528200  0.130300  0.300900  1.0  0.156
  C  C179  1  0.118000  0.909900  0.210500  1.0  0.1102
  C  C180  1  0.097500  0.815700  0.344200  1.0  -0.082
  C  C181  1  0.314400  0.799900  0.426700  1.0  0.0645
  C  C182  1  0.679300  0.951300  0.231300  1.0  0.3483
  C  C183  1  0.867300  0.194600  0.159300  1.0  -0.0678
  C  C184  1  0.388400  0.435200  0.950500  1.0  -0.1301
  C  C185  1  0.647000  0.859700  0.349900  1.0  0.1583
  C  C186  1  0.606000  0.528500  0.389000  1.0  -0.1537
  C  C187  1  0.403000  0.826400  0.319300  1.0  0.3811
  C  C188  1  0.283600  0.112100  0.204600  1.0  0.1506
  C  C189  1  0.547500  0.154600  0.179600  1.0  0.3678
  C  C190  1  0.585300  0.570900  0.435700  1.0  -0.0099
  C  C191  1  0.744500  0.858700  0.340100  1.0  0.1209
  C  C192  1  0.500000  0.621400  0.431700  1.0  -0.0981
  C  C193  1  0.850400  0.045000  0.227100  1.0  0.0655
  C  C194  1  0.833300  0.207900  0.223200  1.0  -0.1299
  C  C195  1  0.339700  0.681400  0.378600  1.0  -0.0471
  C  C196  1  0.433600  0.627500  0.382500  1.0  0.059
  C  C197  1  0.196800  0.100600  0.184800  1.0  0.1124
  C  C198  1  0.548800  0.140400  0.110400  1.0  -0.0329
  C  C199  1  0.854000  0.954500  0.229800  1.0  -0.0446
  C  C200  1  0.055000  0.774200  0.252000  1.0  -0.0136
  C  C201  1  0.523900  0.351700  0.059500  1.0  0.026
  C  C202  1  0.454100  0.819400  0.250500  1.0  -0.0624
  C  C203  1  0.230200  0.818600  0.529100  1.0  -0.0945
  C  C204  1  0.538600  0.016000  0.080900  1.0  -0.0164
  C  C205  1  0.556100  0.213200  0.259800  1.0  0.0848
  C  C206  1  0.123100  0.891600  0.286600  1.0  -0.1099
  C  C207  1  0.540200  0.537300  0.338000  1.0  -0.021
  C  C208  1  0.873600  0.114100  0.161400  1.0  -0.1248
  C  C209  1  0.144500  0.994200  0.144400  1.0  -0.0798
  C  C210  1  0.063700  0.754800  0.327100  1.0  -0.128
  C  C211  1  0.698600  0.477700  0.389300  1.0  0.6921
  C  C212  1  0.352900  0.934400  0.156000  1.0  -0.076
  C  C213  1  0.453900  0.587400  0.335200  1.0  -0.1086
  C  C214  1  0.429800  0.348900  0.081400  1.0  -0.1214
  C  C215  1  0.315100  0.474900  0.891200  1.0  0.6859
  C  C216  1  0.083200  0.849100  0.192800  1.0  -0.1417
  C  C217  1  0.602700  0.810700  0.419100  1.0  -0.1467
  C  C218  1  0.801800  0.812000  0.399000  1.0  -0.1431
  C  C219  1  0.288800  0.176200  0.229400  1.0  -0.1428
  C  C220  1  0.524200  0.922100  0.122700  1.0  -0.0234
  C  C221  1  0.256400  0.767000  0.494500  1.0  -0.1122
  C  C222  1  0.256700  0.903900  0.498400  1.0  -0.1319
  C  C223  1  0.313200  0.937800  0.429800  1.0  -0.1018
  C  C224  1  0.510100  0.096600  0.378600  1.0  -0.1286
  C  C225  1  0.568300  0.264600  0.295800  1.0  -0.1069
  C  C226  1  0.599300  0.306100  0.116700  1.0  -0.0592
  C  C227  1  0.813800  0.058000  0.292600  1.0  -0.1417
  C  C228  1  0.670200  0.017000  0.151600  1.0  -0.0895
  C  C229  1  0.551200  0.396900  0.982500  1.0  -0.0837
  C  C230  1  0.206900  0.223700  0.235300  1.0  -0.0886
  C  C231  1  0.483700  0.440200  0.928100  1.0  -0.025
  C  C232  1  0.113600  0.149200  0.192100  1.0  -0.1496
  C  C233  1  0.122100  0.210900  0.216200  1.0  -0.1165
  C  C234  1  0.662300  0.759000  0.478000  1.0  -0.1349
  C  C235  1  0.551700  0.227100  0.375600  1.0  -0.117
  C  C236  1  0.522100  0.149100  0.413900  1.0  -0.0952
  C  C237  1  0.756800  0.760400  0.468300  1.0  -0.099
  C  C238  1  0.036200  0.669800  0.391900  1.0  0.712
  C  C239  1  0.826200  0.296000  0.220800  1.0  0.6887
  C  C240  1  0.805100  0.138800  0.288100  1.0  -0.0268
  C  C241  1  0.361700  0.388900  0.028300  1.0  -0.0651
  C  C242  1  0.343100  0.883000  0.396100  1.0  0.1549
  N  N243  1  0.021200  0.663300  0.652600  1.0  0.4476
  N  N244  1  0.860500  0.526300  0.588700  1.0  0.4796
  N  N245  1  0.195800  0.373400  0.748000  1.0  0.4803
  N  N246  1  0.647000  0.947300  0.806100  1.0  -0.4522
  N  N247  1  0.479100  0.903600  0.751800  1.0  -0.3999
  N  N248  1  0.785800  0.966600  0.835500  1.0  0.0126
  N  N249  1  0.550100  0.092000  0.813300  1.0  -0.152
  N  N250  1  0.392800  0.081700  0.721600  1.0  -0.4493
  N  N251  1  0.599200  0.101800  0.671800  1.0  -0.4444
  N  N252  1  0.235500  0.082300  0.737000  1.0  -0.1457
  N  N253  1  0.647700  0.233900  0.625700  1.0  -0.0919
  N  N254  1  0.430900  0.773100  0.818000  1.0  -0.117
  N  N255  1  0.433000  0.953100  0.865900  1.0  -0.1478
  N  N256  1  0.978800  0.336700  0.347400  1.0  0.4508
  N  N257  1  0.139500  0.473700  0.411300  1.0  0.4791
  N  N258  1  0.804200  0.626600  0.252000  1.0  0.4814
  N  N259  1  0.353000  0.052700  0.193900  1.0  -0.4527
  N  N260  1  0.520900  0.096400  0.248200  1.0  -0.4001
  N  N261  1  0.214200  0.033400  0.164500  1.0  0.0147
  N  N262  1  0.449900  0.908000  0.186700  1.0  -0.1506
  N  N263  1  0.607200  0.918300  0.278400  1.0  -0.4491
  N  N264  1  0.400800  0.898200  0.328200  1.0  -0.444
  N  N265  1  0.764500  0.917700  0.263000  1.0  -0.1437
  N  N266  1  0.352300  0.766100  0.374300  1.0  -0.0915
  N  N267  1  0.569100  0.226900  0.182000  1.0  -0.1174
  N  N268  1  0.567000  0.046900  0.134100  1.0  -0.1483
  O  O269  1  0.013900  0.372900  0.627100  1.0  -0.7074
  O  O270  1  0.901100  0.532100  0.525300  1.0  -0.7855
  O  O271  1  0.933800  0.351900  0.543800  1.0  -0.6783
  O  O272  1  0.137300  0.431800  0.709800  1.0  -0.716
  O  O273  1  0.238200  0.380100  0.798900  1.0  -0.6484
  O  O274  1  0.659400  0.473500  0.178300  1.0  -0.6623
  O  O275  1  0.769300  0.542100  0.089000  1.0  -0.6191
  O  O276  1  0.077200  0.611000  0.644500  1.0  -0.6571
  O  O277  1  0.967500  0.730700  0.608700  1.0  -0.5177
  O  O278  1  0.903200  0.533700  0.636300  1.0  -0.5944
  O  O279  1  0.754400  0.516000  0.601300  1.0  -0.5314
  O  O280  1  0.208400  0.696100  0.718400  1.0  -0.635
  O  O281  1  0.147000  0.642600  0.838000  1.0  -0.6142
  O  O282  1  0.015500  0.652500  0.727400  1.0  -0.6492
  O  O283  1  0.220700  0.292900  0.733800  1.0  -0.581
  O  O284  1  0.244500  0.528900  0.562100  1.0  -0.6888
  O  O285  1  0.286800  0.555700  0.656300  1.0  -0.6435
  O  O286  1  0.986100  0.627100  0.372900  1.0  -0.7073
  O  O287  1  0.098900  0.467900  0.474700  1.0  -0.7884
  O  O288  1  0.066200  0.648100  0.456200  1.0  -0.6785
  O  O289  1  0.862700  0.568200  0.290200  1.0  -0.7162
  O  O290  1  0.761800  0.619900  0.201100  1.0  -0.6484
  O  O291  1  0.340600  0.526500  0.821700  1.0  -0.6631
  O  O292  1  0.230700  0.457900  0.911000  1.0  -0.6234
  O  O293  1  0.922800  0.389000  0.355500  1.0  -0.6585
  O  O294  1  0.032500  0.269300  0.391300  1.0  -0.5164
  O  O295  1  0.096800  0.466300  0.363700  1.0  -0.5931
  O  O296  1  0.245600  0.484000  0.398700  1.0  -0.5383
  O  O297  1  0.791600  0.303900  0.281600  1.0  -0.6345
  O  O298  1  0.853000  0.357400  0.162000  1.0  -0.6146
  O  O299  1  0.984500  0.347500  0.272600  1.0  -0.6473
  O  O300  1  0.779300  0.707100  0.266200  1.0  -0.5826
  O  O301  1  0.755500  0.471100  0.437900  1.0  -0.6885
  O  O302  1  0.713200  0.444300  0.343700  1.0  -0.6444
