# generated using pymatgen
data_Co3P2H7C3NO9
_symmetry_space_group_name_H-M   'P 1'
_cell_length_a   8.26600000
_cell_length_b   12.87400000
_cell_length_c   15.70620000
_cell_angle_alpha   114.19500000
_cell_angle_beta   96.61650000
_cell_angle_gamma   90.00000000
_symmetry_Int_Tables_number   1
_chemical_formula_structural   Co3P2H7C3NO9
_chemical_formula_sum   'Co12 P8 H28 C12 N4 O36'
_cell_volume   1512.36357155
_cell_formula_units_Z   4
loop_
 _symmetry_equiv_pos_site_id
 _symmetry_equiv_pos_as_xyz
  1  'x, y, z'
loop_
 _atom_site_type_symbol
 _atom_site_label
 _atom_site_symmetry_multiplicity
 _atom_site_fract_x
 _atom_site_fract_y
 _atom_site_fract_z
 _atom_site_occupancy
 _atom_site_charge
  Co  Co1  1  0.933390  0.382790  0.494840  1.0  1.1897
  Co  Co2  1  0.543610  0.380840  0.491860  1.0  1.2757
  Co  Co3  1  0.856190  0.253860  0.272180  1.0  1.1955
  Co  Co4  1  0.566610  0.887950  0.505160  1.0  1.1944
  Co  Co5  1  0.956390  0.888980  0.508140  1.0  1.2814
  Co  Co6  1  0.643810  0.981680  0.727820  1.0  1.1981
  Co  Co7  1  0.066610  0.617210  0.505160  1.0  1.194
  Co  Co8  1  0.456390  0.619160  0.508140  1.0  1.2783
  Co  Co9  1  0.143810  0.746140  0.727820  1.0  1.1958
  Co  Co10  1  0.433390  0.112050  0.494840  1.0  1.186
  Co  Co11  1  0.043610  0.111020  0.491860  1.0  1.2786
  Co  Co12  1  0.356190  0.018320  0.272180  1.0  1.1987
  P  P13  1  0.723800  0.489530  0.370300  1.0  1.8717
  P  P14  1  0.205200  0.226220  0.372520  1.0  1.9229
  P  P15  1  0.776200  0.119230  0.629700  1.0  1.874
  P  P16  1  0.294800  0.853700  0.627480  1.0  1.9229
  P  P17  1  0.276200  0.510470  0.629700  1.0  1.873
  P  P18  1  0.794800  0.773780  0.627480  1.0  1.9238
  P  P19  1  0.223800  0.880770  0.370300  1.0  1.8745
  P  P20  1  0.705200  0.146300  0.372520  1.0  1.9236
  H  H21  1  0.664700  0.640100  0.380400  1.0  0.4245
  H  H22  1  0.086300  0.240100  0.172600  1.0  0.3517
  H  H23  1  0.977900  0.154100  0.022600  1.0  0.0585
  H  H24  1  0.717400  0.293600  0.094400  1.0  0.0936
  H  H25  1  0.865800  0.331200  0.057600  1.0  0.0967
  H  H26  1  0.858900  0.015100  0.061000  1.0  0.0832
  H  H27  1  0.709900  0.091400  0.093200  1.0  0.0861
  H  H28  1  0.835300  0.259700  0.619600  1.0  0.4227
  H  H29  1  0.413700  0.067500  0.827400  1.0  0.3528
  H  H30  1  0.522100  0.131500  0.977400  1.0  0.0579
  H  H31  1  0.782600  0.199200  0.905600  1.0  0.0958
  H  H32  1  0.634200  0.273600  0.942400  1.0  0.0973
  H  H33  1  0.641100  0.954100  0.939000  1.0  0.086
  H  H34  1  0.790100  0.998200  0.906800  1.0  0.0832
  H  H35  1  0.335300  0.359900  0.619600  1.0  0.4229
  H  H36  1  0.913700  0.759900  0.827400  1.0  0.3532
  H  H37  1  0.022100  0.845900  0.977400  1.0  0.0625
  H  H38  1  0.282600  0.706400  0.905600  1.0  0.0941
  H  H39  1  0.134200  0.668800  0.942400  1.0  0.0943
  H  H40  1  0.141100  0.984900  0.939000  1.0  0.0849
  H  H41  1  0.290100  0.908600  0.906800  1.0  0.0856
  H  H42  1  0.164700  0.740300  0.380400  1.0  0.4234
  H  H43  1  0.586300  0.932500  0.172600  1.0  0.352
  H  H44  1  0.477900  0.868500  0.022600  1.0  0.059
  H  H45  1  0.217400  0.800800  0.094400  1.0  0.0951
  H  H46  1  0.365800  0.726400  0.057600  1.0  0.0958
  H  H47  1  0.358900  0.045900  0.061000  1.0  0.0855
  H  H48  1  0.209900  0.001800  0.093200  1.0  0.0836
  C  C49  1  0.896400  0.177000  0.066600  1.0  0.2141
  C  C50  1  0.795000  0.266700  0.049200  1.0  -0.1635
  C  C51  1  0.791200  0.070900  0.049800  1.0  -0.1971
  C  C52  1  0.603600  0.110400  0.933400  1.0  0.2157
  C  C53  1  0.705000  0.217500  0.950800  1.0  -0.1502
  C  C54  1  0.708800  0.021100  0.950200  1.0  -0.1948
  C  C55  1  0.103600  0.823000  0.933400  1.0  0.2132
  C  C56  1  0.205000  0.733300  0.950800  1.0  -0.1366
  C  C57  1  0.208800  0.929100  0.950200  1.0  -0.1964
  C  C58  1  0.396400  0.889600  0.066600  1.0  0.2123
  C  C59  1  0.295000  0.782500  0.049200  1.0  -0.1414
  C  C60  1  0.291200  0.978900  0.049800  1.0  -0.1958
  N  N61  1  0.982800  0.224700  0.163000  1.0  -0.6664
  N  N62  1  0.517200  0.061700  0.837000  1.0  -0.6605
  N  N63  1  0.017200  0.775300  0.837000  1.0  -0.6637
  N  N64  1  0.482800  0.938300  0.163000  1.0  -0.6643
  O  O65  1  0.578300  0.485950  0.420700  1.0  -0.9432
  O  O66  1  0.882400  0.496400  0.433200  1.0  -0.982
  O  O67  1  0.720500  0.380300  0.281600  1.0  -0.8385
  O  O68  1  0.718700  0.591200  0.345200  1.0  -0.6743
  O  O69  1  0.036500  0.276610  0.376020  1.0  -0.9334
  O  O70  1  0.221700  0.157600  0.432800  1.0  -1.0349
  O  O71  1  0.333000  0.321800  0.406200  1.0  -0.8547
  O  O72  1  0.223600  0.145800  0.271200  1.0  -0.8417
  O  O73  1  0.008400  0.288800  0.573400  1.0  -0.7599
  O  O74  1  0.921700  0.065250  0.579300  1.0  -0.9433
  O  O75  1  0.617600  0.063200  0.566800  1.0  -0.98
  O  O76  1  0.779500  0.098700  0.718400  1.0  -0.8408
  O  O77  1  0.781300  0.246000  0.654800  1.0  -0.676
  O  O78  1  0.463500  0.900590  0.623980  1.0  -0.9335
  O  O79  1  0.278300  0.724800  0.567200  1.0  -1.0394
  O  O80  1  0.167000  0.915600  0.593800  1.0  -0.858
  O  O81  1  0.276400  0.874600  0.728800  1.0  -0.8417
  O  O82  1  0.491600  0.715400  0.426600  1.0  -0.7533
  O  O83  1  0.421700  0.514050  0.579300  1.0  -0.944
  O  O84  1  0.117600  0.503600  0.566800  1.0  -0.9809
  O  O85  1  0.279500  0.619700  0.718400  1.0  -0.8355
  O  O86  1  0.281300  0.408800  0.654800  1.0  -0.6744
  O  O87  1  0.963500  0.723390  0.623980  1.0  -0.9341
  O  O88  1  0.778300  0.842400  0.567200  1.0  -1.0355
  O  O89  1  0.667000  0.678200  0.593800  1.0  -0.8546
  O  O90  1  0.776400  0.854200  0.728800  1.0  -0.8411
  O  O91  1  0.991600  0.711200  0.426600  1.0  -0.7553
  O  O92  1  0.078300  0.934750  0.420700  1.0  -0.9421
  O  O93  1  0.382400  0.936800  0.433200  1.0  -0.981
  O  O94  1  0.220500  0.901300  0.281600  1.0  -0.8416
  O  O95  1  0.218700  0.754000  0.345200  1.0  -0.6785
  O  O96  1  0.536500  0.099410  0.376020  1.0  -0.9335
  O  O97  1  0.721700  0.275200  0.432800  1.0  -1.0394
  O  O98  1  0.833000  0.084400  0.406200  1.0  -0.8566
  O  O99  1  0.723600  0.125400  0.271200  1.0  -0.8434
  O  O100  1  0.508400  0.284600  0.573400  1.0  -0.7593
