# generated using pymatgen
data_Ce2C5O12
_symmetry_space_group_name_H-M   'P 1'
_cell_length_a   6.32900000
_cell_length_b   8.74300000
_cell_length_c   13.00000000
_cell_angle_alpha   105.61000000
_cell_angle_beta   90.55000000
_cell_angle_gamma   105.10000000
_symmetry_Int_Tables_number   1
_chemical_formula_structural   Ce2C5O12
_chemical_formula_sum   'Ce4 C10 O24'
_cell_volume   666.43262428
_cell_formula_units_Z   2
loop_
 _symmetry_equiv_pos_site_id
 _symmetry_equiv_pos_as_xyz
  1  'x, y, z'
loop_
 _atom_site_type_symbol
 _atom_site_label
 _atom_site_symmetry_multiplicity
 _atom_site_fract_x
 _atom_site_fract_y
 _atom_site_fract_z
 _atom_site_occupancy
 _atom_site_charge
  Ce  Ce1  1  0.939740  0.969870  0.742750  1.0  2.1452
  Ce  Ce2  1  0.690370  0.333010  0.924720  1.0  2.2683
  Ce  Ce3  1  0.060260  0.030130  0.257250  1.0  2.1456
  Ce  Ce4  1  0.309630  0.666990  0.075280  1.0  2.2686
  C  C5  1  0.767400  0.603900  0.780900  1.0  0.5575
  C  C6  1  0.955700  0.694300  0.870500  1.0  0.5921
  C  C7  1  0.554000  0.948800  0.954500  1.0  0.6098
  C  C8  1  0.906300  0.919500  0.478400  1.0  0.5585
  C  C9  1  0.214600  0.292000  0.869000  1.0  1.0611
  C  C10  1  0.232600  0.396100  0.219100  1.0  0.5567
  C  C11  1  0.044300  0.305700  0.129500  1.0  0.5915
  C  C12  1  0.446000  0.051200  0.045500  1.0  0.6097
  C  C13  1  0.093700  0.080500  0.521600  1.0  0.5582
  C  C14  1  0.785400  0.708000  0.131000  1.0  1.0623
  O  O15  1  0.735100  0.681700  0.716300  1.0  -0.6143
  O  O16  1  0.664200  0.458800  0.776000  1.0  -0.5684
  O  O17  1  0.055100  0.838400  0.873900  1.0  -0.6109
  O  O18  1  0.992700  0.613500  0.932500  1.0  -0.7079
  O  O19  1  0.519400  0.798500  0.944500  1.0  -0.5845
  O  O20  1  0.671000  0.028300  0.897000  1.0  -0.74
  O  O21  1  0.814300  0.852100  0.545800  1.0  -0.5883
  O  O22  1  0.858200  0.871800  0.379100  1.0  -0.5538
  O  O23  1  0.338100  0.430700  0.923900  1.0  -0.8143
  O  O24  1  0.013000  0.269000  0.839900  1.0  -0.8388
  O  O25  1  0.296900  0.169300  0.839800  1.0  -0.8168
  O  O26  1  0.639300  0.102900  0.706400  1.0  -0.3573
  O  O27  1  0.264900  0.318300  0.283700  1.0  -0.6143
  O  O28  1  0.335800  0.541200  0.224000  1.0  -0.566
  O  O29  1  0.944900  0.161600  0.126100  1.0  -0.6082
  O  O30  1  0.007300  0.386500  0.067500  1.0  -0.7074
  O  O31  1  0.480600  0.201500  0.055500  1.0  -0.5849
  O  O32  1  0.329000  0.971700  0.103000  1.0  -0.74
  O  O33  1  0.185700  0.147900  0.454200  1.0  -0.5899
  O  O34  1  0.141800  0.128200  0.620900  1.0  -0.5546
  O  O35  1  0.661900  0.569300  0.076100  1.0  -0.8208
  O  O36  1  0.987000  0.731000  0.160100  1.0  -0.8395
  O  O37  1  0.703100  0.830700  0.160200  1.0  -0.8091
  O  O38  1  0.360700  0.897100  0.293600  1.0  -0.3553
