# generated using pymatgen
data_CuH14(C5N)4
_symmetry_space_group_name_H-M   'P 1'
_cell_length_a   9.93000000
_cell_length_b   9.34450000
_cell_length_c   22.71700000
_cell_angle_alpha   90.00000000
_cell_angle_beta   106.94000000
_cell_angle_gamma   90.00000000
_symmetry_Int_Tables_number   1
_chemical_formula_structural   CuH14(C5N)4
_chemical_formula_sum   'Cu4 H56 C80 N16'
_cell_volume   2016.46827707
_cell_formula_units_Z   4
loop_
 _symmetry_equiv_pos_site_id
 _symmetry_equiv_pos_as_xyz
  1  'x, y, z'
loop_
 _atom_site_type_symbol
 _atom_site_label
 _atom_site_symmetry_multiplicity
 _atom_site_fract_x
 _atom_site_fract_y
 _atom_site_fract_z
 _atom_site_occupancy
 _atom_site_charge
  Cu  Cu1  1  0.193840  0.122520  0.847330  1.0  0.3778
  Cu  Cu2  1  0.193840  0.377480  0.347330  1.0  0.3777
  Cu  Cu3  1  0.806160  0.622520  0.652670  1.0  0.3775
  Cu  Cu4  1  0.806160  0.877480  0.152670  1.0  0.3777
  H  H5  1  0.330600  0.396600  0.821800  1.0  0.0613
  H  H6  1  0.524500  0.531900  0.865100  1.0  0.1101
  H  H7  1  0.598400  0.278100  0.013500  1.0  0.0893
  H  H8  1  0.410000  0.142500  0.962700  1.0  0.0742
  H  H9  1  0.722700  0.644800  0.910400  1.0  0.0983
  H  H10  1  0.035500  0.700300  0.065200  1.0  0.1072
  H  H11  1  0.788300  0.843400  0.878000  1.0  0.1086
  H  H12  1  0.896600  0.010200  0.834600  1.0  0.0752
  H  H13  1  0.143300  0.813700  0.016500  1.0  0.1021
  H  H14  1  0.831100  0.357900  0.144100  1.0  0.1058
  H  H15  1  0.948600  0.285500  0.241500  1.0  0.0498
  H  H16  1  0.248300  0.554800  0.249500  1.0  0.0596
  H  H17  1  0.146400  0.629300  0.151400  1.0  0.1121
  H  H18  1  0.243100  0.980400  0.969400  1.0  0.0765
  H  H19  1  0.330600  0.103400  0.321800  1.0  0.0617
  H  H20  1  0.524500  0.968100  0.365100  1.0  0.1101
  H  H21  1  0.598400  0.221900  0.513500  1.0  0.0894
  H  H22  1  0.410000  0.357500  0.462700  1.0  0.0743
  H  H23  1  0.722700  0.855200  0.410400  1.0  0.0983
  H  H24  1  0.035500  0.799700  0.565200  1.0  0.1076
  H  H25  1  0.788300  0.656600  0.378000  1.0  0.1083
  H  H26  1  0.896600  0.489800  0.334600  1.0  0.0754
  H  H27  1  0.143300  0.686300  0.516500  1.0  0.1022
  H  H28  1  0.831100  0.142100  0.644100  1.0  0.1054
  H  H29  1  0.948600  0.214500  0.741500  1.0  0.05
  H  H30  1  0.248300  0.945200  0.749500  1.0  0.0595
  H  H31  1  0.146400  0.870700  0.651400  1.0  0.1117
  H  H32  1  0.243100  0.519600  0.469400  1.0  0.0764
  H  H33  1  0.669400  0.896600  0.678200  1.0  0.0625
  H  H34  1  0.475500  0.031900  0.634900  1.0  0.1102
  H  H35  1  0.401600  0.778100  0.486500  1.0  0.09
  H  H36  1  0.590000  0.642500  0.537300  1.0  0.0746
  H  H37  1  0.277300  0.144800  0.589600  1.0  0.0983
  H  H38  1  0.964500  0.200300  0.434800  1.0  0.1076
  H  H39  1  0.211700  0.343400  0.622000  1.0  0.1074
  H  H40  1  0.103400  0.510200  0.665400  1.0  0.0751
  H  H41  1  0.856700  0.313700  0.483500  1.0  0.1018
  H  H42  1  0.168900  0.857900  0.355900  1.0  0.1051
  H  H43  1  0.051400  0.785500  0.258500  1.0  0.0501
  H  H44  1  0.751700  0.054800  0.250500  1.0  0.0598
  H  H45  1  0.853600  0.129300  0.348600  1.0  0.1124
  H  H46  1  0.756900  0.480400  0.530600  1.0  0.0754
  H  H47  1  0.669400  0.603400  0.178200  1.0  0.063
  H  H48  1  0.475500  0.468100  0.134900  1.0  0.1102
  H  H49  1  0.401600  0.721900  0.986500  1.0  0.0905
  H  H50  1  0.590000  0.857500  0.037300  1.0  0.0749
  H  H51  1  0.277300  0.355200  0.089600  1.0  0.0983
  H  H52  1  0.964500  0.299700  0.934800  1.0  0.1074
  H  H53  1  0.211700  0.156600  0.122000  1.0  0.1078
  H  H54  1  0.103400  0.989800  0.165400  1.0  0.0752
  H  H55  1  0.856700  0.186300  0.983500  1.0  0.1017
  H  H56  1  0.168900  0.642100  0.855900  1.0  0.1053
  H  H57  1  0.051400  0.714500  0.758500  1.0  0.05
  H  H58  1  0.751700  0.445200  0.750500  1.0  0.0596
  H  H59  1  0.853600  0.370700  0.848600  1.0  0.1117
  H  H60  1  0.756900  0.019600  0.030600  1.0  0.0752
  C  C61  1  0.387900  0.370300  0.860400  1.0  0.1587
  C  C62  1  0.503100  0.455000  0.886700  1.0  -0.1792
  C  C63  1  0.589200  0.423800  0.947300  1.0  -0.0434
  C  C64  1  0.547300  0.304100  0.973700  1.0  -0.1233
  C  C65  1  0.432300  0.222400  0.943000  1.0  0.1555
  C  C66  1  0.716900  0.510000  0.977800  1.0  0.1164
  C  C67  1  0.768800  0.618600  0.950700  1.0  -0.1017
  C  C68  1  0.891500  0.690900  0.983500  1.0  -0.0091
  C  C69  1  0.954900  0.652100  0.042800  1.0  -0.1192
  C  C70  1  0.903700  0.545500  0.069900  1.0  0.1828
  C  C71  1  0.952300  0.804600  0.953600  1.0  0.065
  C  C72  1  0.881200  0.868300  0.897700  1.0  -0.1999
  C  C73  1  0.948700  0.968600  0.871300  1.0  0.1384
  C  C74  1  0.090400  0.851200  0.979000  1.0  -0.1885
  C  C75  1  0.975900  0.499600  0.135100  1.0  -0.0111
  C  C76  1  0.917800  0.398500  0.164200  1.0  -0.1621
  C  C77  1  0.989000  0.357100  0.223800  1.0  0.1568
  C  C78  1  0.163400  0.512600  0.228000  1.0  0.1496
  C  C79  1  0.102900  0.559300  0.168600  1.0  -0.2227
  C  C80  1  0.151200  0.952000  0.949800  1.0  0.1605
  C  C81  1  0.387900  0.129700  0.360400  1.0  0.1584
  C  C82  1  0.503100  0.045000  0.386700  1.0  -0.1786
  C  C83  1  0.589200  0.076200  0.447300  1.0  -0.0437
  C  C84  1  0.547300  0.195900  0.473700  1.0  -0.1232
  C  C85  1  0.432300  0.277600  0.443000  1.0  0.1568
  C  C86  1  0.716900  0.990000  0.477800  1.0  0.1163
  C  C87  1  0.768800  0.881400  0.450700  1.0  -0.1013
  C  C88  1  0.891500  0.809100  0.483500  1.0  -0.0102
  C  C89  1  0.954900  0.847900  0.542800  1.0  -0.1191
  C  C90  1  0.903700  0.954500  0.569900  1.0  0.1827
  C  C91  1  0.952300  0.695400  0.453600  1.0  0.0648
  C  C92  1  0.881200  0.631700  0.397700  1.0  -0.2
  C  C93  1  0.948700  0.531400  0.371300  1.0  0.1383
  C  C94  1  0.090400  0.648800  0.479000  1.0  -0.1883
  C  C95  1  0.975900  0.000400  0.635100  1.0  -0.0113
  C  C96  1  0.917800  0.101500  0.664200  1.0  -0.1621
  C  C97  1  0.989000  0.142900  0.723800  1.0  0.1571
  C  C98  1  0.163400  0.987400  0.728000  1.0  0.1499
  C  C99  1  0.102900  0.940700  0.668600  1.0  -0.2223
  C  C100  1  0.151200  0.548000  0.449800  1.0  0.1605
  C  C101  1  0.612100  0.870300  0.639600  1.0  0.1572
  C  C102  1  0.496900  0.955000  0.613300  1.0  -0.1817
  C  C103  1  0.410800  0.923800  0.552700  1.0  -0.0433
  C  C104  1  0.452700  0.804100  0.526300  1.0  -0.1225
  C  C105  1  0.567700  0.722400  0.557000  1.0  0.1563
  C  C106  1  0.283100  0.010000  0.522200  1.0  0.1167
  C  C107  1  0.231200  0.118600  0.549300  1.0  -0.1031
  C  C108  1  0.108500  0.190900  0.516500  1.0  -0.0094
  C  C109  1  0.045100  0.152100  0.457200  1.0  -0.1202
  C  C110  1  0.096300  0.045500  0.430100  1.0  0.1823
  C  C111  1  0.047700  0.304600  0.546400  1.0  0.0653
  C  C112  1  0.118800  0.368300  0.602300  1.0  -0.2006
  C  C113  1  0.051300  0.468600  0.628700  1.0  0.1388
  C  C114  1  0.909600  0.351200  0.521000  1.0  -0.1867
  C  C115  1  0.024100  0.999600  0.364900  1.0  -0.0132
  C  C116  1  0.082200  0.898500  0.335800  1.0  -0.1643
  C  C117  1  0.011000  0.857100  0.276200  1.0  0.1562
  C  C118  1  0.836600  0.012600  0.272000  1.0  0.1483
  C  C119  1  0.897100  0.059300  0.331400  1.0  -0.2228
  C  C120  1  0.848800  0.452000  0.550200  1.0  0.1605
  C  C121  1  0.612100  0.629700  0.139600  1.0  0.1568
  C  C122  1  0.496900  0.545000  0.113300  1.0  -0.1825
  C  C123  1  0.410800  0.576200  0.052700  1.0  -0.0432
  C  C124  1  0.452700  0.695900  0.026300  1.0  -0.1221
  C  C125  1  0.567700  0.777600  0.057000  1.0  0.1582
  C  C126  1  0.283100  0.490000  0.022200  1.0  0.1166
  C  C127  1  0.231200  0.381400  0.049300  1.0  -0.102
  C  C128  1  0.108500  0.309100  0.016500  1.0  -0.0103
  C  C129  1  0.045100  0.347900  0.957200  1.0  -0.1198
  C  C130  1  0.096300  0.454500  0.930100  1.0  0.1826
  C  C131  1  0.047700  0.195400  0.046400  1.0  0.0649
  C  C132  1  0.118800  0.131700  0.102300  1.0  -0.2005
  C  C133  1  0.051300  0.031400  0.128700  1.0  0.139
  C  C134  1  0.909600  0.148800  0.021000  1.0  -0.1859
  C  C135  1  0.024100  0.500400  0.864900  1.0  -0.0134
  C  C136  1  0.082200  0.601500  0.835800  1.0  -0.1644
  C  C137  1  0.011000  0.642900  0.776200  1.0  0.157
  C  C138  1  0.836600  0.487400  0.772000  1.0  0.148
  C  C139  1  0.897100  0.440700  0.831400  1.0  -0.2225
  C  C140  1  0.848800  0.048000  0.050200  1.0  0.161
  N  N141  1  0.351900  0.253100  0.886200  1.0  -0.3275
  N  N142  1  0.112400  0.412800  0.257900  1.0  -0.3204
  N  N143  1  0.085700  0.011500  0.895000  1.0  -0.366
  N  N144  1  0.782300  0.473700  0.038800  1.0  -0.5144
  N  N145  1  0.351900  0.246900  0.386200  1.0  -0.325
  N  N146  1  0.112400  0.087200  0.757900  1.0  -0.3206
  N  N147  1  0.085700  0.488500  0.395000  1.0  -0.3658
  N  N148  1  0.782300  0.026300  0.538800  1.0  -0.5145
  N  N149  1  0.648100  0.753100  0.613800  1.0  -0.3273
  N  N150  1  0.887600  0.912800  0.242100  1.0  -0.3237
  N  N151  1  0.914300  0.511500  0.605000  1.0  -0.3659
  N  N152  1  0.217700  0.973700  0.461200  1.0  -0.5137
  N  N153  1  0.648100  0.746900  0.113800  1.0  -0.3272
  N  N154  1  0.887600  0.587200  0.742100  1.0  -0.3224
  N  N155  1  0.914300  0.988500  0.105000  1.0  -0.3646
  N  N156  1  0.217700  0.526300  0.961200  1.0  -0.5132
