# generated using pymatgen
data_CuH14(C5N)4
_symmetry_space_group_name_H-M   'P 1'
_cell_length_a   9.87600000
_cell_length_b   9.29500000
_cell_length_c   22.59400000
_cell_angle_alpha   90.00000000
_cell_angle_beta   106.80000000
_cell_angle_gamma   90.00000000
_symmetry_Int_Tables_number   1
_chemical_formula_structural   CuH14(C5N)4
_chemical_formula_sum   'Cu4 H56 C80 N16'
_cell_volume   1985.54851899
_cell_formula_units_Z   4
loop_
 _symmetry_equiv_pos_site_id
 _symmetry_equiv_pos_as_xyz
  1  'x, y, z'
loop_
 _atom_site_type_symbol
 _atom_site_label
 _atom_site_symmetry_multiplicity
 _atom_site_fract_x
 _atom_site_fract_y
 _atom_site_fract_z
 _atom_site_occupancy
 _atom_site_charge
  Cu  Cu1  1  0.693740  0.875560  0.846820  1.0  0.356
  Cu  Cu2  1  0.693740  0.624440  0.346820  1.0  0.3559
  Cu  Cu3  1  0.306260  0.375560  0.653180  1.0  0.3547
  Cu  Cu4  1  0.306260  0.124440  0.153180  1.0  0.3543
  H  H5  1  0.447700  0.786400  0.742200  1.0  0.0514
  H  H6  1  0.648900  0.125500  0.650400  1.0  0.1127
  H  H7  1  0.333000  0.852000  0.643600  1.0  0.1067
  H  H8  1  0.222300  0.144100  0.410000  1.0  0.0911
  H  H9  1  0.024800  0.036200  0.365600  1.0  0.1225
  H  H10  1  0.907900  0.647900  0.463900  1.0  0.0769
  H  H11  1  0.829800  0.897400  0.321000  1.0  0.0591
  H  H12  1  0.751000  0.052400  0.748300  1.0  0.0674
  H  H13  1  0.536800  0.202200  0.564700  1.0  0.1025
  H  H14  1  0.101300  0.780000  0.513800  1.0  0.1097
  H  H15  1  0.287600  0.347800  0.378100  1.0  0.1182
  H  H16  1  0.397700  0.512700  0.333200  1.0  0.0675
  H  H17  1  0.743300  0.479600  0.468200  1.0  0.0744
  H  H18  1  0.646100  0.312100  0.516000  1.0  0.1033
  H  H19  1  0.447700  0.713600  0.242200  1.0  0.0513
  H  H20  1  0.648900  0.374500  0.150400  1.0  0.1125
  H  H21  1  0.333000  0.648000  0.143600  1.0  0.1065
  H  H22  1  0.222300  0.355900  0.910000  1.0  0.0907
  H  H23  1  0.024800  0.463800  0.865600  1.0  0.1223
  H  H24  1  0.907900  0.852100  0.963900  1.0  0.0775
  H  H25  1  0.829800  0.602600  0.821000  1.0  0.0592
  H  H26  1  0.751000  0.447600  0.248300  1.0  0.0671
  H  H27  1  0.536800  0.297800  0.064700  1.0  0.103
  H  H28  1  0.101300  0.720000  0.013800  1.0  0.1098
  H  H29  1  0.287600  0.152200  0.878100  1.0  0.1176
  H  H30  1  0.397700  0.987300  0.833200  1.0  0.0679
  H  H31  1  0.743300  0.020400  0.968200  1.0  0.0744
  H  H32  1  0.646100  0.187900  0.016000  1.0  0.1034
  H  H33  1  0.552300  0.286400  0.757800  1.0  0.0512
  H  H34  1  0.351100  0.625500  0.849600  1.0  0.1127
  H  H35  1  0.667000  0.352000  0.856400  1.0  0.1057
  H  H36  1  0.777700  0.644100  0.090000  1.0  0.0914
  H  H37  1  0.975200  0.536200  0.134400  1.0  0.1225
  H  H38  1  0.092100  0.147900  0.036100  1.0  0.077
  H  H39  1  0.170200  0.397400  0.179000  1.0  0.0595
  H  H40  1  0.249000  0.552400  0.751700  1.0  0.0668
  H  H41  1  0.463200  0.702200  0.935300  1.0  0.1027
  H  H42  1  0.898700  0.280000  0.986200  1.0  0.1107
  H  H43  1  0.712400  0.847800  0.121900  1.0  0.1183
  H  H44  1  0.602300  0.012700  0.166800  1.0  0.0668
  H  H45  1  0.256700  0.979600  0.031800  1.0  0.0743
  H  H46  1  0.353900  0.812100  0.984000  1.0  0.103
  H  H47  1  0.552300  0.213600  0.257800  1.0  0.0513
  H  H48  1  0.351100  0.874500  0.349600  1.0  0.1127
  H  H49  1  0.667000  0.148000  0.356400  1.0  0.106
  H  H50  1  0.777700  0.855900  0.590000  1.0  0.0913
  H  H51  1  0.975200  0.963800  0.634400  1.0  0.1223
  H  H52  1  0.092100  0.352100  0.536100  1.0  0.0777
  H  H53  1  0.170200  0.102600  0.679000  1.0  0.0597
  H  H54  1  0.249000  0.947600  0.251700  1.0  0.0664
  H  H55  1  0.463200  0.797800  0.435300  1.0  0.1028
  H  H56  1  0.898700  0.220000  0.486200  1.0  0.1107
  H  H57  1  0.712400  0.652200  0.621900  1.0  0.1185
  H  H58  1  0.602300  0.487300  0.666800  1.0  0.067
  H  H59  1  0.256700  0.520400  0.531800  1.0  0.0742
  H  H60  1  0.353900  0.687900  0.484000  1.0  0.1029
  C  C61  1  0.488800  0.856500  0.723700  1.0  0.1677
  C  C62  1  0.603600  0.057000  0.668000  1.0  -0.2176
  C  C63  1  0.418300  0.895900  0.664200  1.0  -0.1798
  C  C64  1  0.475100  0.002300  0.634500  1.0  0.0241
  C  C65  1  0.402800  0.046500  0.569400  1.0  0.2065
  C  C66  1  0.391500  0.193500  0.482800  1.0  0.0082
  C  C67  1  0.268600  0.119000  0.450700  1.0  -0.1041
  C  C68  1  0.215400  0.009200  0.478300  1.0  0.0755
  C  C69  1  0.087800  0.922900  0.445400  1.0  -0.0299
  C  C70  1  0.003700  0.957300  0.386600  1.0  -0.1965
  C  C71  1  0.932300  0.725900  0.443300  1.0  0.1691
  C  C72  1  0.887300  0.871200  0.359900  1.0  0.1642
  C  C73  1  0.665000  0.011000  0.727000  1.0  0.1576
  C  C74  1  0.455500  0.154200  0.542300  1.0  -0.145
  C  C75  1  0.048900  0.805400  0.474000  1.0  -0.1922
  C  C76  1  0.454200  0.307500  0.452800  1.0  0.0501
  C  C77  1  0.381500  0.371800  0.397100  1.0  -0.2045
  C  C78  1  0.448700  0.470900  0.370400  1.0  0.158
  C  C79  1  0.650700  0.451000  0.449100  1.0  0.1754
  C  C80  1  0.592700  0.351000  0.478600  1.0  -0.2268
  C  C81  1  0.488800  0.643500  0.223700  1.0  0.1677
  C  C82  1  0.603600  0.443000  0.168000  1.0  -0.2171
  C  C83  1  0.418300  0.604100  0.164200  1.0  -0.1798
  C  C84  1  0.475100  0.497700  0.134500  1.0  0.0239
  C  C85  1  0.402800  0.453500  0.069400  1.0  0.2064
  C  C86  1  0.391500  0.306500  0.982800  1.0  0.0064
  C  C87  1  0.268600  0.381000  0.950700  1.0  -0.1039
  C  C88  1  0.215400  0.490800  0.978300  1.0  0.0755
  C  C89  1  0.087800  0.577100  0.945400  1.0  -0.0301
  C  C90  1  0.003700  0.542700  0.886600  1.0  -0.1967
  C  C91  1  0.932300  0.774100  0.943300  1.0  0.1702
  C  C92  1  0.887300  0.628800  0.859900  1.0  0.1636
  C  C93  1  0.665000  0.489000  0.227000  1.0  0.1578
  C  C94  1  0.455500  0.345800  0.042300  1.0  -0.1452
  C  C95  1  0.048900  0.694600  0.974000  1.0  -0.1928
  C  C96  1  0.454200  0.192500  0.952800  1.0  0.05
  C  C97  1  0.381500  0.128200  0.897100  1.0  -0.2046
  C  C98  1  0.448700  0.029100  0.870400  1.0  0.1582
  C  C99  1  0.650700  0.049000  0.949100  1.0  0.1755
  C  C100  1  0.592700  0.149000  0.978600  1.0  -0.2268
  C  C101  1  0.511200  0.356500  0.776300  1.0  0.1674
  C  C102  1  0.396400  0.557000  0.832000  1.0  -0.2166
  C  C103  1  0.581700  0.395900  0.835800  1.0  -0.1799
  C  C104  1  0.524900  0.502300  0.865500  1.0  0.0233
  C  C105  1  0.597200  0.546500  0.930600  1.0  0.2048
  C  C106  1  0.608500  0.693500  0.017200  1.0  0.0074
  C  C107  1  0.731400  0.619000  0.049300  1.0  -0.1057
  C  C108  1  0.784600  0.509200  0.021700  1.0  0.0773
  C  C109  1  0.912200  0.422900  0.054600  1.0  -0.0283
  C  C110  1  0.996300  0.457300  0.113400  1.0  -0.1986
  C  C111  1  0.067700  0.225900  0.056700  1.0  0.17
  C  C112  1  0.112700  0.371200  0.140100  1.0  0.163
  C  C113  1  0.335000  0.511000  0.773000  1.0  0.1562
  C  C114  1  0.544500  0.654200  0.957700  1.0  -0.1458
  C  C115  1  0.951100  0.305400  0.026000  1.0  -0.1926
  C  C116  1  0.545800  0.807500  0.047200  1.0  0.0507
  C  C117  1  0.618500  0.871800  0.102900  1.0  -0.2051
  C  C118  1  0.551300  0.970900  0.129600  1.0  0.1574
  C  C119  1  0.349300  0.951000  0.050900  1.0  0.1768
  C  C120  1  0.407300  0.851000  0.021400  1.0  -0.2267
  C  C121  1  0.511200  0.143500  0.276300  1.0  0.1678
  C  C122  1  0.396400  0.943000  0.332000  1.0  -0.2159
  C  C123  1  0.581700  0.104100  0.335800  1.0  -0.1802
  C  C124  1  0.524900  0.997700  0.365500  1.0  0.0232
  C  C125  1  0.597200  0.953500  0.430600  1.0  0.2054
  C  C126  1  0.608500  0.806500  0.517200  1.0  0.0061
  C  C127  1  0.731400  0.881000  0.549300  1.0  -0.1051
  C  C128  1  0.784600  0.990800  0.521700  1.0  0.0768
  C  C129  1  0.912200  0.077100  0.554600  1.0  -0.0281
  C  C130  1  0.996300  0.042700  0.613400  1.0  -0.1992
  C  C131  1  0.067700  0.274100  0.556700  1.0  0.1721
  C  C132  1  0.112700  0.128800  0.640100  1.0  0.1629
  C  C133  1  0.335000  0.989000  0.273000  1.0  0.1563
  C  C134  1  0.544500  0.845800  0.457700  1.0  -0.1457
  C  C135  1  0.951100  0.194600  0.526000  1.0  -0.1931
  C  C136  1  0.545800  0.692500  0.547200  1.0  0.0506
  C  C137  1  0.618500  0.628200  0.602900  1.0  -0.2052
  C  C138  1  0.551300  0.529100  0.629600  1.0  0.158
  C  C139  1  0.349300  0.549000  0.550900  1.0  0.1769
  C  C140  1  0.407300  0.649000  0.521400  1.0  -0.2259
  N  N141  1  0.611900  0.911600  0.756700  1.0  -0.324
  N  N142  1  0.282600  0.973600  0.538700  1.0  -0.4783
  N  N143  1  0.852000  0.753200  0.386100  1.0  -0.3215
  N  N144  1  0.584300  0.510800  0.395000  1.0  -0.3516
  N  N145  1  0.611900  0.588400  0.256700  1.0  -0.3244
  N  N146  1  0.282600  0.526400  0.038700  1.0  -0.4781
  N  N147  1  0.852000  0.746800  0.886100  1.0  -0.3195
  N  N148  1  0.584300  0.989200  0.895000  1.0  -0.3527
  N  N149  1  0.388100  0.411600  0.743300  1.0  -0.3286
  N  N150  1  0.717400  0.473600  0.961300  1.0  -0.4782
  N  N151  1  0.148000  0.253200  0.113900  1.0  -0.322
  N  N152  1  0.415700  0.010800  0.105000  1.0  -0.3504
  N  N153  1  0.388100  0.088400  0.243300  1.0  -0.3271
  N  N154  1  0.717400  0.026400  0.461300  1.0  -0.4767
  N  N155  1  0.148000  0.246800  0.613900  1.0  -0.3216
  N  N156  1  0.415700  0.489200  0.605000  1.0  -0.3496
