# generated using pymatgen
data_CuH14(C5N)4
_symmetry_space_group_name_H-M   'P 1'
_cell_length_a   9.39900000
_cell_length_b   9.84800000
_cell_length_c   21.83400000
_cell_angle_alpha   90.00000000
_cell_angle_beta   102.09000000
_cell_angle_gamma   90.00000000
_symmetry_Int_Tables_number   1
_chemical_formula_structural   CuH14(C5N)4
_chemical_formula_sum   'Cu4 H56 C80 N16'
_cell_volume   1976.15873240
_cell_formula_units_Z   4
loop_
 _symmetry_equiv_pos_site_id
 _symmetry_equiv_pos_as_xyz
  1  'x, y, z'
loop_
 _atom_site_type_symbol
 _atom_site_label
 _atom_site_symmetry_multiplicity
 _atom_site_fract_x
 _atom_site_fract_y
 _atom_site_fract_z
 _atom_site_occupancy
 _atom_site_charge
  Cu  Cu1  1  0.210730  0.139880  0.337780  1.0  0.3307
  Cu  Cu2  1  0.210730  0.360120  0.837780  1.0  0.3311
  Cu  Cu3  1  0.789270  0.639880  0.162220  1.0  0.3324
  Cu  Cu4  1  0.789270  0.860120  0.662220  1.0  0.3325
  H  H5  1  0.403700  0.168000  0.457600  1.0  0.0756
  H  H6  1  0.585500  0.304200  0.511300  1.0  0.0919
  H  H7  1  0.549000  0.534000  0.356800  1.0  0.1024
  H  H8  1  0.364100  0.393900  0.308300  1.0  0.0568
  H  H9  1  0.032700  0.714000  0.563700  1.0  0.0972
  H  H10  1  0.725200  0.661700  0.407000  1.0  0.0984
  H  H11  1  0.160500  0.808300  0.506600  1.0  0.092
  H  H12  1  0.268400  0.970900  0.456100  1.0  0.0624
  H  H13  1  0.908600  0.041600  0.338000  1.0  0.0598
  H  H14  1  0.788600  0.877200  0.382300  1.0  0.0985
  H  H15  1  0.829100  0.362000  0.641300  1.0  0.0966
  H  H16  1  0.950200  0.286100  0.737500  1.0  0.048
  H  H17  1  0.259700  0.553200  0.741200  1.0  0.0793
  H  H18  1  0.143500  0.639300  0.646800  1.0  0.1065
  H  H19  1  0.403700  0.332000  0.957600  1.0  0.0758
  H  H20  1  0.585500  0.195800  0.011300  1.0  0.0918
  H  H21  1  0.549000  0.966000  0.856800  1.0  0.1019
  H  H22  1  0.364100  0.106100  0.808300  1.0  0.0567
  H  H23  1  0.032700  0.786000  0.063700  1.0  0.0972
  H  H24  1  0.725200  0.838300  0.907000  1.0  0.0984
  H  H25  1  0.160500  0.691700  0.006600  1.0  0.0921
  H  H26  1  0.268400  0.529100  0.956100  1.0  0.0623
  H  H27  1  0.908600  0.458400  0.838000  1.0  0.0595
  H  H28  1  0.788600  0.622800  0.882300  1.0  0.0983
  H  H29  1  0.829100  0.138000  0.141300  1.0  0.0966
  H  H30  1  0.950200  0.213900  0.237500  1.0  0.048
  H  H31  1  0.259700  0.946800  0.241200  1.0  0.079
  H  H32  1  0.143500  0.860700  0.146800  1.0  0.1066
  H  H33  1  0.596300  0.668000  0.042400  1.0  0.0761
  H  H34  1  0.414500  0.804200  0.988700  1.0  0.0925
  H  H35  1  0.451000  0.034000  0.143200  1.0  0.1018
  H  H36  1  0.635900  0.893900  0.191700  1.0  0.0571
  H  H37  1  0.967300  0.214000  0.936300  1.0  0.0973
  H  H38  1  0.274800  0.161700  0.093000  1.0  0.0982
  H  H39  1  0.839500  0.308300  0.993400  1.0  0.0917
  H  H40  1  0.731600  0.470900  0.043900  1.0  0.0619
  H  H41  1  0.091400  0.541600  0.162000  1.0  0.06
  H  H42  1  0.211400  0.377200  0.117700  1.0  0.0982
  H  H43  1  0.170900  0.862000  0.858700  1.0  0.0961
  H  H44  1  0.049800  0.786100  0.762500  1.0  0.0484
  H  H45  1  0.740300  0.053200  0.758800  1.0  0.079
  H  H46  1  0.856500  0.139300  0.853200  1.0  0.1062
  H  H47  1  0.596300  0.832000  0.542400  1.0  0.076
  H  H48  1  0.414500  0.695800  0.488700  1.0  0.0927
  H  H49  1  0.451000  0.466000  0.643200  1.0  0.1016
  H  H50  1  0.635900  0.606100  0.691700  1.0  0.0572
  H  H51  1  0.967300  0.286000  0.436300  1.0  0.0967
  H  H52  1  0.274800  0.338300  0.593000  1.0  0.0983
  H  H53  1  0.839500  0.191700  0.493400  1.0  0.0916
  H  H54  1  0.731600  0.029100  0.543900  1.0  0.0619
  H  H55  1  0.091400  0.958400  0.662000  1.0  0.06
  H  H56  1  0.211400  0.122800  0.617700  1.0  0.0987
  H  H57  1  0.170900  0.638000  0.358700  1.0  0.0966
  H  H58  1  0.049800  0.713900  0.262500  1.0  0.0485
  H  H59  1  0.740300  0.446800  0.258800  1.0  0.079
  H  H60  1  0.856500  0.360700  0.353200  1.0  0.1056
  C  C61  1  0.432200  0.243200  0.437400  1.0  0.1605
  C  C62  1  0.543700  0.324100  0.469800  1.0  -0.1365
  C  C63  1  0.593700  0.435600  0.440500  1.0  0.0019
  C  C64  1  0.521800  0.460600  0.378500  1.0  -0.1719
  C  C65  1  0.409400  0.375300  0.349600  1.0  0.1541
  C  C66  1  0.719700  0.520900  0.474700  1.0  0.0768
  C  C67  1  0.899700  0.557700  0.566800  1.0  0.1753
  C  C68  1  0.954000  0.666400  0.540600  1.0  -0.1344
  C  C69  1  0.892900  0.706500  0.480000  1.0  -0.0258
  C  C70  1  0.771200  0.634300  0.447000  1.0  -0.0468
  C  C71  1  0.959100  0.819300  0.450800  1.0  0.0659
  C  C72  1  0.105800  0.852300  0.471900  1.0  -0.2039
  C  C73  1  0.170600  0.951100  0.440800  1.0  0.1561
  C  C74  1  0.960600  0.991900  0.371600  1.0  0.1512
  C  C75  1  0.886600  0.893600  0.398800  1.0  -0.2141
  C  C76  1  0.973400  0.508200  0.630800  1.0  0.0246
  C  C77  1  0.916600  0.402300  0.660400  1.0  -0.1456
  C  C78  1  0.990900  0.356700  0.718700  1.0  0.1494
  C  C79  1  0.172300  0.514100  0.721000  1.0  0.1367
  C  C80  1  0.103300  0.565600  0.663700  1.0  -0.166
  C  C81  1  0.432200  0.256800  0.937400  1.0  0.1608
  C  C82  1  0.543700  0.175900  0.969800  1.0  -0.1364
  C  C83  1  0.593700  0.064400  0.940500  1.0  0.002
  C  C84  1  0.521800  0.039400  0.878500  1.0  -0.1721
  C  C85  1  0.409400  0.124700  0.849600  1.0  0.1536
  C  C86  1  0.719700  0.979100  0.974700  1.0  0.0765
  C  C87  1  0.899700  0.942300  0.066800  1.0  0.175
  C  C88  1  0.954000  0.833600  0.040600  1.0  -0.1349
  C  C89  1  0.892900  0.793500  0.980000  1.0  -0.0268
  C  C90  1  0.771200  0.865700  0.947000  1.0  -0.047
  C  C91  1  0.959100  0.680700  0.950800  1.0  0.0659
  C  C92  1  0.105800  0.647700  0.971900  1.0  -0.2038
  C  C93  1  0.170600  0.548900  0.940800  1.0  0.1561
  C  C94  1  0.960600  0.508100  0.871600  1.0  0.1509
  C  C95  1  0.886600  0.606400  0.898800  1.0  -0.2146
  C  C96  1  0.973400  0.991800  0.130800  1.0  0.0249
  C  C97  1  0.916600  0.097700  0.160400  1.0  -0.1456
  C  C98  1  0.990900  0.143300  0.218700  1.0  0.1483
  C  C99  1  0.172300  0.985900  0.221000  1.0  0.1368
  C  C100  1  0.103300  0.934400  0.163700  1.0  -0.1653
  C  C101  1  0.567800  0.743200  0.062600  1.0  0.1606
  C  C102  1  0.456300  0.824100  0.030200  1.0  -0.1371
  C  C103  1  0.406300  0.935600  0.059500  1.0  0.0023
  C  C104  1  0.478200  0.960600  0.121500  1.0  -0.1725
  C  C105  1  0.590600  0.875300  0.150400  1.0  0.1526
  C  C106  1  0.280300  0.020900  0.025300  1.0  0.0769
  C  C107  1  0.100300  0.057700  0.933200  1.0  0.1734
  C  C108  1  0.046000  0.166400  0.959400  1.0  -0.135
  C  C109  1  0.107100  0.206500  0.020000  1.0  -0.0262
  C  C110  1  0.228800  0.134300  0.053000  1.0  -0.0472
  C  C111  1  0.040900  0.319300  0.049200  1.0  0.0666
  C  C112  1  0.894200  0.352300  0.028100  1.0  -0.2036
  C  C113  1  0.829400  0.451100  0.059200  1.0  0.1562
  C  C114  1  0.039400  0.491900  0.128400  1.0  0.1509
  C  C115  1  0.113400  0.393600  0.101200  1.0  -0.2129
  C  C116  1  0.026600  0.008200  0.869200  1.0  0.0246
  C  C117  1  0.083400  0.902300  0.839600  1.0  -0.1466
  C  C118  1  0.009100  0.856700  0.781300  1.0  0.1481
  C  C119  1  0.827700  0.014100  0.779000  1.0  0.1378
  C  C120  1  0.896700  0.065600  0.836300  1.0  -0.1651
  C  C121  1  0.567800  0.756800  0.562600  1.0  0.1613
  C  C122  1  0.456300  0.675900  0.530200  1.0  -0.1377
  C  C123  1  0.406300  0.564400  0.559500  1.0  0.0025
  C  C124  1  0.478200  0.539400  0.621500  1.0  -0.1729
  C  C125  1  0.590600  0.624700  0.650400  1.0  0.1519
  C  C126  1  0.280300  0.479100  0.525300  1.0  0.0768
  C  C127  1  0.100300  0.442300  0.433200  1.0  0.1738
  C  C128  1  0.046000  0.333600  0.459400  1.0  -0.1352
  C  C129  1  0.107100  0.293500  0.520000  1.0  -0.0272
  C  C130  1  0.228800  0.365700  0.553000  1.0  -0.0472
  C  C131  1  0.040900  0.180700  0.549200  1.0  0.0665
  C  C132  1  0.894200  0.147700  0.528100  1.0  -0.203
  C  C133  1  0.829400  0.048900  0.559200  1.0  0.1565
  C  C134  1  0.039400  0.008100  0.628400  1.0  0.1509
  C  C135  1  0.113400  0.106400  0.601200  1.0  -0.2126
  C  C136  1  0.026600  0.491800  0.369200  1.0  0.0248
  C  C137  1  0.083400  0.597700  0.339600  1.0  -0.1468
  C  C138  1  0.009100  0.643300  0.281300  1.0  0.1476
  C  C139  1  0.827700  0.485900  0.279000  1.0  0.1375
  C  C140  1  0.896700  0.434400  0.336300  1.0  -0.1648
  N  N141  1  0.362800  0.268600  0.377400  1.0  -0.3241
  N  N142  1  0.101700  0.018100  0.391100  1.0  -0.3489
  N  N143  1  0.118300  0.408900  0.749300  1.0  -0.3468
  N  N144  1  0.782400  0.483300  0.535000  1.0  -0.4814
  N  N145  1  0.362800  0.231400  0.877400  1.0  -0.3207
  N  N146  1  0.101700  0.481900  0.891100  1.0  -0.3499
  N  N147  1  0.118300  0.091100  0.249300  1.0  -0.3469
  N  N148  1  0.782400  0.016700  0.035000  1.0  -0.4813
  N  N149  1  0.637200  0.768600  0.122600  1.0  -0.3231
  N  N150  1  0.898300  0.518100  0.108900  1.0  -0.3506
  N  N151  1  0.881700  0.908900  0.750700  1.0  -0.3508
  N  N152  1  0.217600  0.983300  0.965000  1.0  -0.4792
  N  N153  1  0.637200  0.731400  0.622600  1.0  -0.3227
  N  N154  1  0.898300  0.981900  0.608900  1.0  -0.3503
  N  N155  1  0.881700  0.591100  0.250700  1.0  -0.3482
  N  N156  1  0.217600  0.516700  0.465000  1.0  -0.4785
