# generated using pymatgen
data_ZnH2(C5O4)2
_symmetry_space_group_name_H-M   'P 1'
_cell_length_a   9.41160000
_cell_length_b   13.29670000
_cell_length_c   14.93650000
_cell_angle_alpha   90.00000000
_cell_angle_beta   98.01900000
_cell_angle_gamma   90.00000000
_symmetry_Int_Tables_number   1
_chemical_formula_structural   ZnH2(C5O4)2
_chemical_formula_sum   'Zn4 H8 C40 O32'
_cell_volume   1850.92442014
_cell_formula_units_Z   4
loop_
 _symmetry_equiv_pos_site_id
 _symmetry_equiv_pos_as_xyz
  1  'x, y, z'
loop_
 _atom_site_type_symbol
 _atom_site_label
 _atom_site_symmetry_multiplicity
 _atom_site_fract_x
 _atom_site_fract_y
 _atom_site_fract_z
 _atom_site_occupancy
 _atom_site_charge
  Zn  Zn1  1  0.032240  0.868390  0.655800  1.0  1.0749
  Zn  Zn2  1  0.967760  0.368390  0.844200  1.0  1.076
  Zn  Zn3  1  0.967760  0.131610  0.344200  1.0  1.0761
  Zn  Zn4  1  0.032240  0.631610  0.155800  1.0  1.075
  H  H5  1  0.496300  0.879200  0.612700  1.0  0.1554
  H  H6  1  0.097300  0.650400  0.455200  1.0  0.1491
  H  H7  1  0.503700  0.379200  0.887300  1.0  0.155
  H  H8  1  0.902700  0.150400  0.044800  1.0  0.1492
  H  H9  1  0.503700  0.120800  0.387300  1.0  0.1549
  H  H10  1  0.902700  0.349600  0.544800  1.0  0.149
  H  H11  1  0.496300  0.620800  0.112700  1.0  0.1557
  H  H12  1  0.097300  0.849600  0.955200  1.0  0.1488
  C  C13  1  0.628200  0.970780  0.552410  1.0  -0.0983
  C  C14  1  0.630200  0.044280  0.485540  1.0  -0.0316
  C  C15  1  0.497600  0.928130  0.566510  1.0  -0.0035
  C  C16  1  0.761500  0.929540  0.606360  1.0  0.754
  C  C17  1  0.764300  0.097380  0.465760  1.0  0.699
  C  C18  1  0.040200  0.575530  0.563670  1.0  -0.0039
  C  C19  1  0.057600  0.589310  0.473420  1.0  0.0037
  C  C20  1  0.982400  0.485140  0.590290  1.0  -0.0867
  C  C21  1  0.082300  0.662940  0.625960  1.0  0.7041
  C  C22  1  0.964200  0.466790  0.686870  1.0  0.766
  C  C23  1  0.371800  0.470780  0.947590  1.0  -0.0997
  C  C24  1  0.369800  0.544280  0.014460  1.0  -0.0322
  C  C25  1  0.502400  0.428130  0.933490  1.0  -0.0046
  C  C26  1  0.238500  0.429540  0.893640  1.0  0.7536
  C  C27  1  0.235700  0.597380  0.034240  1.0  0.6991
  C  C28  1  0.959800  0.075530  0.936330  1.0  -0.0035
  C  C29  1  0.942400  0.089310  0.026580  1.0  0.0032
  C  C30  1  0.017600  0.985140  0.909710  1.0  -0.0869
  C  C31  1  0.917700  0.162940  0.874040  1.0  0.7038
  C  C32  1  0.035800  0.966790  0.813130  1.0  0.7644
  C  C33  1  0.371800  0.029220  0.447590  1.0  -0.0957
  C  C34  1  0.369800  0.955720  0.514460  1.0  -0.0323
  C  C35  1  0.502400  0.071870  0.433490  1.0  -0.0048
  C  C36  1  0.238500  0.070460  0.393640  1.0  0.7533
  C  C37  1  0.235700  0.902620  0.534240  1.0  0.6989
  C  C38  1  0.959800  0.424470  0.436330  1.0  -0.0032
  C  C39  1  0.942400  0.410690  0.526580  1.0  0.0024
  C  C40  1  0.017600  0.514860  0.409710  1.0  -0.0868
  C  C41  1  0.917700  0.337060  0.374040  1.0  0.7035
  C  C42  1  0.035800  0.533210  0.313130  1.0  0.7628
  C  C43  1  0.628200  0.529220  0.052410  1.0  -0.0945
  C  C44  1  0.630200  0.455720  0.985540  1.0  -0.0312
  C  C45  1  0.497600  0.571870  0.066510  1.0  -0.0048
  C  C46  1  0.761500  0.570460  0.106360  1.0  0.7532
  C  C47  1  0.764300  0.402620  0.965760  1.0  0.6985
  C  C48  1  0.040200  0.924470  0.063670  1.0  -0.0035
  C  C49  1  0.057600  0.910690  0.973420  1.0  0.0028
  C  C50  1  0.982400  0.014860  0.090290  1.0  -0.0864
  C  C51  1  0.082300  0.837060  0.125960  1.0  0.7045
  C  C52  1  0.964200  0.033210  0.186870  1.0  0.7647
  O  O53  1  0.878310  0.939920  0.573460  1.0  -0.5376
  O  O54  1  0.752900  0.883460  0.677710  1.0  -0.5044
  O  O55  1  0.800340  0.074160  0.389060  1.0  -0.5524
  O  O56  1  0.823160  0.160560  0.519500  1.0  -0.4845
  O  O57  1  0.207520  0.670900  0.664240  1.0  -0.4283
  O  O58  1  0.983530  0.728140  0.627500  1.0  -0.5374
  O  O59  1  0.953090  0.376360  0.711490  1.0  -0.5405
  O  O60  1  0.960700  0.540560  0.738440  1.0  -0.4966
  O  O61  1  0.121690  0.439920  0.926540  1.0  -0.5376
  O  O62  1  0.247100  0.383460  0.822290  1.0  -0.5038
  O  O63  1  0.199660  0.574160  0.110940  1.0  -0.5524
  O  O64  1  0.176840  0.660560  0.980500  1.0  -0.484
  O  O65  1  0.792480  0.170900  0.835760  1.0  -0.4248
  O  O66  1  0.016470  0.228140  0.872500  1.0  -0.538
  O  O67  1  0.046910  0.876360  0.788510  1.0  -0.5396
  O  O68  1  0.039300  0.040560  0.761560  1.0  -0.4953
  O  O69  1  0.121690  0.060080  0.426540  1.0  -0.5374
  O  O70  1  0.247100  0.116540  0.322290  1.0  -0.5038
  O  O71  1  0.199660  0.925840  0.610940  1.0  -0.5538
  O  O72  1  0.176840  0.839440  0.480500  1.0  -0.4852
  O  O73  1  0.792480  0.329100  0.335760  1.0  -0.4246
  O  O74  1  0.016470  0.271860  0.372500  1.0  -0.5382
  O  O75  1  0.046910  0.623640  0.288510  1.0  -0.5408
  O  O76  1  0.039300  0.459440  0.261560  1.0  -0.4961
  O  O77  1  0.878310  0.560080  0.073460  1.0  -0.5372
  O  O78  1  0.752900  0.616540  0.177710  1.0  -0.5054
  O  O79  1  0.800340  0.425840  0.889060  1.0  -0.5533
  O  O80  1  0.823160  0.339440  0.019500  1.0  -0.4842
  O  O81  1  0.207520  0.829100  0.164240  1.0  -0.4281
  O  O82  1  0.983530  0.771860  0.127500  1.0  -0.5372
  O  O83  1  0.953090  0.123640  0.211490  1.0  -0.5424
  O  O84  1  0.960700  0.959440  0.238440  1.0  -0.4958
