# generated using pymatgen
data_Eu2H6C12N4O11
_symmetry_space_group_name_H-M   'P 1'
_cell_length_a   7.57210000
_cell_length_b   15.59500000
_cell_length_c   16.70630000
_cell_angle_alpha   90.00000000
_cell_angle_beta   94.43300000
_cell_angle_gamma   90.00000000
_symmetry_Int_Tables_number   1
_chemical_formula_structural   Eu2H6C12N4O11
_chemical_formula_sum   'Eu8 H24 C48 N16 O44'
_cell_volume   1966.89335482
_cell_formula_units_Z   4
loop_
 _symmetry_equiv_pos_site_id
 _symmetry_equiv_pos_as_xyz
  1  'x, y, z'
loop_
 _atom_site_type_symbol
 _atom_site_label
 _atom_site_symmetry_multiplicity
 _atom_site_fract_x
 _atom_site_fract_y
 _atom_site_fract_z
 _atom_site_occupancy
 _atom_site_charge
  Eu  Eu1  1  0.373890  0.102260  0.459950  1.0  2.1178
  Eu  Eu2  1  0.133480  0.949490  0.594340  1.0  2.1021
  Eu  Eu3  1  0.626110  0.602260  0.040050  1.0  2.1195
  Eu  Eu4  1  0.866520  0.449490  0.905660  1.0  2.1014
  Eu  Eu5  1  0.626110  0.897740  0.540050  1.0  2.1212
  Eu  Eu6  1  0.866520  0.050510  0.405660  1.0  2.1003
  Eu  Eu7  1  0.373890  0.397740  0.959950  1.0  2.1195
  Eu  Eu8  1  0.133480  0.550510  0.094340  1.0  2.101
  H  H9  1  0.760200  0.306900  0.671100  1.0  0.1123
  H  H10  1  0.190500  0.245400  0.593200  1.0  0.0429
  H  H11  1  0.827100  0.172800  0.792600  1.0  0.1148
  H  H12  1  0.364100  0.069300  0.746000  1.0  0.0401
  H  H13  1  0.072000  0.106000  0.531000  1.0  0.4453
  H  H14  1  0.458000  0.033000  0.605000  1.0  0.4503
  H  H15  1  0.239800  0.806900  0.828900  1.0  0.1119
  H  H16  1  0.809500  0.745400  0.906800  1.0  0.0438
  H  H17  1  0.172900  0.672800  0.707400  1.0  0.1149
  H  H18  1  0.635900  0.569300  0.754000  1.0  0.0395
  H  H19  1  0.928000  0.606000  0.969000  1.0  0.4448
  H  H20  1  0.542000  0.533000  0.895000  1.0  0.4487
  H  H21  1  0.239800  0.693100  0.328900  1.0  0.1116
  H  H22  1  0.809500  0.754600  0.406800  1.0  0.0443
  H  H23  1  0.172900  0.827200  0.207400  1.0  0.1151
  H  H24  1  0.635900  0.930700  0.254000  1.0  0.0393
  H  H25  1  0.928000  0.894000  0.469000  1.0  0.4456
  H  H26  1  0.542000  0.967000  0.395000  1.0  0.4483
  H  H27  1  0.760200  0.193100  0.171100  1.0  0.1116
  H  H28  1  0.190500  0.254600  0.093200  1.0  0.0436
  H  H29  1  0.827100  0.327200  0.292600  1.0  0.115
  H  H30  1  0.364100  0.430700  0.246000  1.0  0.0396
  H  H31  1  0.072000  0.394000  0.031000  1.0  0.4465
  H  H32  1  0.458000  0.467000  0.105000  1.0  0.451
  C  C33  1  0.741600  0.192500  0.549400  1.0  0.6554
  C  C34  1  0.599900  0.235200  0.594700  1.0  0.1609
  C  C35  1  0.643600  0.290200  0.657800  1.0  -0.0953
  C  C36  1  0.505200  0.319800  0.700800  1.0  0.1297
  C  C37  1  0.544700  0.367200  0.779000  1.0  0.6904
  C  C38  1  0.307800  0.254200  0.612200  1.0  0.3269
  C  C39  1  0.799600  0.047200  0.680300  1.0  0.6432
  C  C40  1  0.957400  0.088200  0.726600  1.0  0.1248
  C  C41  1  0.938100  0.152300  0.781800  1.0  -0.082
  C  C42  1  0.091900  0.184900  0.820300  1.0  0.1552
  C  C43  1  0.089700  0.261000  0.876900  1.0  0.6765
  C  C44  1  0.253400  0.092100  0.754300  1.0  0.4144
  C  C45  1  0.258400  0.692500  0.950600  1.0  0.6537
  C  C46  1  0.400100  0.735200  0.905300  1.0  0.1612
  C  C47  1  0.356400  0.790200  0.842200  1.0  -0.0957
  C  C48  1  0.494800  0.819800  0.799200  1.0  0.1308
  C  C49  1  0.455300  0.867200  0.721000  1.0  0.69
  C  C50  1  0.692200  0.754200  0.887800  1.0  0.3269
  C  C51  1  0.200400  0.547200  0.819700  1.0  0.6428
  C  C52  1  0.042600  0.588200  0.773400  1.0  0.1249
  C  C53  1  0.061900  0.652300  0.718200  1.0  -0.082
  C  C54  1  0.908100  0.684900  0.679700  1.0  0.1572
  C  C55  1  0.910300  0.761000  0.623100  1.0  0.6759
  C  C56  1  0.746600  0.592100  0.745700  1.0  0.4151
  C  C57  1  0.258400  0.807500  0.450600  1.0  0.6526
  C  C58  1  0.400100  0.764800  0.405300  1.0  0.161
  C  C59  1  0.356400  0.709800  0.342200  1.0  -0.0954
  C  C60  1  0.494800  0.680200  0.299200  1.0  0.1296
  C  C61  1  0.455300  0.632800  0.221000  1.0  0.69
  C  C62  1  0.692200  0.745800  0.387800  1.0  0.3264
  C  C63  1  0.200400  0.952800  0.319700  1.0  0.6431
  C  C64  1  0.042600  0.911800  0.273400  1.0  0.1259
  C  C65  1  0.061900  0.847700  0.218200  1.0  -0.0815
  C  C66  1  0.908100  0.815100  0.179700  1.0  0.1557
  C  C67  1  0.910300  0.739000  0.123100  1.0  0.6761
  C  C68  1  0.746600  0.907900  0.245700  1.0  0.4145
  C  C69  1  0.741600  0.307500  0.049400  1.0  0.6522
  C  C70  1  0.599900  0.264800  0.094700  1.0  0.1609
  C  C71  1  0.643600  0.209800  0.157800  1.0  -0.0961
  C  C72  1  0.505200  0.180200  0.200800  1.0  0.1289
  C  C73  1  0.544700  0.132800  0.279000  1.0  0.6907
  C  C74  1  0.307800  0.245800  0.112200  1.0  0.3272
  C  C75  1  0.799600  0.452800  0.180300  1.0  0.6424
  C  C76  1  0.957400  0.411800  0.226600  1.0  0.125
  C  C77  1  0.938100  0.347700  0.281800  1.0  -0.0824
  C  C78  1  0.091900  0.315100  0.320300  1.0  0.1557
  C  C79  1  0.089700  0.239000  0.376900  1.0  0.6769
  C  C80  1  0.253400  0.407900  0.254300  1.0  0.4137
  N  N81  1  0.432400  0.215400  0.571800  1.0  -0.3509
  N  N82  1  0.335900  0.303400  0.676300  1.0  -0.3092
  N  N83  1  0.116300  0.059000  0.710100  1.0  -0.4359
  N  N84  1  0.250400  0.153200  0.808500  1.0  -0.423
  N  N85  1  0.567600  0.715400  0.928200  1.0  -0.3489
  N  N86  1  0.664100  0.803400  0.823700  1.0  -0.3128
  N  N87  1  0.883700  0.559000  0.789900  1.0  -0.4343
  N  N88  1  0.749600  0.653200  0.691500  1.0  -0.42
  N  N89  1  0.567600  0.784600  0.428200  1.0  -0.3491
  N  N90  1  0.664100  0.696600  0.323700  1.0  -0.3106
  N  N91  1  0.883700  0.941000  0.289900  1.0  -0.4351
  N  N92  1  0.749600  0.846800  0.191500  1.0  -0.4209
  N  N93  1  0.432400  0.284600  0.071800  1.0  -0.3498
  N  N94  1  0.335900  0.196600  0.176300  1.0  -0.3089
  N  N95  1  0.116300  0.441000  0.210100  1.0  -0.4358
  N  N96  1  0.250400  0.346800  0.308500  1.0  -0.4231
  O  O97  1  0.686900  0.140600  0.493500  1.0  -0.7036
  O  O98  1  0.897600  0.207100  0.571200  1.0  -0.5648
  O  O99  1  0.689000  0.404300  0.789000  1.0  -0.6792
  O  O100  1  0.428400  0.362600  0.828200  1.0  -0.7123
  O  O101  1  0.835200  0.991400  0.627000  1.0  -0.7146
  O  O102  1  0.650200  0.071000  0.693700  1.0  -0.5658
  O  O103  1  0.957800  0.310700  0.866700  1.0  -0.716
  O  O104  1  0.216800  0.270500  0.927300  1.0  -0.5561
  O  O105  1  0.092400  0.075500  0.513000  1.0  -0.9199
  O  O106  1  0.420000  0.009000  0.572500  1.0  -0.9398
  O  O107  1  0.280000  0.200000  0.980000  1.0  -0.6404
  O  O108  1  0.313100  0.640600  0.006500  1.0  -0.7058
  O  O109  1  0.102400  0.707100  0.928800  1.0  -0.5642
  O  O110  1  0.311000  0.904300  0.711000  1.0  -0.6792
  O  O111  1  0.571600  0.862600  0.671800  1.0  -0.7127
  O  O112  1  0.164800  0.491400  0.873000  1.0  -0.7136
  O  O113  1  0.349800  0.571000  0.806300  1.0  -0.5651
  O  O114  1  0.042200  0.810700  0.633300  1.0  -0.716
  O  O115  1  0.783200  0.770500  0.572700  1.0  -0.5565
  O  O116  1  0.907600  0.575500  0.987000  1.0  -0.9178
  O  O117  1  0.580000  0.509000  0.927500  1.0  -0.9359
  O  O118  1  0.720000  0.700000  0.520000  1.0  -0.6395
  O  O119  1  0.313100  0.859400  0.506500  1.0  -0.7046
  O  O120  1  0.102400  0.792900  0.428800  1.0  -0.5644
  O  O121  1  0.311000  0.595700  0.211000  1.0  -0.6793
  O  O122  1  0.571600  0.637400  0.171800  1.0  -0.7129
  O  O123  1  0.164800  0.008600  0.373000  1.0  -0.7144
  O  O124  1  0.349800  0.929000  0.306300  1.0  -0.5653
  O  O125  1  0.042200  0.689300  0.133300  1.0  -0.7164
  O  O126  1  0.783200  0.729500  0.072700  1.0  -0.5565
  O  O127  1  0.907600  0.924500  0.487000  1.0  -0.9164
  O  O128  1  0.580000  0.991000  0.427500  1.0  -0.9364
  O  O129  1  0.720000  0.800000  0.020000  1.0  -0.6359
  O  O130  1  0.686900  0.359400  0.993500  1.0  -0.7033
  O  O131  1  0.897600  0.292900  0.071200  1.0  -0.5653
  O  O132  1  0.689000  0.095700  0.289000  1.0  -0.6792
  O  O133  1  0.428400  0.137400  0.328200  1.0  -0.7131
  O  O134  1  0.835200  0.508600  0.127000  1.0  -0.7152
  O  O135  1  0.650200  0.429000  0.193700  1.0  -0.5657
  O  O136  1  0.957800  0.189300  0.366700  1.0  -0.7173
  O  O137  1  0.216800  0.229500  0.427300  1.0  -0.5559
  O  O138  1  0.092400  0.424500  0.013000  1.0  -0.9181
  O  O139  1  0.420000  0.491000  0.072500  1.0  -0.9385
  O  O140  1  0.280000  0.300000  0.480000  1.0  -0.6367
