# generated using pymatgen
data_EuH2C6N2O5
_symmetry_space_group_name_H-M   'P 1'
_cell_length_a   7.57550000
_cell_length_b   15.61860000
_cell_length_c   16.69910000
_cell_angle_alpha   90.00000000
_cell_angle_beta   94.37500000
_cell_angle_gamma   90.00000000
_symmetry_Int_Tables_number   1
_chemical_formula_structural   EuH2C6N2O5
_chemical_formula_sum   'Eu8 H16 C48 N16 O40'
_cell_volume   1970.05860893
_cell_formula_units_Z   8
loop_
 _symmetry_equiv_pos_site_id
 _symmetry_equiv_pos_as_xyz
  1  'x, y, z'
loop_
 _atom_site_type_symbol
 _atom_site_label
 _atom_site_symmetry_multiplicity
 _atom_site_fract_x
 _atom_site_fract_y
 _atom_site_fract_z
 _atom_site_occupancy
 _atom_site_charge
  Eu  Eu1  1  0.625580  0.897920  0.540170  1.0  2.1713
  Eu  Eu2  1  0.866960  0.050430  0.405510  1.0  2.1464
  Eu  Eu3  1  0.374420  0.397920  0.959830  1.0  2.1711
  Eu  Eu4  1  0.133040  0.550430  0.094490  1.0  2.1463
  Eu  Eu5  1  0.374420  0.102080  0.459830  1.0  2.1716
  Eu  Eu6  1  0.133040  0.949570  0.594490  1.0  2.1471
  Eu  Eu7  1  0.625580  0.602080  0.040170  1.0  2.1717
  Eu  Eu8  1  0.866960  0.449570  0.905510  1.0  2.1468
  H  H9  1  0.239000  0.695200  0.326800  1.0  0.1226
  H  H10  1  0.808000  0.753900  0.407400  1.0  0.04
  H  H11  1  0.175300  0.826700  0.208700  1.0  0.1254
  H  H12  1  0.635100  0.930300  0.255900  1.0  0.0416
  H  H13  1  0.761000  0.195200  0.173200  1.0  0.1225
  H  H14  1  0.192000  0.253900  0.092600  1.0  0.0403
  H  H15  1  0.824700  0.326700  0.291300  1.0  0.1255
  H  H16  1  0.364900  0.430300  0.244100  1.0  0.0425
  H  H17  1  0.761000  0.304800  0.673200  1.0  0.1229
  H  H18  1  0.192000  0.246100  0.592600  1.0  0.039
  H  H19  1  0.824700  0.173300  0.791300  1.0  0.1254
  H  H20  1  0.364900  0.069700  0.744100  1.0  0.0423
  H  H21  1  0.239000  0.804800  0.826800  1.0  0.1224
  H  H22  1  0.808000  0.746100  0.907400  1.0  0.0387
  H  H23  1  0.175300  0.673300  0.708700  1.0  0.1254
  H  H24  1  0.635100  0.569700  0.755900  1.0  0.0426
  C  C25  1  0.258200  0.808200  0.449900  1.0  0.667
  C  C26  1  0.399600  0.765400  0.405200  1.0  0.1402
  C  C27  1  0.355700  0.710700  0.341100  1.0  -0.0742
  C  C28  1  0.493000  0.680700  0.299900  1.0  0.1493
  C  C29  1  0.457700  0.632600  0.221600  1.0  0.7222
  C  C30  1  0.690700  0.745700  0.388200  1.0  0.4345
  C  C31  1  0.201300  0.952000  0.320200  1.0  0.6482
  C  C32  1  0.044100  0.912500  0.273600  1.0  0.1447
  C  C33  1  0.064100  0.847400  0.218800  1.0  -0.0364
  C  C34  1  0.911300  0.814500  0.179700  1.0  0.1361
  C  C35  1  0.914500  0.738400  0.123000  1.0  0.6933
  C  C36  1  0.745600  0.908000  0.246800  1.0  0.4533
  C  C37  1  0.741800  0.308200  0.050100  1.0  0.6677
  C  C38  1  0.600400  0.265400  0.094800  1.0  0.142
  C  C39  1  0.644300  0.210700  0.158900  1.0  -0.0756
  C  C40  1  0.507000  0.180700  0.200100  1.0  0.1515
  C  C41  1  0.542300  0.132600  0.278400  1.0  0.7221
  C  C42  1  0.309300  0.245700  0.111800  1.0  0.4343
  C  C43  1  0.798700  0.452000  0.179800  1.0  0.6468
  C  C44  1  0.955900  0.412500  0.226400  1.0  0.1438
  C  C45  1  0.935900  0.347400  0.281200  1.0  -0.0372
  C  C46  1  0.088700  0.314500  0.320300  1.0  0.1385
  C  C47  1  0.085500  0.238400  0.377000  1.0  0.6922
  C  C48  1  0.254400  0.408000  0.253200  1.0  0.4526
  C  C49  1  0.741800  0.191800  0.550100  1.0  0.6685
  C  C50  1  0.600400  0.234600  0.594800  1.0  0.1422
  C  C51  1  0.644300  0.289300  0.658900  1.0  -0.0751
  C  C52  1  0.507000  0.319300  0.700100  1.0  0.1517
  C  C53  1  0.542300  0.367400  0.778400  1.0  0.722
  C  C54  1  0.309300  0.254300  0.611800  1.0  0.4336
  C  C55  1  0.798700  0.048000  0.679800  1.0  0.6472
  C  C56  1  0.955900  0.087500  0.726400  1.0  0.1426
  C  C57  1  0.935900  0.152600  0.781200  1.0  -0.0371
  C  C58  1  0.088700  0.185500  0.820300  1.0  0.1377
  C  C59  1  0.085500  0.261600  0.877000  1.0  0.6913
  C  C60  1  0.254400  0.092000  0.753200  1.0  0.4537
  C  C61  1  0.258200  0.691800  0.949900  1.0  0.6676
  C  C62  1  0.399600  0.734600  0.905200  1.0  0.1415
  C  C63  1  0.355700  0.789300  0.841100  1.0  -0.0752
  C  C64  1  0.493000  0.819300  0.799900  1.0  0.1502
  C  C65  1  0.457700  0.867400  0.721600  1.0  0.722
  C  C66  1  0.690700  0.754300  0.888200  1.0  0.4348
  C  C67  1  0.201300  0.548000  0.820200  1.0  0.6484
  C  C68  1  0.044100  0.587500  0.773600  1.0  0.144
  C  C69  1  0.064100  0.652600  0.718800  1.0  -0.0365
  C  C70  1  0.911300  0.685500  0.679700  1.0  0.1367
  C  C71  1  0.914500  0.761600  0.623000  1.0  0.6916
  C  C72  1  0.745600  0.592000  0.746800  1.0  0.454
  N  N73  1  0.567600  0.785000  0.428500  1.0  -0.3676
  N  N74  1  0.663300  0.696300  0.323600  1.0  -0.4795
  N  N75  1  0.885000  0.940500  0.290300  1.0  -0.4414
  N  N76  1  0.750100  0.846500  0.191400  1.0  -0.4838
  N  N77  1  0.432400  0.285000  0.071500  1.0  -0.3694
  N  N78  1  0.336700  0.196300  0.176400  1.0  -0.4798
  N  N79  1  0.115000  0.440500  0.209700  1.0  -0.4425
  N  N80  1  0.249900  0.346500  0.308600  1.0  -0.4848
  N  N81  1  0.432400  0.215000  0.571500  1.0  -0.3711
  N  N82  1  0.336700  0.303700  0.676400  1.0  -0.4792
  N  N83  1  0.115000  0.059500  0.709700  1.0  -0.4418
  N  N84  1  0.249900  0.153500  0.808600  1.0  -0.4855
  N  N85  1  0.567600  0.715000  0.928500  1.0  -0.3677
  N  N86  1  0.663300  0.803700  0.823600  1.0  -0.4814
  N  N87  1  0.885000  0.559500  0.790300  1.0  -0.4408
  N  N88  1  0.750100  0.653500  0.691400  1.0  -0.4833
  O  O89  1  0.313400  0.860500  0.505800  1.0  -0.6894
  O  O90  1  0.102500  0.792900  0.428600  1.0  -0.5884
  O  O91  1  0.311600  0.595800  0.211000  1.0  -0.693
  O  O92  1  0.571400  0.636700  0.172200  1.0  -0.703
  O  O93  1  0.165400  0.008500  0.373200  1.0  -0.71
  O  O94  1  0.350800  0.928800  0.305900  1.0  -0.5744
  O  O95  1  0.043900  0.689500  0.133100  1.0  -0.6923
  O  O96  1  0.784700  0.728500  0.072800  1.0  -0.6765
  O  O97  1  0.907500  0.923600  0.486500  1.0  -0.8275
  O  O98  1  0.580500  0.990600  0.426400  1.0  -0.797
  O  O99  1  0.686600  0.360500  0.994200  1.0  -0.6886
  O  O100  1  0.897500  0.292900  0.071400  1.0  -0.5874
  O  O101  1  0.688400  0.095800  0.289000  1.0  -0.6923
  O  O102  1  0.428600  0.136700  0.327800  1.0  -0.7023
  O  O103  1  0.834600  0.508500  0.126800  1.0  -0.7105
  O  O104  1  0.649200  0.428800  0.194100  1.0  -0.5747
  O  O105  1  0.956100  0.189500  0.366900  1.0  -0.6936
  O  O106  1  0.215300  0.228500  0.427200  1.0  -0.6775
  O  O107  1  0.092500  0.423600  0.013500  1.0  -0.8276
  O  O108  1  0.419500  0.490600  0.073600  1.0  -0.7966
  O  O109  1  0.686600  0.139500  0.494200  1.0  -0.6886
  O  O110  1  0.897500  0.207100  0.571400  1.0  -0.5874
  O  O111  1  0.688400  0.404200  0.789000  1.0  -0.6915
  O  O112  1  0.428600  0.363300  0.827800  1.0  -0.703
  O  O113  1  0.834600  0.991500  0.626800  1.0  -0.7117
  O  O114  1  0.649200  0.071200  0.694100  1.0  -0.5747
  O  O115  1  0.956100  0.310500  0.866900  1.0  -0.6939
  O  O116  1  0.215300  0.271500  0.927200  1.0  -0.6767
  O  O117  1  0.092500  0.076400  0.513500  1.0  -0.8274
  O  O118  1  0.419500  0.009400  0.573600  1.0  -0.7966
  O  O119  1  0.313400  0.639500  0.005800  1.0  -0.6897
  O  O120  1  0.102500  0.707100  0.928600  1.0  -0.5883
  O  O121  1  0.311600  0.904200  0.711000  1.0  -0.6923
  O  O122  1  0.571400  0.863300  0.672200  1.0  -0.7025
  O  O123  1  0.165400  0.491500  0.873200  1.0  -0.711
  O  O124  1  0.350800  0.571200  0.805900  1.0  -0.5748
  O  O125  1  0.043900  0.810500  0.633100  1.0  -0.6929
  O  O126  1  0.784700  0.771500  0.572800  1.0  -0.6764
  O  O127  1  0.907500  0.576400  0.986500  1.0  -0.8273
  O  O128  1  0.580500  0.509400  0.926400  1.0  -0.7969
