# generated using pymatgen
data_CaGdH12(C4O5)3
_symmetry_space_group_name_H-M   'P 1'
_cell_length_a   18.80580000
_cell_length_b   18.80580000
_cell_length_c   18.80580000
_cell_angle_alpha   60.00000000
_cell_angle_beta   60.00000000
_cell_angle_gamma   60.00000000
_symmetry_Int_Tables_number   1
_chemical_formula_structural   CaGdH12(C4O5)3
_chemical_formula_sum   'Ca8 Gd8 H96 C96 O120'
_cell_volume   4702.84257657
_cell_formula_units_Z   8
loop_
 _symmetry_equiv_pos_site_id
 _symmetry_equiv_pos_as_xyz
  1  'x, y, z'
loop_
 _atom_site_type_symbol
 _atom_site_label
 _atom_site_symmetry_multiplicity
 _atom_site_fract_x
 _atom_site_fract_y
 _atom_site_fract_z
 _atom_site_occupancy
 _atom_site_charge
  Ca  Ca1  1  0.000000  0.000000  0.000000  1.0  1.5158
  Ca  Ca2  1  0.500000  0.500000  0.000000  1.0  1.5158
  Ca  Ca3  1  0.500000  0.000000  0.500000  1.0  1.5158
  Ca  Ca4  1  0.500000  0.000000  0.000000  1.0  1.5158
  Ca  Ca5  1  0.000000  0.000000  0.500000  1.0  1.5158
  Ca  Ca6  1  0.500000  0.500000  0.500000  1.0  1.5158
  Ca  Ca7  1  0.000000  0.500000  0.000000  1.0  1.5158
  Ca  Ca8  1  0.000000  0.500000  0.500000  1.0  1.5158
  Gd  Gd9  1  0.750000  0.250000  0.250000  1.0  2.0786
  Gd  Gd10  1  0.750000  0.250000  0.750000  1.0  2.0786
  Gd  Gd11  1  0.750000  0.750000  0.250000  1.0  2.0786
  Gd  Gd12  1  0.250000  0.250000  0.250000  1.0  2.0786
  Gd  Gd13  1  0.250000  0.750000  0.750000  1.0  2.0786
  Gd  Gd14  1  0.250000  0.750000  0.250000  1.0  2.0786
  Gd  Gd15  1  0.250000  0.250000  0.750000  1.0  2.0786
  Gd  Gd16  1  0.750000  0.750000  0.750000  1.0  2.0786
  H  H17  1  0.983700  0.156900  0.080500  1.0  0.1001
  H  H18  1  0.922300  0.208100  0.024300  1.0  0.0967
  H  H19  1  0.656900  0.483700  0.778900  1.0  0.0982
  H  H20  1  0.708100  0.422300  0.845300  1.0  0.0972
  H  H21  1  0.580500  0.778900  0.483700  1.0  0.0989
  H  H22  1  0.524300  0.845300  0.422300  1.0  0.0967
  H  H23  1  0.278900  0.080500  0.156900  1.0  0.0982
  H  H24  1  0.345300  0.024300  0.208100  1.0  0.0977
  H  H25  1  0.983700  0.080500  0.778900  1.0  0.0992
  H  H26  1  0.922300  0.024300  0.845300  1.0  0.0981
  H  H27  1  0.656900  0.778900  0.080500  1.0  0.0987
  H  H28  1  0.708100  0.845300  0.024300  1.0  0.0967
  H  H29  1  0.580500  0.483700  0.156900  1.0  0.0987
  H  H30  1  0.524300  0.422300  0.208100  1.0  0.097
  H  H31  1  0.278900  0.156900  0.483700  1.0  0.0992
  H  H32  1  0.345300  0.208100  0.422300  1.0  0.0961
  H  H33  1  0.983700  0.778900  0.156900  1.0  0.0992
  H  H34  1  0.922300  0.845300  0.208100  1.0  0.0971
  H  H35  1  0.656900  0.080500  0.483700  1.0  0.0996
  H  H36  1  0.708100  0.024300  0.422300  1.0  0.0972
  H  H37  1  0.580500  0.156900  0.778900  1.0  0.0994
  H  H38  1  0.524300  0.208100  0.845300  1.0  0.0967
  H  H39  1  0.278900  0.483700  0.080500  1.0  0.098
  H  H40  1  0.345300  0.422300  0.024300  1.0  0.0964
  H  H41  1  0.843100  0.016300  0.419500  1.0  0.0971
  H  H42  1  0.791900  0.077700  0.475700  1.0  0.0965
  H  H43  1  0.516300  0.343100  0.721100  1.0  0.1009
  H  H44  1  0.577700  0.291900  0.654700  1.0  0.097
  H  H45  1  0.221100  0.419500  0.016300  1.0  0.0988
  H  H46  1  0.154700  0.475700  0.077700  1.0  0.0976
  H  H47  1  0.919500  0.721100  0.343100  1.0  0.0988
  H  H48  1  0.975700  0.654700  0.291900  1.0  0.0966
  H  H49  1  0.919500  0.016300  0.721100  1.0  0.0975
  H  H50  1  0.975700  0.077700  0.654700  1.0  0.0946
  H  H51  1  0.221100  0.343100  0.419500  1.0  0.0995
  H  H52  1  0.154700  0.291900  0.475700  1.0  0.0973
  H  H53  1  0.516300  0.419500  0.343100  1.0  0.1002
  H  H54  1  0.577700  0.475700  0.291900  1.0  0.0973
  H  H55  1  0.843100  0.721100  0.016300  1.0  0.0988
  H  H56  1  0.791900  0.654700  0.077700  1.0  0.0968
  H  H57  1  0.221100  0.016300  0.343100  1.0  0.0972
  H  H58  1  0.154700  0.077700  0.291900  1.0  0.0967
  H  H59  1  0.919500  0.343100  0.016300  1.0  0.0988
  H  H60  1  0.975700  0.291900  0.077700  1.0  0.0967
  H  H61  1  0.843100  0.419500  0.721100  1.0  0.0995
  H  H62  1  0.791900  0.475700  0.654700  1.0  0.0971
  H  H63  1  0.516300  0.721100  0.419500  1.0  0.1008
  H  H64  1  0.577700  0.654700  0.475700  1.0  0.0973
  H  H65  1  0.016300  0.843100  0.919500  1.0  0.101
  H  H66  1  0.077700  0.791900  0.975700  1.0  0.0973
  H  H67  1  0.343100  0.516300  0.221100  1.0  0.0974
  H  H68  1  0.291900  0.577700  0.154700  1.0  0.0959
  H  H69  1  0.419500  0.221100  0.516300  1.0  0.0985
  H  H70  1  0.475700  0.154700  0.577700  1.0  0.0968
  H  H71  1  0.721100  0.919500  0.843100  1.0  0.0993
  H  H72  1  0.654700  0.975700  0.791900  1.0  0.0976
  H  H73  1  0.016300  0.919500  0.221100  1.0  0.1001
  H  H74  1  0.077700  0.975700  0.154700  1.0  0.0977
  H  H75  1  0.343100  0.221100  0.919500  1.0  0.0993
  H  H76  1  0.291900  0.154700  0.975700  1.0  0.097
  H  H77  1  0.419500  0.516300  0.843100  1.0  0.0977
  H  H78  1  0.475700  0.577700  0.791900  1.0  0.0945
  H  H79  1  0.721100  0.843100  0.516300  1.0  0.099
  H  H80  1  0.654700  0.791900  0.577700  1.0  0.0971
  H  H81  1  0.016300  0.221100  0.843100  1.0  0.1006
  H  H82  1  0.077700  0.154700  0.791900  1.0  0.0968
  H  H83  1  0.343100  0.919500  0.516300  1.0  0.0988
  H  H84  1  0.291900  0.975700  0.577700  1.0  0.0969
  H  H85  1  0.419500  0.843100  0.221100  1.0  0.0992
  H  H86  1  0.475700  0.791900  0.154700  1.0  0.0964
  H  H87  1  0.721100  0.516300  0.919500  1.0  0.097
  H  H88  1  0.654700  0.577700  0.975700  1.0  0.0967
  H  H89  1  0.156900  0.983700  0.580500  1.0  0.0981
  H  H90  1  0.208100  0.922300  0.524300  1.0  0.0965
  H  H91  1  0.483700  0.656900  0.278900  1.0  0.0999
  H  H92  1  0.422300  0.708100  0.345300  1.0  0.0978
  H  H93  1  0.778900  0.580500  0.983700  1.0  0.0988
  H  H94  1  0.845300  0.524300  0.922300  1.0  0.0975
  H  H95  1  0.080500  0.278900  0.656900  1.0  0.0986
  H  H96  1  0.024300  0.345300  0.708100  1.0  0.0965
  H  H97  1  0.080500  0.983700  0.278900  1.0  0.0989
  H  H98  1  0.024300  0.922300  0.345300  1.0  0.0969
  H  H99  1  0.778900  0.656900  0.580500  1.0  0.0986
  H  H100  1  0.845300  0.708100  0.524300  1.0  0.0962
  H  H101  1  0.483700  0.580500  0.656900  1.0  0.0991
  H  H102  1  0.422300  0.524300  0.708100  1.0  0.0978
  H  H103  1  0.156900  0.278900  0.983700  1.0  0.0993
  H  H104  1  0.208100  0.345300  0.922300  1.0  0.0967
  H  H105  1  0.778900  0.983700  0.656900  1.0  0.0981
  H  H106  1  0.845300  0.922300  0.708100  1.0  0.0967
  H  H107  1  0.080500  0.656900  0.983700  1.0  0.099
  H  H108  1  0.024300  0.708100  0.922300  1.0  0.097
  H  H109  1  0.156900  0.580500  0.278900  1.0  0.0991
  H  H110  1  0.208100  0.524300  0.345300  1.0  0.0977
  H  H111  1  0.483700  0.278900  0.580500  1.0  0.0994
  H  H112  1  0.422300  0.345300  0.524300  1.0  0.0969
  C  C113  1  0.879700  0.117900  0.136900  1.0  0.7325
  C  C114  1  0.923500  0.183700  0.083100  1.0  -0.0601
  C  C115  1  0.617900  0.379700  0.865500  1.0  0.7314
  C  C116  1  0.683700  0.423500  0.809700  1.0  -0.0575
  C  C117  1  0.636900  0.865500  0.379700  1.0  0.7318
  C  C118  1  0.583100  0.809700  0.423500  1.0  -0.0595
  C  C119  1  0.365500  0.136900  0.117900  1.0  0.7329
  C  C120  1  0.309700  0.083100  0.183700  1.0  -0.0602
  C  C121  1  0.879700  0.136900  0.865500  1.0  0.7393
  C  C122  1  0.923500  0.083100  0.809700  1.0  -0.0612
  C  C123  1  0.617900  0.865500  0.136900  1.0  0.7362
  C  C124  1  0.683700  0.809700  0.083100  1.0  -0.0612
  C  C125  1  0.636900  0.379700  0.117900  1.0  0.7374
  C  C126  1  0.583100  0.423500  0.183700  1.0  -0.0605
  C  C127  1  0.365500  0.117900  0.379700  1.0  0.7363
  C  C128  1  0.309700  0.183700  0.423500  1.0  -0.0615
  C  C129  1  0.879700  0.865500  0.117900  1.0  0.7354
  C  C130  1  0.923500  0.809700  0.183700  1.0  -0.0582
  C  C131  1  0.617900  0.136900  0.379700  1.0  0.7374
  C  C132  1  0.683700  0.083100  0.423500  1.0  -0.061
  C  C133  1  0.636900  0.117900  0.865500  1.0  0.7391
  C  C134  1  0.583100  0.183700  0.809700  1.0  -0.0599
  C  C135  1  0.365500  0.379700  0.136900  1.0  0.7379
  C  C136  1  0.309700  0.423500  0.083100  1.0  -0.0569
  C  C137  1  0.882100  0.120300  0.363100  1.0  0.7332
  C  C138  1  0.816300  0.076500  0.416900  1.0  -0.0593
  C  C139  1  0.620300  0.382100  0.634500  1.0  0.7331
  C  C140  1  0.576500  0.316300  0.690300  1.0  -0.0596
  C  C141  1  0.134500  0.363100  0.120300  1.0  0.7315
  C  C142  1  0.190300  0.416900  0.076500  1.0  -0.0584
  C  C143  1  0.863100  0.634500  0.382100  1.0  0.7295
  C  C144  1  0.916900  0.690300  0.316300  1.0  -0.0581
  C  C145  1  0.863100  0.120300  0.634500  1.0  0.7377
  C  C146  1  0.916900  0.076500  0.690300  1.0  -0.0586
  C  C147  1  0.134500  0.382100  0.363100  1.0  0.7352
  C  C148  1  0.190300  0.316300  0.416900  1.0  -0.0612
  C  C149  1  0.620300  0.363100  0.382100  1.0  0.7403
  C  C150  1  0.576500  0.416900  0.316300  1.0  -0.0612
  C  C151  1  0.882100  0.634500  0.120300  1.0  0.7356
  C  C152  1  0.816300  0.690300  0.076500  1.0  -0.061
  C  C153  1  0.134500  0.120300  0.382100  1.0  0.7353
  C  C154  1  0.190300  0.076500  0.316300  1.0  -0.0587
  C  C155  1  0.863100  0.382100  0.120300  1.0  0.7383
  C  C156  1  0.916900  0.316300  0.076500  1.0  -0.0586
  C  C157  1  0.882100  0.363100  0.634500  1.0  0.7379
  C  C158  1  0.816300  0.416900  0.690300  1.0  -0.0584
  C  C159  1  0.620300  0.634500  0.363100  1.0  0.7362
  C  C160  1  0.576500  0.690300  0.416900  1.0  -0.0591
  C  C161  1  0.120300  0.882100  0.863100  1.0  0.7332
  C  C162  1  0.076500  0.816300  0.916900  1.0  -0.0598
  C  C163  1  0.382100  0.620300  0.134500  1.0  0.7328
  C  C164  1  0.316300  0.576500  0.190300  1.0  -0.0589
  C  C165  1  0.363100  0.134500  0.620300  1.0  0.7294
  C  C166  1  0.416900  0.190300  0.576500  1.0  -0.0584
  C  C167  1  0.634500  0.863100  0.882100  1.0  0.7316
  C  C168  1  0.690300  0.916900  0.816300  1.0  -0.0584
  C  C169  1  0.120300  0.863100  0.134500  1.0  0.7393
  C  C170  1  0.076500  0.916900  0.190300  1.0  -0.0616
  C  C171  1  0.382100  0.134500  0.863100  1.0  0.7348
  C  C172  1  0.316300  0.190300  0.916900  1.0  -0.0609
  C  C173  1  0.363100  0.620300  0.882100  1.0  0.7389
  C  C174  1  0.416900  0.576500  0.816300  1.0  -0.0586
  C  C175  1  0.634500  0.882100  0.620300  1.0  0.7359
  C  C176  1  0.690300  0.816300  0.576500  1.0  -0.061
  C  C177  1  0.120300  0.134500  0.882100  1.0  0.736
  C  C178  1  0.076500  0.190300  0.816300  1.0  -0.0592
  C  C179  1  0.382100  0.863100  0.620300  1.0  0.7403
  C  C180  1  0.316300  0.916900  0.576500  1.0  -0.0587
  C  C181  1  0.363100  0.882100  0.134500  1.0  0.7371
  C  C182  1  0.416900  0.816300  0.190300  1.0  -0.0584
  C  C183  1  0.634500  0.620300  0.863100  1.0  0.7354
  C  C184  1  0.690300  0.576500  0.916900  1.0  -0.059
  C  C185  1  0.117900  0.879700  0.636900  1.0  0.7314
  C  C186  1  0.183700  0.923500  0.583100  1.0  -0.0579
  C  C187  1  0.379700  0.617900  0.365500  1.0  0.7328
  C  C188  1  0.423500  0.683700  0.309700  1.0  -0.0598
  C  C189  1  0.865500  0.636900  0.879700  1.0  0.733
  C  C190  1  0.809700  0.583100  0.923500  1.0  -0.0605
  C  C191  1  0.136900  0.365500  0.617900  1.0  0.7318
  C  C192  1  0.083100  0.309700  0.683700  1.0  -0.0592
  C  C193  1  0.136900  0.879700  0.365500  1.0  0.7383
  C  C194  1  0.083100  0.923500  0.309700  1.0  -0.06
  C  C195  1  0.865500  0.617900  0.636900  1.0  0.7378
  C  C196  1  0.809700  0.683700  0.583100  1.0  -0.0615
  C  C197  1  0.379700  0.636900  0.617900  1.0  0.7377
  C  C198  1  0.423500  0.583100  0.683700  1.0  -0.0612
  C  C199  1  0.117900  0.365500  0.879700  1.0  0.7351
  C  C200  1  0.183700  0.309700  0.923500  1.0  -0.0605
  C  C201  1  0.865500  0.879700  0.617900  1.0  0.7366
  C  C202  1  0.809700  0.923500  0.683700  1.0  -0.0568
  C  C203  1  0.136900  0.617900  0.879700  1.0  0.7374
  C  C204  1  0.083100  0.683700  0.923500  1.0  -0.0601
  C  C205  1  0.117900  0.636900  0.365500  1.0  0.7384
  C  C206  1  0.183700  0.583100  0.309700  1.0  -0.0609
  C  C207  1  0.379700  0.365500  0.636900  1.0  0.7359
  C  C208  1  0.423500  0.309700  0.583100  1.0  -0.0584
  O  O209  1  0.813600  0.128200  0.202800  1.0  -0.6303
  O  O210  1  0.911400  0.049800  0.118000  1.0  -0.6907
  O  O211  1  0.628200  0.313600  0.855400  1.0  -0.629
  O  O212  1  0.549800  0.411400  0.920800  1.0  -0.69
  O  O213  1  0.702800  0.855400  0.313600  1.0  -0.6319
  O  O214  1  0.618000  0.920800  0.411400  1.0  -0.6901
  O  O215  1  0.355400  0.202800  0.128200  1.0  -0.6304
  O  O216  1  0.420800  0.118000  0.049800  1.0  -0.691
  O  O217  1  0.813600  0.202800  0.855400  1.0  -0.6321
  O  O218  1  0.911400  0.118000  0.920800  1.0  -0.6925
  O  O219  1  0.628200  0.855400  0.202800  1.0  -0.6352
  O  O220  1  0.549800  0.920800  0.118000  1.0  -0.6899
  O  O221  1  0.702800  0.313600  0.128200  1.0  -0.6309
  O  O222  1  0.618000  0.411400  0.049800  1.0  -0.6874
  O  O223  1  0.355400  0.128200  0.313600  1.0  -0.6342
  O  O224  1  0.420800  0.049800  0.411400  1.0  -0.6903
  O  O225  1  0.813600  0.855400  0.128200  1.0  -0.6332
  O  O226  1  0.911400  0.920800  0.049800  1.0  -0.6911
  O  O227  1  0.628200  0.202800  0.313600  1.0  -0.635
  O  O228  1  0.549800  0.118000  0.411400  1.0  -0.6918
  O  O229  1  0.702800  0.128200  0.855400  1.0  -0.6338
  O  O230  1  0.618000  0.049800  0.920800  1.0  -0.6924
  O  O231  1  0.355400  0.313600  0.202800  1.0  -0.6349
  O  O232  1  0.420800  0.411400  0.118000  1.0  -0.6925
  O  O233  1  0.871800  0.186400  0.297200  1.0  -0.6292
  O  O234  1  0.950200  0.088600  0.382000  1.0  -0.6881
  O  O235  1  0.686400  0.371800  0.644600  1.0  -0.6324
  O  O236  1  0.588600  0.450200  0.579200  1.0  -0.6898
  O  O237  1  0.144600  0.297200  0.186400  1.0  -0.6286
  O  O238  1  0.079200  0.382000  0.088600  1.0  -0.6929
  O  O239  1  0.797200  0.644600  0.371800  1.0  -0.6309
  O  O240  1  0.882000  0.579200  0.450200  1.0  -0.6899
  O  O241  1  0.797200  0.186400  0.644600  1.0  -0.6317
  O  O242  1  0.882000  0.088600  0.579200  1.0  -0.6878
  O  O243  1  0.144600  0.371800  0.297200  1.0  -0.6309
  O  O244  1  0.079200  0.450200  0.382000  1.0  -0.6907
  O  O245  1  0.686400  0.297200  0.371800  1.0  -0.6323
  O  O246  1  0.588600  0.382000  0.450200  1.0  -0.6931
  O  O247  1  0.871800  0.644600  0.186400  1.0  -0.6342
  O  O248  1  0.950200  0.579200  0.088600  1.0  -0.6877
  O  O249  1  0.144600  0.186400  0.371800  1.0  -0.6334
  O  O250  1  0.079200  0.088600  0.450200  1.0  -0.6905
  O  O251  1  0.797200  0.371800  0.186400  1.0  -0.6345
  O  O252  1  0.882000  0.450200  0.088600  1.0  -0.6925
  O  O253  1  0.871800  0.297200  0.644600  1.0  -0.6356
  O  O254  1  0.950200  0.382000  0.579200  1.0  -0.6923
  O  O255  1  0.686400  0.644600  0.297200  1.0  -0.6323
  O  O256  1  0.588600  0.579200  0.382000  1.0  -0.6917
  O  O257  1  0.186400  0.871800  0.797200  1.0  -0.6319
  O  O258  1  0.088600  0.950200  0.882000  1.0  -0.6891
  O  O259  1  0.371800  0.686400  0.144600  1.0  -0.6301
  O  O260  1  0.450200  0.588600  0.079200  1.0  -0.6882
  O  O261  1  0.297200  0.144600  0.686400  1.0  -0.6308
  O  O262  1  0.382000  0.079200  0.588600  1.0  -0.6901
  O  O263  1  0.644600  0.797200  0.871800  1.0  -0.6287
  O  O264  1  0.579200  0.882000  0.950200  1.0  -0.6924
  O  O265  1  0.186400  0.797200  0.144600  1.0  -0.6321
  O  O266  1  0.088600  0.882000  0.079200  1.0  -0.6902
  O  O267  1  0.371800  0.144600  0.797200  1.0  -0.6325
  O  O268  1  0.450200  0.079200  0.882000  1.0  -0.6895
  O  O269  1  0.297200  0.686400  0.871800  1.0  -0.6322
  O  O270  1  0.382000  0.588600  0.950200  1.0  -0.6911
  O  O271  1  0.644600  0.871800  0.686400  1.0  -0.6337
  O  O272  1  0.579200  0.950200  0.588600  1.0  -0.6893
  O  O273  1  0.186400  0.144600  0.871800  1.0  -0.6317
  O  O274  1  0.088600  0.079200  0.950200  1.0  -0.692
  O  O275  1  0.371800  0.797200  0.686400  1.0  -0.6359
  O  O276  1  0.450200  0.882000  0.588600  1.0  -0.694
  O  O277  1  0.297200  0.871800  0.144600  1.0  -0.6342
  O  O278  1  0.382000  0.950200  0.079200  1.0  -0.6923
  O  O279  1  0.644600  0.686400  0.797200  1.0  -0.6336
  O  O280  1  0.579200  0.588600  0.882000  1.0  -0.6905
  O  O281  1  0.128200  0.813600  0.702800  1.0  -0.6292
  O  O282  1  0.049800  0.911400  0.618000  1.0  -0.6908
  O  O283  1  0.313600  0.628200  0.355400  1.0  -0.6295
  O  O284  1  0.411400  0.549800  0.420800  1.0  -0.69
  O  O285  1  0.855400  0.702800  0.813600  1.0  -0.6296
  O  O286  1  0.920800  0.618000  0.911400  1.0  -0.6912
  O  O287  1  0.202800  0.355400  0.628200  1.0  -0.6323
  O  O288  1  0.118000  0.420800  0.549800  1.0  -0.6894
  O  O289  1  0.202800  0.813600  0.355400  1.0  -0.6311
  O  O290  1  0.118000  0.911400  0.420800  1.0  -0.6899
  O  O291  1  0.855400  0.628200  0.702800  1.0  -0.636
  O  O292  1  0.920800  0.549800  0.618000  1.0  -0.6906
  O  O293  1  0.313600  0.702800  0.628200  1.0  -0.6311
  O  O294  1  0.411400  0.618000  0.549800  1.0  -0.6898
  O  O295  1  0.128200  0.355400  0.813600  1.0  -0.6322
  O  O296  1  0.049800  0.420800  0.911400  1.0  -0.6889
  O  O297  1  0.855400  0.813600  0.628200  1.0  -0.6355
  O  O298  1  0.920800  0.911400  0.549800  1.0  -0.6921
  O  O299  1  0.202800  0.628200  0.813600  1.0  -0.6336
  O  O300  1  0.118000  0.549800  0.911400  1.0  -0.691
  O  O301  1  0.128200  0.702800  0.355400  1.0  -0.6355
  O  O302  1  0.049800  0.618000  0.420800  1.0  -0.6921
  O  O303  1  0.313600  0.355400  0.702800  1.0  -0.6328
  O  O304  1  0.411400  0.420800  0.618000  1.0  -0.6918
  O  O305  1  0.880600  0.250000  0.119400  1.0  -0.2952
  O  O306  1  0.750000  0.380600  0.750000  1.0  -0.2971
  O  O307  1  0.619400  0.750000  0.380600  1.0  -0.2955
  O  O308  1  0.250000  0.119400  0.250000  1.0  -0.2952
  O  O309  1  0.880600  0.119400  0.750000  1.0  -0.2961
  O  O310  1  0.750000  0.750000  0.119400  1.0  -0.294
  O  O311  1  0.619400  0.380600  0.250000  1.0  -0.2972
  O  O312  1  0.250000  0.250000  0.380600  1.0  -0.2932
  O  O313  1  0.880600  0.750000  0.250000  1.0  -0.2955
  O  O314  1  0.750000  0.119400  0.380600  1.0  -0.2953
  O  O315  1  0.619400  0.250000  0.750000  1.0  -0.2954
  O  O316  1  0.250000  0.380600  0.119400  1.0  -0.2958
  O  O317  1  0.119400  0.750000  0.880600  1.0  -0.2955
  O  O318  1  0.250000  0.619400  0.250000  1.0  -0.2952
  O  O319  1  0.380600  0.250000  0.619400  1.0  -0.2952
  O  O320  1  0.750000  0.880600  0.750000  1.0  -0.2971
  O  O321  1  0.119400  0.880600  0.250000  1.0  -0.2972
  O  O322  1  0.250000  0.250000  0.880600  1.0  -0.2946
  O  O323  1  0.380600  0.619400  0.750000  1.0  -0.2961
  O  O324  1  0.750000  0.750000  0.619400  1.0  -0.294
  O  O325  1  0.119400  0.250000  0.750000  1.0  -0.2954
  O  O326  1  0.250000  0.880600  0.619400  1.0  -0.2957
  O  O327  1  0.380600  0.750000  0.250000  1.0  -0.2955
  O  O328  1  0.750000  0.619400  0.880600  1.0  -0.2953
