# generated using pymatgen
data_MnH6C9O5
_symmetry_space_group_name_H-M   'P 1'
_cell_length_a   7.43700000
_cell_length_b   11.27800000
_cell_length_c   15.16400000
_cell_angle_alpha   90.00000000
_cell_angle_beta   90.00000000
_cell_angle_gamma   90.00000000
_symmetry_Int_Tables_number   1
_chemical_formula_structural   MnH6C9O5
_chemical_formula_sum   'Mn4 H24 C36 O20'
_cell_volume   1271.87270570
_cell_formula_units_Z   4
loop_
 _symmetry_equiv_pos_site_id
 _symmetry_equiv_pos_as_xyz
  1  'x, y, z'
loop_
 _atom_site_type_symbol
 _atom_site_label
 _atom_site_symmetry_multiplicity
 _atom_site_fract_x
 _atom_site_fract_y
 _atom_site_fract_z
 _atom_site_occupancy
 _atom_site_charge
  Mn  Mn1  1  0.535310  0.286150  0.220590  1.0  0.9758
  Mn  Mn2  1  0.464690  0.786150  0.779410  1.0  0.9755
  Mn  Mn3  1  0.035310  0.286150  0.279410  1.0  0.9759
  Mn  Mn4  1  0.964690  0.786150  0.720590  1.0  0.9781
  H  H5  1  0.806400  0.029900  0.500700  1.0  0.1085
  H  H6  1  0.360600  0.821600  0.496200  1.0  0.1167
  H  H7  1  0.494300  0.018000  0.282100  1.0  0.1203
  H  H8  1  0.030500  0.790800  0.331900  1.0  0.0961
  H  H9  1  0.066900  0.869200  0.418000  1.0  0.0829
  H  H10  1  0.166700  0.744600  0.406100  1.0  0.0716
  H  H11  1  0.193600  0.529900  0.499300  1.0  0.1087
  H  H12  1  0.639400  0.321600  0.503800  1.0  0.1169
  H  H13  1  0.505700  0.518000  0.717900  1.0  0.12
  H  H14  1  0.969500  0.290800  0.668100  1.0  0.0957
  H  H15  1  0.933100  0.369200  0.582000  1.0  0.0835
  H  H16  1  0.833300  0.244600  0.593900  1.0  0.0718
  H  H17  1  0.306400  0.029900  0.999300  1.0  0.1087
  H  H18  1  0.860600  0.821600  0.003800  1.0  0.1162
  H  H19  1  0.994300  0.018000  0.217900  1.0  0.1202
  H  H20  1  0.530500  0.790800  0.168100  1.0  0.0951
  H  H21  1  0.566900  0.869200  0.082000  1.0  0.0829
  H  H22  1  0.666667  0.744600  0.093900  1.0  0.0719
  H  H23  1  0.693600  0.529900  0.000700  1.0  0.1084
  H  H24  1  0.139400  0.321600  0.996200  1.0  0.1159
  H  H25  1  0.005700  0.518000  0.782100  1.0  0.1198
  H  H26  1  0.469500  0.290800  0.831900  1.0  0.0964
  H  H27  1  0.433100  0.369200  0.918000  1.0  0.0836
  H  H28  1  0.333333  0.244600  0.906100  1.0  0.0719
  C  C29  1  0.781300  0.130930  0.341820  1.0  0.667
  C  C30  1  0.636200  0.868160  0.601060  1.0  0.7209
  C  C31  1  0.664200  0.039490  0.386060  1.0  -0.1081
  C  C32  1  0.703400  0.000410  0.470800  1.0  -0.0626
  C  C33  1  0.591700  0.917940  0.512000  1.0  -0.1117
  C  C34  1  0.439600  0.875510  0.467760  1.0  -0.1842
  C  C35  1  0.404700  0.912370  0.382340  1.0  0.2616
  C  C36  1  0.517700  0.993810  0.341060  1.0  -0.1346
  C  C37  1  0.121200  0.814800  0.375270  1.0  -0.005
  C  C38  1  0.218700  0.630930  0.658180  1.0  0.6652
  C  C39  1  0.363800  0.368160  0.398940  1.0  0.7235
  C  C40  1  0.335800  0.539490  0.613940  1.0  -0.1095
  C  C41  1  0.296600  0.500410  0.529200  1.0  -0.0637
  C  C42  1  0.408300  0.417940  0.488000  1.0  -0.1117
  C  C43  1  0.560400  0.375510  0.532240  1.0  -0.1816
  C  C44  1  0.595300  0.412370  0.617660  1.0  0.2617
  C  C45  1  0.482300  0.493810  0.658940  1.0  -0.1359
  C  C46  1  0.878800  0.314800  0.624730  1.0  -0.0059
  C  C47  1  0.281300  0.130930  0.158180  1.0  0.6673
  C  C48  1  0.136200  0.868160  0.898940  1.0  0.7227
  C  C49  1  0.164200  0.039490  0.113940  1.0  -0.1085
  C  C50  1  0.203400  0.000410  0.029200  1.0  -0.0629
  C  C51  1  0.091700  0.917940  0.988000  1.0  -0.1116
  C  C52  1  0.939600  0.875510  0.032240  1.0  -0.1823
  C  C53  1  0.904700  0.912370  0.117660  1.0  0.2615
  C  C54  1  0.017700  0.993810  0.158940  1.0  -0.1358
  C  C55  1  0.621200  0.814800  0.124730  1.0  -0.0053
  C  C56  1  0.718700  0.630930  0.841820  1.0  0.665
  C  C57  1  0.863800  0.368160  0.101060  1.0  0.7212
  C  C58  1  0.835800  0.539490  0.886060  1.0  -0.1089
  C  C59  1  0.796600  0.500410  0.970800  1.0  -0.0635
  C  C60  1  0.908300  0.417940  0.012000  1.0  -0.1119
  C  C61  1  0.060400  0.375510  0.967760  1.0  -0.1836
  C  C62  1  0.095300  0.412370  0.882340  1.0  0.2618
  C  C63  1  0.982300  0.493810  0.841060  1.0  -0.1347
  C  C64  1  0.378800  0.314800  0.875270  1.0  -0.0055
  O  O65  1  0.738310  0.168350  0.265890  1.0  -0.609
  O  O66  1  0.920380  0.165320  0.379360  1.0  -0.5274
  O  O67  1  0.797610  0.870570  0.624750  1.0  -0.604
  O  O68  1  0.507750  0.825100  0.644650  1.0  -0.6123
  O  O69  1  0.263210  0.871730  0.332200  1.0  -0.2612
  O  O70  1  0.261690  0.668350  0.734110  1.0  -0.6092
  O  O71  1  0.079620  0.665320  0.620640  1.0  -0.5274
  O  O72  1  0.202390  0.370570  0.375250  1.0  -0.6048
  O  O73  1  0.492250  0.325100  0.355350  1.0  -0.6127
  O  O74  1  0.736790  0.371730  0.667800  1.0  -0.2626
  O  O75  1  0.238310  0.168350  0.234110  1.0  -0.6091
  O  O76  1  0.420380  0.165320  0.120640  1.0  -0.5277
  O  O77  1  0.297610  0.870570  0.875250  1.0  -0.604
  O  O78  1  0.007750  0.825100  0.855350  1.0  -0.6129
  O  O79  1  0.763210  0.871730  0.167800  1.0  -0.2612
  O  O80  1  0.761690  0.668350  0.765890  1.0  -0.6092
  O  O81  1  0.579620  0.665320  0.879360  1.0  -0.5277
  O  O82  1  0.702390  0.370570  0.124750  1.0  -0.604
  O  O83  1  0.992250  0.325100  0.144650  1.0  -0.6118
  O  O84  1  0.236790  0.371730  0.832200  1.0  -0.2611
