# generated using pymatgen
data_CdH24C30N5O8
_symmetry_space_group_name_H-M   'P 1'
_cell_length_a   13.11870000
_cell_length_b   13.38920000
_cell_length_c   22.95540000
_cell_angle_alpha   90.00000000
_cell_angle_beta   90.00000000
_cell_angle_gamma   119.33400000
_symmetry_Int_Tables_number   1
_chemical_formula_structural   CdH24C30N5O8
_chemical_formula_sum   'Cd4 H96 C120 N20 O32'
_cell_volume   3515.09085547
_cell_formula_units_Z   4
loop_
 _symmetry_equiv_pos_site_id
 _symmetry_equiv_pos_as_xyz
  1  'x, y, z'
loop_
 _atom_site_type_symbol
 _atom_site_label
 _atom_site_symmetry_multiplicity
 _atom_site_fract_x
 _atom_site_fract_y
 _atom_site_fract_z
 _atom_site_occupancy
 _atom_site_charge
  Cd  Cd1  1  0.340160  0.659640  0.935220  1.0  1.0832
  Cd  Cd2  1  0.319480  0.659640  0.564780  1.0  1.083
  Cd  Cd3  1  0.659840  0.340360  0.435220  1.0  1.0844
  Cd  Cd4  1  0.680520  0.340360  0.064780  1.0  1.0853
  H  H5  1  0.558400  0.551800  0.081400  1.0  0.1138
  H  H6  1  0.846400  0.818000  0.848700  1.0  0.1223
  H  H7  1  0.301600  0.594000  0.144300  1.0  0.1126
  H  H8  1  0.493900  0.523200  0.250800  1.0  0.1271
  H  H9  1  0.609300  0.527800  0.174000  1.0  0.1351
  H  H10  1  0.681900  0.905800  0.804500  1.0  0.1218
  H  H11  1  0.929700  0.226600  0.840800  1.0  0.1253
  H  H12  1  0.091000  0.739600  0.802100  1.0  0.1213
  H  H13  1  0.669600  0.041800  0.958100  1.0  0.1344
  H  H14  1  0.042600  0.774400  0.969700  1.0  0.11
  H  H15  1  0.900300  0.015400  0.659600  1.0  0.121
  H  H16  1  0.854000  0.206600  0.934800  1.0  0.1129
  H  H17  1  0.887800  0.807400  0.946400  1.0  0.1339
  H  H18  1  0.086600  0.348000  0.694100  1.0  0.099
  H  H19  1  0.129700  0.233800  0.545000  1.0  0.1215
  H  H20  1  0.997600  0.053000  0.570400  1.0  0.1202
  H  H21  1  0.993400  0.551800  0.418600  1.0  0.1143
  H  H22  1  0.971600  0.818000  0.651300  1.0  0.1208
  H  H23  1  0.292400  0.594000  0.355700  1.0  0.1109
  H  H24  1  0.029300  0.523200  0.249200  1.0  0.1265
  H  H25  1  0.918500  0.527800  0.326000  1.0  0.1317
  H  H26  1  0.223900  0.905800  0.695500  1.0  0.1223
  H  H27  1  0.296900  0.226600  0.659200  1.0  0.1254
  H  H28  1  0.648600  0.739600  0.697900  1.0  0.1215
  H  H29  1  0.372200  0.041800  0.541900  1.0  0.1343
  H  H30  1  0.731800  0.774400  0.530300  1.0  0.1098
  H  H31  1  0.115100  0.015400  0.840400  1.0  0.1215
  H  H32  1  0.352600  0.206600  0.565200  1.0  0.112
  H  H33  1  0.919600  0.807400  0.553600  1.0  0.1356
  H  H34  1  0.261400  0.348000  0.805900  1.0  0.0991
  H  H35  1  0.104100  0.233800  0.955000  1.0  0.1218
  H  H36  1  0.055400  0.053000  0.929600  1.0  0.1209
  H  H37  1  0.441600  0.448200  0.581400  1.0  0.1142
  H  H38  1  0.153600  0.182000  0.348700  1.0  0.121
  H  H39  1  0.698400  0.406000  0.644300  1.0  0.111
  H  H40  1  0.506100  0.476800  0.750800  1.0  0.1253
  H  H41  1  0.390700  0.472200  0.674000  1.0  0.1331
  H  H42  1  0.318100  0.094200  0.304500  1.0  0.1216
  H  H43  1  0.070300  0.773400  0.340800  1.0  0.1253
  H  H44  1  0.909000  0.260400  0.302100  1.0  0.121
  H  H45  1  0.330400  0.958200  0.458100  1.0  0.1337
  H  H46  1  0.957400  0.225600  0.469700  1.0  0.1096
  H  H47  1  0.099700  0.984600  0.159600  1.0  0.1211
  H  H48  1  0.146000  0.793400  0.434800  1.0  0.1132
  H  H49  1  0.112200  0.192600  0.446400  1.0  0.1339
  H  H50  1  0.913400  0.652000  0.194100  1.0  0.0991
  H  H51  1  0.870300  0.766200  0.045000  1.0  0.1215
  H  H52  1  0.002400  0.947000  0.070400  1.0  0.1205
  H  H53  1  0.006600  0.448200  0.918600  1.0  0.1138
  H  H54  1  0.028400  0.182000  0.151300  1.0  0.1221
  H  H55  1  0.707600  0.406000  0.855700  1.0  0.112
  H  H56  1  0.970700  0.476800  0.749200  1.0  0.1276
  H  H57  1  0.081500  0.472200  0.826000  1.0  0.1354
  H  H58  1  0.776100  0.094200  0.195500  1.0  0.1223
  H  H59  1  0.703100  0.773400  0.159200  1.0  0.1256
  H  H60  1  0.351400  0.260400  0.197900  1.0  0.1216
  H  H61  1  0.627800  0.958200  0.041900  1.0  0.135
  H  H62  1  0.268200  0.225600  0.030300  1.0  0.1096
  H  H63  1  0.884900  0.984600  0.340400  1.0  0.1212
  H  H64  1  0.647400  0.793400  0.065200  1.0  0.1129
  H  H65  1  0.080400  0.192600  0.053600  1.0  0.1338
  H  H66  1  0.738600  0.652000  0.305900  1.0  0.0992
  H  H67  1  0.895900  0.766200  0.455000  1.0  0.1218
  H  H68  1  0.944600  0.947000  0.429600  1.0  0.1205
  H  H69  1  0.525200  0.514200  0.974100  1.0  0.176
  H  H70  1  0.604800  0.468200  0.969400  1.0  0.1451
  H  H71  1  0.697400  0.647800  0.944100  1.0  0.0978
  H  H72  1  0.685100  0.571000  0.890100  1.0  0.0977
  H  H73  1  0.601100  0.622400  0.897000  1.0  0.1118
  H  H74  1  0.434700  0.340200  0.937500  1.0  0.1091
  H  H75  1  0.436000  0.430400  0.893400  1.0  0.1086
  H  H76  1  0.524300  0.384200  0.885800  1.0  0.1153
  H  H77  1  0.474800  0.485800  0.474100  1.0  0.1772
  H  H78  1  0.395200  0.531800  0.469400  1.0  0.1437
  H  H79  1  0.302600  0.352200  0.444100  1.0  0.0983
  H  H80  1  0.314900  0.429000  0.390100  1.0  0.096
  H  H81  1  0.398900  0.377600  0.397000  1.0  0.1102
  H  H82  1  0.565300  0.659800  0.437500  1.0  0.1074
  H  H83  1  0.564000  0.569600  0.393400  1.0  0.1083
  H  H84  1  0.475700  0.615800  0.385800  1.0  0.1153
  H  H85  1  0.989000  0.514200  0.525900  1.0  0.1753
  H  H86  1  0.863400  0.468200  0.530600  1.0  0.1412
  H  H87  1  0.950400  0.647800  0.555900  1.0  0.099
  H  H88  1  0.885900  0.571000  0.609900  1.0  0.0963
  H  H89  1  0.021300  0.622400  0.603000  1.0  0.1104
  H  H90  1  0.905500  0.340200  0.562500  1.0  0.1096
  H  H91  1  0.994400  0.430400  0.606600  1.0  0.1096
  H  H92  1  0.859900  0.384200  0.614200  1.0  0.1149
  H  H93  1  0.011000  0.485800  0.025900  1.0  0.1754
  H  H94  1  0.136600  0.531800  0.030600  1.0  0.1445
  H  H95  1  0.049600  0.352200  0.055900  1.0  0.0985
  H  H96  1  0.114100  0.429000  0.109900  1.0  0.0985
  H  H97  1  0.978700  0.377600  0.103000  1.0  0.1124
  H  H98  1  0.094500  0.659800  0.062500  1.0  0.1093
  H  H99  1  0.005600  0.569600  0.106600  1.0  0.1079
  H  H100  1  0.140100  0.615800  0.114200  1.0  0.1155
  C  C101  1  0.398600  0.602200  0.043000  1.0  0.6844
  C  C102  1  0.426800  0.581000  0.102100  1.0  -0.0045
  C  C103  1  0.516200  0.556400  0.112800  1.0  -0.0525
  C  C104  1  0.902800  0.798200  0.858900  1.0  -0.1142
  C  C105  1  0.363100  0.578800  0.149100  1.0  -0.0415
  C  C106  1  0.477300  0.536800  0.213100  1.0  -0.1179
  C  C107  1  0.958400  0.773000  0.817400  1.0  0.2134
  C  C108  1  0.387900  0.554400  0.203900  1.0  0.1841
  C  C109  1  0.171300  0.722600  0.903000  1.0  0.7076
  C  C110  1  0.546700  0.851600  0.900500  1.0  0.7012
  C  C111  1  0.545100  0.538400  0.167800  1.0  -0.0839
  C  C112  1  0.711500  0.965600  0.831100  1.0  -0.0851
  C  C113  1  0.078200  0.748400  0.887400  1.0  -0.0997
  C  C114  1  0.810900  0.066000  0.816200  1.0  0.1402
  C  C115  1  0.864200  0.159200  0.852600  1.0  -0.0904
  C  C116  1  0.653200  0.949400  0.884300  1.0  -0.0769
  C  C117  1  0.049600  0.751600  0.831600  1.0  -0.1137
  C  C118  1  0.705500  0.044600  0.922700  1.0  -0.0465
  C  C119  1  0.020600  0.772800  0.931100  1.0  -0.0384
  C  C120  1  0.983800  0.177000  0.687700  1.0  0.2669
  C  C121  1  0.956600  0.089800  0.649900  1.0  -0.0688
  C  C122  1  0.816500  0.148600  0.907500  1.0  -0.069
  C  C123  1  0.929500  0.795000  0.917200  1.0  -0.0591
  C  C124  1  0.066600  0.286800  0.668900  1.0  -0.0677
  C  C125  1  0.117800  0.307800  0.617300  1.0  -0.0142
  C  C126  1  0.199500  0.431800  0.601100  1.0  0.6306
  C  C127  1  0.092400  0.219800  0.580900  1.0  -0.0742
  C  C128  1  0.014100  0.112800  0.595900  1.0  -0.0901
  C  C129  1  0.203600  0.602200  0.457000  1.0  0.6853
  C  C130  1  0.154200  0.581000  0.397900  1.0  -0.004
  C  C131  1  0.040200  0.556400  0.387200  1.0  -0.0606
  C  C132  1  0.895400  0.798200  0.641100  1.0  -0.1154
  C  C133  1  0.215700  0.578800  0.350900  1.0  -0.0425
  C  C134  1  0.059500  0.536800  0.286900  1.0  -0.1126
  C  C135  1  0.814600  0.773000  0.682600  1.0  0.2026
  C  C136  1  0.166500  0.554400  0.296100  1.0  0.1832
  C  C137  1  0.551300  0.722600  0.597000  1.0  0.7075
  C  C138  1  0.304900  0.851600  0.599500  1.0  0.7018
  C  C139  1  0.993300  0.538400  0.332200  1.0  -0.0856
  C  C140  1  0.254100  0.965600  0.668900  1.0  -0.0838
  C  C141  1  0.670200  0.748400  0.612600  1.0  -0.1009
  C  C142  1  0.255100  0.066000  0.683800  1.0  0.1294
  C  C143  1  0.295000  0.159200  0.647400  1.0  -0.0884
  C  C144  1  0.296200  0.949400  0.615700  1.0  -0.0787
  C  C145  1  0.702000  0.751600  0.668400  1.0  -0.1151
  C  C146  1  0.339100  0.044600  0.577300  1.0  -0.0446
  C  C147  1  0.752200  0.772800  0.568900  1.0  -0.0379
  C  C148  1  0.193200  0.177000  0.812300  1.0  0.2678
  C  C149  1  0.133200  0.089800  0.850100  1.0  -0.0686
  C  C150  1  0.332100  0.148600  0.592500  1.0  -0.0695
  C  C151  1  0.865500  0.795000  0.582800  1.0  -0.0593
  C  C152  1  0.220200  0.286800  0.831100  1.0  -0.0681
  C  C153  1  0.190000  0.307800  0.882700  1.0  -0.0125
  C  C154  1  0.232300  0.431800  0.898900  1.0  0.6316
  C  C155  1  0.127400  0.219800  0.919100  1.0  -0.0743
  C  C156  1  0.098700  0.112800  0.904100  1.0  -0.09
  C  C157  1  0.601400  0.397800  0.543000  1.0  0.6838
  C  C158  1  0.573200  0.419000  0.602100  1.0  -0.0042
  C  C159  1  0.483800  0.443600  0.612800  1.0  -0.0647
  C  C160  1  0.097200  0.201800  0.358900  1.0  -0.1156
  C  C161  1  0.636900  0.421200  0.649100  1.0  -0.042
  C  C162  1  0.522700  0.463200  0.713100  1.0  -0.1142
  C  C163  1  0.041600  0.227000  0.317400  1.0  0.2028
  C  C164  1  0.612100  0.445600  0.703900  1.0  0.1874
  C  C165  1  0.828700  0.277400  0.403000  1.0  0.7072
  C  C166  1  0.453300  0.148400  0.400500  1.0  0.7022
  C  C167  1  0.454900  0.461600  0.667800  1.0  -0.0844
  C  C168  1  0.288500  0.034400  0.331100  1.0  -0.0848
  C  C169  1  0.921800  0.251600  0.387400  1.0  -0.1011
  C  C170  1  0.189100  0.934000  0.316200  1.0  0.14
  C  C171  1  0.135800  0.840800  0.352600  1.0  -0.0908
  C  C172  1  0.346800  0.050600  0.384300  1.0  -0.0787
  C  C173  1  0.950400  0.248400  0.331600  1.0  -0.1149
  C  C174  1  0.294500  0.955400  0.422700  1.0  -0.0449
  C  C175  1  0.979400  0.227200  0.431100  1.0  -0.0403
  C  C176  1  0.016200  0.823000  0.187700  1.0  0.2659
  C  C177  1  0.043400  0.910200  0.149900  1.0  -0.0627
  C  C178  1  0.183500  0.851400  0.407500  1.0  -0.0681
  C  C179  1  0.070500  0.205000  0.417200  1.0  -0.0594
  C  C180  1  0.933400  0.713200  0.168900  1.0  -0.0681
  C  C181  1  0.882200  0.692200  0.117300  1.0  -0.013
  C  C182  1  0.800500  0.568200  0.101100  1.0  0.6319
  C  C183  1  0.907600  0.780200  0.080900  1.0  -0.074
  C  C184  1  0.985900  0.887200  0.095900  1.0  -0.0896
  C  C185  1  0.796400  0.397800  0.957000  1.0  0.6843
  C  C186  1  0.845800  0.419000  0.897900  1.0  -0.0029
  C  C187  1  0.959800  0.443600  0.887200  1.0  -0.0535
  C  C188  1  0.104600  0.201800  0.141100  1.0  -0.1131
  C  C189  1  0.784300  0.421200  0.850900  1.0  -0.0417
  C  C190  1  0.940500  0.463200  0.786900  1.0  -0.1161
  C  C191  1  0.185400  0.227000  0.182600  1.0  0.2137
  C  C192  1  0.833500  0.445600  0.796100  1.0  0.1825
  C  C193  1  0.448700  0.277400  0.097000  1.0  0.71
  C  C194  1  0.695100  0.148400  0.099500  1.0  0.7013
  C  C195  1  0.006700  0.461600  0.832200  1.0  -0.0844
  C  C196  1  0.745900  0.034400  0.168900  1.0  -0.0857
  C  C197  1  0.329800  0.251600  0.112600  1.0  -0.0995
  C  C198  1  0.744900  0.934000  0.183800  1.0  0.1385
  C  C199  1  0.705000  0.840800  0.147400  1.0  -0.0906
  C  C200  1  0.703800  0.050600  0.115700  1.0  -0.0757
  C  C201  1  0.298000  0.248400  0.168400  1.0  -0.1142
  C  C202  1  0.660900  0.955400  0.077300  1.0  -0.046
  C  C203  1  0.247800  0.227200  0.068900  1.0  -0.0377
  C  C204  1  0.806800  0.823000  0.312300  1.0  0.2606
  C  C205  1  0.866800  0.910200  0.350100  1.0  -0.0613
  C  C206  1  0.667900  0.851400  0.092500  1.0  -0.0686
  C  C207  1  0.134500  0.205000  0.082800  1.0  -0.0594
  C  C208  1  0.779800  0.713200  0.331100  1.0  -0.0666
  C  C209  1  0.810000  0.692200  0.382700  1.0  -0.0137
  C  C210  1  0.767700  0.568200  0.398900  1.0  0.632
  C  C211  1  0.872600  0.780200  0.419100  1.0  -0.0743
  C  C212  1  0.901300  0.887200  0.404100  1.0  -0.0897
  C  C213  1  0.643100  0.591400  0.917500  1.0  -0.1698
  C  C214  1  0.483400  0.405200  0.913600  1.0  -0.1661
  C  C215  1  0.356900  0.408600  0.417500  1.0  -0.1702
  C  C216  1  0.516600  0.594800  0.413600  1.0  -0.1654
  C  C217  1  0.948300  0.591400  0.582500  1.0  -0.1707
  C  C218  1  0.921800  0.405200  0.586400  1.0  -0.1657
  C  C219  1  0.051700  0.408600  0.082500  1.0  -0.1714
  C  C220  1  0.078200  0.594800  0.086400  1.0  -0.1646
  N  N221  1  0.323600  0.552400  0.253500  1.0  -0.2133
  N  N222  1  0.936500  0.167000  0.743800  1.0  -0.1745
  N  N223  1  0.857100  0.069800  0.755900  1.0  -0.1745
  N  N224  1  0.932000  0.769000  0.756900  1.0  -0.2318
  N  N225  1  0.228800  0.552400  0.246500  1.0  -0.2119
  N  N226  1  0.230500  0.167000  0.756200  1.0  -0.1743
  N  N227  1  0.212700  0.069800  0.744100  1.0  -0.1741
  N  N228  1  0.837000  0.769000  0.743100  1.0  -0.2333
  N  N229  1  0.676400  0.447600  0.753500  1.0  -0.2133
  N  N230  1  0.063500  0.833000  0.243800  1.0  -0.1755
  N  N231  1  0.142900  0.930200  0.255900  1.0  -0.1728
  N  N232  1  0.068000  0.231000  0.256900  1.0  -0.2327
  N  N233  1  0.771200  0.447600  0.746500  1.0  -0.2132
  N  N234  1  0.769500  0.833000  0.256200  1.0  -0.1732
  N  N235  1  0.787300  0.930200  0.244100  1.0  -0.175
  N  N236  1  0.163000  0.231000  0.243100  1.0  -0.2324
  N  N237  1  0.564200  0.494000  0.948700  1.0  -0.0308
  N  N238  1  0.435800  0.506000  0.448700  1.0  -0.0309
  N  N239  1  0.929800  0.494000  0.551300  1.0  -0.0311
  N  N240  1  0.070200  0.506000  0.051300  1.0  -0.0313
  O  O241  1  0.326300  0.637600  0.037500  1.0  -0.5828
  O  O242  1  0.454200  0.594600  0.999100  1.0  -0.6589
  O  O243  1  0.490400  0.855600  0.945200  1.0  -0.6696
  O  O244  1  0.514400  0.764400  0.875500  1.0  -0.5882
  O  O245  1  0.232700  0.716000  0.866900  1.0  -0.6203
  O  O246  1  0.187800  0.708800  0.954300  1.0  -0.6126
  O  O247  1  0.252700  0.441400  0.552900  1.0  -0.643
  O  O248  1  0.207300  0.509000  0.626600  1.0  -0.5465
  O  O249  1  0.311300  0.637600  0.462500  1.0  -0.5828
  O  O250  1  0.140400  0.594600  0.500900  1.0  -0.6608
  O  O251  1  0.365200  0.855600  0.554800  1.0  -0.6695
  O  O252  1  0.250000  0.764400  0.624500  1.0  -0.5915
  O  O253  1  0.483300  0.716000  0.633100  1.0  -0.619
  O  O254  1  0.521000  0.708800  0.545700  1.0  -0.6138
  O  O255  1  0.188700  0.441400  0.947100  1.0  -0.6416
  O  O256  1  0.301700  0.509000  0.873400  1.0  -0.5461
  O  O257  1  0.673700  0.362400  0.537500  1.0  -0.5821
  O  O258  1  0.545800  0.405400  0.499100  1.0  -0.6609
  O  O259  1  0.509600  0.144400  0.445200  1.0  -0.6725
  O  O260  1  0.485600  0.235600  0.375500  1.0  -0.5907
  O  O261  1  0.767300  0.284000  0.366900  1.0  -0.6195
  O  O262  1  0.812200  0.291200  0.454300  1.0  -0.6142
  O  O263  1  0.747300  0.558600  0.052900  1.0  -0.6426
  O  O264  1  0.792700  0.491000  0.126600  1.0  -0.5462
  O  O265  1  0.688700  0.362400  0.962500  1.0  -0.5828
  O  O266  1  0.859600  0.405400  0.000900  1.0  -0.6594
  O  O267  1  0.634800  0.144400  0.054800  1.0  -0.6698
  O  O268  1  0.750000  0.235600  0.124500  1.0  -0.5873
  O  O269  1  0.516700  0.284000  0.133100  1.0  -0.6198
  O  O270  1  0.479000  0.291200  0.045700  1.0  -0.6138
  O  O271  1  0.811300  0.558600  0.447100  1.0  -0.6429
  O  O272  1  0.698300  0.491000  0.373400  1.0  -0.5473
