# generated using pymatgen
data_ZnP2(HO3)2
_symmetry_space_group_name_H-M   'P 1'
_cell_length_a   15.21090000
_cell_length_b   11.72810000
_cell_length_c   14.18210000
_cell_angle_alpha   90.00000000
_cell_angle_beta   90.00000000
_cell_angle_gamma   90.00000000
_symmetry_Int_Tables_number   1
_chemical_formula_structural   ZnP2(HO3)2
_chemical_formula_sum   'Zn8 P16 H16 O48'
_cell_volume   2530.01510960
_cell_formula_units_Z   8
loop_
 _symmetry_equiv_pos_site_id
 _symmetry_equiv_pos_as_xyz
  1  'x, y, z'
loop_
 _atom_site_type_symbol
 _atom_site_label
 _atom_site_symmetry_multiplicity
 _atom_site_fract_x
 _atom_site_fract_y
 _atom_site_fract_z
 _atom_site_occupancy
 _atom_site_charge
  Zn  Zn1  1  0.000000  0.000000  0.669380  1.0  1.148
  Zn  Zn2  1  0.000000  0.500000  0.169380  1.0  1.148
  Zn  Zn3  1  0.500000  0.000000  0.169380  1.0  1.148
  Zn  Zn4  1  0.500000  0.500000  0.669380  1.0  1.148
  Zn  Zn5  1  0.250000  0.250000  0.919380  1.0  1.148
  Zn  Zn6  1  0.250000  0.750000  0.419380  1.0  1.148
  Zn  Zn7  1  0.750000  0.250000  0.419380  1.0  1.148
  Zn  Zn8  1  0.750000  0.750000  0.919380  1.0  1.148
  P  P9  1  0.168110  0.877800  0.591010  1.0  1.5001
  P  P10  1  0.168110  0.377800  0.091010  1.0  1.5001
  P  P11  1  0.668110  0.877800  0.091010  1.0  1.5001
  P  P12  1  0.668110  0.377800  0.591010  1.0  1.5001
  P  P13  1  0.831890  0.122200  0.591010  1.0  1.4991
  P  P14  1  0.831890  0.622200  0.091010  1.0  1.4991
  P  P15  1  0.331890  0.122200  0.091010  1.0  1.4991
  P  P16  1  0.331890  0.622200  0.591010  1.0  1.4991
  P  P17  1  0.418110  0.372200  0.841010  1.0  1.4999
  P  P18  1  0.418110  0.872200  0.341010  1.0  1.4999
  P  P19  1  0.918110  0.372200  0.341010  1.0  1.4999
  P  P20  1  0.918110  0.872200  0.841010  1.0  1.4999
  P  P21  1  0.081890  0.127800  0.841010  1.0  1.4988
  P  P22  1  0.081890  0.627800  0.341010  1.0  1.4988
  P  P23  1  0.581890  0.127800  0.341010  1.0  1.4988
  P  P24  1  0.581890  0.627800  0.841010  1.0  1.4988
  H  H25  1  0.135000  0.774000  0.597000  1.0  -0.0392
  H  H26  1  0.135000  0.274000  0.097000  1.0  -0.0392
  H  H27  1  0.635000  0.774000  0.097000  1.0  -0.0392
  H  H28  1  0.635000  0.274000  0.597000  1.0  -0.0392
  H  H29  1  0.865000  0.226000  0.597000  1.0  -0.0407
  H  H30  1  0.865000  0.726000  0.097000  1.0  -0.0407
  H  H31  1  0.365000  0.226000  0.097000  1.0  -0.0407
  H  H32  1  0.365000  0.726000  0.597000  1.0  -0.0407
  H  H33  1  0.385000  0.476000  0.847000  1.0  -0.0403
  H  H34  1  0.385000  0.976000  0.347000  1.0  -0.0403
  H  H35  1  0.885000  0.476000  0.347000  1.0  -0.0403
  H  H36  1  0.885000  0.976000  0.847000  1.0  -0.0403
  H  H37  1  0.115000  0.024000  0.847000  1.0  -0.0375
  H  H38  1  0.115000  0.524000  0.347000  1.0  -0.0375
  H  H39  1  0.615000  0.024000  0.347000  1.0  -0.0375
  H  H40  1  0.615000  0.524000  0.847000  1.0  -0.0375
  O  O41  1  0.087970  0.953670  0.578370  1.0  -0.7268
  O  O42  1  0.222220  0.880390  0.499600  1.0  -0.7107
  O  O43  1  0.221800  0.903440  0.676590  1.0  -0.5962
  O  O44  1  0.087970  0.453670  0.078370  1.0  -0.7268
  O  O45  1  0.222220  0.380390  0.999600  1.0  -0.7107
  O  O46  1  0.221800  0.403440  0.176590  1.0  -0.5962
  O  O47  1  0.587970  0.953670  0.078370  1.0  -0.7268
  O  O48  1  0.722220  0.880390  0.999600  1.0  -0.7107
  O  O49  1  0.721800  0.903440  0.176590  1.0  -0.5962
  O  O50  1  0.587970  0.453670  0.578370  1.0  -0.7268
  O  O51  1  0.722220  0.380390  0.499600  1.0  -0.7107
  O  O52  1  0.721800  0.403440  0.676590  1.0  -0.5962
  O  O53  1  0.912030  0.046330  0.578370  1.0  -0.7269
  O  O54  1  0.777780  0.119610  0.499600  1.0  -0.7098
  O  O55  1  0.778200  0.096560  0.676590  1.0  -0.5977
  O  O56  1  0.912030  0.546330  0.078370  1.0  -0.7269
  O  O57  1  0.777780  0.619610  0.999600  1.0  -0.7098
  O  O58  1  0.778200  0.596560  0.176590  1.0  -0.5977
  O  O59  1  0.412030  0.046330  0.078370  1.0  -0.7269
  O  O60  1  0.277780  0.119610  0.999600  1.0  -0.7098
  O  O61  1  0.278200  0.096560  0.176590  1.0  -0.5977
  O  O62  1  0.412030  0.546330  0.578370  1.0  -0.7269
  O  O63  1  0.277780  0.619610  0.499600  1.0  -0.7098
  O  O64  1  0.278200  0.596560  0.676590  1.0  -0.5977
  O  O65  1  0.337970  0.296330  0.828370  1.0  -0.7277
  O  O66  1  0.472220  0.369610  0.749600  1.0  -0.7096
  O  O67  1  0.471800  0.346560  0.926590  1.0  -0.5968
  O  O68  1  0.337970  0.796330  0.328370  1.0  -0.7277
  O  O69  1  0.472220  0.869610  0.249600  1.0  -0.7096
  O  O70  1  0.471800  0.846560  0.426590  1.0  -0.5968
  O  O71  1  0.837970  0.296330  0.328370  1.0  -0.7277
  O  O72  1  0.972220  0.369610  0.249600  1.0  -0.7096
  O  O73  1  0.971800  0.346560  0.426590  1.0  -0.5968
  O  O74  1  0.837970  0.796330  0.828370  1.0  -0.7277
  O  O75  1  0.972220  0.869610  0.749600  1.0  -0.7096
  O  O76  1  0.971800  0.846560  0.926590  1.0  -0.5968
  O  O77  1  0.162030  0.203670  0.828370  1.0  -0.7255
  O  O78  1  0.027780  0.130390  0.749600  1.0  -0.7114
  O  O79  1  0.028200  0.153440  0.926590  1.0  -0.597
  O  O80  1  0.162030  0.703670  0.328370  1.0  -0.7255
  O  O81  1  0.027780  0.630390  0.249600  1.0  -0.7114
  O  O82  1  0.028200  0.653440  0.426590  1.0  -0.597
  O  O83  1  0.662030  0.203670  0.328370  1.0  -0.7255
  O  O84  1  0.527780  0.130390  0.249600  1.0  -0.7114
  O  O85  1  0.528200  0.153440  0.426590  1.0  -0.597
  O  O86  1  0.662030  0.703670  0.828370  1.0  -0.7255
  O  O87  1  0.527780  0.630390  0.749600  1.0  -0.7114
  O  O88  1  0.528200  0.653440  0.926590  1.0  -0.597
