# generated using pymatgen
data_CuH13C12(NO2)2
_symmetry_space_group_name_H-M   'P 1'
_cell_length_a   29.13500000
_cell_length_b   13.19100000
_cell_length_c   8.59900000
_cell_angle_alpha   90.00000000
_cell_angle_beta   90.24700000
_cell_angle_gamma   90.00000000
_symmetry_Int_Tables_number   1
_chemical_formula_structural   CuH13C12(NO2)2
_chemical_formula_sum   'Cu8 H104 C96 N16 O32'
_cell_volume   3304.73512271
_cell_formula_units_Z   8
loop_
 _symmetry_equiv_pos_site_id
 _symmetry_equiv_pos_as_xyz
  1  'x, y, z'
loop_
 _atom_site_type_symbol
 _atom_site_label
 _atom_site_symmetry_multiplicity
 _atom_site_fract_x
 _atom_site_fract_y
 _atom_site_fract_z
 _atom_site_occupancy
 _atom_site_charge
  Cu  Cu1  1  0.287450  0.795180  0.550660  1.0  0.8158
  Cu  Cu2  1  0.787450  0.295180  0.550660  1.0  0.8158
  Cu  Cu3  1  0.712550  0.795180  0.949340  1.0  0.8172
  Cu  Cu4  1  0.212550  0.295180  0.949340  1.0  0.8172
  Cu  Cu5  1  0.712550  0.204820  0.449340  1.0  0.8172
  Cu  Cu6  1  0.212550  0.704820  0.449340  1.0  0.8172
  Cu  Cu7  1  0.287450  0.204820  0.050660  1.0  0.8157
  Cu  Cu8  1  0.787450  0.704820  0.050660  1.0  0.8157
  H  H9  1  0.376100  0.754900  0.737300  1.0  0.0865
  H  H10  1  0.433800  0.834000  0.867000  1.0  0.1175
  H  H11  1  0.377800  0.097500  0.749300  1.0  0.1154
  H  H12  1  0.321300  0.010200  0.622100  1.0  0.0751
  H  H13  1  0.478700  0.167300  0.951500  1.0  0.1268
  H  H14  1  0.424900  0.167600  0.946300  1.0  0.1217
  H  H15  1  0.452900  0.165500  0.791100  1.0  0.1253
  H  H16  1  0.195100  0.735800  0.988200  1.0  0.1139
  H  H17  1  0.155500  0.792900  0.900300  1.0  0.1049
  H  H18  1  0.190300  0.901900  0.082500  1.0  0.0765
  H  H19  1  0.238000  0.886500  0.002200  1.0  0.0727
  H  H20  1  0.162200  0.985600  0.865500  1.0  0.1145
  H  H21  1  0.207500  0.963300  0.774400  1.0  0.1198
  H  H22  1  0.876100  0.254900  0.737300  1.0  0.0865
  H  H23  1  0.933800  0.334000  0.867000  1.0  0.1175
  H  H24  1  0.877800  0.597500  0.749300  1.0  0.1154
  H  H25  1  0.821300  0.510200  0.622100  1.0  0.0751
  H  H26  1  0.978700  0.667300  0.951500  1.0  0.1268
  H  H27  1  0.924900  0.667600  0.946300  1.0  0.1217
  H  H28  1  0.952900  0.665500  0.791100  1.0  0.1253
  H  H29  1  0.695100  0.235800  0.988200  1.0  0.1139
  H  H30  1  0.655500  0.292900  0.900300  1.0  0.1049
  H  H31  1  0.690300  0.401900  0.082500  1.0  0.0765
  H  H32  1  0.738000  0.386500  0.002200  1.0  0.0727
  H  H33  1  0.662200  0.485600  0.865500  1.0  0.1145
  H  H34  1  0.707500  0.463300  0.774400  1.0  0.1198
  H  H35  1  0.623900  0.754900  0.762700  1.0  0.0866
  H  H36  1  0.566200  0.834000  0.633000  1.0  0.1171
  H  H37  1  0.622200  0.097500  0.750700  1.0  0.1151
  H  H38  1  0.678700  0.010200  0.877900  1.0  0.0749
  H  H39  1  0.521300  0.167300  0.548500  1.0  0.1287
  H  H40  1  0.575100  0.167600  0.553700  1.0  0.1222
  H  H41  1  0.547100  0.165500  0.708900  1.0  0.1258
  H  H42  1  0.804900  0.735800  0.511800  1.0  0.1127
  H  H43  1  0.844500  0.792900  0.599700  1.0  0.1039
  H  H44  1  0.809700  0.901900  0.417500  1.0  0.0766
  H  H45  1  0.762000  0.886500  0.497800  1.0  0.0705
  H  H46  1  0.837800  0.985600  0.634500  1.0  0.1129
  H  H47  1  0.792500  0.963300  0.725600  1.0  0.1195
  H  H48  1  0.123900  0.254900  0.762700  1.0  0.0866
  H  H49  1  0.066200  0.334000  0.633000  1.0  0.1171
  H  H50  1  0.122200  0.597500  0.750700  1.0  0.1151
  H  H51  1  0.178700  0.510200  0.877900  1.0  0.0749
  H  H52  1  0.021300  0.667300  0.548500  1.0  0.1287
  H  H53  1  0.075100  0.667600  0.553700  1.0  0.1222
  H  H54  1  0.047100  0.665500  0.708900  1.0  0.1258
  H  H55  1  0.304900  0.235800  0.511800  1.0  0.1127
  H  H56  1  0.344500  0.292900  0.599700  1.0  0.1039
  H  H57  1  0.309700  0.401900  0.417500  1.0  0.0766
  H  H58  1  0.262000  0.386500  0.497800  1.0  0.0705
  H  H59  1  0.337800  0.485600  0.634500  1.0  0.1129
  H  H60  1  0.292500  0.463300  0.725600  1.0  0.1195
  H  H61  1  0.623900  0.245100  0.262700  1.0  0.085
  H  H62  1  0.566200  0.166000  0.133000  1.0  0.1172
  H  H63  1  0.622200  0.902500  0.250700  1.0  0.1149
  H  H64  1  0.678700  0.989800  0.377900  1.0  0.0751
  H  H65  1  0.521300  0.832700  0.048500  1.0  0.1288
  H  H66  1  0.575100  0.832400  0.053700  1.0  0.123
  H  H67  1  0.547100  0.834500  0.208900  1.0  0.1268
  H  H68  1  0.804900  0.264200  0.011800  1.0  0.1129
  H  H69  1  0.844500  0.207100  0.099700  1.0  0.1044
  H  H70  1  0.809700  0.098100  0.917500  1.0  0.0762
  H  H71  1  0.762000  0.113500  0.997800  1.0  0.0695
  H  H72  1  0.837800  0.014400  0.134500  1.0  0.1127
  H  H73  1  0.792500  0.036700  0.225600  1.0  0.1195
  H  H74  1  0.123900  0.745100  0.262700  1.0  0.085
  H  H75  1  0.066200  0.666000  0.133000  1.0  0.1172
  H  H76  1  0.122200  0.402500  0.250700  1.0  0.1149
  H  H77  1  0.178700  0.489800  0.377900  1.0  0.0751
  H  H78  1  0.021300  0.332700  0.048500  1.0  0.1288
  H  H79  1  0.075100  0.332400  0.053700  1.0  0.123
  H  H80  1  0.047100  0.334500  0.208900  1.0  0.1268
  H  H81  1  0.304900  0.764200  0.011800  1.0  0.1129
  H  H82  1  0.344500  0.707100  0.099700  1.0  0.1044
  H  H83  1  0.309700  0.598100  0.917500  1.0  0.0762
  H  H84  1  0.262000  0.613500  0.997800  1.0  0.0695
  H  H85  1  0.337800  0.514400  0.134500  1.0  0.1127
  H  H86  1  0.292500  0.536700  0.225600  1.0  0.1195
  H  H87  1  0.376100  0.245100  0.237300  1.0  0.0843
  H  H88  1  0.433800  0.166000  0.367000  1.0  0.1169
  H  H89  1  0.377800  0.902500  0.249300  1.0  0.1149
  H  H90  1  0.321300  0.989800  0.122100  1.0  0.0749
  H  H91  1  0.478700  0.832700  0.451500  1.0  0.128
  H  H92  1  0.424900  0.832400  0.446300  1.0  0.1229
  H  H93  1  0.452900  0.834500  0.291100  1.0  0.1253
  H  H94  1  0.195100  0.264200  0.488200  1.0  0.1127
  H  H95  1  0.155500  0.207100  0.400300  1.0  0.1049
  H  H96  1  0.190300  0.098100  0.582500  1.0  0.0765
  H  H97  1  0.238000  0.113500  0.502200  1.0  0.0722
  H  H98  1  0.162200  0.014400  0.365500  1.0  0.1143
  H  H99  1  0.207500  0.036700  0.274400  1.0  0.1194
  H  H100  1  0.876100  0.745100  0.237300  1.0  0.0843
  H  H101  1  0.933800  0.666000  0.367000  1.0  0.1169
  H  H102  1  0.877800  0.402500  0.249300  1.0  0.1149
  H  H103  1  0.821300  0.489800  0.122100  1.0  0.0749
  H  H104  1  0.978700  0.332700  0.451500  1.0  0.128
  H  H105  1  0.924900  0.332400  0.446300  1.0  0.1229
  H  H106  1  0.952900  0.334500  0.291100  1.0  0.1253
  H  H107  1  0.695100  0.764200  0.488200  1.0  0.1127
  H  H108  1  0.655500  0.707100  0.400300  1.0  0.1049
  H  H109  1  0.690300  0.598100  0.582500  1.0  0.0765
  H  H110  1  0.738000  0.613500  0.502200  1.0  0.0722
  H  H111  1  0.662200  0.514400  0.365500  1.0  0.1143
  H  H112  1  0.707500  0.536700  0.274400  1.0  0.1194
  C  C113  1  0.376460  0.825400  0.738800  1.0  0.1845
  C  C114  1  0.411490  0.872500  0.816700  1.0  -0.18
  C  C115  1  0.413900  0.975800  0.821100  1.0  0.0257
  C  C116  1  0.378580  0.027100  0.747500  1.0  -0.2389
  C  C117  1  0.344470  0.973800  0.671600  1.0  0.1866
  C  C118  1  0.452020  0.030400  0.900100  1.0  0.2831
  C  C119  1  0.452160  0.142500  0.896900  1.0  -0.39
  C  C120  1  0.211120  0.766600  0.762000  1.0  0.7201
  C  C121  1  0.188510  0.790000  0.915200  1.0  -0.2877
  C  C122  1  0.205190  0.890500  0.983400  1.0  -0.0376
  C  C123  1  0.195270  0.979000  0.876400  1.0  -0.2964
  C  C124  1  0.214540  0.080800  0.927500  1.0  0.7213
  C  C125  1  0.876460  0.325400  0.738800  1.0  0.1845
  C  C126  1  0.911490  0.372500  0.816700  1.0  -0.18
  C  C127  1  0.913900  0.475800  0.821100  1.0  0.0257
  C  C128  1  0.878580  0.527100  0.747500  1.0  -0.2389
  C  C129  1  0.844470  0.473800  0.671600  1.0  0.1866
  C  C130  1  0.952020  0.530400  0.900100  1.0  0.2831
  C  C131  1  0.952160  0.642500  0.896900  1.0  -0.39
  C  C132  1  0.711120  0.266600  0.762000  1.0  0.7201
  C  C133  1  0.688510  0.290000  0.915200  1.0  -0.2877
  C  C134  1  0.705190  0.390500  0.983400  1.0  -0.0376
  C  C135  1  0.695270  0.479000  0.876400  1.0  -0.2964
  C  C136  1  0.714540  0.580800  0.927500  1.0  0.7213
  C  C137  1  0.623540  0.825400  0.761200  1.0  0.1856
  C  C138  1  0.588510  0.872500  0.683300  1.0  -0.1788
  C  C139  1  0.586100  0.975800  0.678900  1.0  0.0265
  C  C140  1  0.621420  0.027100  0.752500  1.0  -0.239
  C  C141  1  0.655530  0.973800  0.828400  1.0  0.1874
  C  C142  1  0.547980  0.030400  0.599900  1.0  0.2842
  C  C143  1  0.547840  0.142500  0.603100  1.0  -0.3906
  C  C144  1  0.788880  0.766600  0.738000  1.0  0.719
  C  C145  1  0.811490  0.790000  0.584800  1.0  -0.2882
  C  C146  1  0.794810  0.890500  0.516600  1.0  -0.0336
  C  C147  1  0.804730  0.979000  0.623600  1.0  -0.2964
  C  C148  1  0.785460  0.080800  0.572500  1.0  0.7193
  C  C149  1  0.123540  0.325400  0.761200  1.0  0.1856
  C  C150  1  0.088510  0.372500  0.683300  1.0  -0.1788
  C  C151  1  0.086100  0.475800  0.678900  1.0  0.0265
  C  C152  1  0.121420  0.527100  0.752500  1.0  -0.239
  C  C153  1  0.155530  0.473800  0.828400  1.0  0.1874
  C  C154  1  0.047980  0.530400  0.599900  1.0  0.2842
  C  C155  1  0.047840  0.642500  0.603100  1.0  -0.3906
  C  C156  1  0.288880  0.266600  0.738000  1.0  0.719
  C  C157  1  0.311490  0.290000  0.584800  1.0  -0.2882
  C  C158  1  0.294810  0.390500  0.516600  1.0  -0.0336
  C  C159  1  0.304730  0.479000  0.623600  1.0  -0.2964
  C  C160  1  0.285460  0.580800  0.572500  1.0  0.7193
  C  C161  1  0.623540  0.174600  0.261200  1.0  0.1854
  C  C162  1  0.588510  0.127500  0.183300  1.0  -0.1814
  C  C163  1  0.586100  0.024200  0.178900  1.0  0.027
  C  C164  1  0.621420  0.972900  0.252500  1.0  -0.2384
  C  C165  1  0.655530  0.026200  0.328400  1.0  0.1875
  C  C166  1  0.547980  0.969600  0.099900  1.0  0.2846
  C  C167  1  0.547840  0.857500  0.103100  1.0  -0.3905
  C  C168  1  0.788880  0.233400  0.238000  1.0  0.7192
  C  C169  1  0.811490  0.210000  0.084800  1.0  -0.2881
  C  C170  1  0.794810  0.109500  0.016600  1.0  -0.0339
  C  C171  1  0.804730  0.021000  0.123600  1.0  -0.2972
  C  C172  1  0.785460  0.919200  0.072500  1.0  0.7197
  C  C173  1  0.123540  0.674600  0.261200  1.0  0.1854
  C  C174  1  0.088510  0.627500  0.183300  1.0  -0.1814
  C  C175  1  0.086100  0.524200  0.178900  1.0  0.027
  C  C176  1  0.121420  0.472900  0.252500  1.0  -0.2384
  C  C177  1  0.155530  0.526200  0.328400  1.0  0.1875
  C  C178  1  0.047980  0.469600  0.099900  1.0  0.2846
  C  C179  1  0.047840  0.357500  0.103100  1.0  -0.3905
  C  C180  1  0.288880  0.733400  0.238000  1.0  0.7192
  C  C181  1  0.311490  0.710000  0.084800  1.0  -0.2881
  C  C182  1  0.294810  0.609500  0.016600  1.0  -0.0339
  C  C183  1  0.304730  0.521000  0.123600  1.0  -0.2972
  C  C184  1  0.285460  0.419200  0.072500  1.0  0.7197
  C  C185  1  0.376460  0.174600  0.238800  1.0  0.1842
  C  C186  1  0.411490  0.127500  0.316700  1.0  -0.1816
  C  C187  1  0.413900  0.024200  0.321100  1.0  0.0259
  C  C188  1  0.378580  0.972900  0.247500  1.0  -0.2387
  C  C189  1  0.344470  0.026200  0.171600  1.0  0.1869
  C  C190  1  0.452020  0.969600  0.400100  1.0  0.2834
  C  C191  1  0.452160  0.857500  0.396900  1.0  -0.3904
  C  C192  1  0.211120  0.233400  0.262000  1.0  0.7209
  C  C193  1  0.188510  0.210000  0.415200  1.0  -0.2882
  C  C194  1  0.205190  0.109500  0.483400  1.0  -0.0379
  C  C195  1  0.195270  0.021000  0.376400  1.0  -0.2957
  C  C196  1  0.214540  0.919200  0.427500  1.0  0.7208
  C  C197  1  0.876460  0.674600  0.238800  1.0  0.1842
  C  C198  1  0.911490  0.627500  0.316700  1.0  -0.1816
  C  C199  1  0.913900  0.524200  0.321100  1.0  0.0259
  C  C200  1  0.878580  0.472900  0.247500  1.0  -0.2387
  C  C201  1  0.844470  0.526200  0.171600  1.0  0.1869
  C  C202  1  0.952020  0.469600  0.400100  1.0  0.2834
  C  C203  1  0.952160  0.357500  0.396900  1.0  -0.3904
  C  C204  1  0.711120  0.733400  0.262000  1.0  0.7209
  C  C205  1  0.688510  0.710000  0.415200  1.0  -0.2882
  C  C206  1  0.705190  0.609500  0.483400  1.0  -0.0379
  C  C207  1  0.695270  0.521000  0.376400  1.0  -0.2957
  C  C208  1  0.714540  0.419200  0.427500  1.0  0.7208
  N  N209  1  0.343100  0.873600  0.665500  1.0  -0.3342
  N  N210  1  0.481840  0.973500  0.964000  1.0  -0.2747
  N  N211  1  0.843100  0.373600  0.665500  1.0  -0.3342
  N  N212  1  0.981840  0.473500  0.964000  1.0  -0.2747
  N  N213  1  0.656900  0.873600  0.834500  1.0  -0.3348
  N  N214  1  0.518160  0.973500  0.536000  1.0  -0.2743
  N  N215  1  0.156900  0.373600  0.834500  1.0  -0.3348
  N  N216  1  0.018160  0.473500  0.536000  1.0  -0.2743
  N  N217  1  0.656900  0.126400  0.334500  1.0  -0.335
  N  N218  1  0.518160  0.026500  0.036000  1.0  -0.2756
  N  N219  1  0.156900  0.626400  0.334500  1.0  -0.335
  N  N220  1  0.018160  0.526500  0.036000  1.0  -0.2756
  N  N221  1  0.343100  0.126400  0.165500  1.0  -0.3333
  N  N222  1  0.481840  0.026500  0.464000  1.0  -0.2761
  N  N223  1  0.843100  0.626400  0.165500  1.0  -0.3333
  N  N224  1  0.981840  0.526500  0.464000  1.0  -0.2761
  O  O225  1  0.251930  0.793000  0.745800  1.0  -0.5651
  O  O226  1  0.187300  0.722200  0.660000  1.0  -0.5675
  O  O227  1  0.190420  0.156700  0.903700  1.0  -0.567
  O  O228  1  0.253850  0.081200  0.985500  1.0  -0.568
  O  O229  1  0.751930  0.293000  0.745800  1.0  -0.5651
  O  O230  1  0.687300  0.222200  0.660000  1.0  -0.5675
  O  O231  1  0.690420  0.656700  0.903700  1.0  -0.567
  O  O232  1  0.753850  0.581200  0.985500  1.0  -0.568
  O  O233  1  0.748070  0.793000  0.754200  1.0  -0.5648
  O  O234  1  0.812700  0.722200  0.840000  1.0  -0.5676
  O  O235  1  0.809580  0.156700  0.596300  1.0  -0.5667
  O  O236  1  0.746150  0.081200  0.514500  1.0  -0.567
  O  O237  1  0.248070  0.293000  0.754200  1.0  -0.5648
  O  O238  1  0.312700  0.222200  0.840000  1.0  -0.5676
  O  O239  1  0.309580  0.656700  0.596300  1.0  -0.5667
  O  O240  1  0.246150  0.581200  0.514500  1.0  -0.567
  O  O241  1  0.748070  0.207000  0.254200  1.0  -0.5647
  O  O242  1  0.812700  0.277800  0.340000  1.0  -0.5684
  O  O243  1  0.809580  0.843300  0.096300  1.0  -0.5662
  O  O244  1  0.746150  0.918800  0.014500  1.0  -0.567
  O  O245  1  0.248070  0.707000  0.254200  1.0  -0.5647
  O  O246  1  0.312700  0.777800  0.340000  1.0  -0.5684
  O  O247  1  0.309580  0.343300  0.096300  1.0  -0.5662
  O  O248  1  0.246150  0.418800  0.014500  1.0  -0.567
  O  O249  1  0.251930  0.207000  0.245800  1.0  -0.5651
  O  O250  1  0.187300  0.277800  0.160000  1.0  -0.5676
  O  O251  1  0.190420  0.843300  0.403700  1.0  -0.5672
  O  O252  1  0.253850  0.918800  0.485500  1.0  -0.5679
  O  O253  1  0.751930  0.707000  0.245800  1.0  -0.5651
  O  O254  1  0.687300  0.777800  0.160000  1.0  -0.5676
  O  O255  1  0.690420  0.343300  0.403700  1.0  -0.5672
  O  O256  1  0.753850  0.418800  0.485500  1.0  -0.5679
