# generated using pymatgen
data_CuH13C12(NO2)2
_symmetry_space_group_name_H-M   'P 1'
_cell_length_a   28.64200000
_cell_length_b   13.18620000
_cell_length_c   8.53950000
_cell_angle_alpha   90.00000000
_cell_angle_beta   91.66000000
_cell_angle_gamma   90.00000000
_symmetry_Int_Tables_number   1
_chemical_formula_structural   CuH13C12(NO2)2
_chemical_formula_sum   'Cu8 H104 C96 N16 O32'
_cell_volume   3223.83749539
_cell_formula_units_Z   8
loop_
 _symmetry_equiv_pos_site_id
 _symmetry_equiv_pos_as_xyz
  1  'x, y, z'
loop_
 _atom_site_type_symbol
 _atom_site_label
 _atom_site_symmetry_multiplicity
 _atom_site_fract_x
 _atom_site_fract_y
 _atom_site_fract_z
 _atom_site_occupancy
 _atom_site_charge
  Cu  Cu1  1  0.288090  0.794650  0.452520  1.0  0.8123
  Cu  Cu2  1  0.788090  0.294650  0.452520  1.0  0.8123
  Cu  Cu3  1  0.711910  0.794650  0.047480  1.0  0.8118
  Cu  Cu4  1  0.211910  0.294650  0.047480  1.0  0.8118
  Cu  Cu5  1  0.711910  0.205350  0.547480  1.0  0.8118
  Cu  Cu6  1  0.211910  0.705350  0.547480  1.0  0.8118
  Cu  Cu7  1  0.288090  0.205350  0.952520  1.0  0.8121
  Cu  Cu8  1  0.788090  0.705350  0.952520  1.0  0.8121
  H  H9  1  0.323300  0.009900  0.391400  1.0  0.077
  H  H10  1  0.380000  0.097700  0.263900  1.0  0.1169
  H  H11  1  0.433900  0.832800  0.131800  1.0  0.1242
  H  H12  1  0.374800  0.752700  0.256900  1.0  0.0828
  H  H13  1  0.478100  0.168200  0.051800  1.0  0.125
  H  H14  1  0.454400  0.164900  0.214900  1.0  0.1284
  H  H15  1  0.423500  0.167100  0.060500  1.0  0.1213
  H  H16  1  0.153600  0.791100  0.085300  1.0  0.105
  H  H17  1  0.194200  0.734900  0.001500  1.0  0.1086
  H  H18  1  0.236900  0.886000  0.988200  1.0  0.0764
  H  H19  1  0.187500  0.902700  0.908300  1.0  0.0829
  H  H20  1  0.161400  0.985000  0.131200  1.0  0.1124
  H  H21  1  0.208400  0.961400  0.221600  1.0  0.1195
  H  H22  1  0.823300  0.509900  0.391400  1.0  0.077
  H  H23  1  0.880000  0.597700  0.263900  1.0  0.1169
  H  H24  1  0.933900  0.332800  0.131800  1.0  0.1242
  H  H25  1  0.874800  0.252700  0.256900  1.0  0.0828
  H  H26  1  0.978100  0.668200  0.051800  1.0  0.125
  H  H27  1  0.954400  0.664900  0.214900  1.0  0.1284
  H  H28  1  0.923500  0.667100  0.060500  1.0  0.1213
  H  H29  1  0.653600  0.291100  0.085300  1.0  0.105
  H  H30  1  0.694200  0.234900  0.001500  1.0  0.1086
  H  H31  1  0.736900  0.386000  0.988200  1.0  0.0764
  H  H32  1  0.687500  0.402700  0.908300  1.0  0.0829
  H  H33  1  0.661400  0.485000  0.131200  1.0  0.1124
  H  H34  1  0.708400  0.461400  0.221600  1.0  0.1195
  H  H35  1  0.676700  0.009900  0.108600  1.0  0.0771
  H  H36  1  0.620000  0.097700  0.236100  1.0  0.1168
  H  H37  1  0.566100  0.832800  0.368200  1.0  0.1243
  H  H38  1  0.625200  0.752700  0.243100  1.0  0.0826
  H  H39  1  0.521900  0.168200  0.448200  1.0  0.1246
  H  H40  1  0.545600  0.164900  0.285100  1.0  0.1296
  H  H41  1  0.576500  0.167100  0.439500  1.0  0.1211
  H  H42  1  0.846400  0.791100  0.414700  1.0  0.102
  H  H43  1  0.805800  0.734900  0.498500  1.0  0.1095
  H  H44  1  0.763100  0.886000  0.511800  1.0  0.0755
  H  H45  1  0.812500  0.902700  0.591700  1.0  0.0814
  H  H46  1  0.838600  0.985000  0.368800  1.0  0.1125
  H  H47  1  0.791600  0.961400  0.278400  1.0  0.1201
  H  H48  1  0.176700  0.509900  0.108600  1.0  0.0771
  H  H49  1  0.120000  0.597700  0.236100  1.0  0.1168
  H  H50  1  0.066100  0.332800  0.368200  1.0  0.1243
  H  H51  1  0.125200  0.252700  0.243100  1.0  0.0826
  H  H52  1  0.021900  0.668200  0.448200  1.0  0.1246
  H  H53  1  0.045600  0.664900  0.285100  1.0  0.1296
  H  H54  1  0.076500  0.667100  0.439500  1.0  0.1211
  H  H55  1  0.346400  0.291100  0.414700  1.0  0.102
  H  H56  1  0.305800  0.234900  0.498500  1.0  0.1095
  H  H57  1  0.263100  0.386000  0.511800  1.0  0.0755
  H  H58  1  0.312500  0.402700  0.591700  1.0  0.0814
  H  H59  1  0.338600  0.485000  0.368800  1.0  0.1125
  H  H60  1  0.291600  0.461400  0.278400  1.0  0.1201
  H  H61  1  0.676700  0.990100  0.608600  1.0  0.0777
  H  H62  1  0.620000  0.902300  0.736100  1.0  0.1171
  H  H63  1  0.566100  0.167200  0.868200  1.0  0.1249
  H  H64  1  0.625200  0.247300  0.743100  1.0  0.0803
  H  H65  1  0.521900  0.831800  0.948200  1.0  0.1242
  H  H66  1  0.545600  0.835100  0.785100  1.0  0.129
  H  H67  1  0.576500  0.832900  0.939500  1.0  0.1218
  H  H68  1  0.846400  0.208900  0.914700  1.0  0.1023
  H  H69  1  0.805800  0.265100  0.998500  1.0  0.1079
  H  H70  1  0.763100  0.114000  0.011800  1.0  0.0756
  H  H71  1  0.812500  0.097300  0.091700  1.0  0.0809
  H  H72  1  0.838600  0.015000  0.868800  1.0  0.1123
  H  H73  1  0.791600  0.038600  0.778400  1.0  0.1201
  H  H74  1  0.176700  0.490100  0.608600  1.0  0.0777
  H  H75  1  0.120000  0.402300  0.736100  1.0  0.1171
  H  H76  1  0.066100  0.667200  0.868200  1.0  0.1249
  H  H77  1  0.125200  0.747300  0.743100  1.0  0.0803
  H  H78  1  0.021900  0.331800  0.948200  1.0  0.1242
  H  H79  1  0.045600  0.335100  0.785100  1.0  0.129
  H  H80  1  0.076500  0.332900  0.939500  1.0  0.1218
  H  H81  1  0.346400  0.708900  0.914700  1.0  0.1023
  H  H82  1  0.305800  0.765100  0.998500  1.0  0.1079
  H  H83  1  0.263100  0.614000  0.011800  1.0  0.0756
  H  H84  1  0.312500  0.597300  0.091700  1.0  0.0809
  H  H85  1  0.338600  0.515000  0.868800  1.0  0.1123
  H  H86  1  0.291600  0.538600  0.778400  1.0  0.1201
  H  H87  1  0.323300  0.990100  0.891400  1.0  0.0774
  H  H88  1  0.380000  0.902300  0.763900  1.0  0.1173
  H  H89  1  0.433900  0.167200  0.631800  1.0  0.1255
  H  H90  1  0.374800  0.247300  0.756900  1.0  0.0797
  H  H91  1  0.478100  0.831800  0.551800  1.0  0.1232
  H  H92  1  0.454400  0.835100  0.714900  1.0  0.1288
  H  H93  1  0.423500  0.832900  0.560500  1.0  0.1214
  H  H94  1  0.153600  0.208900  0.585300  1.0  0.1047
  H  H95  1  0.194200  0.265100  0.501500  1.0  0.1085
  H  H96  1  0.236900  0.114000  0.488200  1.0  0.0763
  H  H97  1  0.187500  0.097300  0.408300  1.0  0.082
  H  H98  1  0.161400  0.015000  0.631200  1.0  0.1128
  H  H99  1  0.208400  0.038600  0.721600  1.0  0.1195
  H  H100  1  0.823300  0.490100  0.891400  1.0  0.0774
  H  H101  1  0.880000  0.402300  0.763900  1.0  0.1173
  H  H102  1  0.933900  0.667200  0.631800  1.0  0.1255
  H  H103  1  0.874800  0.747300  0.756900  1.0  0.0797
  H  H104  1  0.978100  0.331800  0.551800  1.0  0.1232
  H  H105  1  0.954400  0.335100  0.714900  1.0  0.1288
  H  H106  1  0.923500  0.332900  0.560500  1.0  0.1214
  H  H107  1  0.653600  0.708900  0.585300  1.0  0.1047
  H  H108  1  0.694200  0.765100  0.501500  1.0  0.1085
  H  H109  1  0.736900  0.614000  0.488200  1.0  0.0763
  H  H110  1  0.687500  0.597300  0.408300  1.0  0.082
  H  H111  1  0.661400  0.515000  0.631200  1.0  0.1128
  H  H112  1  0.708400  0.538600  0.721600  1.0  0.1195
  C  C113  1  0.346060  0.973800  0.339300  1.0  0.1883
  C  C114  1  0.380130  0.027200  0.263000  1.0  -0.2139
  C  C115  1  0.414420  0.975300  0.185200  1.0  -0.0123
  C  C116  1  0.411830  0.870800  0.184100  1.0  -0.1467
  C  C117  1  0.376450  0.823100  0.261000  1.0  0.1702
  C  C118  1  0.452440  0.030400  0.103200  1.0  0.28
  C  C119  1  0.452070  0.142500  0.108000  1.0  -0.381
  C  C120  1  0.210160  0.765400  0.231800  1.0  0.7074
  C  C121  1  0.187210  0.788900  0.074400  1.0  -0.2651
  C  C122  1  0.203740  0.890100  0.007600  1.0  -0.0338
  C  C123  1  0.194840  0.978300  0.119600  1.0  -0.3209
  C  C124  1  0.214140  0.080300  0.069600  1.0  0.7376
  C  C125  1  0.846060  0.473800  0.339300  1.0  0.1883
  C  C126  1  0.880130  0.527200  0.263000  1.0  -0.2139
  C  C127  1  0.914420  0.475300  0.185200  1.0  -0.0123
  C  C128  1  0.911830  0.370800  0.184100  1.0  -0.1467
  C  C129  1  0.876450  0.323100  0.261000  1.0  0.1702
  C  C130  1  0.952440  0.530400  0.103200  1.0  0.28
  C  C131  1  0.952070  0.642500  0.108000  1.0  -0.381
  C  C132  1  0.710160  0.265400  0.231800  1.0  0.7074
  C  C133  1  0.687210  0.288900  0.074400  1.0  -0.2651
  C  C134  1  0.703740  0.390100  0.007600  1.0  -0.0338
  C  C135  1  0.694840  0.478300  0.119600  1.0  -0.3209
  C  C136  1  0.714140  0.580300  0.069600  1.0  0.7376
  C  C137  1  0.653940  0.973800  0.160700  1.0  0.1888
  C  C138  1  0.619870  0.027200  0.237000  1.0  -0.2142
  C  C139  1  0.585580  0.975300  0.314800  1.0  -0.0126
  C  C140  1  0.588170  0.870800  0.315900  1.0  -0.1434
  C  C141  1  0.623550  0.823100  0.239000  1.0  0.1714
  C  C142  1  0.547560  0.030400  0.396800  1.0  0.2788
  C  C143  1  0.547930  0.142500  0.392000  1.0  -0.3813
  C  C144  1  0.789840  0.765400  0.268200  1.0  0.7072
  C  C145  1  0.812790  0.788900  0.425600  1.0  -0.2641
  C  C146  1  0.796260  0.890100  0.492400  1.0  -0.0323
  C  C147  1  0.805160  0.978300  0.380400  1.0  -0.3195
  C  C148  1  0.785860  0.080300  0.430400  1.0  0.7359
  C  C149  1  0.153940  0.473800  0.160700  1.0  0.1888
  C  C150  1  0.119870  0.527200  0.237000  1.0  -0.2142
  C  C151  1  0.085580  0.475300  0.314800  1.0  -0.0126
  C  C152  1  0.088170  0.370800  0.315900  1.0  -0.1434
  C  C153  1  0.123550  0.323100  0.239000  1.0  0.1714
  C  C154  1  0.047560  0.530400  0.396800  1.0  0.2788
  C  C155  1  0.047930  0.642500  0.392000  1.0  -0.3813
  C  C156  1  0.289840  0.265400  0.268200  1.0  0.7072
  C  C157  1  0.312790  0.288900  0.425600  1.0  -0.2641
  C  C158  1  0.296260  0.390100  0.492400  1.0  -0.0323
  C  C159  1  0.305160  0.478300  0.380400  1.0  -0.3195
  C  C160  1  0.285860  0.580300  0.430400  1.0  0.7359
  C  C161  1  0.653940  0.026200  0.660700  1.0  0.1885
  C  C162  1  0.619870  0.972800  0.737000  1.0  -0.2148
  C  C163  1  0.585580  0.024700  0.814800  1.0  -0.0121
  C  C164  1  0.588170  0.129200  0.815900  1.0  -0.1457
  C  C165  1  0.623550  0.176900  0.739000  1.0  0.1715
  C  C166  1  0.547560  0.969600  0.896800  1.0  0.2796
  C  C167  1  0.547930  0.857500  0.892000  1.0  -0.3819
  C  C168  1  0.789840  0.234600  0.768200  1.0  0.7075
  C  C169  1  0.812790  0.211100  0.925600  1.0  -0.2635
  C  C170  1  0.796260  0.109900  0.992400  1.0  -0.0325
  C  C171  1  0.805160  0.021700  0.880400  1.0  -0.3195
  C  C172  1  0.785860  0.919700  0.930400  1.0  0.737
  C  C173  1  0.153940  0.526200  0.660700  1.0  0.1885
  C  C174  1  0.119870  0.472800  0.737000  1.0  -0.2148
  C  C175  1  0.085580  0.524700  0.814800  1.0  -0.0121
  C  C176  1  0.088170  0.629200  0.815900  1.0  -0.1457
  C  C177  1  0.123550  0.676900  0.739000  1.0  0.1715
  C  C178  1  0.047560  0.469600  0.896800  1.0  0.2796
  C  C179  1  0.047930  0.357500  0.892000  1.0  -0.3819
  C  C180  1  0.289840  0.734600  0.768200  1.0  0.7075
  C  C181  1  0.312790  0.711100  0.925600  1.0  -0.2635
  C  C182  1  0.296260  0.609900  0.992400  1.0  -0.0325
  C  C183  1  0.305160  0.521700  0.880400  1.0  -0.3195
  C  C184  1  0.285860  0.419700  0.930400  1.0  0.737
  C  C185  1  0.346060  0.026200  0.839300  1.0  0.1883
  C  C186  1  0.380130  0.972800  0.763000  1.0  -0.2145
  C  C187  1  0.414420  0.024700  0.685200  1.0  -0.0121
  C  C188  1  0.411830  0.129200  0.684100  1.0  -0.1476
  C  C189  1  0.376450  0.176900  0.761000  1.0  0.1703
  C  C190  1  0.452440  0.969600  0.603200  1.0  0.2803
  C  C191  1  0.452070  0.857500  0.608000  1.0  -0.3818
  C  C192  1  0.210160  0.234600  0.731800  1.0  0.7079
  C  C193  1  0.187210  0.211100  0.574400  1.0  -0.2647
  C  C194  1  0.203740  0.109900  0.507600  1.0  -0.034
  C  C195  1  0.194840  0.021700  0.619600  1.0  -0.3217
  C  C196  1  0.214140  0.919700  0.569600  1.0  0.7382
  C  C197  1  0.846060  0.526200  0.839300  1.0  0.1883
  C  C198  1  0.880130  0.472800  0.763000  1.0  -0.2145
  C  C199  1  0.914420  0.524700  0.685200  1.0  -0.0121
  C  C200  1  0.911830  0.629200  0.684100  1.0  -0.1476
  C  C201  1  0.876450  0.676900  0.761000  1.0  0.1703
  C  C202  1  0.952440  0.469600  0.603200  1.0  0.2803
  C  C203  1  0.952070  0.357500  0.608000  1.0  -0.3818
  C  C204  1  0.710160  0.734600  0.731800  1.0  0.7079
  C  C205  1  0.687210  0.711100  0.574400  1.0  -0.2647
  C  C206  1  0.703740  0.609900  0.507600  1.0  -0.034
  C  C207  1  0.694840  0.521700  0.619600  1.0  -0.3217
  C  C208  1  0.714140  0.419700  0.569600  1.0  0.7382
  N  N209  1  0.344330  0.873100  0.341600  1.0  -0.3248
  N  N210  1  0.482030  0.973500  0.036900  1.0  -0.2797
  N  N211  1  0.844330  0.373100  0.341600  1.0  -0.3248
  N  N212  1  0.982030  0.473500  0.036900  1.0  -0.2797
  N  N213  1  0.655670  0.873100  0.158400  1.0  -0.3245
  N  N214  1  0.517970  0.973500  0.463100  1.0  -0.2796
  N  N215  1  0.155670  0.373100  0.158400  1.0  -0.3245
  N  N216  1  0.017970  0.473500  0.463100  1.0  -0.2796
  N  N217  1  0.655670  0.126900  0.658400  1.0  -0.3245
  N  N218  1  0.517970  0.026500  0.963100  1.0  -0.2805
  N  N219  1  0.155670  0.626900  0.658400  1.0  -0.3245
  N  N220  1  0.017970  0.526500  0.963100  1.0  -0.2805
  N  N221  1  0.344330  0.126900  0.841600  1.0  -0.3248
  N  N222  1  0.482030  0.026500  0.536900  1.0  -0.2807
  N  N223  1  0.844330  0.626900  0.841600  1.0  -0.3248
  N  N224  1  0.982030  0.526500  0.536900  1.0  -0.2807
  O  O225  1  0.185590  0.721900  0.332900  1.0  -0.5763
  O  O226  1  0.189050  0.156200  0.090200  1.0  -0.5807
  O  O227  1  0.252000  0.791600  0.252700  1.0  -0.5659
  O  O228  1  0.254190  0.081200  0.013900  1.0  -0.5737
  O  O229  1  0.685590  0.221900  0.332900  1.0  -0.5763
  O  O230  1  0.689050  0.656200  0.090200  1.0  -0.5807
  O  O231  1  0.752000  0.291600  0.252700  1.0  -0.5659
  O  O232  1  0.754190  0.581200  0.013900  1.0  -0.5737
  O  O233  1  0.814410  0.721900  0.167100  1.0  -0.5767
  O  O234  1  0.810950  0.156200  0.409800  1.0  -0.5793
  O  O235  1  0.748000  0.791600  0.247300  1.0  -0.5661
  O  O236  1  0.745810  0.081200  0.486100  1.0  -0.5734
  O  O237  1  0.314410  0.221900  0.167100  1.0  -0.5767
  O  O238  1  0.310950  0.656200  0.409800  1.0  -0.5793
  O  O239  1  0.248000  0.291600  0.247300  1.0  -0.5661
  O  O240  1  0.245810  0.581200  0.486100  1.0  -0.5734
  O  O241  1  0.814410  0.278100  0.667100  1.0  -0.577
  O  O242  1  0.810950  0.843800  0.909800  1.0  -0.5788
  O  O243  1  0.748000  0.208400  0.747300  1.0  -0.5662
  O  O244  1  0.745810  0.918800  0.986100  1.0  -0.5732
  O  O245  1  0.314410  0.778100  0.667100  1.0  -0.577
  O  O246  1  0.310950  0.343800  0.909800  1.0  -0.5788
  O  O247  1  0.248000  0.708400  0.747300  1.0  -0.5662
  O  O248  1  0.245810  0.418800  0.986100  1.0  -0.5732
  O  O249  1  0.185590  0.278100  0.832900  1.0  -0.5768
  O  O250  1  0.189050  0.843800  0.590200  1.0  -0.581
  O  O251  1  0.252000  0.208400  0.752700  1.0  -0.5662
  O  O252  1  0.254190  0.918800  0.513900  1.0  -0.5736
  O  O253  1  0.685590  0.778100  0.832900  1.0  -0.5768
  O  O254  1  0.689050  0.343800  0.590200  1.0  -0.581
  O  O255  1  0.752000  0.708400  0.752700  1.0  -0.5662
  O  O256  1  0.754190  0.418800  0.513900  1.0  -0.5736
