# generated using pymatgen
data_ZnH10(C7N2)2
_symmetry_space_group_name_H-M   'P 1'
_cell_length_a   23.00510000
_cell_length_b   23.00510000
_cell_length_c   15.76080000
_cell_angle_alpha   90.00000000
_cell_angle_beta   90.00000000
_cell_angle_gamma   120.00000000
_symmetry_Int_Tables_number   1
_chemical_formula_structural   ZnH10(C7N2)2
_chemical_formula_sum   'Zn18 H180 C252 N72'
_cell_volume   7223.65740413
_cell_formula_units_Z   18
loop_
 _symmetry_equiv_pos_site_id
 _symmetry_equiv_pos_as_xyz
  1  'x, y, z'
loop_
 _atom_site_type_symbol
 _atom_site_label
 _atom_site_symmetry_multiplicity
 _atom_site_fract_x
 _atom_site_fract_y
 _atom_site_fract_z
 _atom_site_occupancy
 _atom_site_charge
  Zn  Zn1  1  0.934250  0.328440  0.320630  1.0  0.8801
  Zn  Zn2  1  0.600920  0.661770  0.653960  1.0  0.8801
  Zn  Zn3  1  0.267580  0.995110  0.987300  1.0  0.8801
  Zn  Zn4  1  0.671560  0.605810  0.320630  1.0  0.8796
  Zn  Zn5  1  0.338230  0.939140  0.653960  1.0  0.8796
  Zn  Zn6  1  0.004890  0.272480  0.987300  1.0  0.8782
  Zn  Zn7  1  0.394190  0.065750  0.320630  1.0  0.8775
  Zn  Zn8  1  0.060860  0.399080  0.653960  1.0  0.8775
  Zn  Zn9  1  0.727520  0.732420  0.987300  1.0  0.8777
  Zn  Zn10  1  0.065750  0.671560  0.679370  1.0  0.8805
  Zn  Zn11  1  0.732420  0.004890  0.012700  1.0  0.8805
  Zn  Zn12  1  0.399080  0.338230  0.346040  1.0  0.8805
  Zn  Zn13  1  0.328440  0.394190  0.679370  1.0  0.8769
  Zn  Zn14  1  0.995110  0.727520  0.012700  1.0  0.8755
  Zn  Zn15  1  0.661770  0.060860  0.346040  1.0  0.8769
  Zn  Zn16  1  0.605810  0.934250  0.679370  1.0  0.8809
  Zn  Zn17  1  0.272480  0.267580  0.012700  1.0  0.8812
  Zn  Zn18  1  0.939140  0.600920  0.346040  1.0  0.8809
  H  H19  1  0.984610  0.394740  0.498870  1.0  0.0787
  H  H20  1  0.958350  0.207040  0.339540  1.0  0.1153
  H  H21  1  0.001460  0.142860  0.392440  1.0  0.0951
  H  H22  1  0.056630  0.167370  0.522540  1.0  0.0897
  H  H23  1  0.069040  0.256630  0.603450  1.0  0.1139
  H  H24  1  0.975760  0.493130  0.278270  1.0  0.077
  H  H25  1  0.848960  0.522000  0.497090  1.0  0.1121
  H  H26  1  0.846390  0.316560  0.476320  1.0  0.1158
  H  H27  1  0.786460  0.436580  0.588650  1.0  0.1019
  H  H28  1  0.783600  0.333910  0.580330  1.0  0.0951
  H  H29  1  0.651280  0.728070  0.832200  1.0  0.0787
  H  H30  1  0.625020  0.540370  0.672870  1.0  0.1153
  H  H31  1  0.668130  0.476190  0.725770  1.0  0.0951
  H  H32  1  0.723300  0.500700  0.855870  1.0  0.0897
  H  H33  1  0.735710  0.589960  0.936780  1.0  0.1139
  H  H34  1  0.642430  0.826460  0.611600  1.0  0.077
  H  H35  1  0.515630  0.855330  0.830420  1.0  0.1121
  H  H36  1  0.513060  0.649890  0.809650  1.0  0.1158
  H  H37  1  0.453130  0.769910  0.921980  1.0  0.1006
  H  H38  1  0.450270  0.667240  0.913660  1.0  0.0951
  H  H39  1  0.317940  0.061410  0.165540  1.0  0.0787
  H  H40  1  0.291680  0.873710  0.006210  1.0  0.1154
  H  H41  1  0.334790  0.809530  0.059110  1.0  0.0934
  H  H42  1  0.389960  0.834040  0.189210  1.0  0.0897
  H  H43  1  0.402370  0.923300  0.270120  1.0  0.1139
  H  H44  1  0.309090  0.159800  0.944940  1.0  0.0769
  H  H45  1  0.182290  0.188670  0.163760  1.0  0.1121
  H  H46  1  0.179720  0.983230  0.142990  1.0  0.1157
  H  H47  1  0.119790  0.103250  0.255320  1.0  0.1019
  H  H48  1  0.116930  0.000580  0.247000  1.0  0.0951
  H  H49  1  0.605260  0.589870  0.498870  1.0  0.0782
  H  H50  1  0.792960  0.751310  0.339540  1.0  0.1149
  H  H51  1  0.857140  0.858600  0.392440  1.0  0.0947
  H  H52  1  0.832630  0.889260  0.522540  1.0  0.0905
  H  H53  1  0.743370  0.812410  0.603450  1.0  0.1141
  H  H54  1  0.506870  0.482630  0.278270  1.0  0.0765
  H  H55  1  0.478000  0.326960  0.497090  1.0  0.1125
  H  H56  1  0.683440  0.529830  0.476320  1.0  0.1143
  H  H57  1  0.563420  0.349880  0.588650  1.0  0.1007
  H  H58  1  0.666090  0.449690  0.580330  1.0  0.0941
  H  H59  1  0.271930  0.923200  0.832200  1.0  0.0782
  H  H60  1  0.459630  0.084640  0.672870  1.0  0.1149
  H  H61  1  0.523810  0.191930  0.725770  1.0  0.0947
  H  H62  1  0.499300  0.222590  0.855870  1.0  0.0905
  H  H63  1  0.410040  0.145740  0.936780  1.0  0.1141
  H  H64  1  0.173540  0.815960  0.611600  1.0  0.0765
  H  H65  1  0.144670  0.660290  0.830420  1.0  0.1125
  H  H66  1  0.350110  0.863160  0.809650  1.0  0.1143
  H  H67  1  0.230090  0.683210  0.921980  1.0  0.0997
  H  H68  1  0.332760  0.783020  0.913660  1.0  0.0941
  H  H69  1  0.938590  0.256540  0.165540  1.0  0.0782
  H  H70  1  0.126290  0.417980  0.006210  1.0  0.1149
  H  H71  1  0.190470  0.525270  0.059110  1.0  0.0959
  H  H72  1  0.165960  0.555930  0.189210  1.0  0.0905
  H  H73  1  0.076700  0.479080  0.270120  1.0  0.1141
  H  H74  1  0.840200  0.149300  0.944940  1.0  0.0765
  H  H75  1  0.811330  0.993630  0.163760  1.0  0.1125
  H  H76  1  0.016770  0.196500  0.142990  1.0  0.1143
  H  H77  1  0.896750  0.016550  0.255320  1.0  0.1007
  H  H78  1  0.999420  0.116360  0.247000  1.0  0.0941
  H  H79  1  0.410130  0.015390  0.498870  1.0  0.0791
  H  H80  1  0.248690  0.041650  0.339540  1.0  0.1147
  H  H81  1  0.141400  0.998540  0.392440  1.0  0.0949
  H  H82  1  0.110740  0.943370  0.522540  1.0  0.0893
  H  H83  1  0.187590  0.930960  0.603450  1.0  0.1141
  H  H84  1  0.517370  0.024240  0.278270  1.0  0.0766
  H  H85  1  0.673040  0.151040  0.497090  1.0  0.1134
  H  H86  1  0.470170  0.153610  0.476320  1.0  0.1174
  H  H87  1  0.650120  0.213540  0.588650  1.0  0.0991
  H  H88  1  0.550310  0.216400  0.580330  1.0  0.0946
  H  H89  1  0.076800  0.348720  0.832200  1.0  0.0792
  H  H90  1  0.915360  0.374980  0.672870  1.0  0.1147
  H  H91  1  0.808070  0.331870  0.725770  1.0  0.0949
  H  H92  1  0.777410  0.276700  0.855870  1.0  0.0893
  H  H93  1  0.854260  0.264290  0.936780  1.0  0.1141
  H  H94  1  0.184040  0.357570  0.611600  1.0  0.0766
  H  H95  1  0.339710  0.484370  0.830420  1.0  0.1134
  H  H96  1  0.136840  0.486940  0.809650  1.0  0.1174
  H  H97  1  0.316790  0.546870  0.921980  1.0  0.1016
  H  H98  1  0.216980  0.549730  0.913660  1.0  0.0946
  H  H99  1  0.743460  0.682060  0.165540  1.0  0.0791
  H  H100  1  0.582020  0.708320  0.006210  1.0  0.1147
  H  H101  1  0.474730  0.665210  0.059110  1.0  0.0958
  H  H102  1  0.444070  0.610040  0.189210  1.0  0.0893
  H  H103  1  0.520920  0.597630  0.270120  1.0  0.1141
  H  H104  1  0.850700  0.690910  0.944940  1.0  0.0766
  H  H105  1  0.006370  0.817710  0.163760  1.0  0.1134
  H  H106  1  0.803500  0.820280  0.142990  1.0  0.1174
  H  H107  1  0.983450  0.880210  0.255320  1.0  0.0991
  H  H108  1  0.883640  0.883070  0.247000  1.0  0.0946
  H  H109  1  0.015390  0.605260  0.501130  1.0  0.0784
  H  H110  1  0.041650  0.792960  0.660460  1.0  0.115
  H  H111  1  0.998540  0.857140  0.607560  1.0  0.0948
  H  H112  1  0.943370  0.832630  0.477460  1.0  0.0894
  H  H113  1  0.930960  0.743370  0.396550  1.0  0.1142
  H  H114  1  0.024240  0.506870  0.721730  1.0  0.0764
  H  H115  1  0.151040  0.478000  0.502910  1.0  0.1113
  H  H116  1  0.153610  0.683440  0.523680  1.0  0.1157
  H  H117  1  0.213540  0.563420  0.411350  1.0  0.1011
  H  H118  1  0.216400  0.666090  0.419670  1.0  0.095
  H  H119  1  0.682060  0.938590  0.834460  1.0  0.0784
  H  H120  1  0.708320  0.126290  0.993790  1.0  0.115
  H  H121  1  0.665210  0.190470  0.940890  1.0  0.093
  H  H122  1  0.610040  0.165960  0.810790  1.0  0.0894
  H  H123  1  0.597630  0.076700  0.729880  1.0  0.1142
  H  H124  1  0.690910  0.840200  0.055060  1.0  0.0763
  H  H125  1  0.817710  0.811330  0.836240  1.0  0.1113
  H  H126  1  0.820280  0.016770  0.857010  1.0  0.1156
  H  H127  1  0.880210  0.896750  0.744680  1.0  0.1011
  H  H128  1  0.883070  0.999420  0.753000  1.0  0.095
  H  H129  1  0.348720  0.271930  0.167800  1.0  0.0784
  H  H130  1  0.374980  0.459630  0.327130  1.0  0.115
  H  H131  1  0.331870  0.523810  0.274230  1.0  0.0948
  H  H132  1  0.276700  0.499300  0.144130  1.0  0.0894
  H  H133  1  0.264290  0.410040  0.063220  1.0  0.1142
  H  H134  1  0.357570  0.173540  0.388400  1.0  0.0764
  H  H135  1  0.484370  0.144670  0.169580  1.0  0.1113
  H  H136  1  0.486940  0.350110  0.190350  1.0  0.1157
  H  H137  1  0.546870  0.230090  0.078020  1.0  0.0997
  H  H138  1  0.549730  0.332760  0.086340  1.0  0.095
  H  H139  1  0.394740  0.410130  0.501130  1.0  0.079
  H  H140  1  0.207040  0.248690  0.660460  1.0  0.1148
  H  H141  1  0.142860  0.141400  0.607560  1.0  0.095
  H  H142  1  0.167370  0.110740  0.477460  1.0  0.0897
  H  H143  1  0.256630  0.187590  0.396550  1.0  0.1141
  H  H144  1  0.493130  0.517370  0.721730  1.0  0.0762
  H  H145  1  0.522000  0.673040  0.502910  1.0  0.1122
  H  H146  1  0.316560  0.470170  0.523680  1.0  0.114
  H  H147  1  0.436580  0.650120  0.411350  1.0  0.1001
  H  H148  1  0.333910  0.550310  0.419670  1.0  0.0944
  H  H149  1  0.061410  0.743460  0.834460  1.0  0.079
  H  H150  1  0.873710  0.582020  0.993790  1.0  0.1148
  H  H151  1  0.809530  0.474730  0.940890  1.0  0.0964
  H  H152  1  0.834040  0.444070  0.810790  1.0  0.0897
  H  H153  1  0.923300  0.520920  0.729880  1.0  0.1141
  H  H154  1  0.159800  0.850700  0.055060  1.0  0.0762
  H  H155  1  0.188670  0.006370  0.836240  1.0  0.1122
  H  H156  1  0.983230  0.803500  0.857010  1.0  0.114
  H  H157  1  0.103250  0.983450  0.744680  1.0  0.1001
  H  H158  1  0.000580  0.883640  0.753000  1.0  0.0944
  H  H159  1  0.728070  0.076800  0.167800  1.0  0.079
  H  H160  1  0.540370  0.915360  0.327130  1.0  0.1148
  H  H161  1  0.476190  0.808070  0.274230  1.0  0.095
  H  H162  1  0.500700  0.777410  0.144130  1.0  0.0897
  H  H163  1  0.589960  0.854260  0.063220  1.0  0.1141
  H  H164  1  0.826460  0.184040  0.388400  1.0  0.0762
  H  H165  1  0.855330  0.339710  0.169580  1.0  0.1122
  H  H166  1  0.649890  0.136840  0.190350  1.0  0.114
  H  H167  1  0.769910  0.316790  0.078020  1.0  0.0989
  H  H168  1  0.667240  0.216980  0.086340  1.0  0.0944
  H  H169  1  0.589870  0.984610  0.501130  1.0  0.0784
  H  H170  1  0.751310  0.958350  0.660460  1.0  0.1146
  H  H171  1  0.858600  0.001460  0.607560  1.0  0.095
  H  H172  1  0.889260  0.056630  0.477460  1.0  0.0892
  H  H173  1  0.812410  0.069040  0.396550  1.0  0.1145
  H  H174  1  0.482630  0.975760  0.721730  1.0  0.0757
  H  H175  1  0.326960  0.848960  0.502910  1.0  0.1139
  H  H176  1  0.529830  0.846390  0.523680  1.0  0.1169
  H  H177  1  0.349880  0.786460  0.411350  1.0  0.099
  H  H178  1  0.449690  0.783600  0.419670  1.0  0.095
  H  H179  1  0.256540  0.317940  0.834460  1.0  0.0784
  H  H180  1  0.417980  0.291680  0.993790  1.0  0.1145
  H  H181  1  0.525270  0.334790  0.940890  1.0  0.0958
  H  H182  1  0.555930  0.389960  0.810790  1.0  0.0892
  H  H183  1  0.479080  0.402370  0.729880  1.0  0.1145
  H  H184  1  0.149300  0.309090  0.055060  1.0  0.0756
  H  H185  1  0.993630  0.182290  0.836240  1.0  0.1139
  H  H186  1  0.196500  0.179720  0.857010  1.0  0.1169
  H  H187  1  0.016550  0.119790  0.744680  1.0  0.099
  H  H188  1  0.116360  0.116930  0.753000  1.0  0.095
  H  H189  1  0.923200  0.651280  0.167800  1.0  0.0785
  H  H190  1  0.084640  0.625020  0.327130  1.0  0.1146
  H  H191  1  0.191930  0.668130  0.274230  1.0  0.095
  H  H192  1  0.222590  0.723300  0.144130  1.0  0.0892
  H  H193  1  0.145740  0.735710  0.063220  1.0  0.1145
  H  H194  1  0.815960  0.642430  0.388400  1.0  0.0757
  H  H195  1  0.660290  0.515630  0.169580  1.0  0.1139
  H  H196  1  0.863160  0.513060  0.190350  1.0  0.1169
  H  H197  1  0.683210  0.453130  0.078020  1.0  0.1017
  H  H198  1  0.783020  0.450270  0.086340  1.0  0.095
  C  C199  1  0.990940  0.358090  0.492640  1.0  0.35
  C  C200  1  0.989620  0.271280  0.438900  1.0  0.119
  C  C201  1  0.980630  0.217260  0.391300  1.0  -0.136
  C  C202  1  0.006280  0.179390  0.423420  1.0  -0.1215
  C  C203  1  0.039780  0.194190  0.502850  1.0  -0.1088
  C  C204  1  0.022900  0.286070  0.517740  1.0  0.1354
  C  C205  1  0.047830  0.247170  0.550860  1.0  -0.175
  C  C206  1  0.947100  0.476510  0.324630  1.0  0.3395
  C  C207  1  0.884980  0.471060  0.426800  1.0  0.0451
  C  C208  1  0.847960  0.481320  0.492110  1.0  -0.1588
  C  C209  1  0.884490  0.411490  0.421930  1.0  0.0462
  C  C210  1  0.846320  0.356880  0.479960  1.0  -0.127
  C  C211  1  0.811220  0.430280  0.546730  1.0  -0.0933
  C  C212  1  0.809480  0.367800  0.541980  1.0  -0.1227
  C  C213  1  0.657610  0.691420  0.825970  1.0  0.3501
  C  C214  1  0.656290  0.604610  0.772230  1.0  0.119
  C  C215  1  0.647300  0.550590  0.724630  1.0  -0.136
  C  C216  1  0.672950  0.512720  0.756750  1.0  -0.1215
  C  C217  1  0.706450  0.527520  0.836180  1.0  -0.1088
  C  C218  1  0.689570  0.619400  0.851070  1.0  0.1354
  C  C219  1  0.714500  0.580500  0.884190  1.0  -0.1751
  C  C220  1  0.613770  0.809840  0.657960  1.0  0.3395
  C  C221  1  0.551650  0.804390  0.760130  1.0  0.0451
  C  C222  1  0.514630  0.814650  0.825440  1.0  -0.1588
  C  C223  1  0.551160  0.744820  0.755260  1.0  0.0462
  C  C224  1  0.512990  0.690210  0.813290  1.0  -0.127
  C  C225  1  0.477890  0.763610  0.880060  1.0  -0.0933
  C  C226  1  0.476150  0.701130  0.875310  1.0  -0.1227
  C  C227  1  0.324270  0.024760  0.159310  1.0  0.3501
  C  C228  1  0.322950  0.937950  0.105570  1.0  0.119
  C  C229  1  0.313960  0.883930  0.057970  1.0  -0.1361
  C  C230  1  0.339610  0.846060  0.090090  1.0  -0.1215
  C  C231  1  0.373110  0.860860  0.169520  1.0  -0.1088
  C  C232  1  0.356230  0.952740  0.184410  1.0  0.1354
  C  C233  1  0.381160  0.913840  0.217530  1.0  -0.175
  C  C234  1  0.280430  0.143180  0.991300  1.0  0.3395
  C  C235  1  0.218310  0.137730  0.093470  1.0  0.0458
  C  C236  1  0.181290  0.147990  0.158780  1.0  -0.1588
  C  C237  1  0.217820  0.078160  0.088600  1.0  0.0463
  C  C238  1  0.179650  0.023550  0.146630  1.0  -0.1271
  C  C239  1  0.144550  0.096950  0.213400  1.0  -0.0933
  C  C240  1  0.142810  0.034470  0.208650  1.0  -0.1186
  C  C241  1  0.641910  0.632850  0.492640  1.0  0.3499
  C  C242  1  0.728720  0.718340  0.438900  1.0  0.1189
  C  C243  1  0.782740  0.763370  0.391300  1.0  -0.1344
  C  C244  1  0.820610  0.826890  0.423420  1.0  -0.1204
  C  C245  1  0.805810  0.845590  0.502850  1.0  -0.1092
  C  C246  1  0.713930  0.736830  0.517740  1.0  0.1359
  C  C247  1  0.752830  0.800660  0.550860  1.0  -0.1774
  C  C248  1  0.523490  0.470590  0.324630  1.0  0.3401
  C  C249  1  0.528940  0.413920  0.426800  1.0  0.0456
  C  C250  1  0.518680  0.366640  0.492110  1.0  -0.1622
  C  C251  1  0.588510  0.473000  0.421930  1.0  0.0452
  C  C252  1  0.643120  0.489440  0.479960  1.0  -0.1256
  C  C253  1  0.569720  0.380940  0.546730  1.0  -0.0899
  C  C254  1  0.632200  0.441680  0.541980  1.0  -0.1185
  C  C255  1  0.308580  0.966180  0.825970  1.0  0.3499
  C  C256  1  0.395390  0.051670  0.772230  1.0  0.1189
  C  C257  1  0.449410  0.096700  0.724630  1.0  -0.1344
  C  C258  1  0.487280  0.160220  0.756750  1.0  -0.1204
  C  C259  1  0.472480  0.178920  0.836180  1.0  -0.1092
  C  C260  1  0.380600  0.070160  0.851070  1.0  0.1358
  C  C261  1  0.419500  0.133990  0.884190  1.0  -0.1772
  C  C262  1  0.190160  0.803920  0.657960  1.0  0.3401
  C  C263  1  0.195610  0.747250  0.760130  1.0  0.0456
  C  C264  1  0.185350  0.699970  0.825440  1.0  -0.1622
  C  C265  1  0.255180  0.806330  0.755260  1.0  0.0452
  C  C266  1  0.309790  0.822770  0.813290  1.0  -0.1256
  C  C267  1  0.236390  0.714270  0.880060  1.0  -0.0881
  C  C268  1  0.298870  0.775010  0.875310  1.0  -0.1185
  C  C269  1  0.975240  0.299520  0.159310  1.0  0.3499
  C  C270  1  0.062050  0.385010  0.105570  1.0  0.1189
  C  C271  1  0.116070  0.430040  0.057970  1.0  -0.1344
  C  C272  1  0.153940  0.493560  0.090090  1.0  -0.1204
  C  C273  1  0.139140  0.512260  0.169520  1.0  -0.1092
  C  C274  1  0.047260  0.403500  0.184410  1.0  0.1359
  C  C275  1  0.086160  0.467330  0.217530  1.0  -0.1774
  C  C276  1  0.856820  0.137260  0.991300  1.0  0.3401
  C  C277  1  0.862270  0.080590  0.093470  1.0  0.0456
  C  C278  1  0.852010  0.033310  0.158780  1.0  -0.1622
  C  C279  1  0.921840  0.139670  0.088600  1.0  0.0451
  C  C280  1  0.976450  0.156110  0.146630  1.0  -0.1255
  C  C281  1  0.903050  0.047610  0.213400  1.0  -0.0899
  C  C282  1  0.965530  0.108350  0.208650  1.0  -0.1228
  C  C283  1  0.367150  0.009060  0.492640  1.0  0.3477
  C  C284  1  0.281660  0.010380  0.438900  1.0  0.1188
  C  C285  1  0.236630  0.019370  0.391300  1.0  -0.1346
  C  C286  1  0.173110  0.993720  0.423420  1.0  -0.1206
  C  C287  1  0.154410  0.960220  0.502850  1.0  -0.1096
  C  C288  1  0.263170  0.977100  0.517740  1.0  0.1341
  C  C289  1  0.199340  0.952170  0.550860  1.0  -0.1768
  C  C290  1  0.529410  0.052900  0.324630  1.0  0.3392
  C  C291  1  0.586080  0.115020  0.426800  1.0  0.0461
  C  C292  1  0.633360  0.152040  0.492110  1.0  -0.1605
  C  C293  1  0.527000  0.115510  0.421930  1.0  0.0462
  C  C294  1  0.510560  0.153680  0.479960  1.0  -0.1254
  C  C295  1  0.619060  0.188780  0.546730  1.0  -0.0872
  C  C296  1  0.558320  0.190520  0.541980  1.0  -0.1218
  C  C297  1  0.033820  0.342390  0.825970  1.0  0.3477
  C  C298  1  0.948330  0.343710  0.772230  1.0  0.1188
  C  C299  1  0.903300  0.352700  0.724630  1.0  -0.1346
  C  C300  1  0.839780  0.327050  0.756750  1.0  -0.1206
  C  C301  1  0.821080  0.293550  0.836180  1.0  -0.1096
  C  C302  1  0.929840  0.310430  0.851070  1.0  0.1342
  C  C303  1  0.866010  0.285500  0.884190  1.0  -0.1766
  C  C304  1  0.196080  0.386230  0.657960  1.0  0.3392
  C  C305  1  0.252750  0.448350  0.760130  1.0  0.0461
  C  C306  1  0.300030  0.485370  0.825440  1.0  -0.1605
  C  C307  1  0.193670  0.448840  0.755260  1.0  0.0462
  C  C308  1  0.177230  0.487010  0.813290  1.0  -0.1254
  C  C309  1  0.285730  0.522110  0.880060  1.0  -0.0855
  C  C310  1  0.224990  0.523850  0.875310  1.0  -0.122
  C  C311  1  0.700480  0.675730  0.159310  1.0  0.3477
  C  C312  1  0.614990  0.677050  0.105570  1.0  0.1187
  C  C313  1  0.569960  0.686040  0.057970  1.0  -0.1345
  C  C314  1  0.506440  0.660390  0.090090  1.0  -0.1206
  C  C315  1  0.487740  0.626890  0.169520  1.0  -0.1096
  C  C316  1  0.596500  0.643770  0.184410  1.0  0.1341
  C  C317  1  0.532670  0.618840  0.217530  1.0  -0.1768
  C  C318  1  0.862740  0.719570  0.991300  1.0  0.3392
  C  C319  1  0.919410  0.781690  0.093470  1.0  0.0455
  C  C320  1  0.966690  0.818710  0.158780  1.0  -0.1605
  C  C321  1  0.860330  0.782180  0.088600  1.0  0.0462
  C  C322  1  0.843890  0.820350  0.146630  1.0  -0.1255
  C  C323  1  0.952390  0.855450  0.213400  1.0  -0.0872
  C  C324  1  0.891650  0.857190  0.208650  1.0  -0.1218
  C  C325  1  0.009060  0.641910  0.507360  1.0  0.3481
  C  C326  1  0.010380  0.728720  0.561100  1.0  0.1175
  C  C327  1  0.019370  0.782740  0.608700  1.0  -0.1343
  C  C328  1  0.993720  0.820610  0.576580  1.0  -0.1221
  C  C329  1  0.960220  0.805810  0.497150  1.0  -0.1093
  C  C330  1  0.977100  0.713930  0.482260  1.0  0.135
  C  C331  1  0.952170  0.752830  0.449140  1.0  -0.1758
  C  C332  1  0.052900  0.523490  0.675370  1.0  0.3404
  C  C333  1  0.115020  0.528940  0.573200  1.0  0.0447
  C  C334  1  0.152040  0.518680  0.507890  1.0  -0.1591
  C  C335  1  0.115510  0.588510  0.578070  1.0  0.0462
  C  C336  1  0.153680  0.643120  0.520040  1.0  -0.1264
  C  C337  1  0.188780  0.569720  0.453270  1.0  -0.0899
  C  C338  1  0.190520  0.632200  0.458020  1.0  -0.1225
  C  C339  1  0.675730  0.975240  0.840690  1.0  0.3481
  C  C340  1  0.677050  0.062050  0.894430  1.0  0.1175
  C  C341  1  0.686040  0.116070  0.942030  1.0  -0.1343
  C  C342  1  0.660390  0.153940  0.909910  1.0  -0.1221
  C  C343  1  0.626890  0.139140  0.830480  1.0  -0.1093
  C  C344  1  0.643770  0.047260  0.815590  1.0  0.135
  C  C345  1  0.618840  0.086160  0.782470  1.0  -0.1758
  C  C346  1  0.719570  0.856820  0.008700  1.0  0.3404
  C  C347  1  0.781690  0.862270  0.906530  1.0  0.0454
  C  C348  1  0.818710  0.852010  0.841220  1.0  -0.1591
  C  C349  1  0.782180  0.921840  0.911400  1.0  0.0463
  C  C350  1  0.820350  0.976450  0.853370  1.0  -0.1264
  C  C351  1  0.855450  0.903050  0.786600  1.0  -0.0899
  C  C352  1  0.857190  0.965530  0.791350  1.0  -0.119
  C  C353  1  0.342390  0.308580  0.174030  1.0  0.3481
  C  C354  1  0.343710  0.395390  0.227770  1.0  0.1175
  C  C355  1  0.352700  0.449410  0.275370  1.0  -0.1343
  C  C356  1  0.327050  0.487280  0.243250  1.0  -0.1221
  C  C357  1  0.293550  0.472480  0.163820  1.0  -0.1093
  C  C358  1  0.310430  0.380600  0.148930  1.0  0.135
  C  C359  1  0.285500  0.419500  0.115810  1.0  -0.1759
  C  C360  1  0.386230  0.190160  0.342040  1.0  0.3404
  C  C361  1  0.448350  0.195610  0.239870  1.0  0.0447
  C  C362  1  0.485370  0.185350  0.174560  1.0  -0.1591
  C  C363  1  0.448840  0.255180  0.244740  1.0  0.0462
  C  C364  1  0.487010  0.309790  0.186710  1.0  -0.1264
  C  C365  1  0.522110  0.236390  0.119940  1.0  -0.0899
  C  C366  1  0.523850  0.298870  0.124690  1.0  -0.1225
  C  C367  1  0.358090  0.367150  0.507360  1.0  0.349
  C  C368  1  0.271280  0.281660  0.561100  1.0  0.1186
  C  C369  1  0.217260  0.236630  0.608700  1.0  -0.1341
  C  C370  1  0.179390  0.173110  0.576580  1.0  -0.1219
  C  C371  1  0.194190  0.154410  0.497150  1.0  -0.1094
  C  C372  1  0.286070  0.263170  0.482260  1.0  0.1361
  C  C373  1  0.247170  0.199340  0.449140  1.0  -0.1783
  C  C374  1  0.476510  0.529410  0.675370  1.0  0.3399
  C  C375  1  0.471060  0.586080  0.573200  1.0  0.0458
  C  C376  1  0.481320  0.633360  0.507890  1.0  -0.1605
  C  C377  1  0.411490  0.527000  0.578070  1.0  0.0465
  C  C378  1  0.356880  0.510560  0.520040  1.0  -0.1257
  C  C379  1  0.430280  0.619060  0.453270  1.0  -0.0918
  C  C380  1  0.367800  0.558320  0.458020  1.0  -0.1193
  C  C381  1  0.024760  0.700480  0.840690  1.0  0.3491
  C  C382  1  0.937950  0.614990  0.894430  1.0  0.1186
  C  C383  1  0.883930  0.569960  0.942030  1.0  -0.1341
  C  C384  1  0.846060  0.506440  0.909910  1.0  -0.1219
  C  C385  1  0.860860  0.487740  0.830480  1.0  -0.1094
  C  C386  1  0.952740  0.596500  0.815590  1.0  0.1361
  C  C387  1  0.913840  0.532670  0.782470  1.0  -0.1783
  C  C388  1  0.143180  0.862740  0.008700  1.0  0.3399
  C  C389  1  0.137730  0.919410  0.906530  1.0  0.0458
  C  C390  1  0.147990  0.966690  0.841220  1.0  -0.1605
  C  C391  1  0.078160  0.860330  0.911400  1.0  0.0465
  C  C392  1  0.023550  0.843890  0.853370  1.0  -0.1256
  C  C393  1  0.096950  0.952390  0.786600  1.0  -0.0918
  C  C394  1  0.034470  0.891650  0.791350  1.0  -0.1239
  C  C395  1  0.691420  0.033820  0.174030  1.0  0.349
  C  C396  1  0.604610  0.948330  0.227770  1.0  0.1186
  C  C397  1  0.550590  0.903300  0.275370  1.0  -0.1341
  C  C398  1  0.512720  0.839780  0.243250  1.0  -0.1219
  C  C399  1  0.527520  0.821080  0.163820  1.0  -0.1094
  C  C400  1  0.619400  0.929840  0.148930  1.0  0.1361
  C  C401  1  0.580500  0.866010  0.115810  1.0  -0.178
  C  C402  1  0.809840  0.196080  0.342040  1.0  0.3399
  C  C403  1  0.804390  0.252750  0.239870  1.0  0.0458
  C  C404  1  0.814650  0.300030  0.174560  1.0  -0.1605
  C  C405  1  0.744820  0.193670  0.244740  1.0  0.0465
  C  C406  1  0.690210  0.177230  0.186710  1.0  -0.1257
  C  C407  1  0.763610  0.285730  0.119940  1.0  -0.0901
  C  C408  1  0.701130  0.224990  0.124690  1.0  -0.1193
  C  C409  1  0.632850  0.990940  0.507360  1.0  0.3492
  C  C410  1  0.718340  0.989620  0.561100  1.0  0.1179
  C  C411  1  0.763370  0.980630  0.608700  1.0  -0.1338
  C  C412  1  0.826890  0.006280  0.576580  1.0  -0.1216
  C  C413  1  0.845590  0.039780  0.497150  1.0  -0.109
  C  C414  1  0.736830  0.022900  0.482260  1.0  0.1363
  C  C415  1  0.800660  0.047830  0.449140  1.0  -0.1767
  C  C416  1  0.470590  0.947100  0.675370  1.0  0.3402
  C  C417  1  0.413920  0.884980  0.573200  1.0  0.0457
  C  C418  1  0.366640  0.847960  0.507890  1.0  -0.1628
  C  C419  1  0.473000  0.884490  0.578070  1.0  0.046
  C  C420  1  0.489440  0.846320  0.520040  1.0  -0.1258
  C  C421  1  0.380940  0.811220  0.453270  1.0  -0.0919
  C  C422  1  0.441680  0.809480  0.458020  1.0  -0.1223
  C  C423  1  0.299520  0.324270  0.840690  1.0  0.3492
  C  C424  1  0.385010  0.322950  0.894430  1.0  0.1179
  C  C425  1  0.430040  0.313960  0.942030  1.0  -0.1337
  C  C426  1  0.493560  0.339610  0.909910  1.0  -0.1216
  C  C427  1  0.512260  0.373110  0.830480  1.0  -0.109
  C  C428  1  0.403500  0.356230  0.815590  1.0  0.1363
  C  C429  1  0.467330  0.381160  0.782470  1.0  -0.1767
  C  C430  1  0.137260  0.280430  0.008700  1.0  0.3402
  C  C431  1  0.080590  0.218310  0.906530  1.0  0.0451
  C  C432  1  0.033310  0.181290  0.841220  1.0  -0.1628
  C  C433  1  0.139670  0.217820  0.911400  1.0  0.046
  C  C434  1  0.156110  0.179650  0.853370  1.0  -0.1258
  C  C435  1  0.047610  0.144550  0.786600  1.0  -0.0919
  C  C436  1  0.108350  0.142810  0.791350  1.0  -0.1223
  C  C437  1  0.966180  0.657610  0.174030  1.0  0.3492
  C  C438  1  0.051670  0.656290  0.227770  1.0  0.1179
  C  C439  1  0.096700  0.647300  0.275370  1.0  -0.1338
  C  C440  1  0.160220  0.672950  0.243250  1.0  -0.1216
  C  C441  1  0.178920  0.706450  0.163820  1.0  -0.109
  C  C442  1  0.070160  0.689570  0.148930  1.0  0.1364
  C  C443  1  0.133990  0.714500  0.115810  1.0  -0.1766
  C  C444  1  0.803920  0.613770  0.342040  1.0  0.3402
  C  C445  1  0.747250  0.551650  0.239870  1.0  0.0457
  C  C446  1  0.699970  0.514630  0.174560  1.0  -0.1628
  C  C447  1  0.806330  0.551160  0.244740  1.0  0.046
  C  C448  1  0.822770  0.512990  0.186710  1.0  -0.1258
  C  C449  1  0.714270  0.477890  0.119940  1.0  -0.0902
  C  C450  1  0.775010  0.476150  0.124690  1.0  -0.1223
  N  N451  1  0.968440  0.317900  0.425210  1.0  -0.4725
  N  N452  1  0.023400  0.342520  0.551220  1.0  -0.4727
  N  N453  1  0.926010  0.415630  0.353760  1.0  -0.4572
  N  N454  1  0.925760  0.512880  0.363920  1.0  -0.4638
  N  N455  1  0.635110  0.651230  0.758540  1.0  -0.4725
  N  N456  1  0.690070  0.675850  0.884550  1.0  -0.4728
  N  N457  1  0.592680  0.748960  0.687090  1.0  -0.4572
  N  N458  1  0.592430  0.846210  0.697250  1.0  -0.4638
  N  N459  1  0.301770  0.984570  0.091880  1.0  -0.4725
  N  N460  1  0.356730  0.009190  0.217890  1.0  -0.4727
  N  N461  1  0.259340  0.082300  0.020430  1.0  -0.4573
  N  N462  1  0.259090  0.179550  0.030590  1.0  -0.4641
  N  N463  1  0.682100  0.650540  0.425210  1.0  -0.4707
  N  N464  1  0.657480  0.680880  0.551220  1.0  -0.473
  N  N465  1  0.584370  0.510380  0.353760  1.0  -0.4556
  N  N466  1  0.487120  0.412880  0.363920  1.0  -0.4635
  N  N467  1  0.348770  0.983870  0.758540  1.0  -0.4707
  N  N468  1  0.324150  0.014210  0.884550  1.0  -0.473
  N  N469  1  0.251040  0.843710  0.687090  1.0  -0.4556
  N  N470  1  0.153790  0.746210  0.697250  1.0  -0.4635
  N  N471  1  0.015430  0.317210  0.091880  1.0  -0.4708
  N  N472  1  0.990810  0.347550  0.217890  1.0  -0.473
  N  N473  1  0.917700  0.177050  0.020430  1.0  -0.4555
  N  N474  1  0.820450  0.079550  0.030590  1.0  -0.464
  N  N475  1  0.349460  0.031560  0.425210  1.0  -0.4715
  N  N476  1  0.319120  0.976600  0.551220  1.0  -0.4735
  N  N477  1  0.489620  0.073990  0.353760  1.0  -0.4578
  N  N478  1  0.587120  0.074240  0.363920  1.0  -0.4644
  N  N479  1  0.016130  0.364890  0.758540  1.0  -0.4715
  N  N480  1  0.985790  0.309930  0.884550  1.0  -0.4736
  N  N481  1  0.156290  0.407320  0.687090  1.0  -0.4578
  N  N482  1  0.253790  0.407570  0.697250  1.0  -0.4644
  N  N483  1  0.682790  0.698230  0.091880  1.0  -0.4714
  N  N484  1  0.652450  0.643270  0.217890  1.0  -0.4735
  N  N485  1  0.822950  0.740660  0.020430  1.0  -0.4578
  N  N486  1  0.920450  0.740910  0.030590  1.0  -0.4637
  N  N487  1  0.031560  0.682100  0.574790  1.0  -0.4728
  N  N488  1  0.976600  0.657480  0.448780  1.0  -0.4734
  N  N489  1  0.073990  0.584370  0.646240  1.0  -0.4555
  N  N490  1  0.074240  0.487120  0.636080  1.0  -0.4623
  N  N491  1  0.698230  0.015430  0.908120  1.0  -0.4728
  N  N492  1  0.643270  0.990810  0.782110  1.0  -0.4734
  N  N493  1  0.740660  0.917700  0.979570  1.0  -0.4556
  N  N494  1  0.740910  0.820450  0.969410  1.0  -0.4627
  N  N495  1  0.364890  0.348770  0.241460  1.0  -0.4728
  N  N496  1  0.309930  0.324150  0.115450  1.0  -0.4733
  N  N497  1  0.407320  0.251040  0.312910  1.0  -0.4555
  N  N498  1  0.407570  0.153790  0.302750  1.0  -0.4623
  N  N499  1  0.317900  0.349460  0.574790  1.0  -0.4714
  N  N500  1  0.342520  0.319120  0.448780  1.0  -0.4724
  N  N501  1  0.415630  0.489620  0.646240  1.0  -0.4567
  N  N502  1  0.512880  0.587120  0.636080  1.0  -0.4642
  N  N503  1  0.984570  0.682790  0.908120  1.0  -0.4715
  N  N504  1  0.009190  0.652450  0.782110  1.0  -0.4724
  N  N505  1  0.082300  0.822950  0.979570  1.0  -0.4567
  N  N506  1  0.179550  0.920450  0.969410  1.0  -0.4646
  N  N507  1  0.651230  0.016130  0.241460  1.0  -0.4714
  N  N508  1  0.675850  0.985790  0.115450  1.0  -0.4724
  N  N509  1  0.748960  0.156290  0.312910  1.0  -0.4567
  N  N510  1  0.846210  0.253790  0.302750  1.0  -0.4642
  N  N511  1  0.650540  0.968440  0.574790  1.0  -0.473
  N  N512  1  0.680880  0.023400  0.448780  1.0  -0.4736
  N  N513  1  0.510380  0.926010  0.646240  1.0  -0.4574
  N  N514  1  0.412880  0.925760  0.636080  1.0  -0.4639
  N  N515  1  0.317210  0.301770  0.908120  1.0  -0.473
  N  N516  1  0.347550  0.356730  0.782110  1.0  -0.4736
  N  N517  1  0.177050  0.259340  0.979570  1.0  -0.4574
  N  N518  1  0.079550  0.259090  0.969410  1.0  -0.4632
  N  N519  1  0.983870  0.635110  0.241460  1.0  -0.473
  N  N520  1  0.014210  0.690070  0.115450  1.0  -0.4736
  N  N521  1  0.843710  0.592680  0.312910  1.0  -0.4574
  N  N522  1  0.746210  0.592430  0.302750  1.0  -0.4639
