# generated using pymatgen
data_ZnH10(C7N2)2
_symmetry_space_group_name_H-M   'P 1'
_cell_length_a   22.94160000
_cell_length_b   22.94160000
_cell_length_c   15.74880000
_cell_angle_alpha   90.00000000
_cell_angle_beta   90.00000000
_cell_angle_gamma   120.00000000
_symmetry_Int_Tables_number   1
_chemical_formula_structural   ZnH10(C7N2)2
_chemical_formula_sum   'Zn18 H180 C252 N72'
_cell_volume   7178.36448534
_cell_formula_units_Z   18
loop_
 _symmetry_equiv_pos_site_id
 _symmetry_equiv_pos_as_xyz
  1  'x, y, z'
loop_
 _atom_site_type_symbol
 _atom_site_label
 _atom_site_symmetry_multiplicity
 _atom_site_fract_x
 _atom_site_fract_y
 _atom_site_fract_z
 _atom_site_occupancy
 _atom_site_charge
  Zn  Zn1  1  0.934510  0.339000  0.331070  1.0  0.9636
  Zn  Zn2  1  0.601180  0.672330  0.664400  1.0  0.9636
  Zn  Zn3  1  0.267840  0.005670  0.997740  1.0  0.9636
  Zn  Zn4  1  0.661000  0.595510  0.331070  1.0  0.9636
  Zn  Zn5  1  0.327670  0.928840  0.664400  1.0  0.9636
  Zn  Zn6  1  0.994330  0.262180  0.997740  1.0  0.9636
  Zn  Zn7  1  0.404490  0.065490  0.331070  1.0  0.9652
  Zn  Zn8  1  0.071160  0.398820  0.664400  1.0  0.9652
  Zn  Zn9  1  0.737820  0.732160  0.997740  1.0  0.9652
  Zn  Zn10  1  0.065490  0.661000  0.668930  1.0  0.9645
  Zn  Zn11  1  0.732160  0.994330  0.002260  1.0  0.9645
  Zn  Zn12  1  0.398820  0.327670  0.335600  1.0  0.9645
  Zn  Zn13  1  0.339000  0.404490  0.668930  1.0  0.9634
  Zn  Zn14  1  0.005670  0.737820  0.002260  1.0  0.9634
  Zn  Zn15  1  0.672330  0.071160  0.335600  1.0  0.9634
  Zn  Zn16  1  0.595510  0.934510  0.668930  1.0  0.9632
  Zn  Zn17  1  0.262180  0.267840  0.002260  1.0  0.9632
  Zn  Zn18  1  0.928840  0.601180  0.335600  1.0  0.9632
  H  H19  1  0.997740  0.404290  0.494190  1.0  0.0758
  H  H20  1  0.951380  0.206770  0.340460  1.0  0.1101
  H  H21  1  0.990020  0.138210  0.392350  1.0  0.0907
  H  H22  1  0.050330  0.163060  0.518830  1.0  0.0924
  H  H23  1  0.072520  0.257140  0.597080  1.0  0.1178
  H  H24  1  0.976090  0.493390  0.286430  1.0  0.0786
  H  H25  1  0.838720  0.507580  0.503790  1.0  0.1088
  H  H26  1  0.841190  0.305110  0.467630  1.0  0.1122
  H  H27  1  0.773710  0.416730  0.587210  1.0  0.0996
  H  H28  1  0.773270  0.315390  0.571160  1.0  0.0919
  H  H29  1  0.664410  0.737620  0.827520  1.0  0.0758
  H  H30  1  0.618050  0.540100  0.673790  1.0  0.1101
  H  H31  1  0.656690  0.471540  0.725680  1.0  0.0907
  H  H32  1  0.717000  0.496390  0.852160  1.0  0.0924
  H  H33  1  0.739190  0.590470  0.930410  1.0  0.1177
  H  H34  1  0.642760  0.826720  0.619760  1.0  0.0786
  H  H35  1  0.505390  0.840910  0.837120  1.0  0.1089
  H  H36  1  0.507860  0.638440  0.800960  1.0  0.1123
  H  H37  1  0.440380  0.750060  0.920540  1.0  0.0997
  H  H38  1  0.439940  0.648720  0.904490  1.0  0.0919
  H  H39  1  0.331070  0.070960  0.160860  1.0  0.0758
  H  H40  1  0.284710  0.873440  0.007130  1.0  0.1101
  H  H41  1  0.323350  0.804880  0.059020  1.0  0.0912
  H  H42  1  0.383660  0.829730  0.185500  1.0  0.0924
  H  H43  1  0.405850  0.923810  0.263750  1.0  0.1178
  H  H44  1  0.309420  0.160060  0.953100  1.0  0.0786
  H  H45  1  0.172050  0.174250  0.170460  1.0  0.1088
  H  H46  1  0.174520  0.971780  0.134300  1.0  0.1124
  H  H47  1  0.107040  0.083400  0.253880  1.0  0.0996
  H  H48  1  0.106600  0.982060  0.237830  1.0  0.0919
  H  H49  1  0.595710  0.593450  0.494190  1.0  0.0759
  H  H50  1  0.793230  0.744610  0.340460  1.0  0.1094
  H  H51  1  0.861790  0.851810  0.392350  1.0  0.091
  H  H52  1  0.836940  0.887270  0.518830  1.0  0.0926
  H  H53  1  0.742860  0.815380  0.597080  1.0  0.1176
  H  H54  1  0.506610  0.482700  0.286430  1.0  0.0781
  H  H55  1  0.492420  0.331140  0.503790  1.0  0.1091
  H  H56  1  0.694890  0.536080  0.467630  1.0  0.1108
  H  H57  1  0.583270  0.356980  0.587210  1.0  0.1
  H  H58  1  0.684610  0.457880  0.571160  1.0  0.0902
  H  H59  1  0.262380  0.926780  0.827520  1.0  0.0759
  H  H60  1  0.459900  0.077940  0.673790  1.0  0.1094
  H  H61  1  0.528460  0.185140  0.725680  1.0  0.091
  H  H62  1  0.503610  0.220600  0.852160  1.0  0.0926
  H  H63  1  0.409530  0.148710  0.930410  1.0  0.1176
  H  H64  1  0.173280  0.816030  0.619760  1.0  0.0781
  H  H65  1  0.159090  0.664470  0.837120  1.0  0.1092
  H  H66  1  0.361560  0.869410  0.800960  1.0  0.1108
  H  H67  1  0.249940  0.690310  0.920540  1.0  0.1001
  H  H68  1  0.351280  0.791210  0.904490  1.0  0.0902
  H  H69  1  0.929040  0.260120  0.160860  1.0  0.0759
  H  H70  1  0.126560  0.411280  0.007130  1.0  0.1094
  H  H71  1  0.195120  0.518480  0.059020  1.0  0.0913
  H  H72  1  0.170270  0.553940  0.185500  1.0  0.0926
  H  H73  1  0.076190  0.482050  0.263750  1.0  0.1176
  H  H74  1  0.839940  0.149370  0.953100  1.0  0.0781
  H  H75  1  0.825750  0.997810  0.170460  1.0  0.1091
  H  H76  1  0.028220  0.202750  0.134300  1.0  0.1108
  H  H77  1  0.916600  0.023650  0.253880  1.0  0.1
  H  H78  1  0.017940  0.124550  0.237830  1.0  0.0902
  H  H79  1  0.406550  0.002260  0.494190  1.0  0.0765
  H  H80  1  0.255390  0.048620  0.340460  1.0  0.1092
  H  H81  1  0.148190  0.009980  0.392350  1.0  0.0912
  H  H82  1  0.112730  0.949670  0.518830  1.0  0.0925
  H  H83  1  0.184620  0.927480  0.597080  1.0  0.118
  H  H84  1  0.517300  0.023910  0.286430  1.0  0.0787
  H  H85  1  0.668860  0.161280  0.503790  1.0  0.1099
  H  H86  1  0.463920  0.158810  0.467630  1.0  0.113
  H  H87  1  0.643020  0.226290  0.587210  1.0  0.0997
  H  H88  1  0.542120  0.226730  0.571160  1.0  0.091
  H  H89  1  0.073220  0.335590  0.827520  1.0  0.0765
  H  H90  1  0.922060  0.381950  0.673790  1.0  0.1092
  H  H91  1  0.814860  0.343310  0.725680  1.0  0.0914
  H  H92  1  0.779400  0.283000  0.852160  1.0  0.0925
  H  H93  1  0.851290  0.260810  0.930410  1.0  0.1179
  H  H94  1  0.183970  0.357240  0.619760  1.0  0.0787
  H  H95  1  0.335530  0.494610  0.837120  1.0  0.1099
  H  H96  1  0.130590  0.492140  0.800960  1.0  0.113
  H  H97  1  0.309690  0.559620  0.920540  1.0  0.0994
  H  H98  1  0.208790  0.560060  0.904490  1.0  0.091
  H  H99  1  0.739880  0.668930  0.160860  1.0  0.0765
  H  H100  1  0.588720  0.715290  0.007130  1.0  0.1092
  H  H101  1  0.481520  0.676650  0.059020  1.0  0.0911
  H  H102  1  0.446060  0.616340  0.185500  1.0  0.0925
  H  H103  1  0.517950  0.594150  0.263750  1.0  0.118
  H  H104  1  0.850630  0.690580  0.953100  1.0  0.0786
  H  H105  1  0.002190  0.827950  0.170460  1.0  0.1099
  H  H106  1  0.797250  0.825480  0.134300  1.0  0.113
  H  H107  1  0.976350  0.892960  0.253880  1.0  0.0997
  H  H108  1  0.875450  0.893400  0.237830  1.0  0.091
  H  H109  1  0.002260  0.595710  0.505810  1.0  0.0756
  H  H110  1  0.048620  0.793230  0.659540  1.0  0.1099
  H  H111  1  0.009980  0.861790  0.607650  1.0  0.0904
  H  H112  1  0.949670  0.836940  0.481170  1.0  0.0942
  H  H113  1  0.927480  0.742860  0.402920  1.0  0.1182
  H  H114  1  0.023910  0.506610  0.713570  1.0  0.0791
  H  H115  1  0.161280  0.492420  0.496210  1.0  0.1086
  H  H116  1  0.158810  0.694890  0.532370  1.0  0.1119
  H  H117  1  0.226290  0.583270  0.412790  1.0  0.0991
  H  H118  1  0.226730  0.684610  0.428840  1.0  0.0917
  H  H119  1  0.668930  0.929040  0.839140  1.0  0.0756
  H  H120  1  0.715290  0.126560  0.992870  1.0  0.1099
  H  H121  1  0.676650  0.195120  0.940980  1.0  0.0907
  H  H122  1  0.616340  0.170270  0.814500  1.0  0.094
  H  H123  1  0.594150  0.076190  0.736250  1.0  0.1182
  H  H124  1  0.690580  0.839940  0.046900  1.0  0.0791
  H  H125  1  0.827950  0.825750  0.829540  1.0  0.1086
  H  H126  1  0.825480  0.028220  0.865700  1.0  0.112
  H  H127  1  0.892960  0.916600  0.746120  1.0  0.0991
  H  H128  1  0.893400  0.017940  0.762170  1.0  0.0917
  H  H129  1  0.335590  0.262380  0.172480  1.0  0.0756
  H  H130  1  0.381950  0.459900  0.326210  1.0  0.1099
  H  H131  1  0.343310  0.528460  0.274320  1.0  0.0904
  H  H132  1  0.283000  0.503610  0.147840  1.0  0.094
  H  H133  1  0.260810  0.409530  0.069590  1.0  0.1181
  H  H134  1  0.357240  0.173280  0.380240  1.0  0.0791
  H  H135  1  0.494610  0.159090  0.162880  1.0  0.1086
  H  H136  1  0.492140  0.361560  0.199040  1.0  0.112
  H  H137  1  0.559620  0.249940  0.079460  1.0  0.0993
  H  H138  1  0.560060  0.351280  0.095510  1.0  0.0916
  H  H139  1  0.404290  0.406550  0.505810  1.0  0.0757
  H  H140  1  0.206770  0.255390  0.659540  1.0  0.1097
  H  H141  1  0.138210  0.148190  0.607650  1.0  0.09
  H  H142  1  0.163060  0.112730  0.481170  1.0  0.0928
  H  H143  1  0.257140  0.184620  0.402920  1.0  0.1179
  H  H144  1  0.493390  0.517300  0.713570  1.0  0.0788
  H  H145  1  0.507580  0.668860  0.496210  1.0  0.1088
  H  H146  1  0.305110  0.463920  0.532370  1.0  0.1105
  H  H147  1  0.416730  0.643020  0.412790  1.0  0.0997
  H  H148  1  0.315390  0.542120  0.428840  1.0  0.0905
  H  H149  1  0.070960  0.739880  0.839140  1.0  0.0757
  H  H150  1  0.873440  0.588720  0.992870  1.0  0.1097
  H  H151  1  0.804880  0.481520  0.940980  1.0  0.0903
  H  H152  1  0.829730  0.446060  0.814500  1.0  0.0928
  H  H153  1  0.923810  0.517950  0.736250  1.0  0.1179
  H  H154  1  0.160060  0.850630  0.046900  1.0  0.0788
  H  H155  1  0.174250  0.002190  0.829540  1.0  0.1088
  H  H156  1  0.971780  0.797250  0.865700  1.0  0.1105
  H  H157  1  0.083400  0.976350  0.746120  1.0  0.0997
  H  H158  1  0.982060  0.875450  0.762170  1.0  0.0905
  H  H159  1  0.737620  0.073220  0.172480  1.0  0.0757
  H  H160  1  0.540100  0.922060  0.326210  1.0  0.1097
  H  H161  1  0.471540  0.814860  0.274320  1.0  0.09
  H  H162  1  0.496390  0.779400  0.147840  1.0  0.0928
  H  H163  1  0.590470  0.851290  0.069590  1.0  0.118
  H  H164  1  0.826720  0.183970  0.380240  1.0  0.0788
  H  H165  1  0.840910  0.335530  0.162880  1.0  0.1089
  H  H166  1  0.638440  0.130590  0.199040  1.0  0.1105
  H  H167  1  0.750060  0.309690  0.079460  1.0  0.1001
  H  H168  1  0.648720  0.208790  0.095510  1.0  0.0905
  H  H169  1  0.593450  0.997740  0.505810  1.0  0.0758
  H  H170  1  0.744610  0.951380  0.659540  1.0  0.1098
  H  H171  1  0.851810  0.990020  0.607650  1.0  0.0911
  H  H172  1  0.887270  0.050330  0.481170  1.0  0.0927
  H  H173  1  0.815380  0.072520  0.402920  1.0  0.1182
  H  H174  1  0.482700  0.976090  0.713570  1.0  0.0781
  H  H175  1  0.331140  0.838720  0.496210  1.0  0.1107
  H  H176  1  0.536080  0.841190  0.532370  1.0  0.1125
  H  H177  1  0.356980  0.773710  0.412790  1.0  0.1
  H  H178  1  0.457880  0.773270  0.428840  1.0  0.0908
  H  H179  1  0.260120  0.331070  0.839140  1.0  0.0758
  H  H180  1  0.411280  0.284710  0.992870  1.0  0.1098
  H  H181  1  0.518480  0.323350  0.940980  1.0  0.091
  H  H182  1  0.553940  0.383660  0.814500  1.0  0.0927
  H  H183  1  0.482050  0.405850  0.736250  1.0  0.1182
  H  H184  1  0.149370  0.309420  0.046900  1.0  0.078
  H  H185  1  0.997810  0.172050  0.829540  1.0  0.1107
  H  H186  1  0.202750  0.174520  0.865700  1.0  0.1125
  H  H187  1  0.023650  0.107040  0.746120  1.0  0.1
  H  H188  1  0.124550  0.106600  0.762170  1.0  0.0908
  H  H189  1  0.926780  0.664410  0.172480  1.0  0.0758
  H  H190  1  0.077940  0.618050  0.326210  1.0  0.1098
  H  H191  1  0.185140  0.656690  0.274320  1.0  0.0911
  H  H192  1  0.220600  0.717000  0.147840  1.0  0.0927
  H  H193  1  0.148710  0.739190  0.069590  1.0  0.1181
  H  H194  1  0.816030  0.642760  0.380240  1.0  0.0781
  H  H195  1  0.664470  0.505390  0.162880  1.0  0.1108
  H  H196  1  0.869410  0.507860  0.199040  1.0  0.1125
  H  H197  1  0.690310  0.440380  0.079460  1.0  0.0995
  H  H198  1  0.791210  0.439940  0.095510  1.0  0.0908
  C  C199  1  0.000740  0.365540  0.488410  1.0  0.3333
  C  C200  1  0.990520  0.273900  0.436660  1.0  0.0942
  C  C201  1  0.975720  0.217120  0.390750  1.0  -0.1383
  C  C202  1  0.998760  0.176670  0.422270  1.0  -0.098
  C  C203  1  0.035390  0.191690  0.499490  1.0  -0.1088
  C  C204  1  0.026910  0.288910  0.513310  1.0  0.1258
  C  C205  1  0.049220  0.247480  0.545880  1.0  -0.1671
  C  C206  1  0.945640  0.473830  0.330740  1.0  0.3048
  C  C207  1  0.878940  0.461640  0.430740  1.0  0.0627
  C  C208  1  0.838740  0.467520  0.495750  1.0  -0.1567
  C  C209  1  0.879870  0.402870  0.421410  1.0  0.0219
  C  C210  1  0.840140  0.344850  0.474290  1.0  -0.1361
  C  C211  1  0.800510  0.413260  0.545520  1.0  -0.1123
  C  C212  1  0.800240  0.351580  0.536070  1.0  -0.1295
  C  C213  1  0.667410  0.698870  0.821740  1.0  0.3333
  C  C214  1  0.657190  0.607230  0.769990  1.0  0.0942
  C  C215  1  0.642390  0.550450  0.724080  1.0  -0.1383
  C  C216  1  0.665430  0.510000  0.755600  1.0  -0.098
  C  C217  1  0.702060  0.525020  0.832820  1.0  -0.1088
  C  C218  1  0.693580  0.622240  0.846640  1.0  0.1265
  C  C219  1  0.715890  0.580810  0.879210  1.0  -0.1671
  C  C220  1  0.612310  0.807160  0.664070  1.0  0.3048
  C  C221  1  0.545610  0.794970  0.764070  1.0  0.0627
  C  C222  1  0.505410  0.800850  0.829080  1.0  -0.1567
  C  C223  1  0.546540  0.736200  0.754740  1.0  0.0219
  C  C224  1  0.506810  0.678180  0.807620  1.0  -0.1361
  C  C225  1  0.467180  0.746590  0.878850  1.0  -0.1123
  C  C226  1  0.466910  0.684910  0.869400  1.0  -0.1295
  C  C227  1  0.334070  0.032210  0.155080  1.0  0.3343
  C  C228  1  0.323850  0.940570  0.103330  1.0  0.0942
  C  C229  1  0.309050  0.883790  0.057420  1.0  -0.1382
  C  C230  1  0.332090  0.843340  0.088940  1.0  -0.0987
  C  C231  1  0.368720  0.858360  0.166160  1.0  -0.1088
  C  C232  1  0.360240  0.955580  0.179980  1.0  0.1258
  C  C233  1  0.382550  0.914150  0.212550  1.0  -0.1671
  C  C234  1  0.278970  0.140500  0.997410  1.0  0.3047
  C  C235  1  0.212270  0.128310  0.097410  1.0  0.0626
  C  C236  1  0.172070  0.134190  0.162420  1.0  -0.1567
  C  C237  1  0.213200  0.069540  0.088080  1.0  0.0219
  C  C238  1  0.173470  0.011520  0.140960  1.0  -0.1361
  C  C239  1  0.133840  0.079930  0.212190  1.0  -0.1123
  C  C240  1  0.133570  0.018250  0.202740  1.0  -0.1295
  C  C241  1  0.634460  0.635200  0.488410  1.0  0.3392
  C  C242  1  0.726100  0.716620  0.436660  1.0  0.0919
  C  C243  1  0.782880  0.758600  0.390750  1.0  -0.1376
  C  C244  1  0.823330  0.822090  0.422270  1.0  -0.0964
  C  C245  1  0.808310  0.843700  0.499490  1.0  -0.1102
  C  C246  1  0.711090  0.738000  0.513310  1.0  0.1282
  C  C247  1  0.752520  0.801740  0.545880  1.0  -0.1661
  C  C248  1  0.526170  0.471810  0.330740  1.0  0.3057
  C  C249  1  0.538360  0.417300  0.430740  1.0  0.0634
  C  C250  1  0.532480  0.371220  0.495750  1.0  -0.1613
  C  C251  1  0.597130  0.477000  0.421410  1.0  0.0212
  C  C252  1  0.655150  0.495290  0.474290  1.0  -0.1315
  C  C253  1  0.586740  0.387250  0.545520  1.0  -0.1046
  C  C254  1  0.648420  0.448660  0.536070  1.0  -0.1275
  C  C255  1  0.301130  0.968530  0.821740  1.0  0.3366
  C  C256  1  0.392770  0.049950  0.769990  1.0  0.0919
  C  C257  1  0.449550  0.091930  0.724080  1.0  -0.138
  C  C258  1  0.490000  0.155420  0.755600  1.0  -0.0964
  C  C259  1  0.474980  0.177030  0.832820  1.0  -0.1104
  C  C260  1  0.377760  0.071330  0.846640  1.0  0.1283
  C  C261  1  0.419190  0.135070  0.879210  1.0  -0.1661
  C  C262  1  0.192840  0.805140  0.664070  1.0  0.3057
  C  C263  1  0.205030  0.750630  0.764070  1.0  0.0634
  C  C264  1  0.199150  0.704550  0.829080  1.0  -0.1613
  C  C265  1  0.263800  0.810330  0.754740  1.0  0.0212
  C  C266  1  0.321820  0.828620  0.807620  1.0  -0.1315
  C  C267  1  0.253410  0.720580  0.878850  1.0  -0.1046
  C  C268  1  0.315090  0.781990  0.869400  1.0  -0.1276
  C  C269  1  0.967790  0.301870  0.155080  1.0  0.3392
  C  C270  1  0.059430  0.383290  0.103330  1.0  0.0919
  C  C271  1  0.116210  0.425270  0.057420  1.0  -0.1376
  C  C272  1  0.156660  0.488760  0.088940  1.0  -0.0967
  C  C273  1  0.141640  0.510370  0.166160  1.0  -0.1102
  C  C274  1  0.044420  0.404670  0.179980  1.0  0.1282
  C  C275  1  0.085850  0.468410  0.212550  1.0  -0.1679
  C  C276  1  0.859500  0.138480  0.997410  1.0  0.3057
  C  C277  1  0.871690  0.083970  0.097410  1.0  0.0634
  C  C278  1  0.865810  0.037890  0.162420  1.0  -0.1613
  C  C279  1  0.930460  0.143670  0.088080  1.0  0.0213
  C  C280  1  0.988480  0.161960  0.140960  1.0  -0.1361
  C  C281  1  0.920070  0.053920  0.212190  1.0  -0.107
  C  C282  1  0.981750  0.115330  0.202740  1.0  -0.1275
  C  C283  1  0.364800  0.999260  0.488410  1.0  0.3361
  C  C284  1  0.283380  0.009480  0.436660  1.0  0.093
  C  C285  1  0.241400  0.024280  0.390750  1.0  -0.1368
  C  C286  1  0.177910  0.001240  0.422270  1.0  -0.0978
  C  C287  1  0.156300  0.964610  0.499490  1.0  -0.1104
  C  C288  1  0.262000  0.973090  0.513310  1.0  0.1266
  C  C289  1  0.198260  0.950780  0.545880  1.0  -0.165
  C  C290  1  0.528190  0.054360  0.330740  1.0  0.3045
  C  C291  1  0.582700  0.121060  0.430740  1.0  0.0644
  C  C292  1  0.628780  0.161260  0.495750  1.0  -0.1596
  C  C293  1  0.523000  0.120130  0.421410  1.0  0.023
  C  C294  1  0.504710  0.159860  0.474290  1.0  -0.1338
  C  C295  1  0.612750  0.199490  0.545520  1.0  -0.1103
  C  C296  1  0.551340  0.199760  0.536070  1.0  -0.1317
  C  C297  1  0.031470  0.332590  0.821740  1.0  0.3361
  C  C298  1  0.950050  0.342810  0.769990  1.0  0.0928
  C  C299  1  0.908070  0.357610  0.724080  1.0  -0.1368
  C  C300  1  0.844580  0.334570  0.755600  1.0  -0.0978
  C  C301  1  0.822970  0.297940  0.832820  1.0  -0.1102
  C  C302  1  0.928670  0.306420  0.846640  1.0  0.1266
  C  C303  1  0.864930  0.284110  0.879210  1.0  -0.1673
  C  C304  1  0.194860  0.387690  0.664070  1.0  0.3045
  C  C305  1  0.249370  0.454390  0.764070  1.0  0.0644
  C  C306  1  0.295450  0.494590  0.829080  1.0  -0.1596
  C  C307  1  0.189670  0.453460  0.754740  1.0  0.023
  C  C308  1  0.171380  0.493190  0.807620  1.0  -0.1338
  C  C309  1  0.279420  0.532820  0.878850  1.0  -0.1103
  C  C310  1  0.218010  0.533090  0.869400  1.0  -0.1317
  C  C311  1  0.698130  0.665930  0.155080  1.0  0.3361
  C  C312  1  0.616710  0.676150  0.103330  1.0  0.093
  C  C313  1  0.574730  0.690950  0.057420  1.0  -0.1366
  C  C314  1  0.511240  0.667910  0.088940  1.0  -0.0978
  C  C315  1  0.489630  0.631280  0.166160  1.0  -0.1104
  C  C316  1  0.595330  0.639760  0.179980  1.0  0.1266
  C  C317  1  0.531590  0.617450  0.212550  1.0  -0.1672
  C  C318  1  0.861520  0.721030  0.997410  1.0  0.3045
  C  C319  1  0.916030  0.787730  0.097410  1.0  0.0641
  C  C320  1  0.962110  0.827930  0.162420  1.0  -0.1596
  C  C321  1  0.856330  0.786800  0.088080  1.0  0.023
  C  C322  1  0.838040  0.826530  0.140960  1.0  -0.1338
  C  C323  1  0.946080  0.866160  0.212190  1.0  -0.1034
  C  C324  1  0.884670  0.866430  0.202740  1.0  -0.1317
  C  C325  1  0.999260  0.634460  0.511590  1.0  0.3342
  C  C326  1  0.009480  0.726100  0.563340  1.0  0.0932
  C  C327  1  0.024280  0.782880  0.609250  1.0  -0.1328
  C  C328  1  0.001240  0.823330  0.577730  1.0  -0.0992
  C  C329  1  0.964610  0.808310  0.500510  1.0  -0.1119
  C  C330  1  0.973090  0.711090  0.486690  1.0  0.1258
  C  C331  1  0.950780  0.752520  0.454120  1.0  -0.168
  C  C332  1  0.054360  0.526170  0.669260  1.0  0.3045
  C  C333  1  0.121060  0.538360  0.569260  1.0  0.0634
  C  C334  1  0.161260  0.532480  0.504250  1.0  -0.1575
  C  C335  1  0.120130  0.597130  0.578590  1.0  0.0217
  C  C336  1  0.159860  0.655150  0.525710  1.0  -0.1379
  C  C337  1  0.199490  0.586740  0.454480  1.0  -0.1048
  C  C338  1  0.199760  0.648420  0.463930  1.0  -0.1324
  C  C339  1  0.665930  0.967790  0.844920  1.0  0.334
  C  C340  1  0.676150  0.059430  0.896670  1.0  0.0931
  C  C341  1  0.690950  0.116210  0.942580  1.0  -0.1328
  C  C342  1  0.667910  0.156660  0.911060  1.0  -0.0996
  C  C343  1  0.631280  0.141640  0.833840  1.0  -0.1119
  C  C344  1  0.639760  0.044420  0.820020  1.0  0.1258
  C  C345  1  0.617450  0.085850  0.787450  1.0  -0.1682
  C  C346  1  0.721030  0.859500  0.002590  1.0  0.3045
  C  C347  1  0.787730  0.871690  0.902590  1.0  0.064
  C  C348  1  0.827930  0.865810  0.837580  1.0  -0.1575
  C  C349  1  0.786800  0.930460  0.911920  1.0  0.0223
  C  C350  1  0.826530  0.988480  0.859040  1.0  -0.1379
  C  C351  1  0.866160  0.920070  0.787810  1.0  -0.1048
  C  C352  1  0.866430  0.981750  0.797260  1.0  -0.1308
  C  C353  1  0.332590  0.301130  0.178260  1.0  0.3342
  C  C354  1  0.342810  0.392770  0.230010  1.0  0.0932
  C  C355  1  0.357610  0.449550  0.275920  1.0  -0.1328
  C  C356  1  0.334570  0.490000  0.244400  1.0  -0.0989
  C  C357  1  0.297940  0.474980  0.167180  1.0  -0.1119
  C  C358  1  0.306420  0.377760  0.153360  1.0  0.1259
  C  C359  1  0.284110  0.419190  0.120790  1.0  -0.168
  C  C360  1  0.387690  0.192840  0.335930  1.0  0.3045
  C  C361  1  0.454390  0.205030  0.235930  1.0  0.0634
  C  C362  1  0.494590  0.199150  0.170920  1.0  -0.1575
  C  C363  1  0.453460  0.263800  0.245260  1.0  0.0217
  C  C364  1  0.493190  0.321820  0.192380  1.0  -0.1379
  C  C365  1  0.532820  0.253410  0.121150  1.0  -0.1048
  C  C366  1  0.533090  0.315090  0.130600  1.0  -0.1324
  C  C367  1  0.365540  0.364800  0.511590  1.0  0.3321
  C  C368  1  0.273900  0.283380  0.563340  1.0  0.0936
  C  C369  1  0.217120  0.241400  0.609250  1.0  -0.1322
  C  C370  1  0.176670  0.177910  0.577730  1.0  -0.1005
  C  C371  1  0.191690  0.156300  0.500510  1.0  -0.1096
  C  C372  1  0.288910  0.262000  0.486690  1.0  0.1281
  C  C373  1  0.247480  0.198260  0.454120  1.0  -0.1693
  C  C374  1  0.473830  0.528190  0.669260  1.0  0.3053
  C  C375  1  0.461640  0.582700  0.569260  1.0  0.0648
  C  C376  1  0.467520  0.628780  0.504250  1.0  -0.1614
  C  C377  1  0.402870  0.523000  0.578590  1.0  0.0225
  C  C378  1  0.344850  0.504710  0.525710  1.0  -0.1348
  C  C379  1  0.413260  0.612750  0.454480  1.0  -0.1057
  C  C380  1  0.351580  0.551340  0.463930  1.0  -0.129
  C  C381  1  0.032210  0.698130  0.844920  1.0  0.3306
  C  C382  1  0.940570  0.616710  0.896670  1.0  0.0936
  C  C383  1  0.883790  0.574730  0.942580  1.0  -0.1322
  C  C384  1  0.843340  0.511240  0.911060  1.0  -0.1007
  C  C385  1  0.858360  0.489630  0.833840  1.0  -0.1096
  C  C386  1  0.955580  0.595330  0.820020  1.0  0.1281
  C  C387  1  0.914150  0.531590  0.787450  1.0  -0.1693
  C  C388  1  0.140500  0.861520  0.002590  1.0  0.3053
  C  C389  1  0.128310  0.916030  0.902590  1.0  0.0648
  C  C390  1  0.134190  0.962110  0.837580  1.0  -0.1614
  C  C391  1  0.069540  0.856330  0.911920  1.0  0.0225
  C  C392  1  0.011520  0.838040  0.859040  1.0  -0.1348
  C  C393  1  0.079930  0.946080  0.787810  1.0  -0.1069
  C  C394  1  0.018250  0.884670  0.797260  1.0  -0.129
  C  C395  1  0.698870  0.031470  0.178260  1.0  0.332
  C  C396  1  0.607230  0.950050  0.230010  1.0  0.0933
  C  C397  1  0.550450  0.908070  0.275920  1.0  -0.1322
  C  C398  1  0.510000  0.844580  0.244400  1.0  -0.1005
  C  C399  1  0.525020  0.822970  0.167180  1.0  -0.1098
  C  C400  1  0.622240  0.928670  0.153360  1.0  0.1281
  C  C401  1  0.580810  0.864930  0.120790  1.0  -0.1693
  C  C402  1  0.807160  0.194860  0.335930  1.0  0.3053
  C  C403  1  0.794970  0.249370  0.235930  1.0  0.0648
  C  C404  1  0.800850  0.295450  0.170920  1.0  -0.1614
  C  C405  1  0.736200  0.189670  0.245260  1.0  0.0225
  C  C406  1  0.678180  0.171380  0.192380  1.0  -0.1348
  C  C407  1  0.746590  0.279420  0.121150  1.0  -0.1057
  C  C408  1  0.684910  0.218010  0.130600  1.0  -0.129
  C  C409  1  0.635200  0.000740  0.511590  1.0  0.334
  C  C410  1  0.716620  0.990520  0.563340  1.0  0.0936
  C  C411  1  0.758600  0.975720  0.609250  1.0  -0.1363
  C  C412  1  0.822090  0.998760  0.577730  1.0  -0.0982
  C  C413  1  0.843700  0.035390  0.500510  1.0  -0.1108
  C  C414  1  0.738000  0.026910  0.486690  1.0  0.127
  C  C415  1  0.801740  0.049220  0.454120  1.0  -0.1677
  C  C416  1  0.471810  0.945640  0.669260  1.0  0.3044
  C  C417  1  0.417300  0.878940  0.569260  1.0  0.0622
  C  C418  1  0.371220  0.838740  0.504250  1.0  -0.1608
  C  C419  1  0.477000  0.879870  0.578590  1.0  0.0219
  C  C420  1  0.495290  0.840140  0.525710  1.0  -0.1308
  C  C421  1  0.387250  0.800510  0.454480  1.0  -0.1081
  C  C422  1  0.448660  0.800240  0.463930  1.0  -0.1243
  C  C423  1  0.301870  0.334070  0.844920  1.0  0.334
  C  C424  1  0.383290  0.323850  0.896670  1.0  0.0936
  C  C425  1  0.425270  0.309050  0.942580  1.0  -0.1361
  C  C426  1  0.488760  0.332090  0.911060  1.0  -0.0982
  C  C427  1  0.510370  0.368720  0.833840  1.0  -0.1108
  C  C428  1  0.404670  0.360240  0.820020  1.0  0.1276
  C  C429  1  0.468410  0.382550  0.787450  1.0  -0.1677
  C  C430  1  0.138480  0.278970  0.002590  1.0  0.3043
  C  C431  1  0.083970  0.212270  0.902590  1.0  0.0615
  C  C432  1  0.037890  0.172070  0.837580  1.0  -0.1608
  C  C433  1  0.143670  0.213200  0.911920  1.0  0.0221
  C  C434  1  0.161960  0.173470  0.859040  1.0  -0.1308
  C  C435  1  0.053920  0.133840  0.787810  1.0  -0.1059
  C  C436  1  0.115330  0.133570  0.797260  1.0  -0.1243
  C  C437  1  0.968530  0.667410  0.178260  1.0  0.3331
  C  C438  1  0.049950  0.657190  0.230010  1.0  0.0936
  C  C439  1  0.091930  0.642390  0.275920  1.0  -0.1363
  C  C440  1  0.155420  0.665430  0.244400  1.0  -0.0982
  C  C441  1  0.177030  0.702060  0.167180  1.0  -0.1106
  C  C442  1  0.071330  0.693580  0.153360  1.0  0.1274
  C  C443  1  0.135070  0.715890  0.120790  1.0  -0.1678
  C  C444  1  0.805140  0.612310  0.335930  1.0  0.3044
  C  C445  1  0.750630  0.545610  0.235930  1.0  0.0622
  C  C446  1  0.704550  0.505410  0.170920  1.0  -0.1608
  C  C447  1  0.810330  0.546540  0.245260  1.0  0.0219
  C  C448  1  0.828620  0.506810  0.192380  1.0  -0.1309
  C  C449  1  0.720580  0.467180  0.121150  1.0  -0.1081
  C  C450  1  0.781990  0.466910  0.130600  1.0  -0.1243
  N  N451  1  0.973210  0.323610  0.423120  1.0  -0.4861
  N  N452  1  0.033150  0.348490  0.545520  1.0  -0.4612
  N  N453  1  0.924440  0.411500  0.354730  1.0  -0.4522
  N  N454  1  0.921770  0.507310  0.372140  1.0  -0.4482
  N  N455  1  0.639880  0.656940  0.756450  1.0  -0.4861
  N  N456  1  0.699820  0.681820  0.878850  1.0  -0.461
  N  N457  1  0.591110  0.744830  0.688060  1.0  -0.4522
  N  N458  1  0.588440  0.840640  0.705470  1.0  -0.4482
  N  N459  1  0.306540  0.990280  0.089790  1.0  -0.4861
  N  N460  1  0.366480  0.015160  0.212190  1.0  -0.4612
  N  N461  1  0.257770  0.078170  0.021400  1.0  -0.4523
  N  N462  1  0.255100  0.173980  0.038810  1.0  -0.4483
  N  N463  1  0.676390  0.649600  0.423120  1.0  -0.4854
  N  N464  1  0.651510  0.684660  0.545520  1.0  -0.4595
  N  N465  1  0.588500  0.512940  0.354730  1.0  -0.4503
  N  N466  1  0.492690  0.414460  0.372140  1.0  -0.4459
  N  N467  1  0.343060  0.982930  0.756450  1.0  -0.4854
  N  N468  1  0.318180  0.017990  0.878850  1.0  -0.4609
  N  N469  1  0.255170  0.846270  0.688060  1.0  -0.4503
  N  N470  1  0.159360  0.747790  0.705470  1.0  -0.4459
  N  N471  1  0.009720  0.316270  0.089790  1.0  -0.4847
  N  N472  1  0.984840  0.351330  0.212190  1.0  -0.4595
  N  N473  1  0.921830  0.179610  0.021400  1.0  -0.4503
  N  N474  1  0.826020  0.081130  0.038810  1.0  -0.446
  N  N475  1  0.350400  0.026790  0.423120  1.0  -0.4884
  N  N476  1  0.315340  0.966850  0.545520  1.0  -0.4617
  N  N477  1  0.487060  0.075560  0.354730  1.0  -0.4526
  N  N478  1  0.585540  0.078230  0.372140  1.0  -0.4471
  N  N479  1  0.017070  0.360120  0.756450  1.0  -0.4884
  N  N480  1  0.982010  0.300180  0.878850  1.0  -0.4606
  N  N481  1  0.153730  0.408890  0.688060  1.0  -0.4526
  N  N482  1  0.252210  0.411560  0.705470  1.0  -0.4471
  N  N483  1  0.683730  0.693460  0.089790  1.0  -0.4884
  N  N484  1  0.648670  0.633520  0.212190  1.0  -0.4604
  N  N485  1  0.820390  0.742230  0.021400  1.0  -0.4526
  N  N486  1  0.918870  0.744900  0.038810  1.0  -0.4469
  N  N487  1  0.026790  0.676390  0.576880  1.0  -0.489
  N  N488  1  0.966850  0.651510  0.454480  1.0  -0.4578
  N  N489  1  0.075560  0.588500  0.645270  1.0  -0.452
  N  N490  1  0.078230  0.492690  0.627860  1.0  -0.4453
  N  N491  1  0.693460  0.009720  0.910210  1.0  -0.489
  N  N492  1  0.633520  0.984840  0.787810  1.0  -0.4576
  N  N493  1  0.742230  0.921830  0.978600  1.0  -0.4521
  N  N494  1  0.744900  0.826020  0.961190  1.0  -0.4454
  N  N495  1  0.360120  0.343060  0.243550  1.0  -0.489
  N  N496  1  0.300180  0.318180  0.121150  1.0  -0.4575
  N  N497  1  0.408890  0.255170  0.311940  1.0  -0.452
  N  N498  1  0.411560  0.159360  0.294530  1.0  -0.4453
  N  N499  1  0.323610  0.350400  0.576880  1.0  -0.4844
  N  N500  1  0.348490  0.315340  0.454480  1.0  -0.4582
  N  N501  1  0.411500  0.487060  0.645270  1.0  -0.4512
  N  N502  1  0.507310  0.585540  0.627860  1.0  -0.4456
  N  N503  1  0.990280  0.683730  0.910210  1.0  -0.4845
  N  N504  1  0.015160  0.648670  0.787810  1.0  -0.4574
  N  N505  1  0.078170  0.820390  0.978600  1.0  -0.4512
  N  N506  1  0.173980  0.918870  0.961190  1.0  -0.4456
  N  N507  1  0.656940  0.017070  0.243550  1.0  -0.4844
  N  N508  1  0.681820  0.982010  0.121150  1.0  -0.4596
  N  N509  1  0.744830  0.153730  0.311940  1.0  -0.4512
  N  N510  1  0.840640  0.252210  0.294530  1.0  -0.4456
  N  N511  1  0.649600  0.973210  0.576880  1.0  -0.4847
  N  N512  1  0.684660  0.033150  0.454480  1.0  -0.4584
  N  N513  1  0.512940  0.924440  0.645270  1.0  -0.4524
  N  N514  1  0.414460  0.921770  0.627860  1.0  -0.4492
  N  N515  1  0.316270  0.306540  0.910210  1.0  -0.4847
  N  N516  1  0.351330  0.366480  0.787810  1.0  -0.4596
  N  N517  1  0.179610  0.257770  0.978600  1.0  -0.4524
  N  N518  1  0.081130  0.255100  0.961190  1.0  -0.4484
  N  N519  1  0.982930  0.639880  0.243550  1.0  -0.4847
  N  N520  1  0.017990  0.699820  0.121150  1.0  -0.4597
  N  N521  1  0.846270  0.591110  0.311940  1.0  -0.4524
  N  N522  1  0.747790  0.588440  0.294530  1.0  -0.4492
