# generated using pymatgen
data_ZnC8(OF)4
_symmetry_space_group_name_H-M   'P 1'
_cell_length_a   11.93390000
_cell_length_b   12.43690000
_cell_length_c   17.96270000
_cell_angle_alpha   90.00000000
_cell_angle_beta   104.05100000
_cell_angle_gamma   90.00000000
_symmetry_Int_Tables_number   1
_chemical_formula_structural   ZnC8(OF)4
_chemical_formula_sum   'Zn8 C64 O32 F32'
_cell_volume   2586.26906768
_cell_formula_units_Z   8
loop_
 _symmetry_equiv_pos_site_id
 _symmetry_equiv_pos_as_xyz
  1  'x, y, z'
loop_
 _atom_site_type_symbol
 _atom_site_label
 _atom_site_symmetry_multiplicity
 _atom_site_fract_x
 _atom_site_fract_y
 _atom_site_fract_z
 _atom_site_occupancy
 _atom_site_charge
  Zn  Zn1  1  0.046090  0.741660  0.768260  1.0  1.1606
  Zn  Zn2  1  0.256400  0.937050  0.778740  1.0  1.0952
  Zn  Zn3  1  0.453910  0.241660  0.731740  1.0  1.1588
  Zn  Zn4  1  0.243600  0.437050  0.721260  1.0  1.0973
  Zn  Zn5  1  0.953910  0.258340  0.231740  1.0  1.1592
  Zn  Zn6  1  0.743600  0.062950  0.221260  1.0  1.0974
  Zn  Zn7  1  0.546090  0.758340  0.268260  1.0  1.1608
  Zn  Zn8  1  0.756400  0.562950  0.278740  1.0  1.0952
  C  C9  1  0.352700  0.691900  0.951300  1.0  -0.2644
  C  C10  1  0.316200  0.669100  0.017600  1.0  0.2165
  C  C11  1  0.391900  0.632800  0.082900  1.0  0.1952
  C  C12  1  0.506700  0.612800  0.085500  1.0  -0.2426
  C  C13  1  0.540700  0.630200  0.019100  1.0  0.1766
  C  C14  1  0.469300  0.671800  0.954400  1.0  0.2087
  C  C15  1  0.275200  0.742600  0.881900  1.0  0.7723
  C  C16  1  0.596700  0.583900  0.157600  1.0  0.7073
  C  C17  1  0.446400  0.094100  0.845900  1.0  0.7537
  C  C18  1  0.473600  0.045000  0.925800  1.0  -0.2535
  C  C19  1  0.559100  0.967700  0.947200  1.0  0.2056
  C  C20  1  0.584300  0.924700  0.020600  1.0  0.2011
  C  C21  1  0.059400  0.945200  0.855000  1.0  0.7662
  C  C22  1  0.029300  0.974600  0.930100  1.0  -0.2584
  C  C23  1  0.919600  0.011900  0.932400  1.0  0.2035
  C  C24  1  0.892300  0.037100  0.999400  1.0  0.1888
  C  C25  1  0.147300  0.191900  0.548700  1.0  -0.2638
  C  C26  1  0.183800  0.169100  0.482400  1.0  0.2173
  C  C27  1  0.108100  0.132800  0.417100  1.0  0.1945
  C  C28  1  0.993300  0.112800  0.414500  1.0  -0.2415
  C  C29  1  0.959300  0.130200  0.480900  1.0  0.1769
  C  C30  1  0.030700  0.171800  0.545600  1.0  0.2067
  C  C31  1  0.224800  0.242600  0.618100  1.0  0.775
  C  C32  1  0.903300  0.083900  0.342400  1.0  0.706
  C  C33  1  0.053600  0.594100  0.654100  1.0  0.7547
  C  C34  1  0.026400  0.545000  0.574200  1.0  -0.2497
  C  C35  1  0.940900  0.467700  0.552800  1.0  0.2051
  C  C36  1  0.915700  0.424700  0.479400  1.0  0.2
  C  C37  1  0.440600  0.445200  0.645000  1.0  0.7645
  C  C38  1  0.470700  0.474600  0.569900  1.0  -0.2568
  C  C39  1  0.580400  0.511900  0.567600  1.0  0.2028
  C  C40  1  0.607700  0.537100  0.500600  1.0  0.1895
  C  C41  1  0.647300  0.308100  0.048700  1.0  -0.2637
  C  C42  1  0.683800  0.330900  0.982400  1.0  0.2179
  C  C43  1  0.608100  0.367200  0.917100  1.0  0.1951
  C  C44  1  0.493300  0.387200  0.914500  1.0  -0.2417
  C  C45  1  0.459300  0.369800  0.980900  1.0  0.1766
  C  C46  1  0.530700  0.328200  0.045600  1.0  0.2068
  C  C47  1  0.724800  0.257400  0.118100  1.0  0.7745
  C  C48  1  0.403300  0.416100  0.842400  1.0  0.705
  C  C49  1  0.553600  0.905900  0.154100  1.0  0.754
  C  C50  1  0.526400  0.955000  0.074200  1.0  -0.2504
  C  C51  1  0.440900  0.032300  0.052800  1.0  0.2047
  C  C52  1  0.415700  0.075300  0.979400  1.0  0.2005
  C  C53  1  0.940600  0.054800  0.145000  1.0  0.765
  C  C54  1  0.970700  0.025400  0.069900  1.0  -0.2569
  C  C55  1  0.080400  0.988100  0.067600  1.0  0.2013
  C  C56  1  0.107700  0.962900  0.000600  1.0  0.19
  C  C57  1  0.852700  0.808100  0.451300  1.0  -0.2635
  C  C58  1  0.816200  0.830900  0.517600  1.0  0.2169
  C  C59  1  0.891900  0.867200  0.582900  1.0  0.1946
  C  C60  1  0.006700  0.887200  0.585500  1.0  -0.2429
  C  C61  1  0.040700  0.869800  0.519100  1.0  0.1766
  C  C62  1  0.969300  0.828200  0.454400  1.0  0.2085
  C  C63  1  0.775200  0.757400  0.381900  1.0  0.7722
  C  C64  1  0.096700  0.916100  0.657600  1.0  0.7062
  C  C65  1  0.946400  0.405900  0.345900  1.0  0.7533
  C  C66  1  0.973600  0.455000  0.425800  1.0  -0.2544
  C  C67  1  0.059100  0.532300  0.447200  1.0  0.2057
  C  C68  1  0.084300  0.575300  0.520600  1.0  0.201
  C  C69  1  0.559400  0.554800  0.355000  1.0  0.7659
  C  C70  1  0.529300  0.525400  0.430100  1.0  -0.2589
  C  C71  1  0.419600  0.488100  0.432400  1.0  0.2015
  C  C72  1  0.392300  0.462900  0.499400  1.0  0.1893
  O  O73  1  0.319200  0.822600  0.856400  1.0  -0.6251
  O  O74  1  0.176700  0.702800  0.856000  1.0  -0.6217
  O  O75  1  0.641600  0.494200  0.165700  1.0  -0.5158
  O  O76  1  0.628400  0.659600  0.206500  1.0  -0.6757
  O  O77  1  0.354600  0.069000  0.798500  1.0  -0.5988
  O  O78  1  0.517100  0.159500  0.831000  1.0  -0.567
  O  O79  1  0.146500  0.989700  0.843100  1.0  -0.5949
  O  O80  1  0.995200  0.876300  0.816400  1.0  -0.6339
  O  O81  1  0.180800  0.322600  0.643600  1.0  -0.6267
  O  O82  1  0.323300  0.202800  0.644000  1.0  -0.6219
  O  O83  1  0.858400  0.994200  0.334300  1.0  -0.516
  O  O84  1  0.871600  0.159600  0.293500  1.0  -0.6762
  O  O85  1  0.145400  0.569000  0.701500  1.0  -0.5988
  O  O86  1  0.982900  0.659500  0.669000  1.0  -0.5661
  O  O87  1  0.353500  0.489700  0.656900  1.0  -0.5953
  O  O88  1  0.504800  0.376300  0.683600  1.0  -0.6352
  O  O89  1  0.680800  0.177400  0.143600  1.0  -0.6264
  O  O90  1  0.823300  0.297200  0.144000  1.0  -0.6215
  O  O91  1  0.358400  0.505800  0.834300  1.0  -0.5167
  O  O92  1  0.371600  0.340400  0.793500  1.0  -0.6758
  O  O93  1  0.645400  0.931000  0.201500  1.0  -0.5987
  O  O94  1  0.482900  0.840500  0.169000  1.0  -0.5672
  O  O95  1  0.853500  0.010300  0.156900  1.0  -0.5948
  O  O96  1  0.004800  0.123700  0.183600  1.0  -0.6355
  O  O97  1  0.819200  0.677400  0.356400  1.0  -0.6254
  O  O98  1  0.676700  0.797200  0.356000  1.0  -0.6229
  O  O99  1  0.141600  0.005800  0.665700  1.0  -0.5157
  O  O100  1  0.128400  0.840400  0.706500  1.0  -0.675
  O  O101  1  0.854600  0.431000  0.298500  1.0  -0.5988
  O  O102  1  0.017100  0.340500  0.331000  1.0  -0.5676
  O  O103  1  0.646500  0.510300  0.343100  1.0  -0.5947
  O  O104  1  0.495200  0.623700  0.316400  1.0  -0.6343
  F  F105  1  0.205400  0.686800  0.019300  1.0  -0.1247
  F  F106  1  0.353200  0.620300  0.147470  1.0  -0.128
  F  F107  1  0.652400  0.610700  0.017600  1.0  -0.1302
  F  F108  1  0.511000  0.691600  0.893000  1.0  -0.1156
  F  F109  1  0.617100  0.932700  0.896440  1.0  -0.1235
  F  F110  1  0.668200  0.849100  0.038500  1.0  -0.1199
  F  F111  1  0.840000  0.028300  0.865700  1.0  -0.1343
  F  F112  1  0.786300  0.077000  0.997600  1.0  -0.1212
  F  F113  1  0.294600  0.186800  0.480700  1.0  -0.1267
  F  F114  1  0.146800  0.120300  0.352530  1.0  -0.1286
  F  F115  1  0.847600  0.110700  0.482400  1.0  -0.1288
  F  F116  1  0.989000  0.191600  0.607000  1.0  -0.1154
  F  F117  1  0.882900  0.432700  0.603560  1.0  -0.1238
  F  F118  1  0.831800  0.349100  0.461500  1.0  -0.1201
  F  F119  1  0.660000  0.528300  0.634300  1.0  -0.1335
  F  F120  1  0.713700  0.577000  0.502400  1.0  -0.1222
  F  F121  1  0.794600  0.313200  0.980700  1.0  -0.1263
  F  F122  1  0.646800  0.379700  0.852530  1.0  -0.1286
  F  F123  1  0.347600  0.389300  0.982400  1.0  -0.129
  F  F124  1  0.489000  0.308400  0.107000  1.0  -0.1152
  F  F125  1  0.382900  0.067300  0.103560  1.0  -0.1247
  F  F126  1  0.331800  0.150900  0.961500  1.0  -0.1199
  F  F127  1  0.160000  0.971700  0.134300  1.0  -0.1338
  F  F128  1  0.213700  0.923000  0.002400  1.0  -0.1225
  F  F129  1  0.705400  0.813200  0.519300  1.0  -0.1236
  F  F130  1  0.853200  0.879700  0.647470  1.0  -0.1284
  F  F131  1  0.152400  0.889300  0.517600  1.0  -0.1302
  F  F132  1  0.011000  0.808400  0.393000  1.0  -0.1158
  F  F133  1  0.117100  0.567300  0.396440  1.0  -0.1238
  F  F134  1  0.168200  0.650900  0.538500  1.0  -0.1187
  F  F135  1  0.340000  0.471700  0.365700  1.0  -0.1339
  F  F136  1  0.286300  0.423000  0.497600  1.0  -0.1212
