# generated using pymatgen
data_ZnH10(C7N2)2
_symmetry_space_group_name_H-M   'P 1'
_cell_length_a   22.94630000
_cell_length_b   22.94630000
_cell_length_c   15.71270000
_cell_angle_alpha   90.00000000
_cell_angle_beta   90.00000000
_cell_angle_gamma   120.00000000
_symmetry_Int_Tables_number   1
_chemical_formula_structural   ZnH10(C7N2)2
_chemical_formula_sum   'Zn18 H180 C252 N72'
_cell_volume   7164.84475761
_cell_formula_units_Z   18
loop_
 _symmetry_equiv_pos_site_id
 _symmetry_equiv_pos_as_xyz
  1  'x, y, z'
loop_
 _atom_site_type_symbol
 _atom_site_label
 _atom_site_symmetry_multiplicity
 _atom_site_fract_x
 _atom_site_fract_y
 _atom_site_fract_z
 _atom_site_occupancy
 _atom_site_charge
  Zn  Zn1  1  0.933350  0.332510  0.327100  1.0  0.8512
  Zn  Zn2  1  0.600020  0.665840  0.660430  1.0  0.8512
  Zn  Zn3  1  0.266680  0.999180  0.993770  1.0  0.8512
  Zn  Zn4  1  0.667490  0.600840  0.327100  1.0  0.8512
  Zn  Zn5  1  0.334160  0.934170  0.660430  1.0  0.8512
  Zn  Zn6  1  0.000820  0.267510  0.993770  1.0  0.8512
  Zn  Zn7  1  0.399160  0.066650  0.327100  1.0  0.8516
  Zn  Zn8  1  0.065830  0.399980  0.660430  1.0  0.8516
  Zn  Zn9  1  0.732490  0.733320  0.993770  1.0  0.8516
  Zn  Zn10  1  0.066650  0.667490  0.672900  1.0  0.8517
  Zn  Zn11  1  0.733320  0.000820  0.006230  1.0  0.8517
  Zn  Zn12  1  0.399980  0.334160  0.339570  1.0  0.8517
  Zn  Zn13  1  0.332510  0.399160  0.672900  1.0  0.8509
  Zn  Zn14  1  0.999180  0.732490  0.006230  1.0  0.8509
  Zn  Zn15  1  0.665840  0.065830  0.339570  1.0  0.8509
  Zn  Zn16  1  0.600840  0.933350  0.672900  1.0  0.8525
  Zn  Zn17  1  0.267510  0.266680  0.006230  1.0  0.8525
  Zn  Zn18  1  0.934170  0.600020  0.339570  1.0  0.8525
  H  H19  1  0.987450  0.396000  0.496240  1.0  0.0802
  H  H20  1  0.955000  0.201750  0.345570  1.0  0.1148
  H  H21  1  0.000500  0.139600  0.399240  1.0  0.1043
  H  H22  1  0.061060  0.169320  0.526030  1.0  0.0834
  H  H23  1  0.076630  0.261900  0.602830  1.0  0.1143
  H  H24  1  0.964410  0.494110  0.274100  1.0  0.081
  H  H25  1  0.844880  0.516680  0.508540  1.0  0.1106
  H  H26  1  0.850110  0.315380  0.476040  1.0  0.1098
  H  H27  1  0.789460  0.430220  0.601980  1.0  0.0965
  H  H28  1  0.790570  0.329540  0.587970  1.0  0.1036
  H  H29  1  0.654120  0.729330  0.829570  1.0  0.0802
  H  H30  1  0.621670  0.535080  0.678900  1.0  0.1148
  H  H31  1  0.667170  0.472930  0.732570  1.0  0.1043
  H  H32  1  0.727730  0.502650  0.859360  1.0  0.0835
  H  H33  1  0.743300  0.595230  0.936160  1.0  0.1143
  H  H34  1  0.631080  0.827440  0.607430  1.0  0.081
  H  H35  1  0.511550  0.850010  0.841870  1.0  0.1107
  H  H36  1  0.516780  0.648710  0.809370  1.0  0.1098
  H  H37  1  0.456130  0.763550  0.935310  1.0  0.0952
  H  H38  1  0.457240  0.662870  0.921300  1.0  0.1036
  H  H39  1  0.320780  0.062670  0.162910  1.0  0.0802
  H  H40  1  0.288330  0.868420  0.012240  1.0  0.1148
  H  H41  1  0.333830  0.806270  0.065910  1.0  0.1029
  H  H42  1  0.394390  0.835990  0.192700  1.0  0.0835
  H  H43  1  0.409960  0.928570  0.269500  1.0  0.1143
  H  H44  1  0.297740  0.160780  0.940770  1.0  0.081
  H  H45  1  0.178210  0.183350  0.175210  1.0  0.1106
  H  H46  1  0.183440  0.982050  0.142710  1.0  0.1098
  H  H47  1  0.122790  0.096890  0.268650  1.0  0.0965
  H  H48  1  0.123900  0.996210  0.254640  1.0  0.1036
  H  H49  1  0.604000  0.591450  0.496240  1.0  0.0794
  H  H50  1  0.798250  0.753250  0.345570  1.0  0.1142
  H  H51  1  0.860400  0.860900  0.399240  1.0  0.1047
  H  H52  1  0.830680  0.891740  0.526030  1.0  0.0842
  H  H53  1  0.738100  0.814730  0.602830  1.0  0.1145
  H  H54  1  0.505890  0.470300  0.274100  1.0  0.0809
  H  H55  1  0.483320  0.328200  0.508540  1.0  0.1111
  H  H56  1  0.684620  0.534730  0.476040  1.0  0.1084
  H  H57  1  0.569780  0.359240  0.601980  1.0  0.0962
  H  H58  1  0.670460  0.461030  0.587970  1.0  0.1027
  H  H59  1  0.270670  0.924780  0.829570  1.0  0.0796
  H  H60  1  0.464920  0.086580  0.678900  1.0  0.1142
  H  H61  1  0.527070  0.194230  0.732570  1.0  0.1048
  H  H62  1  0.497350  0.225070  0.859360  1.0  0.0842
  H  H63  1  0.404770  0.148060  0.936160  1.0  0.1145
  H  H64  1  0.172560  0.803630  0.607430  1.0  0.0809
  H  H65  1  0.149990  0.661530  0.841870  1.0  0.1111
  H  H66  1  0.351290  0.868060  0.809370  1.0  0.1084
  H  H67  1  0.236450  0.692570  0.935310  1.0  0.0967
  H  H68  1  0.337130  0.794360  0.921300  1.0  0.1027
  H  H69  1  0.937330  0.258120  0.162910  1.0  0.0794
  H  H70  1  0.131580  0.419920  0.012240  1.0  0.1142
  H  H71  1  0.193730  0.527570  0.065910  1.0  0.1045
  H  H72  1  0.164010  0.558410  0.192700  1.0  0.0842
  H  H73  1  0.071430  0.481400  0.269500  1.0  0.1145
  H  H74  1  0.839220  0.136970  0.940770  1.0  0.0809
  H  H75  1  0.816650  0.994870  0.175210  1.0  0.1111
  H  H76  1  0.017950  0.201400  0.142710  1.0  0.1084
  H  H77  1  0.903110  0.025910  0.268650  1.0  0.0962
  H  H78  1  0.003790  0.127700  0.254640  1.0  0.1027
  H  H79  1  0.408550  0.012550  0.496240  1.0  0.0803
  H  H80  1  0.246750  0.045000  0.345570  1.0  0.1135
  H  H81  1  0.139100  0.999500  0.399240  1.0  0.105
  H  H82  1  0.108260  0.938940  0.526030  1.0  0.0836
  H  H83  1  0.185270  0.923370  0.602830  1.0  0.1145
  H  H84  1  0.529700  0.035590  0.274100  1.0  0.0809
  H  H85  1  0.671800  0.155120  0.508540  1.0  0.1111
  H  H86  1  0.465270  0.149890  0.476040  1.0  0.1105
  H  H87  1  0.640760  0.210540  0.601980  1.0  0.0958
  H  H88  1  0.538970  0.209430  0.587970  1.0  0.1029
  H  H89  1  0.075220  0.345880  0.829570  1.0  0.0805
  H  H90  1  0.913420  0.378330  0.678900  1.0  0.1135
  H  H91  1  0.805770  0.332830  0.732570  1.0  0.105
  H  H92  1  0.774930  0.272270  0.859360  1.0  0.0836
  H  H93  1  0.851940  0.256700  0.936160  1.0  0.1145
  H  H94  1  0.196370  0.368920  0.607430  1.0  0.0809
  H  H95  1  0.338470  0.488450  0.841870  1.0  0.1111
  H  H96  1  0.131940  0.483220  0.809370  1.0  0.1105
  H  H97  1  0.307430  0.543870  0.935310  1.0  0.0964
  H  H98  1  0.205640  0.542760  0.921300  1.0  0.1029
  H  H99  1  0.741880  0.679220  0.162910  1.0  0.0803
  H  H100  1  0.580080  0.711670  0.012240  1.0  0.1135
  H  H101  1  0.472430  0.666170  0.065910  1.0  0.1063
  H  H102  1  0.441590  0.605610  0.192700  1.0  0.0836
  H  H103  1  0.518600  0.590040  0.269500  1.0  0.1145
  H  H104  1  0.863030  0.702260  0.940770  1.0  0.081
  H  H105  1  0.005130  0.821790  0.175210  1.0  0.1112
  H  H106  1  0.798600  0.816560  0.142710  1.0  0.1105
  H  H107  1  0.974090  0.877210  0.268650  1.0  0.0958
  H  H108  1  0.872300  0.876100  0.254640  1.0  0.1029
  H  H109  1  0.012550  0.604000  0.503760  1.0  0.0798
  H  H110  1  0.045000  0.798250  0.654430  1.0  0.1139
  H  H111  1  0.999500  0.860400  0.600760  1.0  0.1058
  H  H112  1  0.938940  0.830680  0.473970  1.0  0.0836
  H  H113  1  0.923370  0.738100  0.397170  1.0  0.1146
  H  H114  1  0.035590  0.505890  0.725900  1.0  0.081
  H  H115  1  0.155120  0.483320  0.491460  1.0  0.1097
  H  H116  1  0.149890  0.684620  0.523960  1.0  0.11
  H  H117  1  0.210540  0.569780  0.398020  1.0  0.0964
  H  H118  1  0.209430  0.670460  0.412030  1.0  0.1036
  H  H119  1  0.679220  0.937330  0.837090  1.0  0.0798
  H  H120  1  0.711670  0.131580  0.987760  1.0  0.1139
  H  H121  1  0.666170  0.193730  0.934090  1.0  0.1044
  H  H122  1  0.605610  0.164010  0.807300  1.0  0.0836
  H  H123  1  0.590040  0.071430  0.730500  1.0  0.1146
  H  H124  1  0.702260  0.839220  0.059230  1.0  0.0811
  H  H125  1  0.821790  0.816650  0.824790  1.0  0.1097
  H  H126  1  0.816560  0.017950  0.857290  1.0  0.11
  H  H127  1  0.877210  0.903110  0.731350  1.0  0.0964
  H  H128  1  0.876100  0.003790  0.745360  1.0  0.1036
  H  H129  1  0.345880  0.270670  0.170430  1.0  0.0798
  H  H130  1  0.378330  0.464920  0.321100  1.0  0.1139
  H  H131  1  0.332830  0.527070  0.267430  1.0  0.1058
  H  H132  1  0.272270  0.497350  0.140640  1.0  0.0836
  H  H133  1  0.256700  0.404770  0.063840  1.0  0.1146
  H  H134  1  0.368920  0.172560  0.392570  1.0  0.081
  H  H135  1  0.488450  0.149990  0.158130  1.0  0.1097
  H  H136  1  0.483220  0.351290  0.190630  1.0  0.11
  H  H137  1  0.543870  0.236450  0.064690  1.0  0.0953
  H  H138  1  0.542760  0.337130  0.078700  1.0  0.1036
  H  H139  1  0.396000  0.408550  0.503760  1.0  0.0795
  H  H140  1  0.201750  0.246750  0.654430  1.0  0.1139
  H  H141  1  0.139600  0.139100  0.600760  1.0  0.1057
  H  H142  1  0.169320  0.108260  0.473970  1.0  0.0843
  H  H143  1  0.261900  0.185270  0.397170  1.0  0.1147
  H  H144  1  0.494110  0.529700  0.725900  1.0  0.0807
  H  H145  1  0.516680  0.671800  0.491460  1.0  0.111
  H  H146  1  0.315380  0.465270  0.523960  1.0  0.1087
  H  H147  1  0.430220  0.640760  0.398020  1.0  0.0964
  H  H148  1  0.329540  0.538970  0.412030  1.0  0.1027
  H  H149  1  0.062670  0.741880  0.837090  1.0  0.0795
  H  H150  1  0.868420  0.580080  0.987760  1.0  0.1139
  H  H151  1  0.806270  0.472430  0.934090  1.0  0.1059
  H  H152  1  0.835990  0.441590  0.807300  1.0  0.0843
  H  H153  1  0.928570  0.518600  0.730500  1.0  0.1147
  H  H154  1  0.160780  0.863030  0.059230  1.0  0.0807
  H  H155  1  0.183350  0.005130  0.824790  1.0  0.111
  H  H156  1  0.982050  0.798600  0.857290  1.0  0.1087
  H  H157  1  0.096890  0.974090  0.731350  1.0  0.0964
  H  H158  1  0.996210  0.872300  0.745360  1.0  0.1027
  H  H159  1  0.729330  0.075220  0.170430  1.0  0.0796
  H  H160  1  0.535080  0.913420  0.321100  1.0  0.1139
  H  H161  1  0.472930  0.805770  0.267430  1.0  0.1058
  H  H162  1  0.502650  0.774930  0.140640  1.0  0.0843
  H  H163  1  0.595230  0.851940  0.063840  1.0  0.1147
  H  H164  1  0.827440  0.196370  0.392570  1.0  0.0807
  H  H165  1  0.850010  0.338470  0.158130  1.0  0.111
  H  H166  1  0.648710  0.131940  0.190630  1.0  0.1087
  H  H167  1  0.763550  0.307430  0.064690  1.0  0.0972
  H  H168  1  0.662870  0.205640  0.078700  1.0  0.1028
  H  H169  1  0.591450  0.987450  0.503760  1.0  0.0803
  H  H170  1  0.753250  0.955000  0.654430  1.0  0.1141
  H  H171  1  0.860900  0.000500  0.600760  1.0  0.1058
  H  H172  1  0.891740  0.061060  0.473970  1.0  0.0838
  H  H173  1  0.814730  0.076630  0.397170  1.0  0.1144
  H  H174  1  0.470300  0.964410  0.725900  1.0  0.0806
  H  H175  1  0.328200  0.844880  0.491460  1.0  0.1123
  H  H176  1  0.534730  0.850110  0.523960  1.0  0.1103
  H  H177  1  0.359240  0.789460  0.398020  1.0  0.0964
  H  H178  1  0.461030  0.790570  0.412030  1.0  0.103
  H  H179  1  0.258120  0.320780  0.837090  1.0  0.0803
  H  H180  1  0.419920  0.288330  0.987760  1.0  0.1141
  H  H181  1  0.527570  0.333830  0.934090  1.0  0.1072
  H  H182  1  0.558410  0.394390  0.807300  1.0  0.0838
  H  H183  1  0.481400  0.409960  0.730500  1.0  0.1144
  H  H184  1  0.136970  0.297740  0.059230  1.0  0.0806
  H  H185  1  0.994870  0.178210  0.824790  1.0  0.1123
  H  H186  1  0.201400  0.183440  0.857290  1.0  0.1103
  H  H187  1  0.025910  0.122790  0.731350  1.0  0.0964
  H  H188  1  0.127700  0.123900  0.745360  1.0  0.103
  H  H189  1  0.924780  0.654120  0.170430  1.0  0.0805
  H  H190  1  0.086580  0.621670  0.321100  1.0  0.1141
  H  H191  1  0.194230  0.667170  0.267430  1.0  0.1058
  H  H192  1  0.225070  0.727730  0.140640  1.0  0.0838
  H  H193  1  0.148060  0.743300  0.063840  1.0  0.1144
  H  H194  1  0.803630  0.631080  0.392570  1.0  0.0806
  H  H195  1  0.661530  0.511550  0.158130  1.0  0.1123
  H  H196  1  0.868060  0.516780  0.190630  1.0  0.1103
  H  H197  1  0.692570  0.456130  0.064690  1.0  0.0968
  H  H198  1  0.794360  0.457240  0.078700  1.0  0.103
  C  C199  1  0.993620  0.359060  0.491220  1.0  0.3617
  C  C200  1  0.990280  0.270020  0.441030  1.0  0.1291
  C  C201  1  0.979420  0.214040  0.395990  1.0  -0.1533
  C  C202  1  0.006520  0.177410  0.428550  1.0  -0.1087
  C  C203  1  0.043310  0.195390  0.505970  1.0  -0.1069
  C  C204  1  0.026820  0.287970  0.517870  1.0  0.1419
  C  C205  1  0.053240  0.250340  0.551510  1.0  -0.178
  C  C206  1  0.938230  0.476540  0.322640  1.0  0.3245
  C  C207  1  0.880270  0.468410  0.431320  1.0  0.0528
  C  C208  1  0.845370  0.476800  0.501290  1.0  -0.1375
  C  C209  1  0.882110  0.410050  0.423020  1.0  0.0599
  C  C210  1  0.848480  0.354860  0.482050  1.0  -0.1326
  C  C211  1  0.812870  0.425160  0.556960  1.0  -0.112
  C  C212  1  0.813560  0.363900  0.548760  1.0  -0.1182
  C  C213  1  0.660290  0.692390  0.824550  1.0  0.3617
  C  C214  1  0.656950  0.603350  0.774360  1.0  0.1291
  C  C215  1  0.646090  0.547370  0.729320  1.0  -0.1533
  C  C216  1  0.673190  0.510740  0.761880  1.0  -0.1087
  C  C217  1  0.709980  0.528720  0.839300  1.0  -0.1068
  C  C218  1  0.693490  0.621300  0.851200  1.0  0.1419
  C  C219  1  0.719910  0.583670  0.884840  1.0  -0.1779
  C  C220  1  0.604900  0.809870  0.655970  1.0  0.3245
  C  C221  1  0.546940  0.801740  0.764650  1.0  0.0528
  C  C222  1  0.512040  0.810130  0.834620  1.0  -0.1375
  C  C223  1  0.548780  0.743380  0.756350  1.0  0.0599
  C  C224  1  0.515150  0.688190  0.815380  1.0  -0.1326
  C  C225  1  0.479540  0.758490  0.890290  1.0  -0.112
  C  C226  1  0.480230  0.697230  0.882090  1.0  -0.1182
  C  C227  1  0.326950  0.025730  0.157890  1.0  0.3617
  C  C228  1  0.323610  0.936690  0.107700  1.0  0.1291
  C  C229  1  0.312750  0.880710  0.062660  1.0  -0.1533
  C  C230  1  0.339850  0.844080  0.095220  1.0  -0.1087
  C  C231  1  0.376640  0.862060  0.172640  1.0  -0.1068
  C  C232  1  0.360150  0.954640  0.184540  1.0  0.1419
  C  C233  1  0.386570  0.917010  0.218180  1.0  -0.178
  C  C234  1  0.271560  0.143210  0.989310  1.0  0.3246
  C  C235  1  0.213600  0.135080  0.097990  1.0  0.0528
  C  C236  1  0.178700  0.143470  0.167960  1.0  -0.1375
  C  C237  1  0.215440  0.076720  0.089690  1.0  0.0602
  C  C238  1  0.181810  0.021530  0.148720  1.0  -0.1326
  C  C239  1  0.146200  0.091830  0.223630  1.0  -0.112
  C  C240  1  0.146890  0.030570  0.215430  1.0  -0.1182
  C  C241  1  0.640940  0.634560  0.491220  1.0  0.3627
  C  C242  1  0.729980  0.720260  0.441030  1.0  0.1286
  C  C243  1  0.785960  0.765380  0.395990  1.0  -0.1519
  C  C244  1  0.822590  0.829110  0.428550  1.0  -0.1075
  C  C245  1  0.804610  0.847920  0.505970  1.0  -0.1073
  C  C246  1  0.712030  0.738850  0.517870  1.0  0.1438
  C  C247  1  0.749660  0.802900  0.551510  1.0  -0.1789
  C  C248  1  0.523460  0.461690  0.322640  1.0  0.3255
  C  C249  1  0.531590  0.411860  0.431320  1.0  0.0612
  C  C250  1  0.523200  0.368570  0.501290  1.0  -0.1413
  C  C251  1  0.589950  0.472060  0.423020  1.0  0.0597
  C  C252  1  0.645140  0.493620  0.482050  1.0  -0.1324
  C  C253  1  0.574840  0.387710  0.556960  1.0  -0.1106
  C  C254  1  0.636100  0.449660  0.548760  1.0  -0.1192
  C  C255  1  0.307610  0.967890  0.824550  1.0  0.3627
  C  C256  1  0.396650  0.053590  0.774360  1.0  0.1286
  C  C257  1  0.452630  0.098710  0.729320  1.0  -0.1519
  C  C258  1  0.489260  0.162440  0.761880  1.0  -0.1075
  C  C259  1  0.471280  0.181250  0.839300  1.0  -0.1072
  C  C260  1  0.378700  0.072180  0.851200  1.0  0.1438
  C  C261  1  0.416330  0.136230  0.884840  1.0  -0.1789
  C  C262  1  0.190130  0.795020  0.655970  1.0  0.3255
  C  C263  1  0.198260  0.745190  0.764650  1.0  0.0612
  C  C264  1  0.189870  0.701900  0.834620  1.0  -0.1413
  C  C265  1  0.256620  0.805390  0.756350  1.0  0.0597
  C  C266  1  0.311810  0.826950  0.815380  1.0  -0.1324
  C  C267  1  0.241510  0.721040  0.890290  1.0  -0.1106
  C  C268  1  0.302770  0.782990  0.882090  1.0  -0.1189
  C  C269  1  0.974270  0.301230  0.157890  1.0  0.3627
  C  C270  1  0.063310  0.386930  0.107700  1.0  0.1286
  C  C271  1  0.119290  0.432050  0.062660  1.0  -0.1519
  C  C272  1  0.155920  0.495780  0.095220  1.0  -0.1075
  C  C273  1  0.137940  0.514590  0.172640  1.0  -0.1073
  C  C274  1  0.045360  0.405520  0.184540  1.0  0.1438
  C  C275  1  0.082990  0.469570  0.218180  1.0  -0.1789
  C  C276  1  0.856790  0.128360  0.989310  1.0  0.3255
  C  C277  1  0.864920  0.078530  0.097990  1.0  0.054
  C  C278  1  0.856530  0.035240  0.167960  1.0  -0.1413
  C  C279  1  0.923280  0.138730  0.089690  1.0  0.0734
  C  C280  1  0.978470  0.160290  0.148720  1.0  -0.1303
  C  C281  1  0.908170  0.054380  0.223630  1.0  -0.1106
  C  C282  1  0.969430  0.116330  0.215430  1.0  -0.1209
  C  C283  1  0.365440  0.006380  0.491220  1.0  0.3595
  C  C284  1  0.279740  0.009720  0.441030  1.0  0.1287
  C  C285  1  0.234620  0.020580  0.395990  1.0  -0.1524
  C  C286  1  0.170890  0.993480  0.428550  1.0  -0.1073
  C  C287  1  0.152080  0.956690  0.505970  1.0  -0.1082
  C  C288  1  0.261150  0.973180  0.517870  1.0  0.1425
  C  C289  1  0.197100  0.946760  0.551510  1.0  -0.1778
  C  C290  1  0.538310  0.061770  0.322640  1.0  0.3236
  C  C291  1  0.588140  0.119730  0.431320  1.0  0.0546
  C  C292  1  0.631430  0.154630  0.501290  1.0  -0.1391
  C  C293  1  0.527940  0.117890  0.423020  1.0  0.0608
  C  C294  1  0.506380  0.151520  0.482050  1.0  -0.1307
  C  C295  1  0.612290  0.187130  0.556960  1.0  -0.1092
  C  C296  1  0.550340  0.186440  0.548760  1.0  -0.1184
  C  C297  1  0.032110  0.339710  0.824550  1.0  0.3595
  C  C298  1  0.946410  0.343050  0.774360  1.0  0.1287
  C  C299  1  0.901290  0.353910  0.729320  1.0  -0.1524
  C  C300  1  0.837560  0.326810  0.761880  1.0  -0.1073
  C  C301  1  0.818750  0.290020  0.839300  1.0  -0.1082
  C  C302  1  0.927820  0.306510  0.851200  1.0  0.1425
  C  C303  1  0.863770  0.280090  0.884840  1.0  -0.1778
  C  C304  1  0.204980  0.395100  0.655970  1.0  0.3236
  C  C305  1  0.254810  0.453060  0.764650  1.0  0.0546
  C  C306  1  0.298100  0.487960  0.834620  1.0  -0.1391
  C  C307  1  0.194610  0.451220  0.756350  1.0  0.0608
  C  C308  1  0.173050  0.484850  0.815380  1.0  -0.1307
  C  C309  1  0.278960  0.520460  0.890290  1.0  -0.1092
  C  C310  1  0.217010  0.519770  0.882090  1.0  -0.1184
  C  C311  1  0.698770  0.673050  0.157890  1.0  0.3595
  C  C312  1  0.613070  0.676390  0.107700  1.0  0.1287
  C  C313  1  0.567950  0.687250  0.062660  1.0  -0.1524
  C  C314  1  0.504220  0.660150  0.095220  1.0  -0.1073
  C  C315  1  0.485410  0.623360  0.172640  1.0  -0.1082
  C  C316  1  0.594480  0.639850  0.184540  1.0  0.1425
  C  C317  1  0.530430  0.613430  0.218180  1.0  -0.1778
  C  C318  1  0.871640  0.728440  0.989310  1.0  0.3251
  C  C319  1  0.921470  0.786400  0.097990  1.0  0.0699
  C  C320  1  0.964760  0.821300  0.167960  1.0  -0.1391
  C  C321  1  0.861270  0.784560  0.089690  1.0  0.0598
  C  C322  1  0.839710  0.818190  0.148720  1.0  -0.1306
  C  C323  1  0.945620  0.853800  0.223630  1.0  -0.1092
  C  C324  1  0.883670  0.853110  0.215430  1.0  -0.1183
  C  C325  1  0.006380  0.640940  0.508780  1.0  0.3611
  C  C326  1  0.009720  0.729980  0.558970  1.0  0.1274
  C  C327  1  0.020580  0.785960  0.604010  1.0  -0.1517
  C  C328  1  0.993480  0.822590  0.571450  1.0  -0.1081
  C  C329  1  0.956690  0.804610  0.494030  1.0  -0.1078
  C  C330  1  0.973180  0.712030  0.482130  1.0  0.1423
  C  C331  1  0.946760  0.749660  0.448490  1.0  -0.1776
  C  C332  1  0.061770  0.523460  0.677360  1.0  0.3258
  C  C333  1  0.119730  0.531590  0.568680  1.0  0.054
  C  C334  1  0.154630  0.523200  0.498710  1.0  -0.1376
  C  C335  1  0.117890  0.589950  0.576980  1.0  0.0595
  C  C336  1  0.151520  0.645140  0.517950  1.0  -0.1333
  C  C337  1  0.187130  0.574840  0.443040  1.0  -0.1089
  C  C338  1  0.186440  0.636100  0.451240  1.0  -0.1193
  C  C339  1  0.673050  0.974270  0.842110  1.0  0.3611
  C  C340  1  0.676390  0.063310  0.892300  1.0  0.1274
  C  C341  1  0.687250  0.119290  0.937340  1.0  -0.1517
  C  C342  1  0.660150  0.155920  0.904780  1.0  -0.1081
  C  C343  1  0.623360  0.137940  0.827360  1.0  -0.1077
  C  C344  1  0.639850  0.045360  0.815460  1.0  0.1423
  C  C345  1  0.613430  0.082990  0.781820  1.0  -0.1776
  C  C346  1  0.728440  0.856790  0.010690  1.0  0.3258
  C  C347  1  0.786400  0.864920  0.902010  1.0  0.0539
  C  C348  1  0.821300  0.856530  0.832040  1.0  -0.1376
  C  C349  1  0.784560  0.923280  0.910310  1.0  0.0598
  C  C350  1  0.818190  0.978470  0.851280  1.0  -0.1333
  C  C351  1  0.853800  0.908170  0.776370  1.0  -0.1089
  C  C352  1  0.853110  0.969430  0.784570  1.0  -0.1193
  C  C353  1  0.339710  0.307610  0.175450  1.0  0.3611
  C  C354  1  0.343050  0.396650  0.225640  1.0  0.1274
  C  C355  1  0.353910  0.452630  0.270680  1.0  -0.1517
  C  C356  1  0.326810  0.489260  0.238120  1.0  -0.1081
  C  C357  1  0.290020  0.471280  0.160700  1.0  -0.1077
  C  C358  1  0.306510  0.378700  0.148800  1.0  0.1423
  C  C359  1  0.280090  0.416330  0.115160  1.0  -0.1776
  C  C360  1  0.395100  0.190130  0.344030  1.0  0.3258
  C  C361  1  0.453060  0.198260  0.235350  1.0  0.054
  C  C362  1  0.487960  0.189870  0.165380  1.0  -0.1376
  C  C363  1  0.451220  0.256620  0.243650  1.0  0.0595
  C  C364  1  0.484850  0.311810  0.184620  1.0  -0.1333
  C  C365  1  0.520460  0.241510  0.109710  1.0  -0.1089
  C  C366  1  0.519770  0.302770  0.117910  1.0  -0.1193
  C  C367  1  0.359060  0.365440  0.508780  1.0  0.3619
  C  C368  1  0.270020  0.279740  0.558970  1.0  0.128
  C  C369  1  0.214040  0.234620  0.604010  1.0  -0.1512
  C  C370  1  0.177410  0.170890  0.571450  1.0  -0.1074
  C  C371  1  0.195390  0.152080  0.494030  1.0  -0.1079
  C  C372  1  0.287970  0.261150  0.482130  1.0  0.1438
  C  C373  1  0.250340  0.197100  0.448490  1.0  -0.178
  C  C374  1  0.476540  0.538310  0.677360  1.0  0.3256
  C  C375  1  0.468410  0.588140  0.568680  1.0  0.061
  C  C376  1  0.476800  0.631430  0.498710  1.0  -0.1396
  C  C377  1  0.410050  0.527940  0.576980  1.0  0.06
  C  C378  1  0.354860  0.506380  0.517950  1.0  -0.1331
  C  C379  1  0.425160  0.612290  0.443040  1.0  -0.1106
  C  C380  1  0.363900  0.550340  0.451240  1.0  -0.1191
  C  C381  1  0.025730  0.698770  0.842110  1.0  0.3619
  C  C382  1  0.936690  0.613070  0.892300  1.0  0.128
  C  C383  1  0.880710  0.567950  0.937340  1.0  -0.1512
  C  C384  1  0.844080  0.504220  0.904780  1.0  -0.1074
  C  C385  1  0.862060  0.485410  0.827360  1.0  -0.1078
  C  C386  1  0.954640  0.594480  0.815460  1.0  0.1438
  C  C387  1  0.917010  0.530430  0.781820  1.0  -0.178
  C  C388  1  0.143210  0.871640  0.010690  1.0  0.3256
  C  C389  1  0.135080  0.921470  0.902010  1.0  0.0538
  C  C390  1  0.143470  0.964760  0.832040  1.0  -0.1396
  C  C391  1  0.076720  0.861270  0.910310  1.0  0.0728
  C  C392  1  0.021530  0.839710  0.851280  1.0  -0.1314
  C  C393  1  0.091830  0.945620  0.776370  1.0  -0.1106
  C  C394  1  0.030570  0.883670  0.784570  1.0  -0.1212
  C  C395  1  0.692390  0.032110  0.175450  1.0  0.3619
  C  C396  1  0.603350  0.946410  0.225640  1.0  0.128
  C  C397  1  0.547370  0.901290  0.270680  1.0  -0.1512
  C  C398  1  0.510740  0.837560  0.238120  1.0  -0.1074
  C  C399  1  0.528720  0.818750  0.160700  1.0  -0.1078
  C  C400  1  0.621300  0.927820  0.148800  1.0  0.1438
  C  C401  1  0.583670  0.863770  0.115160  1.0  -0.178
  C  C402  1  0.809870  0.204980  0.344030  1.0  0.3256
  C  C403  1  0.801740  0.254810  0.235350  1.0  0.061
  C  C404  1  0.810130  0.298100  0.165380  1.0  -0.1396
  C  C405  1  0.743380  0.194610  0.243650  1.0  0.06
  C  C406  1  0.688190  0.173050  0.184620  1.0  -0.1331
  C  C407  1  0.758490  0.278960  0.109710  1.0  -0.1106
  C  C408  1  0.697230  0.217010  0.117910  1.0  -0.1187
  C  C409  1  0.634560  0.993620  0.508780  1.0  0.361
  C  C410  1  0.720260  0.990280  0.558970  1.0  0.1277
  C  C411  1  0.765380  0.979420  0.604010  1.0  -0.152
  C  C412  1  0.829110  0.006520  0.571450  1.0  -0.1083
  C  C413  1  0.847920  0.043310  0.494030  1.0  -0.1076
  C  C414  1  0.738850  0.026820  0.482130  1.0  0.1428
  C  C415  1  0.802900  0.053240  0.448490  1.0  -0.1771
  C  C416  1  0.461690  0.938230  0.677360  1.0  0.3245
  C  C417  1  0.411860  0.880270  0.568680  1.0  0.0528
  C  C418  1  0.368570  0.845370  0.498710  1.0  -0.1386
  C  C419  1  0.472060  0.882110  0.576980  1.0  0.0604
  C  C420  1  0.493620  0.848480  0.517950  1.0  -0.1322
  C  C421  1  0.387710  0.812870  0.443040  1.0  -0.111
  C  C422  1  0.449660  0.813560  0.451240  1.0  -0.1196
  C  C423  1  0.301230  0.326950  0.842110  1.0  0.361
  C  C424  1  0.386930  0.323610  0.892300  1.0  0.1277
  C  C425  1  0.432050  0.312750  0.937340  1.0  -0.152
  C  C426  1  0.495780  0.339850  0.904780  1.0  -0.1083
  C  C427  1  0.514590  0.376640  0.827360  1.0  -0.1076
  C  C428  1  0.405520  0.360150  0.815460  1.0  0.1428
  C  C429  1  0.469570  0.386570  0.781820  1.0  -0.1771
  C  C430  1  0.128360  0.271560  0.010690  1.0  0.3257
  C  C431  1  0.078530  0.213600  0.902010  1.0  0.0675
  C  C432  1  0.035240  0.178700  0.832040  1.0  -0.1386
  C  C433  1  0.138730  0.215440  0.910310  1.0  0.0596
  C  C434  1  0.160290  0.181810  0.851280  1.0  -0.1322
  C  C435  1  0.054380  0.146200  0.776370  1.0  -0.111
  C  C436  1  0.116330  0.146890  0.784570  1.0  -0.1194
  C  C437  1  0.967890  0.660290  0.175450  1.0  0.361
  C  C438  1  0.053590  0.656950  0.225640  1.0  0.1277
  C  C439  1  0.098710  0.646090  0.270680  1.0  -0.152
  C  C440  1  0.162440  0.673190  0.238120  1.0  -0.1083
  C  C441  1  0.181250  0.709980  0.160700  1.0  -0.1076
  C  C442  1  0.072180  0.693490  0.148800  1.0  0.1428
  C  C443  1  0.136230  0.719910  0.115160  1.0  -0.1771
  C  C444  1  0.795020  0.604900  0.344030  1.0  0.3245
  C  C445  1  0.745190  0.546940  0.235350  1.0  0.0528
  C  C446  1  0.701900  0.512040  0.165380  1.0  -0.1386
  C  C447  1  0.805390  0.548780  0.243650  1.0  0.0604
  C  C448  1  0.826950  0.515150  0.184620  1.0  -0.1322
  C  C449  1  0.721040  0.479540  0.109710  1.0  -0.111
  C  C450  1  0.782990  0.480230  0.117910  1.0  -0.1196
  N  N451  1  0.968400  0.316140  0.426360  1.0  -0.4639
  N  N452  1  0.028580  0.345810  0.549060  1.0  -0.4903
  N  N453  1  0.920840  0.415970  0.350530  1.0  -0.4553
  N  N454  1  0.916880  0.511200  0.366400  1.0  -0.4719
  N  N455  1  0.635070  0.649470  0.759690  1.0  -0.4639
  N  N456  1  0.695250  0.679140  0.882390  1.0  -0.4901
  N  N457  1  0.587510  0.749300  0.683860  1.0  -0.4553
  N  N458  1  0.583550  0.844530  0.699730  1.0  -0.4719
  N  N459  1  0.301730  0.982810  0.093030  1.0  -0.4639
  N  N460  1  0.361910  0.012480  0.215730  1.0  -0.4903
  N  N461  1  0.254170  0.082640  0.017200  1.0  -0.4553
  N  N462  1  0.250210  0.177870  0.033070  1.0  -0.4712
  N  N463  1  0.683860  0.652260  0.426360  1.0  -0.4616
  N  N464  1  0.654190  0.682770  0.549060  1.0  -0.4905
  N  N465  1  0.584030  0.504870  0.350530  1.0  -0.4536
  N  N466  1  0.488800  0.405680  0.366400  1.0  -0.4718
  N  N467  1  0.350530  0.985590  0.759690  1.0  -0.4616
  N  N468  1  0.320860  0.016100  0.882390  1.0  -0.4905
  N  N469  1  0.250700  0.838200  0.683860  1.0  -0.4536
  N  N470  1  0.155470  0.739010  0.699730  1.0  -0.4718
  N  N471  1  0.017190  0.318930  0.093030  1.0  -0.4616
  N  N472  1  0.987520  0.349440  0.215730  1.0  -0.4905
  N  N473  1  0.917360  0.171540  0.017200  1.0  -0.4536
  N  N474  1  0.822130  0.072350  0.033070  1.0  -0.4727
  N  N475  1  0.347740  0.031600  0.426360  1.0  -0.4626
  N  N476  1  0.317230  0.971420  0.549060  1.0  -0.491
  N  N477  1  0.495130  0.079160  0.350530  1.0  -0.454
  N  N478  1  0.594320  0.083120  0.366400  1.0  -0.4735
  N  N479  1  0.014410  0.364930  0.759690  1.0  -0.4626
  N  N480  1  0.983900  0.304750  0.882390  1.0  -0.491
  N  N481  1  0.161800  0.412490  0.683860  1.0  -0.454
  N  N482  1  0.260990  0.416450  0.699730  1.0  -0.4735
  N  N483  1  0.681070  0.698270  0.093030  1.0  -0.4626
  N  N484  1  0.650560  0.638090  0.215730  1.0  -0.491
  N  N485  1  0.828460  0.745830  0.017200  1.0  -0.454
  N  N486  1  0.927650  0.749790  0.033070  1.0  -0.4727
  N  N487  1  0.031600  0.683860  0.573640  1.0  -0.4629
  N  N488  1  0.971420  0.654190  0.450940  1.0  -0.4909
  N  N489  1  0.079160  0.584030  0.649470  1.0  -0.4523
  N  N490  1  0.083120  0.488800  0.633600  1.0  -0.472
  N  N491  1  0.698270  0.017190  0.906970  1.0  -0.4629
  N  N492  1  0.638090  0.987520  0.784270  1.0  -0.4909
  N  N493  1  0.745830  0.917360  0.982800  1.0  -0.4523
  N  N494  1  0.749790  0.822130  0.966930  1.0  -0.4714
  N  N495  1  0.364930  0.350530  0.240310  1.0  -0.4629
  N  N496  1  0.304750  0.320860  0.117610  1.0  -0.4907
  N  N497  1  0.412490  0.250700  0.316140  1.0  -0.4523
  N  N498  1  0.416450  0.155470  0.300270  1.0  -0.472
  N  N499  1  0.316140  0.347740  0.573640  1.0  -0.4623
  N  N500  1  0.345810  0.317230  0.450940  1.0  -0.4901
  N  N501  1  0.415970  0.495130  0.649470  1.0  -0.4545
  N  N502  1  0.511200  0.594320  0.633600  1.0  -0.4713
  N  N503  1  0.982810  0.681070  0.906970  1.0  -0.4623
  N  N504  1  0.012480  0.650560  0.784270  1.0  -0.4901
  N  N505  1  0.082640  0.828460  0.982800  1.0  -0.4545
  N  N506  1  0.177870  0.927650  0.966930  1.0  -0.4723
  N  N507  1  0.649470  0.014410  0.240310  1.0  -0.4623
  N  N508  1  0.679140  0.983900  0.117610  1.0  -0.49
  N  N509  1  0.749300  0.161800  0.316140  1.0  -0.4545
  N  N510  1  0.844530  0.260990  0.300270  1.0  -0.4713
  N  N511  1  0.652260  0.968400  0.573640  1.0  -0.4622
  N  N512  1  0.682770  0.028580  0.450940  1.0  -0.4913
  N  N513  1  0.504870  0.920840  0.649470  1.0  -0.4552
  N  N514  1  0.405680  0.916880  0.633600  1.0  -0.4744
  N  N515  1  0.318930  0.301730  0.906970  1.0  -0.4622
  N  N516  1  0.349440  0.361910  0.784270  1.0  -0.4913
  N  N517  1  0.171540  0.254170  0.982800  1.0  -0.4552
  N  N518  1  0.072350  0.250210  0.966930  1.0  -0.4737
  N  N519  1  0.985590  0.635070  0.240310  1.0  -0.4622
  N  N520  1  0.016100  0.695250  0.117610  1.0  -0.4913
  N  N521  1  0.838200  0.587510  0.316140  1.0  -0.4552
  N  N522  1  0.739010  0.583550  0.300270  1.0  -0.4744
