# generated using pymatgen
data_Ca3Tb2H18C42(NO4)6
_symmetry_space_group_name_H-M   'P 1'
_cell_length_a   9.43910000
_cell_length_b   16.20240000
_cell_length_c   23.98640000
_cell_angle_alpha   108.35400000
_cell_angle_beta   90.00000000
_cell_angle_gamma   90.00000000
_symmetry_Int_Tables_number   1
_chemical_formula_structural   Ca3Tb2H18C42(NO4)6
_chemical_formula_sum   'Ca6 Tb4 H36 C84 N12 O48'
_cell_volume   3481.77184432
_cell_formula_units_Z   2
loop_
 _symmetry_equiv_pos_site_id
 _symmetry_equiv_pos_as_xyz
  1  'x, y, z'
loop_
 _atom_site_type_symbol
 _atom_site_label
 _atom_site_symmetry_multiplicity
 _atom_site_fract_x
 _atom_site_fract_y
 _atom_site_fract_z
 _atom_site_occupancy
 _atom_site_charge
  Ca  Ca1  1  0.002320  0.500000  0.750000  1.0  1.6367
  Ca  Ca2  1  0.997680  0.500000  0.250000  1.0  1.6362
  Ca  Ca3  1  0.000000  0.500000  0.000000  1.0  1.5534
  Ca  Ca4  1  0.000000  0.500000  0.500000  1.0  1.5534
  Ca  Ca5  1  0.000000  0.000000  0.000000  1.0  1.5741
  Ca  Ca6  1  0.000000  0.000000  0.500000  1.0  1.5741
  Tb  Tb7  1  0.499530  0.701840  0.903040  1.0  2.1238
  Tb  Tb8  1  0.499530  0.298160  0.596960  1.0  2.1235
  Tb  Tb9  1  0.500470  0.298160  0.096960  1.0  2.1234
  Tb  Tb10  1  0.500470  0.701840  0.403040  1.0  2.1238
  H  H11  1  0.313300  0.901300  0.116400  1.0  0.1184
  H  H12  1  0.469900  0.017400  0.130900  1.0  0.1068
  H  H13  1  0.643000  0.010100  0.060900  1.0  0.1068
  H  H14  1  0.388300  0.867400  0.744900  1.0  0.1246
  H  H15  1  0.568800  0.806500  0.678500  1.0  0.0988
  H  H16  1  0.720400  0.707000  0.697500  1.0  0.1161
  H  H17  1  0.649300  0.418300  0.961000  1.0  0.1171
  H  H18  1  0.473800  0.324300  0.909300  1.0  0.1038
  H  H19  1  0.315200  0.372100  0.852500  1.0  0.1147
  H  H20  1  0.313300  0.098700  0.383600  1.0  0.1184
  H  H21  1  0.469900  0.982600  0.369100  1.0  0.1068
  H  H22  1  0.643000  0.989900  0.439100  1.0  0.1067
  H  H23  1  0.388300  0.132600  0.755100  1.0  0.1248
  H  H24  1  0.568800  0.193500  0.821500  1.0  0.0993
  H  H25  1  0.720400  0.293000  0.802500  1.0  0.1156
  H  H26  1  0.649300  0.581700  0.539000  1.0  0.117
  H  H27  1  0.473800  0.675700  0.590700  1.0  0.1029
  H  H28  1  0.315200  0.627900  0.647500  1.0  0.1153
  H  H29  1  0.686700  0.098700  0.883600  1.0  0.1186
  H  H30  1  0.530100  0.982600  0.869100  1.0  0.1064
  H  H31  1  0.357000  0.989900  0.939100  1.0  0.1053
  H  H32  1  0.611700  0.132600  0.255100  1.0  0.1245
  H  H33  1  0.431200  0.193500  0.321500  1.0  0.099
  H  H34  1  0.279600  0.293000  0.302500  1.0  0.1154
  H  H35  1  0.350700  0.581700  0.039000  1.0  0.1167
  H  H36  1  0.526200  0.675700  0.090700  1.0  0.1038
  H  H37  1  0.684800  0.627900  0.147500  1.0  0.1155
  H  H38  1  0.686700  0.901300  0.616400  1.0  0.1188
  H  H39  1  0.530100  0.017400  0.630900  1.0  0.1068
  H  H40  1  0.357000  0.010100  0.560900  1.0  0.106
  H  H41  1  0.611700  0.867400  0.244900  1.0  0.1247
  H  H42  1  0.431200  0.806500  0.178500  1.0  0.0996
  H  H43  1  0.279600  0.707000  0.197500  1.0  0.1157
  H  H44  1  0.350700  0.418300  0.461000  1.0  0.1164
  H  H45  1  0.526200  0.324300  0.409300  1.0  0.1043
  H  H46  1  0.684800  0.372100  0.352500  1.0  0.1154
  C  C47  1  0.303700  0.750500  0.025800  1.0  0.651
  C  C48  1  0.396800  0.829500  0.039100  1.0  0.1368
  C  C49  1  0.383600  0.900000  0.088900  1.0  -0.0948
  C  C50  1  0.476700  0.968900  0.097600  1.0  -0.1059
  C  C51  1  0.579400  0.964500  0.056000  1.0  -0.1007
  C  C52  1  0.587000  0.891600  0.006800  1.0  0.1386
  C  C53  1  0.693200  0.880300  0.959000  1.0  0.7014
  C  C54  1  0.318800  0.831100  0.845500  1.0  0.6487
  C  C55  1  0.430500  0.795800  0.798600  1.0  0.1322
  C  C56  1  0.447800  0.825100  0.750700  1.0  -0.1198
  C  C57  1  0.556100  0.789600  0.711800  1.0  -0.1208
  C  C58  1  0.644500  0.729500  0.722400  1.0  -0.1188
  C  C59  1  0.619500  0.702800  0.770700  1.0  0.1316
  C  C60  1  0.709600  0.636500  0.786800  1.0  0.7036
  C  C61  1  0.693000  0.588400  0.967800  1.0  0.6467
  C  C62  1  0.586600  0.520500  0.934700  1.0  0.0993
  C  C63  1  0.583500  0.436300  0.938400  1.0  -0.1087
  C  C64  1  0.479800  0.380600  0.907500  1.0  -0.0916
  C  C65  1  0.385500  0.409000  0.873800  1.0  -0.1128
  C  C66  1  0.396900  0.493100  0.872200  1.0  0.1307
  C  C67  1  0.298100  0.531900  0.838200  1.0  0.6912
  C  C68  1  0.303700  0.249500  0.474200  1.0  0.6511
  C  C69  1  0.396800  0.170500  0.460900  1.0  0.1371
  C  C70  1  0.383600  0.100000  0.411100  1.0  -0.0941
  C  C71  1  0.476700  0.031100  0.402400  1.0  -0.1065
  C  C72  1  0.579400  0.035500  0.444000  1.0  -0.1014
  C  C73  1  0.587000  0.108400  0.493200  1.0  0.1396
  C  C74  1  0.693200  0.119700  0.541000  1.0  0.7013
  C  C75  1  0.318800  0.168900  0.654500  1.0  0.6487
  C  C76  1  0.430500  0.204200  0.701400  1.0  0.1321
  C  C77  1  0.447800  0.174900  0.749300  1.0  -0.1201
  C  C78  1  0.556100  0.210400  0.788200  1.0  -0.1184
  C  C79  1  0.644500  0.270500  0.777600  1.0  -0.1191
  C  C80  1  0.619500  0.297200  0.729300  1.0  0.1316
  C  C81  1  0.709600  0.363500  0.713200  1.0  0.7029
  C  C82  1  0.693000  0.411600  0.532200  1.0  0.647
  C  C83  1  0.586600  0.479500  0.565300  1.0  0.0986
  C  C84  1  0.583500  0.563700  0.561600  1.0  -0.1091
  C  C85  1  0.479800  0.619400  0.592500  1.0  -0.0907
  C  C86  1  0.385500  0.591000  0.626200  1.0  -0.1134
  C  C87  1  0.396900  0.506900  0.627800  1.0  0.1319
  C  C88  1  0.298100  0.468100  0.661800  1.0  0.6898
  C  C89  1  0.696300  0.249500  0.974200  1.0  0.6502
  C  C90  1  0.603200  0.170500  0.960900  1.0  0.1375
  C  C91  1  0.616400  0.100000  0.911100  1.0  -0.0926
  C  C92  1  0.523300  0.031100  0.902400  1.0  -0.1065
  C  C93  1  0.420600  0.035500  0.944000  1.0  -0.1014
  C  C94  1  0.413000  0.108400  0.993200  1.0  0.1399
  C  C95  1  0.306800  0.119700  0.041000  1.0  0.6989
  C  C96  1  0.681200  0.168900  0.154500  1.0  0.6512
  C  C97  1  0.569500  0.204200  0.201400  1.0  0.1325
  C  C98  1  0.552200  0.174900  0.249300  1.0  -0.1208
  C  C99  1  0.443900  0.210400  0.288200  1.0  -0.1183
  C  C100  1  0.355500  0.270500  0.277600  1.0  -0.1212
  C  C101  1  0.380500  0.297200  0.229300  1.0  0.1311
  C  C102  1  0.290400  0.363500  0.213200  1.0  0.7029
  C  C103  1  0.307000  0.411600  0.032200  1.0  0.6446
  C  C104  1  0.413400  0.479500  0.065300  1.0  0.0968
  C  C105  1  0.416500  0.563700  0.061600  1.0  -0.1097
  C  C106  1  0.520200  0.619400  0.092500  1.0  -0.0903
  C  C107  1  0.614500  0.591000  0.126200  1.0  -0.1123
  C  C108  1  0.603100  0.506900  0.127800  1.0  0.1306
  C  C109  1  0.701900  0.468100  0.161800  1.0  0.6907
  C  C110  1  0.696300  0.750500  0.525800  1.0  0.6497
  C  C111  1  0.603200  0.829500  0.539100  1.0  0.1379
  C  C112  1  0.616400  0.900000  0.588900  1.0  -0.0929
  C  C113  1  0.523300  0.968900  0.597600  1.0  -0.1056
  C  C114  1  0.420600  0.964500  0.556000  1.0  -0.1012
  C  C115  1  0.413000  0.891600  0.506800  1.0  0.1389
  C  C116  1  0.306800  0.880300  0.459000  1.0  0.6999
  C  C117  1  0.681200  0.831100  0.345500  1.0  0.6516
  C  C118  1  0.569500  0.795800  0.298600  1.0  0.1318
  C  C119  1  0.552200  0.825100  0.250700  1.0  -0.1202
  C  C120  1  0.443900  0.789600  0.211800  1.0  -0.1203
  C  C121  1  0.355500  0.729500  0.222400  1.0  -0.1207
  C  C122  1  0.380500  0.702800  0.270700  1.0  0.1313
  C  C123  1  0.290400  0.636500  0.286800  1.0  0.7025
  C  C124  1  0.307000  0.588400  0.467800  1.0  0.646
  C  C125  1  0.413400  0.520500  0.434700  1.0  0.0974
  C  C126  1  0.416500  0.436300  0.438400  1.0  -0.11
  C  C127  1  0.520200  0.380600  0.407500  1.0  -0.0913
  C  C128  1  0.614500  0.409000  0.373800  1.0  -0.1116
  C  C129  1  0.603100  0.493100  0.372200  1.0  0.1299
  C  C130  1  0.701900  0.531900  0.338200  1.0  0.6907
  N  N131  1  0.495000  0.825700  0.998200  1.0  -0.4207
  N  N132  1  0.515000  0.735600  0.808150  1.0  -0.3957
  N  N133  1  0.495200  0.547500  0.903400  1.0  -0.3957
  N  N134  1  0.495000  0.174300  0.501800  1.0  -0.42
  N  N135  1  0.515000  0.264400  0.691850  1.0  -0.3973
  N  N136  1  0.495200  0.452500  0.596600  1.0  -0.3938
  N  N137  1  0.505000  0.174300  0.001800  1.0  -0.4204
  N  N138  1  0.485000  0.264400  0.191850  1.0  -0.3971
  N  N139  1  0.504800  0.452500  0.096600  1.0  -0.3936
  N  N140  1  0.505000  0.825700  0.498200  1.0  -0.421
  N  N141  1  0.485000  0.735600  0.308150  1.0  -0.3961
  N  N142  1  0.504800  0.547500  0.403400  1.0  -0.3956
  O  O143  1  0.320200  0.694700  0.975020  1.0  -0.6692
  O  O144  1  0.220600  0.743700  0.063800  1.0  -0.5303
  O  O145  1  0.676600  0.814300  0.914020  1.0  -0.6836
  O  O146  1  0.788500  0.935300  0.965310  1.0  -0.7712
  O  O147  1  0.327000  0.805400  0.890040  1.0  -0.6717
  O  O148  1  0.231900  0.883600  0.838200  1.0  -0.516
  O  O149  1  0.804300  0.598000  0.752410  1.0  -0.7761
  O  O150  1  0.681200  0.625700  0.835340  1.0  -0.6602
  O  O151  1  0.672100  0.664200  0.965690  1.0  -0.6768
  O  O152  1  0.790200  0.566300  0.994610  1.0  -0.7471
  O  O153  1  0.321400  0.610700  0.841970  1.0  -0.675
  O  O154  1  0.200300  0.486700  0.809820  1.0  -0.7545
  O  O155  1  0.320200  0.305300  0.524980  1.0  -0.6682
  O  O156  1  0.220600  0.256300  0.436200  1.0  -0.5305
  O  O157  1  0.676600  0.185700  0.585980  1.0  -0.6831
  O  O158  1  0.788500  0.064700  0.534690  1.0  -0.7704
  O  O159  1  0.327000  0.194600  0.609960  1.0  -0.6728
  O  O160  1  0.231900  0.116400  0.661800  1.0  -0.5156
  O  O161  1  0.804300  0.402000  0.747590  1.0  -0.7775
  O  O162  1  0.681200  0.374300  0.664660  1.0  -0.6588
  O  O163  1  0.672100  0.335800  0.534310  1.0  -0.6808
  O  O164  1  0.790200  0.433700  0.505390  1.0  -0.7472
  O  O165  1  0.321400  0.389300  0.658030  1.0  -0.6734
  O  O166  1  0.200300  0.513300  0.690180  1.0  -0.7534
  O  O167  1  0.679800  0.305300  0.024980  1.0  -0.6681
  O  O168  1  0.779400  0.256300  0.936200  1.0  -0.529
  O  O169  1  0.323400  0.185700  0.085980  1.0  -0.6844
  O  O170  1  0.211500  0.064700  0.034690  1.0  -0.7716
  O  O171  1  0.673000  0.194600  0.109960  1.0  -0.6722
  O  O172  1  0.768100  0.116400  0.161800  1.0  -0.5188
  O  O173  1  0.195700  0.402000  0.247590  1.0  -0.7769
  O  O174  1  0.318800  0.374300  0.164660  1.0  -0.658
  O  O175  1  0.327900  0.335800  0.034310  1.0  -0.6792
  O  O176  1  0.209800  0.433700  0.005390  1.0  -0.7495
  O  O177  1  0.678600  0.389300  0.158030  1.0  -0.6757
  O  O178  1  0.799700  0.513300  0.190180  1.0  -0.7566
  O  O179  1  0.679800  0.694700  0.475020  1.0  -0.6686
  O  O180  1  0.779400  0.743700  0.563800  1.0  -0.5326
  O  O181  1  0.323400  0.814300  0.414020  1.0  -0.6855
  O  O182  1  0.211500  0.935300  0.465310  1.0  -0.7722
  O  O183  1  0.673000  0.805400  0.390040  1.0  -0.6722
  O  O184  1  0.768100  0.883600  0.338200  1.0  -0.5156
  O  O185  1  0.195700  0.598000  0.252410  1.0  -0.7781
  O  O186  1  0.318800  0.625700  0.335340  1.0  -0.6589
  O  O187  1  0.327900  0.664200  0.465690  1.0  -0.6804
  O  O188  1  0.209800  0.566300  0.494610  1.0  -0.7505
  O  O189  1  0.678600  0.610700  0.341970  1.0  -0.6733
  O  O190  1  0.799700  0.486700  0.309820  1.0  -0.7561
