# generated using pymatgen
data_NaZnMo6P4O25
_symmetry_space_group_name_H-M   'P 1'
_cell_length_a   12.42000000
_cell_length_b   13.66600000
_cell_length_c   14.23400000
_cell_angle_alpha   96.94300000
_cell_angle_beta   114.71500000
_cell_angle_gamma   110.56800000
_symmetry_Int_Tables_number   1
_chemical_formula_structural   NaZnMo6P4O25
_chemical_formula_sum   'Na2 Zn2 Mo12 P8 O50'
_cell_volume   1950.26408785
_cell_formula_units_Z   2
loop_
 _symmetry_equiv_pos_site_id
 _symmetry_equiv_pos_as_xyz
  1  'x, y, z'
loop_
 _atom_site_type_symbol
 _atom_site_label
 _atom_site_symmetry_multiplicity
 _atom_site_fract_x
 _atom_site_fract_y
 _atom_site_fract_z
 _atom_site_occupancy
 _atom_site_charge
  Na  Na1  1  0.000000  0.500000  0.000000  1.0  0.9886
  Na  Na2  1  0.000000  0.000000  0.000000  1.0  0.9951
  Zn  Zn3  1  0.157520  0.321030  0.428370  1.0  1.2344
  Zn  Zn4  1  0.842480  0.678970  0.571630  1.0  1.2311
  Mo  Mo5  1  0.315040  0.465330  0.159660  1.0  1.2914
  Mo  Mo6  1  0.319020  0.715350  0.268530  1.0  1.2745
  Mo  Mo7  1  0.112320  0.714000  0.272570  1.0  1.2944
  Mo  Mo8  1  0.824310  0.458280  0.171900  1.0  1.2561
  Mo  Mo9  1  0.824190  0.274400  0.100630  1.0  1.2987
  Mo  Mo10  1  0.108510  0.279850  0.090430  1.0  1.3031
  Mo  Mo11  1  0.684960  0.534670  0.840340  1.0  1.2918
  Mo  Mo12  1  0.680980  0.284650  0.731470  1.0  1.2739
  Mo  Mo13  1  0.887680  0.286000  0.727430  1.0  1.2948
  Mo  Mo14  1  0.175690  0.541720  0.828100  1.0  1.2583
  Mo  Mo15  1  0.175810  0.725600  0.899370  1.0  1.2965
  Mo  Mo16  1  0.891490  0.720150  0.909570  1.0  1.301
  P  P17  1  0.137560  0.473210  0.288540  1.0  1.8591
  P  P18  1  0.576950  0.664620  0.380330  1.0  1.8228
  P  P19  1  0.923310  0.664450  0.382960  1.0  1.7688
  P  P20  1  0.970640  0.119980  0.207180  1.0  1.7909
  P  P21  1  0.862440  0.526790  0.711460  1.0  1.8595
  P  P22  1  0.423050  0.335380  0.619670  1.0  1.8228
  P  P23  1  0.076690  0.335550  0.617040  1.0  1.7684
  P  P24  1  0.029360  0.880020  0.792820  1.0  1.7911
  O  O25  1  0.493900  0.547000  0.302500  1.0  -0.7138
  O  O26  1  0.250800  0.537300  0.268000  1.0  -0.8539
  O  O27  1  0.280400  0.345800  0.220900  1.0  -0.6773
  O  O28  1  0.343200  0.625500  0.152700  1.0  -0.6549
  O  O29  1  0.131000  0.413900  0.050800  1.0  -0.7656
  O  O30  1  0.490500  0.717800  0.387400  1.0  -0.6645
  O  O31  1  0.281400  0.735700  0.386600  1.0  -0.6333
  O  O32  1  0.136300  0.658400  0.153300  1.0  -0.7297
  O  O33  1  0.062000  0.717700  0.394300  1.0  -0.6739
  O  O34  1  0.051800  0.534400  0.275700  1.0  -0.8632
  O  O35  1  0.907500  0.618100  0.161700  1.0  -0.6544
  O  O36  1  0.854100  0.540800  0.319800  1.0  -0.7122
  O  O37  1  0.834900  0.341200  0.234400  1.0  -0.6499
  O  O38  1  0.858800  0.407500  0.058500  1.0  -0.736
  O  O39  1  0.901900  0.232400  0.002400  1.0  -0.7247
  O  O40  1  0.860000  0.156400  0.167900  1.0  -0.6428
  O  O41  1  0.052100  0.357500  0.204100  1.0  -0.7918
  O  O42  1  0.046600  0.148700  0.144000  1.0  -0.7435
  O  O43  1  0.664300  0.739800  0.342400  1.0  -0.5445
  O  O44  1  0.844700  0.724500  0.325100  1.0  -0.5016
  O  O45  1  0.067100  0.177700  0.328500  1.0  -0.7031
  O  O46  1  0.909200  0.996500  0.186300  1.0  -0.4877
  O  O47  1  0.941200  0.676300  0.496400  1.0  -0.6973
  O  O48  1  0.661500  0.659900  0.490900  1.0  -0.6735
  O  O49  1  0.195100  0.464700  0.403500  1.0  -0.6888
  O  O50  1  0.506100  0.453000  0.697500  1.0  -0.7154
  O  O51  1  0.749200  0.462700  0.732000  1.0  -0.8525
  O  O52  1  0.719600  0.654200  0.779100  1.0  -0.674
  O  O53  1  0.656800  0.374500  0.847300  1.0  -0.653
  O  O54  1  0.869000  0.586100  0.949200  1.0  -0.7643
  O  O55  1  0.509500  0.282200  0.612600  1.0  -0.6608
  O  O56  1  0.718600  0.264300  0.613400  1.0  -0.6401
  O  O57  1  0.863700  0.341600  0.846700  1.0  -0.7295
  O  O58  1  0.938000  0.282300  0.605700  1.0  -0.6726
  O  O59  1  0.948200  0.465600  0.724300  1.0  -0.8621
  O  O60  1  0.092500  0.381900  0.838300  1.0  -0.6533
  O  O61  1  0.145900  0.459200  0.680200  1.0  -0.712
  O  O62  1  0.165100  0.658800  0.765600  1.0  -0.6525
  O  O63  1  0.141200  0.592500  0.941500  1.0  -0.7361
  O  O64  1  0.098100  0.767600  0.997600  1.0  -0.7235
  O  O65  1  0.140000  0.843600  0.832100  1.0  -0.6465
  O  O66  1  0.947900  0.642500  0.795900  1.0  -0.7917
  O  O67  1  0.953400  0.851300  0.856000  1.0  -0.747
  O  O68  1  0.335700  0.260200  0.657600  1.0  -0.5454
  O  O69  1  0.155300  0.275500  0.674900  1.0  -0.5029
  O  O70  1  0.932900  0.822300  0.671500  1.0  -0.7031
  O  O71  1  0.090800  0.003500  0.813700  1.0  -0.4877
  O  O72  1  0.058800  0.323700  0.503600  1.0  -0.6976
  O  O73  1  0.338500  0.340100  0.509100  1.0  -0.6723
  O  O74  1  0.804900  0.535300  0.596500  1.0  -0.6896
