# generated using pymatgen
data_K4Na2Sm4P5W30(CO50)2
_symmetry_space_group_name_H-M   'P 1'
_cell_length_a   29.03540000
_cell_length_b   22.13780000
_cell_length_c   24.55830000
_cell_angle_alpha   90.00000000
_cell_angle_beta   108.98700000
_cell_angle_gamma   90.00000000
_symmetry_Int_Tables_number   1
_chemical_formula_structural   K4Na2Sm4P5W30(CO50)2
_chemical_formula_sum   'K16 Na8 Sm16 P20 W120 C8 O400'
_cell_volume   14926.72582057
_cell_formula_units_Z   4
loop_
 _symmetry_equiv_pos_site_id
 _symmetry_equiv_pos_as_xyz
  1  'x, y, z'
loop_
 _atom_site_type_symbol
 _atom_site_label
 _atom_site_symmetry_multiplicity
 _atom_site_fract_x
 _atom_site_fract_y
 _atom_site_fract_z
 _atom_site_occupancy
 _atom_site_charge
  K  K1  1  0.765110  0.718100  0.469800  1.0  0.8297
  K  K2  1  0.955500  0.784200  0.575400  1.0  1.0633
  K  K3  1  0.265110  0.218100  0.469800  1.0  0.8297
  K  K4  1  0.455500  0.284200  0.575400  1.0  1.0633
  K  K5  1  0.234890  0.718100  0.030200  1.0  0.8289
  K  K6  1  0.044500  0.784200  0.924600  1.0  1.0638
  K  K7  1  0.734890  0.218100  0.030200  1.0  0.8289
  K  K8  1  0.544500  0.284200  0.924600  1.0  1.0638
  K  K9  1  0.234890  0.281900  0.530200  1.0  0.8289
  K  K10  1  0.044500  0.215800  0.424600  1.0  1.0628
  K  K11  1  0.734890  0.781900  0.530200  1.0  0.8289
  K  K12  1  0.544500  0.715800  0.424600  1.0  1.0628
  K  K13  1  0.765110  0.281900  0.969800  1.0  0.8297
  K  K14  1  0.955500  0.215800  0.075400  1.0  1.0625
  K  K15  1  0.265110  0.781900  0.969800  1.0  0.8297
  K  K16  1  0.455500  0.715800  0.075400  1.0  1.0625
  Na  Na17  1  0.983800  0.725000  0.191900  1.0  0.9218
  Na  Na18  1  0.483800  0.225000  0.191900  1.0  0.9218
  Na  Na19  1  0.016200  0.725000  0.308100  1.0  0.9225
  Na  Na20  1  0.516200  0.225000  0.308100  1.0  0.9225
  Na  Na21  1  0.016200  0.275000  0.808100  1.0  0.9225
  Na  Na22  1  0.516200  0.775000  0.808100  1.0  0.9225
  Na  Na23  1  0.983800  0.275000  0.691900  1.0  0.9217
  Na  Na24  1  0.483800  0.775000  0.691900  1.0  0.9217
  Sm  Sm25  1  0.815150  0.448780  0.436280  1.0  1.8731
  Sm  Sm26  1  0.922050  0.903110  0.934460  1.0  2.1089
  Sm  Sm27  1  0.315150  0.948780  0.436280  1.0  1.8731
  Sm  Sm28  1  0.422050  0.403110  0.934460  1.0  2.1089
  Sm  Sm29  1  0.184850  0.448780  0.063720  1.0  1.8725
  Sm  Sm30  1  0.077950  0.903110  0.565540  1.0  2.1063
  Sm  Sm31  1  0.684850  0.948780  0.063720  1.0  1.8725
  Sm  Sm32  1  0.577950  0.403110  0.565540  1.0  2.1063
  Sm  Sm33  1  0.184850  0.551220  0.563720  1.0  1.8723
  Sm  Sm34  1  0.077950  0.096890  0.065540  1.0  2.1068
  Sm  Sm35  1  0.684850  0.051220  0.563720  1.0  1.8723
  Sm  Sm36  1  0.577950  0.596890  0.065540  1.0  2.1068
  Sm  Sm37  1  0.815150  0.551220  0.936280  1.0  1.8731
  Sm  Sm38  1  0.922050  0.096890  0.434460  1.0  2.1097
  Sm  Sm39  1  0.315150  0.051220  0.936280  1.0  1.8731
  Sm  Sm40  1  0.422050  0.596890  0.434460  1.0  2.1097
  P  P41  1  0.886380  0.773300  0.251300  1.0  1.7036
  P  P42  1  0.929630  0.597700  0.250500  1.0  1.6179
  P  P43  1  0.386380  0.273300  0.251300  1.0  1.7036
  P  P44  1  0.429630  0.097700  0.250500  1.0  1.6179
  P  P45  1  0.113620  0.773300  0.248700  1.0  1.6984
  P  P46  1  0.070370  0.597700  0.249500  1.0  1.6164
  P  P47  1  0.613620  0.273300  0.248700  1.0  1.6984
  P  P48  1  0.570370  0.097700  0.249500  1.0  1.6164
  P  P49  1  0.113620  0.226700  0.748700  1.0  1.6987
  P  P50  1  0.070370  0.402300  0.749500  1.0  1.616
  P  P51  1  0.613620  0.726700  0.748700  1.0  1.6987
  P  P52  1  0.570370  0.902300  0.749500  1.0  1.616
  P  P53  1  0.886380  0.226700  0.751300  1.0  1.7038
  P  P54  1  0.929630  0.402300  0.750500  1.0  1.6176
  P  P55  1  0.386380  0.726700  0.751300  1.0  1.7038
  P  P56  1  0.429630  0.902300  0.750500  1.0  1.6176
  P  P57  1  0.000000  0.883600  0.250000  1.0  1.6923
  P  P58  1  0.500000  0.383600  0.250000  1.0  1.6923
  P  P59  1  0.000000  0.116400  0.750000  1.0  1.693
  P  P60  1  0.500000  0.616400  0.750000  1.0  1.693
  W  W61  1  0.807050  0.568550  0.180250  1.0  1.3994
  W  W62  1  0.814730  0.891530  0.180100  1.0  2.5552
  W  W63  1  0.908450  0.462520  0.179740  1.0  1.4386
  W  W64  1  0.976420  0.611230  0.396470  1.0  1.1772
  W  W65  1  0.938270  0.772370  0.397320  1.0  2.5251
  W  W66  1  0.769030  0.732890  0.181930  1.0  1.3193
  W  W67  1  0.039160  0.461730  0.178290  1.0  1.4439
  W  W68  1  0.957120  0.869030  0.105010  1.0  2.5255
  W  W69  1  0.854620  0.766880  0.104760  1.0  1.2576
  W  W70  1  0.895170  0.606700  0.104860  1.0  2.4469
  W  W71  1  0.812230  0.718800  0.324730  1.0  2.5581
  W  W72  1  0.049240  0.984540  0.178030  1.0  2.5955
  W  W73  1  0.853340  0.555580  0.322760  1.0  2.5456
  W  W74  1  0.079420  0.993190  0.320390  1.0  1.382
  W  W75  1  0.845620  0.882520  0.322880  1.0  1.4388
  W  W76  1  0.307050  0.068550  0.180250  1.0  1.3994
  W  W77  1  0.314730  0.391530  0.180100  1.0  2.5552
  W  W78  1  0.408450  0.962520  0.179740  1.0  1.4386
  W  W79  1  0.476420  0.111230  0.396470  1.0  1.1772
  W  W80  1  0.438270  0.272370  0.397320  1.0  2.5251
  W  W81  1  0.269030  0.232890  0.181930  1.0  1.3193
  W  W82  1  0.539160  0.961730  0.178290  1.0  1.4439
  W  W83  1  0.457120  0.369030  0.105010  1.0  2.5255
  W  W84  1  0.354620  0.266880  0.104760  1.0  1.2576
  W  W85  1  0.395170  0.106700  0.104860  1.0  2.4469
  W  W86  1  0.312230  0.218800  0.324730  1.0  2.5581
  W  W87  1  0.549240  0.484540  0.178030  1.0  2.5955
  W  W88  1  0.353340  0.055580  0.322760  1.0  2.5456
  W  W89  1  0.579420  0.493190  0.320390  1.0  1.382
  W  W90  1  0.345620  0.382520  0.322880  1.0  1.4388
  W  W91  1  0.192950  0.568550  0.319750  1.0  1.3975
  W  W92  1  0.185270  0.891530  0.319900  1.0  2.5563
  W  W93  1  0.091550  0.462520  0.320260  1.0  1.4385
  W  W94  1  0.023580  0.611230  0.103530  1.0  1.1774
  W  W95  1  0.061730  0.772370  0.102680  1.0  2.528
  W  W96  1  0.230970  0.732890  0.318070  1.0  1.3231
  W  W97  1  0.960840  0.461730  0.321710  1.0  1.4394
  W  W98  1  0.042880  0.869030  0.394990  1.0  2.5252
  W  W99  1  0.145380  0.766880  0.395240  1.0  1.2556
  W  W100  1  0.104830  0.606700  0.395140  1.0  2.4443
  W  W101  1  0.187770  0.718800  0.175270  1.0  2.5587
  W  W102  1  0.950760  0.984540  0.321970  1.0  2.5957
  W  W103  1  0.146660  0.555580  0.177240  1.0  2.5518
  W  W104  1  0.920580  0.993190  0.179610  1.0  1.3825
  W  W105  1  0.154380  0.882520  0.177120  1.0  1.4402
  W  W106  1  0.692950  0.068550  0.319750  1.0  1.3975
  W  W107  1  0.685270  0.391530  0.319900  1.0  2.5563
  W  W108  1  0.591550  0.962520  0.320260  1.0  1.4385
  W  W109  1  0.523580  0.111230  0.103530  1.0  1.1774
  W  W110  1  0.561730  0.272370  0.102680  1.0  2.528
  W  W111  1  0.730970  0.232890  0.318070  1.0  1.3231
  W  W112  1  0.460840  0.961730  0.321710  1.0  1.4394
  W  W113  1  0.542880  0.369030  0.394990  1.0  2.5252
  W  W114  1  0.645380  0.266880  0.395240  1.0  1.2556
  W  W115  1  0.604830  0.106700  0.395140  1.0  2.4443
  W  W116  1  0.687770  0.218800  0.175270  1.0  2.5587
  W  W117  1  0.450760  0.484540  0.321970  1.0  2.5957
  W  W118  1  0.646660  0.055580  0.177240  1.0  2.5518
  W  W119  1  0.420580  0.493190  0.179610  1.0  1.3825
  W  W120  1  0.654380  0.382520  0.177120  1.0  1.4402
  W  W121  1  0.192950  0.431450  0.819750  1.0  1.4021
  W  W122  1  0.185270  0.108470  0.819900  1.0  2.5563
  W  W123  1  0.091550  0.537480  0.820260  1.0  1.445
  W  W124  1  0.023580  0.388770  0.603530  1.0  1.1757
  W  W125  1  0.061730  0.227630  0.602680  1.0  2.5274
  W  W126  1  0.230970  0.267110  0.818070  1.0  1.3232
  W  W127  1  0.960840  0.538270  0.821710  1.0  1.4495
  W  W128  1  0.042880  0.130970  0.894990  1.0  2.5249
  W  W129  1  0.145380  0.233120  0.895240  1.0  1.2554
  W  W130  1  0.104830  0.393300  0.895140  1.0  2.4446
  W  W131  1  0.187770  0.281200  0.675270  1.0  2.5591
  W  W132  1  0.950760  0.015460  0.821970  1.0  2.5954
  W  W133  1  0.146660  0.444420  0.677240  1.0  2.5517
  W  W134  1  0.920580  0.006810  0.679610  1.0  1.3798
  W  W135  1  0.154380  0.117480  0.677120  1.0  1.4336
  W  W136  1  0.692950  0.931450  0.819750  1.0  1.4021
  W  W137  1  0.685270  0.608470  0.819900  1.0  2.5563
  W  W138  1  0.591550  0.037480  0.820260  1.0  1.445
  W  W139  1  0.523580  0.888770  0.603530  1.0  1.1757
  W  W140  1  0.561730  0.727630  0.602680  1.0  2.5274
  W  W141  1  0.730970  0.767110  0.818070  1.0  1.3232
  W  W142  1  0.460840  0.038270  0.821710  1.0  1.4495
  W  W143  1  0.542880  0.630970  0.894990  1.0  2.5249
  W  W144  1  0.645380  0.733120  0.895240  1.0  1.2554
  W  W145  1  0.604830  0.893300  0.895140  1.0  2.4446
  W  W146  1  0.687770  0.781200  0.675270  1.0  2.5591
  W  W147  1  0.450760  0.515460  0.821970  1.0  2.5954
  W  W148  1  0.646660  0.944420  0.677240  1.0  2.5517
  W  W149  1  0.420580  0.506810  0.679610  1.0  1.3798
  W  W150  1  0.654380  0.617480  0.677120  1.0  1.4336
  W  W151  1  0.807050  0.431450  0.680250  1.0  1.4018
  W  W152  1  0.814730  0.108470  0.680100  1.0  2.5554
  W  W153  1  0.908450  0.537480  0.679740  1.0  1.4452
  W  W154  1  0.976420  0.388770  0.896470  1.0  1.1744
  W  W155  1  0.938270  0.227630  0.897320  1.0  2.5243
  W  W156  1  0.769030  0.267110  0.681930  1.0  1.3199
  W  W157  1  0.039160  0.538270  0.678290  1.0  1.4454
  W  W158  1  0.957120  0.130970  0.605010  1.0  2.5254
  W  W159  1  0.854620  0.233120  0.604760  1.0  1.2571
  W  W160  1  0.895170  0.393300  0.604860  1.0  2.4461
  W  W161  1  0.812230  0.281200  0.824730  1.0  2.5586
  W  W162  1  0.049240  0.015460  0.678030  1.0  2.5953
  W  W163  1  0.853340  0.444420  0.822760  1.0  2.547
  W  W164  1  0.079420  0.006810  0.820390  1.0  1.376
  W  W165  1  0.845620  0.117480  0.822880  1.0  1.4328
  W  W166  1  0.307050  0.931450  0.680250  1.0  1.4018
  W  W167  1  0.314730  0.608470  0.680100  1.0  2.5554
  W  W168  1  0.408450  0.037480  0.679740  1.0  1.4452
  W  W169  1  0.476420  0.888770  0.896470  1.0  1.1744
  W  W170  1  0.438270  0.727630  0.897320  1.0  2.5243
  W  W171  1  0.269030  0.767110  0.681930  1.0  1.3199
  W  W172  1  0.539160  0.038270  0.678290  1.0  1.4454
  W  W173  1  0.457120  0.630970  0.605010  1.0  2.5254
  W  W174  1  0.354620  0.733120  0.604760  1.0  1.2571
  W  W175  1  0.395170  0.893300  0.604860  1.0  2.4461
  W  W176  1  0.312230  0.781200  0.824730  1.0  2.5586
  W  W177  1  0.549240  0.515460  0.678030  1.0  2.5953
  W  W178  1  0.353340  0.944420  0.822760  1.0  2.547
  W  W179  1  0.579420  0.506810  0.820390  1.0  1.376
  W  W180  1  0.345620  0.617480  0.822880  1.0  1.4328
  C  C181  1  0.977000  0.024800  0.997000  1.0  0.5521
  C  C182  1  0.477000  0.524800  0.997000  1.0  0.5521
  C  C183  1  0.023000  0.024800  0.503000  1.0  0.5532
  C  C184  1  0.523000  0.524800  0.503000  1.0  0.5532
  C  C185  1  0.023000  0.975200  0.003000  1.0  0.5536
  C  C186  1  0.523000  0.475200  0.003000  1.0  0.5536
  C  C187  1  0.977000  0.975200  0.497000  1.0  0.5526
  C  C188  1  0.477000  0.475200  0.497000  1.0  0.5526
  O  O189  1  0.898900  0.760900  0.197500  1.0  -0.9029
  O  O190  1  0.806100  0.730300  0.130300  1.0  -0.7859
  O  O191  1  0.834600  0.843200  0.131100  1.0  -0.8018
  O  O192  1  0.912300  0.808400  0.101600  1.0  -0.8743
  O  O193  1  0.882300  0.691100  0.100300  1.0  -0.8686
  O  O194  1  0.957900  0.623600  0.100400  1.0  -0.8794
  O  O195  1  0.864900  0.590600  0.032800  1.0  -0.8171
  O  O196  1  0.931100  0.627000  0.196200  1.0  -0.8923
  O  O197  1  0.839100  0.596900  0.129100  1.0  -0.8069
  O  O198  1  0.912500  0.525400  0.129500  1.0  -0.8367
  O  O199  1  0.041800  0.926100  0.249700  1.0  -0.8139
  O  O200  1  0.908300  0.597200  0.372700  1.0  -0.7988
  O  O201  1  0.875800  0.730900  0.373900  1.0  -0.7898
  O  O202  1  0.978700  0.448300  0.184500  1.0  -0.7483
  O  O203  1  0.946100  0.529500  0.250800  1.0  -0.8177
  O  O204  1  0.826400  0.524600  0.369400  1.0  -0.8294
  O  O205  1  0.011000  0.927400  0.128900  1.0  -0.7934
  O  O206  1  0.869100  0.840600  0.250000  1.0  -0.8255
  O  O207  1  0.782100  0.641800  0.187300  1.0  -0.7668
  O  O208  1  0.776100  0.815200  0.185100  1.0  -0.8156
  O  O209  1  0.983300  0.012500  0.182100  1.0  -0.7895
  O  O210  1  0.980500  0.527800  0.370500  1.0  -0.7394
  O  O211  1  0.802700  0.538800  0.251800  1.0  -0.7786
  O  O212  1  0.105700  0.947500  0.183200  1.0  -0.7845
  O  O213  1  0.804200  0.914300  0.250600  1.0  -0.7879
  O  O214  1  0.968000  0.695400  0.399600  1.0  -0.8895
  O  O215  1  0.079900  0.927700  0.371100  1.0  -0.809
  O  O216  1  0.925900  0.420400  0.251700  1.0  -0.7029
  O  O217  1  0.075500  0.030400  0.249200  1.0  -0.7347
  O  O218  1  0.757100  0.725100  0.254000  1.0  -0.7542
  O  O219  1  0.812800  0.812000  0.319500  1.0  -0.7841
  O  O220  1  0.860400  0.950300  0.185600  1.0  -0.8331
  O  O221  1  0.943700  0.776900  0.469000  1.0  -0.8413
  O  O222  1  0.936000  0.890000  0.032700  1.0  -0.8472
  O  O223  1  0.893300  0.493700  0.318100  1.0  -0.8412
  O  O224  1  0.015600  0.845600  0.304000  1.0  -0.8839
  O  O225  1  0.903200  0.845000  0.372300  1.0  -0.7946
  O  O226  1  0.851400  0.492800  0.183600  1.0  -0.7671
  O  O227  1  0.003100  0.809400  0.099300  1.0  -0.8453
  O  O228  1  0.875900  0.596900  0.252500  1.0  -0.8182
  O  O229  1  0.962800  0.630800  0.304300  1.0  -0.778
  O  O230  1  0.051100  0.044800  0.132400  1.0  -0.8548
  O  O231  1  0.779200  0.720800  0.372000  1.0  -0.8517
  O  O232  1  0.935300  0.002600  0.972100  1.0  -0.6013
  O  O233  1  0.763100  0.925300  0.133400  1.0  -0.8443
  O  O234  1  0.819500  0.638000  0.318000  1.0  -0.7859
  O  O235  1  0.992500  0.073000  0.018800  1.0  -0.5635
  O  O236  1  0.843300  0.733600  0.252900  1.0  -0.8383
  O  O237  1  0.931200  0.763000  0.305400  1.0  -0.8951
  O  O238  1  0.964300  0.811900  0.948500  1.0  -0.622
  O  O239  1  0.398900  0.260900  0.197500  1.0  -0.9029
  O  O240  1  0.306100  0.230300  0.130300  1.0  -0.7859
  O  O241  1  0.334600  0.343200  0.131100  1.0  -0.8018
  O  O242  1  0.412300  0.308400  0.101600  1.0  -0.8743
  O  O243  1  0.382300  0.191100  0.100300  1.0  -0.8686
  O  O244  1  0.457900  0.123600  0.100400  1.0  -0.8794
  O  O245  1  0.364900  0.090600  0.032800  1.0  -0.8171
  O  O246  1  0.431100  0.127000  0.196200  1.0  -0.8923
  O  O247  1  0.339100  0.096900  0.129100  1.0  -0.8069
  O  O248  1  0.412500  0.025400  0.129500  1.0  -0.8367
  O  O249  1  0.541800  0.426100  0.249700  1.0  -0.8139
  O  O250  1  0.408300  0.097200  0.372700  1.0  -0.7988
  O  O251  1  0.375800  0.230900  0.373900  1.0  -0.7898
  O  O252  1  0.478700  0.948300  0.184500  1.0  -0.7483
  O  O253  1  0.446100  0.029500  0.250800  1.0  -0.8177
  O  O254  1  0.326400  0.024600  0.369400  1.0  -0.8294
  O  O255  1  0.511000  0.427400  0.128900  1.0  -0.7934
  O  O256  1  0.369100  0.340600  0.250000  1.0  -0.8255
  O  O257  1  0.282100  0.141800  0.187300  1.0  -0.7668
  O  O258  1  0.276100  0.315200  0.185100  1.0  -0.8156
  O  O259  1  0.483300  0.512500  0.182100  1.0  -0.7895
  O  O260  1  0.480500  0.027800  0.370500  1.0  -0.7394
  O  O261  1  0.302700  0.038800  0.251800  1.0  -0.7786
  O  O262  1  0.605700  0.447500  0.183200  1.0  -0.7845
  O  O263  1  0.304200  0.414300  0.250600  1.0  -0.7879
  O  O264  1  0.468000  0.195400  0.399600  1.0  -0.8895
  O  O265  1  0.579900  0.427700  0.371100  1.0  -0.809
  O  O266  1  0.425900  0.920400  0.251700  1.0  -0.7029
  O  O267  1  0.575500  0.530400  0.249200  1.0  -0.7347
  O  O268  1  0.257100  0.225100  0.254000  1.0  -0.7542
  O  O269  1  0.312800  0.312000  0.319500  1.0  -0.7841
  O  O270  1  0.360400  0.450300  0.185600  1.0  -0.8331
  O  O271  1  0.443700  0.276900  0.469000  1.0  -0.8413
  O  O272  1  0.436000  0.390000  0.032700  1.0  -0.8472
  O  O273  1  0.393300  0.993700  0.318100  1.0  -0.8412
  O  O274  1  0.515600  0.345600  0.304000  1.0  -0.8839
  O  O275  1  0.403200  0.345000  0.372300  1.0  -0.7946
  O  O276  1  0.351400  0.992800  0.183600  1.0  -0.7671
  O  O277  1  0.503100  0.309400  0.099300  1.0  -0.8453
  O  O278  1  0.375900  0.096900  0.252500  1.0  -0.8182
  O  O279  1  0.462800  0.130800  0.304300  1.0  -0.778
  O  O280  1  0.551100  0.544800  0.132400  1.0  -0.8548
  O  O281  1  0.279200  0.220800  0.372000  1.0  -0.8517
  O  O282  1  0.435300  0.502600  0.972100  1.0  -0.6013
  O  O283  1  0.263100  0.425300  0.133400  1.0  -0.8443
  O  O284  1  0.319500  0.138000  0.318000  1.0  -0.7859
  O  O285  1  0.492500  0.573000  0.018800  1.0  -0.5635
  O  O286  1  0.343300  0.233600  0.252900  1.0  -0.8383
  O  O287  1  0.431200  0.263000  0.305400  1.0  -0.8951
  O  O288  1  0.464300  0.311900  0.948500  1.0  -0.622
  O  O289  1  0.101100  0.760900  0.302500  1.0  -0.9038
  O  O290  1  0.193900  0.730300  0.369700  1.0  -0.7852
  O  O291  1  0.165400  0.843200  0.368900  1.0  -0.8002
  O  O292  1  0.087700  0.808400  0.398400  1.0  -0.8719
  O  O293  1  0.117700  0.691100  0.399700  1.0  -0.8636
  O  O294  1  0.042100  0.623600  0.399600  1.0  -0.8751
  O  O295  1  0.135100  0.590600  0.467200  1.0  -0.8176
  O  O296  1  0.068900  0.627000  0.303800  1.0  -0.8948
  O  O297  1  0.160900  0.596900  0.370900  1.0  -0.8069
  O  O298  1  0.087500  0.525400  0.370500  1.0  -0.838
  O  O299  1  0.958200  0.926100  0.250300  1.0  -0.8136
  O  O300  1  0.091700  0.597200  0.127300  1.0  -0.8071
  O  O301  1  0.124200  0.730900  0.126100  1.0  -0.7902
  O  O302  1  0.021300  0.448300  0.315500  1.0  -0.7485
  O  O303  1  0.053900  0.529500  0.249200  1.0  -0.818
  O  O304  1  0.173600  0.524600  0.130600  1.0  -0.8279
  O  O305  1  0.989000  0.927400  0.371100  1.0  -0.7923
  O  O306  1  0.130900  0.840600  0.250000  1.0  -0.8259
  O  O307  1  0.217900  0.641800  0.312700  1.0  -0.766
  O  O308  1  0.223900  0.815200  0.314900  1.0  -0.8077
  O  O309  1  0.016700  0.012500  0.317900  1.0  -0.7884
  O  O310  1  0.019500  0.527800  0.129500  1.0  -0.7382
  O  O311  1  0.197300  0.538800  0.248200  1.0  -0.7789
  O  O312  1  0.894300  0.947500  0.316800  1.0  -0.7847
  O  O313  1  0.195800  0.914300  0.249400  1.0  -0.7891
  O  O314  1  0.032000  0.695400  0.100400  1.0  -0.8903
  O  O315  1  0.920100  0.927700  0.128900  1.0  -0.8108
  O  O316  1  0.074100  0.420400  0.248300  1.0  -0.7021
  O  O317  1  0.924500  0.030400  0.250800  1.0  -0.7334
  O  O318  1  0.242900  0.725100  0.246000  1.0  -0.7582
  O  O319  1  0.187200  0.812000  0.180500  1.0  -0.7823
  O  O320  1  0.139600  0.950300  0.314400  1.0  -0.8319
  O  O321  1  0.056300  0.776900  0.031000  1.0  -0.8532
  O  O322  1  0.064000  0.890000  0.467300  1.0  -0.8442
  O  O323  1  0.106700  0.493700  0.181900  1.0  -0.8394
  O  O324  1  0.984400  0.845600  0.196000  1.0  -0.8823
  O  O325  1  0.096800  0.845000  0.127700  1.0  -0.793
  O  O326  1  0.148600  0.492800  0.316400  1.0  -0.7667
  O  O327  1  0.996900  0.809400  0.400700  1.0  -0.8445
  O  O328  1  0.124100  0.596900  0.247500  1.0  -0.8192
  O  O329  1  0.037200  0.630800  0.195700  1.0  -0.776
  O  O330  1  0.948900  0.044800  0.367600  1.0  -0.8548
  O  O331  1  0.220800  0.720800  0.128000  1.0  -0.8509
  O  O332  1  0.064700  0.002600  0.527900  1.0  -0.6028
  O  O333  1  0.236900  0.925300  0.366600  1.0  -0.8442
  O  O334  1  0.180500  0.638000  0.182000  1.0  -0.7841
  O  O335  1  0.007500  0.073000  0.481200  1.0  -0.5647
  O  O336  1  0.156700  0.733600  0.247100  1.0  -0.839
  O  O337  1  0.068800  0.763000  0.194600  1.0  -0.8941
  O  O338  1  0.035700  0.811900  0.551500  1.0  -0.6246
  O  O339  1  0.601100  0.260900  0.302500  1.0  -0.9038
  O  O340  1  0.693900  0.230300  0.369700  1.0  -0.7852
  O  O341  1  0.665400  0.343200  0.368900  1.0  -0.8002
  O  O342  1  0.587700  0.308400  0.398400  1.0  -0.8719
  O  O343  1  0.617700  0.191100  0.399700  1.0  -0.8636
  O  O344  1  0.542100  0.123600  0.399600  1.0  -0.8751
  O  O345  1  0.635100  0.090600  0.467200  1.0  -0.8176
  O  O346  1  0.568900  0.127000  0.303800  1.0  -0.8948
  O  O347  1  0.660900  0.096900  0.370900  1.0  -0.8069
  O  O348  1  0.587500  0.025400  0.370500  1.0  -0.838
  O  O349  1  0.458200  0.426100  0.250300  1.0  -0.8136
  O  O350  1  0.591700  0.097200  0.127300  1.0  -0.8071
  O  O351  1  0.624200  0.230900  0.126100  1.0  -0.7902
  O  O352  1  0.521300  0.948300  0.315500  1.0  -0.7485
  O  O353  1  0.553900  0.029500  0.249200  1.0  -0.818
  O  O354  1  0.673600  0.024600  0.130600  1.0  -0.8279
  O  O355  1  0.489000  0.427400  0.371100  1.0  -0.7923
  O  O356  1  0.630900  0.340600  0.250000  1.0  -0.8259
  O  O357  1  0.717900  0.141800  0.312700  1.0  -0.766
  O  O358  1  0.723900  0.315200  0.314900  1.0  -0.8077
  O  O359  1  0.516700  0.512500  0.317900  1.0  -0.7884
  O  O360  1  0.519500  0.027800  0.129500  1.0  -0.7382
  O  O361  1  0.697300  0.038800  0.248200  1.0  -0.7789
  O  O362  1  0.394300  0.447500  0.316800  1.0  -0.7847
  O  O363  1  0.695800  0.414300  0.249400  1.0  -0.7891
  O  O364  1  0.532000  0.195400  0.100400  1.0  -0.8903
  O  O365  1  0.420100  0.427700  0.128900  1.0  -0.8108
  O  O366  1  0.574100  0.920400  0.248300  1.0  -0.7021
  O  O367  1  0.424500  0.530400  0.250800  1.0  -0.7334
  O  O368  1  0.742900  0.225100  0.246000  1.0  -0.7582
  O  O369  1  0.687200  0.312000  0.180500  1.0  -0.7823
  O  O370  1  0.639600  0.450300  0.314400  1.0  -0.8319
  O  O371  1  0.556300  0.276900  0.031000  1.0  -0.8532
  O  O372  1  0.564000  0.390000  0.467300  1.0  -0.8442
  O  O373  1  0.606700  0.993700  0.181900  1.0  -0.8394
  O  O374  1  0.484400  0.345600  0.196000  1.0  -0.8823
  O  O375  1  0.596800  0.345000  0.127700  1.0  -0.793
  O  O376  1  0.648600  0.992800  0.316400  1.0  -0.7667
  O  O377  1  0.496900  0.309400  0.400700  1.0  -0.8445
  O  O378  1  0.624100  0.096900  0.247500  1.0  -0.8192
  O  O379  1  0.537200  0.130800  0.195700  1.0  -0.776
  O  O380  1  0.448900  0.544800  0.367600  1.0  -0.8548
  O  O381  1  0.720800  0.220800  0.128000  1.0  -0.8509
  O  O382  1  0.564700  0.502600  0.527900  1.0  -0.6028
  O  O383  1  0.736900  0.425300  0.366600  1.0  -0.8442
  O  O384  1  0.680500  0.138000  0.182000  1.0  -0.7841
  O  O385  1  0.507500  0.573000  0.481200  1.0  -0.5647
  O  O386  1  0.656700  0.233600  0.247100  1.0  -0.839
  O  O387  1  0.568800  0.263000  0.194600  1.0  -0.8941
  O  O388  1  0.535700  0.311900  0.551500  1.0  -0.6246
  O  O389  1  0.101100  0.239100  0.802500  1.0  -0.9038
  O  O390  1  0.193900  0.269700  0.869700  1.0  -0.7852
  O  O391  1  0.165400  0.156800  0.868900  1.0  -0.8008
  O  O392  1  0.087700  0.191600  0.898400  1.0  -0.8713
  O  O393  1  0.117700  0.308900  0.899700  1.0  -0.8642
  O  O394  1  0.042100  0.376400  0.899600  1.0  -0.8752
  O  O395  1  0.135100  0.409400  0.967200  1.0  -0.8178
  O  O396  1  0.068900  0.373000  0.803800  1.0  -0.8959
  O  O397  1  0.160900  0.403100  0.870900  1.0  -0.8067
  O  O398  1  0.087500  0.474600  0.870500  1.0  -0.8396
  O  O399  1  0.958200  0.073900  0.750300  1.0  -0.8139
  O  O400  1  0.091700  0.402800  0.627300  1.0  -0.8078
  O  O401  1  0.124200  0.269100  0.626100  1.0  -0.7909
  O  O402  1  0.021300  0.551700  0.815500  1.0  -0.7502
  O  O403  1  0.053900  0.470500  0.749200  1.0  -0.8173
  O  O404  1  0.173600  0.475400  0.630600  1.0  -0.8286
  O  O405  1  0.989000  0.072600  0.871100  1.0  -0.7927
  O  O406  1  0.130900  0.159400  0.750000  1.0  -0.8265
  O  O407  1  0.217900  0.358200  0.812700  1.0  -0.7664
  O  O408  1  0.223900  0.184800  0.814900  1.0  -0.8066
  O  O409  1  0.016700  0.987500  0.817900  1.0  -0.7903
  O  O410  1  0.019500  0.472200  0.629500  1.0  -0.7385
  O  O411  1  0.197300  0.461200  0.748200  1.0  -0.7793
  O  O412  1  0.894300  0.052500  0.816800  1.0  -0.7829
  O  O413  1  0.195800  0.085700  0.749400  1.0  -0.7879
  O  O414  1  0.032000  0.304600  0.600400  1.0  -0.8909
  O  O415  1  0.920100  0.072300  0.628900  1.0  -0.8105
  O  O416  1  0.074100  0.579600  0.748300  1.0  -0.6924
  O  O417  1  0.924500  0.969600  0.750800  1.0  -0.7412
  O  O418  1  0.242900  0.274900  0.746000  1.0  -0.7585
  O  O419  1  0.187200  0.188000  0.680500  1.0  -0.7827
  O  O420  1  0.139600  0.049700  0.814400  1.0  -0.8299
  O  O421  1  0.056300  0.223100  0.531000  1.0  -0.8537
  O  O422  1  0.064000  0.110000  0.967300  1.0  -0.8445
  O  O423  1  0.106700  0.506300  0.681900  1.0  -0.8434
  O  O424  1  0.984400  0.154400  0.696000  1.0  -0.8821
  O  O425  1  0.096800  0.155000  0.627700  1.0  -0.791
  O  O426  1  0.148600  0.507200  0.816400  1.0  -0.7668
  O  O427  1  0.996900  0.190600  0.900700  1.0  -0.8446
  O  O428  1  0.124100  0.403100  0.747500  1.0  -0.8191
  O  O429  1  0.037200  0.369200  0.695700  1.0  -0.7765
  O  O430  1  0.948900  0.955200  0.867600  1.0  -0.8566
  O  O431  1  0.220800  0.279200  0.628000  1.0  -0.8509
  O  O432  1  0.064700  0.997400  0.027900  1.0  -0.6033
  O  O433  1  0.236900  0.074700  0.866600  1.0  -0.8452
  O  O434  1  0.180500  0.362000  0.682000  1.0  -0.7842
  O  O435  1  0.007500  0.927000  0.981200  1.0  -0.5641
  O  O436  1  0.156700  0.266400  0.747100  1.0  -0.8385
  O  O437  1  0.068800  0.237000  0.694600  1.0  -0.8935
  O  O438  1  0.035700  0.188100  0.051500  1.0  -0.625
  O  O439  1  0.601100  0.739100  0.802500  1.0  -0.9038
  O  O440  1  0.693900  0.769700  0.869700  1.0  -0.7852
  O  O441  1  0.665400  0.656800  0.868900  1.0  -0.8008
  O  O442  1  0.587700  0.691600  0.898400  1.0  -0.8713
  O  O443  1  0.617700  0.808900  0.899700  1.0  -0.8642
  O  O444  1  0.542100  0.876400  0.899600  1.0  -0.8752
  O  O445  1  0.635100  0.909400  0.967200  1.0  -0.8178
  O  O446  1  0.568900  0.873000  0.803800  1.0  -0.8959
  O  O447  1  0.660900  0.903100  0.870900  1.0  -0.8067
  O  O448  1  0.587500  0.974600  0.870500  1.0  -0.8396
  O  O449  1  0.458200  0.573900  0.750300  1.0  -0.8139
  O  O450  1  0.591700  0.902800  0.627300  1.0  -0.8078
  O  O451  1  0.624200  0.769100  0.626100  1.0  -0.7909
  O  O452  1  0.521300  0.051700  0.815500  1.0  -0.7502
  O  O453  1  0.553900  0.970500  0.749200  1.0  -0.8173
  O  O454  1  0.673600  0.975400  0.630600  1.0  -0.8286
  O  O455  1  0.489000  0.572600  0.871100  1.0  -0.7927
  O  O456  1  0.630900  0.659400  0.750000  1.0  -0.8265
  O  O457  1  0.717900  0.858200  0.812700  1.0  -0.7664
  O  O458  1  0.723900  0.684800  0.814900  1.0  -0.8066
  O  O459  1  0.516700  0.487500  0.817900  1.0  -0.7903
  O  O460  1  0.519500  0.972200  0.629500  1.0  -0.7385
  O  O461  1  0.697300  0.961200  0.748200  1.0  -0.7793
  O  O462  1  0.394300  0.552500  0.816800  1.0  -0.7829
  O  O463  1  0.695800  0.585700  0.749400  1.0  -0.7879
  O  O464  1  0.532000  0.804600  0.600400  1.0  -0.8909
  O  O465  1  0.420100  0.572300  0.628900  1.0  -0.8105
  O  O466  1  0.574100  0.079600  0.748300  1.0  -0.6924
  O  O467  1  0.424500  0.469600  0.750800  1.0  -0.7412
  O  O468  1  0.742900  0.774900  0.746000  1.0  -0.7585
  O  O469  1  0.687200  0.688000  0.680500  1.0  -0.7827
  O  O470  1  0.639600  0.549700  0.814400  1.0  -0.8299
  O  O471  1  0.556300  0.723100  0.531000  1.0  -0.8537
  O  O472  1  0.564000  0.610000  0.967300  1.0  -0.8445
  O  O473  1  0.606700  0.006300  0.681900  1.0  -0.8434
  O  O474  1  0.484400  0.654400  0.696000  1.0  -0.8821
  O  O475  1  0.596800  0.655000  0.627700  1.0  -0.791
  O  O476  1  0.648600  0.007200  0.816400  1.0  -0.7668
  O  O477  1  0.496900  0.690600  0.900700  1.0  -0.8446
  O  O478  1  0.624100  0.903100  0.747500  1.0  -0.8191
  O  O479  1  0.537200  0.869200  0.695700  1.0  -0.7765
  O  O480  1  0.448900  0.455200  0.867600  1.0  -0.8566
  O  O481  1  0.720800  0.779200  0.628000  1.0  -0.8509
  O  O482  1  0.564700  0.497400  0.027900  1.0  -0.6033
  O  O483  1  0.736900  0.574700  0.866600  1.0  -0.8452
  O  O484  1  0.680500  0.862000  0.682000  1.0  -0.7842
  O  O485  1  0.507500  0.427000  0.981200  1.0  -0.5641
  O  O486  1  0.656700  0.766400  0.747100  1.0  -0.8385
  O  O487  1  0.568800  0.737000  0.694600  1.0  -0.8935
  O  O488  1  0.535700  0.688100  0.051500  1.0  -0.625
  O  O489  1  0.898900  0.239100  0.697500  1.0  -0.9025
  O  O490  1  0.806100  0.269700  0.630300  1.0  -0.7864
  O  O491  1  0.834600  0.156800  0.631100  1.0  -0.8018
  O  O492  1  0.912300  0.191600  0.601600  1.0  -0.8738
  O  O493  1  0.882300  0.308900  0.600300  1.0  -0.8689
  O  O494  1  0.957900  0.376400  0.600400  1.0  -0.8803
  O  O495  1  0.864900  0.409400  0.532800  1.0  -0.817
  O  O496  1  0.931100  0.373000  0.696200  1.0  -0.8937
  O  O497  1  0.839100  0.403100  0.629100  1.0  -0.8069
  O  O498  1  0.912500  0.474600  0.629500  1.0  -0.8421
  O  O499  1  0.041800  0.073900  0.749700  1.0  -0.814
  O  O500  1  0.908300  0.402800  0.872700  1.0  -0.7988
  O  O501  1  0.875800  0.269100  0.873900  1.0  -0.7891
  O  O502  1  0.978700  0.551700  0.684500  1.0  -0.752
  O  O503  1  0.946100  0.470500  0.750800  1.0  -0.8161
  O  O504  1  0.826400  0.475400  0.869400  1.0  -0.8293
  O  O505  1  0.011000  0.072600  0.628900  1.0  -0.7932
  O  O506  1  0.869100  0.159400  0.750000  1.0  -0.8258
  O  O507  1  0.782100  0.358200  0.687300  1.0  -0.767
  O  O508  1  0.776100  0.184800  0.685100  1.0  -0.8138
  O  O509  1  0.983300  0.987500  0.682100  1.0  -0.7901
  O  O510  1  0.980500  0.472200  0.870500  1.0  -0.7358
  O  O511  1  0.802700  0.461200  0.751800  1.0  -0.7791
  O  O512  1  0.105700  0.052500  0.683200  1.0  -0.7827
  O  O513  1  0.804200  0.085700  0.750600  1.0  -0.7894
  O  O514  1  0.968000  0.304600  0.899600  1.0  -0.8889
  O  O515  1  0.079900  0.072300  0.871100  1.0  -0.807
  O  O516  1  0.925900  0.579600  0.751700  1.0  -0.6916
  O  O517  1  0.075500  0.969600  0.749200  1.0  -0.7417
  O  O518  1  0.757100  0.274900  0.754000  1.0  -0.7545
  O  O519  1  0.812800  0.188000  0.819500  1.0  -0.785
  O  O520  1  0.860400  0.049700  0.685600  1.0  -0.8316
  O  O521  1  0.943700  0.223100  0.969000  1.0  -0.8416
  O  O522  1  0.936000  0.110000  0.532700  1.0  -0.8472
  O  O523  1  0.893300  0.506300  0.818100  1.0  -0.8428
  O  O524  1  0.015600  0.154400  0.804000  1.0  -0.8838
  O  O525  1  0.903200  0.155000  0.872300  1.0  -0.7904
  O  O526  1  0.851400  0.507200  0.683600  1.0  -0.7679
  O  O527  1  0.003100  0.190600  0.599300  1.0  -0.8449
  O  O528  1  0.875900  0.403100  0.752500  1.0  -0.8182
  O  O529  1  0.962800  0.369200  0.804300  1.0  -0.7788
  O  O530  1  0.051100  0.955200  0.632400  1.0  -0.8567
  O  O531  1  0.779200  0.279200  0.872000  1.0  -0.8519
  O  O532  1  0.935300  0.997400  0.472100  1.0  -0.6014
  O  O533  1  0.763100  0.074700  0.633400  1.0  -0.8433
  O  O534  1  0.819500  0.362000  0.818000  1.0  -0.7864
  O  O535  1  0.992500  0.927000  0.518800  1.0  -0.5631
  O  O536  1  0.843300  0.266400  0.752900  1.0  -0.8382
  O  O537  1  0.931200  0.237000  0.805400  1.0  -0.8946
  O  O538  1  0.964300  0.188100  0.448500  1.0  -0.624
  O  O539  1  0.398900  0.739100  0.697500  1.0  -0.9025
  O  O540  1  0.306100  0.769700  0.630300  1.0  -0.7864
  O  O541  1  0.334600  0.656800  0.631100  1.0  -0.8018
  O  O542  1  0.412300  0.691600  0.601600  1.0  -0.8738
  O  O543  1  0.382300  0.808900  0.600300  1.0  -0.8689
  O  O544  1  0.457900  0.876400  0.600400  1.0  -0.8803
  O  O545  1  0.364900  0.909400  0.532800  1.0  -0.817
  O  O546  1  0.431100  0.873000  0.696200  1.0  -0.8937
  O  O547  1  0.339100  0.903100  0.629100  1.0  -0.8069
  O  O548  1  0.412500  0.974600  0.629500  1.0  -0.8421
  O  O549  1  0.541800  0.573900  0.749700  1.0  -0.814
  O  O550  1  0.408300  0.902800  0.872700  1.0  -0.7988
  O  O551  1  0.375800  0.769100  0.873900  1.0  -0.7891
  O  O552  1  0.478700  0.051700  0.684500  1.0  -0.752
  O  O553  1  0.446100  0.970500  0.750800  1.0  -0.8161
  O  O554  1  0.326400  0.975400  0.869400  1.0  -0.8293
  O  O555  1  0.511000  0.572600  0.628900  1.0  -0.7932
  O  O556  1  0.369100  0.659400  0.750000  1.0  -0.8258
  O  O557  1  0.282100  0.858200  0.687300  1.0  -0.767
  O  O558  1  0.276100  0.684800  0.685100  1.0  -0.8138
  O  O559  1  0.483300  0.487500  0.682100  1.0  -0.7901
  O  O560  1  0.480500  0.972200  0.870500  1.0  -0.7358
  O  O561  1  0.302700  0.961200  0.751800  1.0  -0.7791
  O  O562  1  0.605700  0.552500  0.683200  1.0  -0.7827
  O  O563  1  0.304200  0.585700  0.750600  1.0  -0.7894
  O  O564  1  0.468000  0.804600  0.899600  1.0  -0.8889
  O  O565  1  0.579900  0.572300  0.871100  1.0  -0.807
  O  O566  1  0.425900  0.079600  0.751700  1.0  -0.6916
  O  O567  1  0.575500  0.469600  0.749200  1.0  -0.7417
  O  O568  1  0.257100  0.774900  0.754000  1.0  -0.7545
  O  O569  1  0.312800  0.688000  0.819500  1.0  -0.785
  O  O570  1  0.360400  0.549700  0.685600  1.0  -0.8316
  O  O571  1  0.443700  0.723100  0.969000  1.0  -0.8416
  O  O572  1  0.436000  0.610000  0.532700  1.0  -0.8472
  O  O573  1  0.393300  0.006300  0.818100  1.0  -0.8428
  O  O574  1  0.515600  0.654400  0.804000  1.0  -0.8838
  O  O575  1  0.403200  0.655000  0.872300  1.0  -0.7904
  O  O576  1  0.351400  0.007200  0.683600  1.0  -0.7679
  O  O577  1  0.503100  0.690600  0.599300  1.0  -0.8449
  O  O578  1  0.375900  0.903100  0.752500  1.0  -0.8182
  O  O579  1  0.462800  0.869200  0.804300  1.0  -0.7788
  O  O580  1  0.551100  0.455200  0.632400  1.0  -0.8567
  O  O581  1  0.279200  0.779200  0.872000  1.0  -0.8519
  O  O582  1  0.435300  0.497400  0.472100  1.0  -0.6014
  O  O583  1  0.263100  0.574700  0.633400  1.0  -0.8433
  O  O584  1  0.319500  0.862000  0.818000  1.0  -0.7864
  O  O585  1  0.492500  0.427000  0.518800  1.0  -0.5631
  O  O586  1  0.343300  0.766400  0.752900  1.0  -0.8382
  O  O587  1  0.431200  0.737000  0.805400  1.0  -0.8946
  O  O588  1  0.464300  0.688100  0.448500  1.0  -0.624
