# generated using pymatgen
data_CoH5C10N5(ClO)2
_symmetry_space_group_name_H-M   'P 1'
_cell_length_a   26.11300000
_cell_length_b   26.11300000
_cell_length_c   19.64590000
_cell_angle_alpha   90.00000000
_cell_angle_beta   90.00000000
_cell_angle_gamma   120.00000000
_symmetry_Int_Tables_number   1
_chemical_formula_structural   CoH5C10N5(ClO)2
_chemical_formula_sum   'Co24 H120 C240 N120 Cl48 O48'
_cell_volume   11601.55219612
_cell_formula_units_Z   24
loop_
 _symmetry_equiv_pos_site_id
 _symmetry_equiv_pos_as_xyz
  1  'x, y, z'
loop_
 _atom_site_type_symbol
 _atom_site_label
 _atom_site_symmetry_multiplicity
 _atom_site_fract_x
 _atom_site_fract_y
 _atom_site_fract_z
 _atom_site_occupancy
 _atom_site_charge
  Co  Co1  1  0.667160  0.102610  0.401790  1.0  0.8805
  Co  Co2  1  0.897390  0.564550  0.401790  1.0  0.8793
  Co  Co3  1  0.435450  0.332840  0.401790  1.0  0.879
  Co  Co4  1  0.332840  0.897390  0.901790  1.0  0.879
  Co  Co5  1  0.102610  0.435450  0.901790  1.0  0.8796
  Co  Co6  1  0.564550  0.667160  0.901790  1.0  0.8804
  Co  Co7  1  0.102610  0.667160  0.598210  1.0  0.8791
  Co  Co8  1  0.564550  0.897390  0.598210  1.0  0.8805
  Co  Co9  1  0.332840  0.435450  0.598210  1.0  0.8796
  Co  Co10  1  0.897390  0.332840  0.098210  1.0  0.8806
  Co  Co11  1  0.435450  0.102610  0.098210  1.0  0.8794
  Co  Co12  1  0.667160  0.564550  0.098210  1.0  0.8798
  Co  Co13  1  0.332840  0.897390  0.598210  1.0  0.8792
  Co  Co14  1  0.102610  0.435450  0.598210  1.0  0.8798
  Co  Co15  1  0.564550  0.667160  0.598210  1.0  0.8806
  Co  Co16  1  0.667160  0.102610  0.098210  1.0  0.8806
  Co  Co17  1  0.897390  0.564550  0.098210  1.0  0.8796
  Co  Co18  1  0.435450  0.332840  0.098210  1.0  0.8792
  Co  Co19  1  0.897390  0.332840  0.401790  1.0  0.8805
  Co  Co20  1  0.435450  0.102610  0.401790  1.0  0.8792
  Co  Co21  1  0.667160  0.564550  0.401790  1.0  0.8795
  Co  Co22  1  0.102610  0.667160  0.901790  1.0  0.8789
  Co  Co23  1  0.564550  0.897390  0.901790  1.0  0.8803
  Co  Co24  1  0.332840  0.435450  0.901790  1.0  0.8793
  H  H25  1  0.681100  0.003700  0.312100  1.0  0.1077
  H  H26  1  0.640000  0.183300  0.501500  1.0  0.1073
  H  H27  1  0.698900  0.120300  0.565000  1.0  0.1232
  H  H28  1  0.776100  0.075900  0.418100  1.0  0.1313
  H  H29  1  0.996300  0.677400  0.312100  1.0  0.1079
  H  H30  1  0.816700  0.456700  0.501500  1.0  0.1078
  H  H31  1  0.879700  0.578600  0.565000  1.0  0.1232
  H  H32  1  0.924100  0.700200  0.418100  1.0  0.1315
  H  H33  1  0.322600  0.318900  0.312100  1.0  0.1081
  H  H34  1  0.543300  0.360000  0.501500  1.0  0.1067
  H  H35  1  0.421400  0.301100  0.565000  1.0  0.1238
  H  H36  1  0.299800  0.223900  0.418100  1.0  0.1327
  H  H37  1  0.318900  0.996300  0.812100  1.0  0.1073
  H  H38  1  0.360000  0.816700  0.001500  1.0  0.1074
  H  H39  1  0.301100  0.879700  0.065000  1.0  0.1231
  H  H40  1  0.223900  0.924100  0.918100  1.0  0.1311
  H  H41  1  0.003700  0.322600  0.812100  1.0  0.1091
  H  H42  1  0.183300  0.543300  0.001500  1.0  0.1072
  H  H43  1  0.120300  0.421400  0.065000  1.0  0.1223
  H  H44  1  0.075900  0.299800  0.918100  1.0  0.1326
  H  H45  1  0.677400  0.681100  0.812100  1.0  0.1079
  H  H46  1  0.456700  0.640000  0.001500  1.0  0.1073
  H  H47  1  0.578600  0.698900  0.065000  1.0  0.1237
  H  H48  1  0.700200  0.776100  0.918100  1.0  0.1335
  H  H49  1  0.003700  0.681100  0.687900  1.0  0.1087
  H  H50  1  0.183300  0.640000  0.498500  1.0  0.1066
  H  H51  1  0.120300  0.698900  0.435000  1.0  0.1232
  H  H52  1  0.075900  0.776100  0.581900  1.0  0.133
  H  H53  1  0.677400  0.996300  0.687900  1.0  0.1072
  H  H54  1  0.456700  0.816700  0.498500  1.0  0.1069
  H  H55  1  0.578600  0.879700  0.435000  1.0  0.1234
  H  H56  1  0.700200  0.924100  0.581900  1.0  0.1312
  H  H57  1  0.318900  0.322600  0.687900  1.0  0.1091
  H  H58  1  0.360000  0.543300  0.498500  1.0  0.1072
  H  H59  1  0.301100  0.421400  0.435000  1.0  0.1222
  H  H60  1  0.223900  0.299800  0.581900  1.0  0.1331
  H  H61  1  0.996300  0.318900  0.187900  1.0  0.1081
  H  H62  1  0.816700  0.360000  0.998500  1.0  0.1065
  H  H63  1  0.879700  0.301100  0.935000  1.0  0.1235
  H  H64  1  0.924100  0.223900  0.081900  1.0  0.1334
  H  H65  1  0.322600  0.003700  0.187900  1.0  0.1087
  H  H66  1  0.543300  0.183300  0.998500  1.0  0.1074
  H  H67  1  0.421400  0.120300  0.935000  1.0  0.1229
  H  H68  1  0.299800  0.075900  0.081900  1.0  0.1318
  H  H69  1  0.681100  0.677400  0.187900  1.0  0.1084
  H  H70  1  0.640000  0.456700  0.998500  1.0  0.107
  H  H71  1  0.698900  0.578600  0.935000  1.0  0.1227
  H  H72  1  0.776100  0.700200  0.081900  1.0  0.1321
  H  H73  1  0.318900  0.996300  0.687900  1.0  0.1078
  H  H74  1  0.360000  0.816700  0.498500  1.0  0.107
  H  H75  1  0.301100  0.879700  0.435000  1.0  0.1231
  H  H76  1  0.223900  0.924100  0.581900  1.0  0.1317
  H  H77  1  0.003700  0.322600  0.687900  1.0  0.1094
  H  H78  1  0.183300  0.543300  0.498500  1.0  0.107
  H  H79  1  0.120300  0.421400  0.435000  1.0  0.123
  H  H80  1  0.075900  0.299800  0.581900  1.0  0.1327
  H  H81  1  0.677400  0.681100  0.687900  1.0  0.1082
  H  H82  1  0.456700  0.640000  0.498500  1.0  0.1068
  H  H83  1  0.578600  0.698900  0.435000  1.0  0.1232
  H  H84  1  0.700200  0.776100  0.581900  1.0  0.1338
  H  H85  1  0.681100  0.003700  0.187900  1.0  0.1079
  H  H86  1  0.640000  0.183300  0.998500  1.0  0.1073
  H  H87  1  0.698900  0.120300  0.935000  1.0  0.1226
  H  H88  1  0.776100  0.075900  0.081900  1.0  0.1309
  H  H89  1  0.996300  0.677400  0.187900  1.0  0.1083
  H  H90  1  0.816700  0.456700  0.998500  1.0  0.1073
  H  H91  1  0.879700  0.578600  0.935000  1.0  0.1222
  H  H92  1  0.924100  0.700200  0.081900  1.0  0.1324
  H  H93  1  0.322600  0.318900  0.187900  1.0  0.1085
  H  H94  1  0.543300  0.360000  0.998500  1.0  0.1066
  H  H95  1  0.421400  0.301100  0.935000  1.0  0.1237
  H  H96  1  0.299800  0.223900  0.081900  1.0  0.1328
  H  H97  1  0.996300  0.318900  0.312100  1.0  0.108
  H  H98  1  0.816700  0.360000  0.501500  1.0  0.1074
  H  H99  1  0.879700  0.301100  0.565000  1.0  0.1237
  H  H100  1  0.924100  0.223900  0.418100  1.0  0.133
  H  H101  1  0.322600  0.003700  0.312100  1.0  0.1083
  H  H102  1  0.543300  0.183300  0.501500  1.0  0.1075
  H  H103  1  0.421400  0.120300  0.565000  1.0  0.1233
  H  H104  1  0.299800  0.075900  0.418100  1.0  0.1317
  H  H105  1  0.681100  0.677400  0.312100  1.0  0.1078
  H  H106  1  0.640000  0.456700  0.501500  1.0  0.1073
  H  H107  1  0.698900  0.578600  0.565000  1.0  0.122
  H  H108  1  0.776100  0.700200  0.418100  1.0  0.1314
  H  H109  1  0.003700  0.681100  0.812100  1.0  0.108
  H  H110  1  0.183300  0.640000  0.001500  1.0  0.1062
  H  H111  1  0.120300  0.698900  0.065000  1.0  0.1237
  H  H112  1  0.075900  0.776100  0.918100  1.0  0.1329
  H  H113  1  0.677400  0.996300  0.812100  1.0  0.1069
  H  H114  1  0.456700  0.816700  0.001500  1.0  0.1074
  H  H115  1  0.578600  0.879700  0.065000  1.0  0.1235
  H  H116  1  0.700200  0.924100  0.918100  1.0  0.131
  H  H117  1  0.318900  0.322600  0.812100  1.0  0.1089
  H  H118  1  0.360000  0.543300  0.001500  1.0  0.1077
  H  H119  1  0.301100  0.421400  0.065000  1.0  0.123
  H  H120  1  0.223900  0.299800  0.918100  1.0  0.1327
  H  H121  1  0.781300  0.218700  0.353800  1.0  0.0945
  H  H122  1  0.781300  0.562600  0.353800  1.0  0.0946
  H  H123  1  0.437400  0.218700  0.353800  1.0  0.0946
  H  H124  1  0.218700  0.781300  0.853800  1.0  0.0946
  H  H125  1  0.218700  0.437400  0.853800  1.0  0.0946
  H  H126  1  0.562600  0.781300  0.853800  1.0  0.0946
  H  H127  1  0.218700  0.781300  0.646200  1.0  0.0944
  H  H128  1  0.562600  0.781300  0.646200  1.0  0.0944
  H  H129  1  0.218700  0.437400  0.646200  1.0  0.0943
  H  H130  1  0.781300  0.218700  0.146200  1.0  0.0944
  H  H131  1  0.437400  0.218700  0.146200  1.0  0.0943
  H  H132  1  0.781300  0.562600  0.146200  1.0  0.0943
  H  H133  1  0.578100  0.000000  0.500000  1.0  0.0904
  H  H134  1  0.000000  0.578100  0.500000  1.0  0.0896
  H  H135  1  0.421900  0.421900  0.500000  1.0  0.0898
  H  H136  1  0.421900  0.000000  0.000000  1.0  0.089
  H  H137  1  0.000000  0.421900  0.000000  1.0  0.0895
  H  H138  1  0.578100  0.578100  0.000000  1.0  0.0892
  H  H139  1  0.421900  0.000000  0.500000  1.0  0.089
  H  H140  1  0.000000  0.421900  0.500000  1.0  0.0895
  H  H141  1  0.578100  0.578100  0.500000  1.0  0.0892
  H  H142  1  0.578100  0.000000  0.000000  1.0  0.0904
  H  H143  1  0.000000  0.578100  0.000000  1.0  0.0896
  H  H144  1  0.421900  0.421900  0.000000  1.0  0.0898
  C  C145  1  0.758200  0.186300  0.503400  1.0  0.1112
  C  C146  1  0.703200  0.023100  0.474800  1.0  0.0719
  C  C147  1  0.680700  0.032600  0.285000  1.0  0.0131
  C  C148  1  0.607200  0.159500  0.474700  1.0  0.0495
  C  C149  1  0.734300  0.156200  0.564900  1.0  -0.0026
  C  C150  1  0.760500  0.045500  0.449900  1.0  0.0115
  C  C151  1  0.762600  0.179700  0.622900  1.0  0.1246
  C  C152  1  0.793600  0.021000  0.474000  1.0  0.0862
  C  C153  1  0.813700  0.571900  0.503400  1.0  0.1146
  C  C154  1  0.976900  0.680100  0.474800  1.0  0.0715
  C  C155  1  0.967400  0.648100  0.285000  1.0  0.0111
  C  C156  1  0.840500  0.447700  0.474700  1.0  0.0502
  C  C157  1  0.843800  0.578100  0.564900  1.0  -0.0033
  C  C158  1  0.954500  0.715000  0.449900  1.0  0.0105
  C  C159  1  0.820300  0.582900  0.622900  1.0  0.1251
  C  C160  1  0.979000  0.772600  0.474000  1.0  0.0897
  C  C161  1  0.428100  0.241800  0.503400  1.0  0.1131
  C  C162  1  0.319900  0.296800  0.474800  1.0  0.0708
  C  C163  1  0.351900  0.319300  0.285000  1.0  0.0115
  C  C164  1  0.552300  0.392800  0.474700  1.0  0.0519
  C  C165  1  0.421900  0.265700  0.564900  1.0  -0.0041
  C  C166  1  0.285000  0.239500  0.449900  1.0  0.0095
  C  C167  1  0.417100  0.237400  0.622900  1.0  0.1253
  C  C168  1  0.227400  0.206400  0.474000  1.0  0.0891
  C  C169  1  0.241800  0.813700  0.003400  1.0  0.1128
  C  C170  1  0.296800  0.976900  0.974800  1.0  0.072
  C  C171  1  0.319300  0.967400  0.785000  1.0  0.0127
  C  C172  1  0.392800  0.840500  0.974700  1.0  0.0484
  C  C173  1  0.265700  0.843800  0.064900  1.0  -0.0027
  C  C174  1  0.239500  0.954500  0.949900  1.0  0.0108
  C  C175  1  0.237400  0.820300  0.122900  1.0  0.1245
  C  C176  1  0.206400  0.979000  0.974000  1.0  0.0886
  C  C177  1  0.186300  0.428100  0.003400  1.0  0.1137
  C  C178  1  0.023100  0.319900  0.974800  1.0  0.0712
  C  C179  1  0.032600  0.351900  0.785000  1.0  0.0108
  C  C180  1  0.159500  0.552300  0.974700  1.0  0.0509
  C  C181  1  0.156200  0.421900  0.064900  1.0  -0.0048
  C  C182  1  0.045500  0.285000  0.949900  1.0  0.0099
  C  C183  1  0.179700  0.417100  0.122900  1.0  0.125
  C  C184  1  0.021000  0.227400  0.974000  1.0  0.0896
  C  C185  1  0.571900  0.758200  0.003400  1.0  0.1113
  C  C186  1  0.680100  0.703200  0.974800  1.0  0.0715
  C  C187  1  0.648100  0.680700  0.785000  1.0  0.0123
  C  C188  1  0.447700  0.607200  0.974700  1.0  0.0508
  C  C189  1  0.578100  0.734300  0.064900  1.0  -0.0022
  C  C190  1  0.715000  0.760500  0.949900  1.0  0.0084
  C  C191  1  0.582900  0.762600  0.122900  1.0  0.1245
  C  C192  1  0.772600  0.793600  0.974000  1.0  0.0886
  C  C193  1  0.186300  0.758200  0.496600  1.0  0.1133
  C  C194  1  0.023100  0.703200  0.525200  1.0  0.0714
  C  C195  1  0.032600  0.680700  0.715000  1.0  0.0112
  C  C196  1  0.159500  0.607200  0.525300  1.0  0.0508
  C  C197  1  0.156200  0.734300  0.435100  1.0  -0.0015
  C  C198  1  0.045500  0.760500  0.550100  1.0  0.0059
  C  C199  1  0.179700  0.762600  0.377100  1.0  0.1309
  C  C200  1  0.021000  0.793600  0.526000  1.0  0.0891
  C  C201  1  0.571900  0.813700  0.496600  1.0  0.1118
  C  C202  1  0.680100  0.976900  0.525200  1.0  0.0724
  C  C203  1  0.648100  0.967400  0.715000  1.0  0.0129
  C  C204  1  0.447700  0.840500  0.525300  1.0  0.0491
  C  C205  1  0.578100  0.843800  0.435100  1.0  -0.0009
  C  C206  1  0.715000  0.954500  0.550100  1.0  0.0086
  C  C207  1  0.582900  0.820300  0.377100  1.0  0.1306
  C  C208  1  0.772600  0.979000  0.526000  1.0  0.0875
  C  C209  1  0.241800  0.428100  0.496600  1.0  0.1144
  C  C210  1  0.296800  0.319900  0.525200  1.0  0.0719
  C  C211  1  0.319300  0.351900  0.715000  1.0  0.0098
  C  C212  1  0.392800  0.552300  0.525300  1.0  0.0505
  C  C213  1  0.265700  0.421900  0.435100  1.0  -0.0022
  C  C214  1  0.239500  0.285000  0.550100  1.0  0.0077
  C  C215  1  0.237400  0.417100  0.377100  1.0  0.1302
  C  C216  1  0.206400  0.227400  0.526000  1.0  0.0921
  C  C217  1  0.813700  0.241800  0.996600  1.0  0.1119
  C  C218  1  0.976900  0.296800  0.025200  1.0  0.0723
  C  C219  1  0.967400  0.319300  0.215000  1.0  0.0114
  C  C220  1  0.840500  0.392800  0.025300  1.0  0.0523
  C  C221  1  0.843800  0.265700  0.935100  1.0  -0.002
  C  C222  1  0.954500  0.239500  0.050100  1.0  0.0077
  C  C223  1  0.820300  0.237400  0.877100  1.0  0.1304
  C  C224  1  0.979000  0.206400  0.026000  1.0  0.0906
  C  C225  1  0.428100  0.186300  0.996600  1.0  0.1126
  C  C226  1  0.319900  0.023100  0.025200  1.0  0.0727
  C  C227  1  0.351900  0.032600  0.215000  1.0  0.0123
  C  C228  1  0.552300  0.159500  0.025300  1.0  0.0493
  C  C229  1  0.421900  0.156200  0.935100  1.0  -0.0008
  C  C230  1  0.285000  0.045500  0.050100  1.0  0.0078
  C  C231  1  0.417100  0.179700  0.877100  1.0  0.1299
  C  C232  1  0.227400  0.021000  0.026000  1.0  0.09
  C  C233  1  0.758200  0.571900  0.996600  1.0  0.1142
  C  C234  1  0.703200  0.680100  0.025200  1.0  0.0719
  C  C235  1  0.680700  0.648100  0.215000  1.0  0.011
  C  C236  1  0.607200  0.447700  0.025300  1.0  0.051
  C  C237  1  0.734300  0.578100  0.935100  1.0  -0.0022
  C  C238  1  0.760500  0.715000  0.050100  1.0  0.0074
  C  C239  1  0.762600  0.582900  0.877100  1.0  0.1312
  C  C240  1  0.793600  0.772600  0.026000  1.0  0.0889
  C  C241  1  0.241800  0.813700  0.496600  1.0  0.1135
  C  C242  1  0.296800  0.976900  0.525200  1.0  0.0728
  C  C243  1  0.319300  0.967400  0.715000  1.0  0.0131
  C  C244  1  0.392800  0.840500  0.525300  1.0  0.0485
  C  C245  1  0.265700  0.843800  0.435100  1.0  -0.0051
  C  C246  1  0.239500  0.954500  0.550100  1.0  0.011
  C  C247  1  0.237400  0.820300  0.377100  1.0  0.131
  C  C248  1  0.206400  0.979000  0.526000  1.0  0.0892
  C  C249  1  0.186300  0.428100  0.496600  1.0  0.1146
  C  C250  1  0.023100  0.319900  0.525200  1.0  0.0718
  C  C251  1  0.032600  0.351900  0.715000  1.0  0.01
  C  C252  1  0.159500  0.552300  0.525300  1.0  0.0515
  C  C253  1  0.156200  0.421900  0.435100  1.0  -0.0057
  C  C254  1  0.045500  0.285000  0.550100  1.0  0.0098
  C  C255  1  0.179700  0.417100  0.377100  1.0  0.1316
  C  C256  1  0.021000  0.227400  0.526000  1.0  0.09
  C  C257  1  0.571900  0.758200  0.496600  1.0  0.1123
  C  C258  1  0.680100  0.703200  0.525200  1.0  0.0719
  C  C259  1  0.648100  0.680700  0.715000  1.0  0.0118
  C  C260  1  0.447700  0.607200  0.525300  1.0  0.0513
  C  C261  1  0.578100  0.734300  0.435100  1.0  -0.0051
  C  C262  1  0.715000  0.760500  0.550100  1.0  0.0073
  C  C263  1  0.582900  0.762600  0.377100  1.0  0.1319
  C  C264  1  0.772600  0.793600  0.526000  1.0  0.089
  C  C265  1  0.758200  0.186300  0.996600  1.0  0.1122
  C  C266  1  0.703200  0.023100  0.025200  1.0  0.0723
  C  C267  1  0.680700  0.032600  0.215000  1.0  0.0121
  C  C268  1  0.607200  0.159500  0.025300  1.0  0.0498
  C  C269  1  0.734300  0.156200  0.935100  1.0  -0.0039
  C  C270  1  0.760500  0.045500  0.050100  1.0  0.011
  C  C271  1  0.762600  0.179700  0.877100  1.0  0.131
  C  C272  1  0.793600  0.021000  0.026000  1.0  0.0871
  C  C273  1  0.813700  0.571900  0.996600  1.0  0.1154
  C  C274  1  0.976900  0.680100  0.025200  1.0  0.0719
  C  C275  1  0.967400  0.648100  0.215000  1.0  0.0112
  C  C276  1  0.840500  0.447700  0.025300  1.0  0.0506
  C  C277  1  0.843800  0.578100  0.935100  1.0  -0.0062
  C  C278  1  0.954500  0.715000  0.050100  1.0  0.0099
  C  C279  1  0.820300  0.582900  0.877100  1.0  0.1316
  C  C280  1  0.979000  0.772600  0.026000  1.0  0.0904
  C  C281  1  0.428100  0.241800  0.996600  1.0  0.114
  C  C282  1  0.319900  0.296800  0.025200  1.0  0.0715
  C  C283  1  0.351900  0.319300  0.215000  1.0  0.0109
  C  C284  1  0.552300  0.392800  0.025300  1.0  0.0518
  C  C285  1  0.421900  0.265700  0.935100  1.0  -0.0052
  C  C286  1  0.285000  0.239500  0.050100  1.0  0.0097
  C  C287  1  0.417100  0.237400  0.877100  1.0  0.1313
  C  C288  1  0.227400  0.206400  0.026000  1.0  0.0899
  C  C289  1  0.813700  0.241800  0.503400  1.0  0.1121
  C  C290  1  0.976900  0.296800  0.474800  1.0  0.0715
  C  C291  1  0.967400  0.319300  0.285000  1.0  0.0125
  C  C292  1  0.840500  0.392800  0.474700  1.0  0.0523
  C  C293  1  0.843800  0.265700  0.564900  1.0  -0.0076
  C  C294  1  0.954500  0.239500  0.449900  1.0  0.0072
  C  C295  1  0.820300  0.237400  0.622900  1.0  0.1257
  C  C296  1  0.979000  0.206400  0.474000  1.0  0.0902
  C  C297  1  0.428100  0.186300  0.503400  1.0  0.113
  C  C298  1  0.319900  0.023100  0.474800  1.0  0.0721
  C  C299  1  0.351900  0.032600  0.285000  1.0  0.0131
  C  C300  1  0.552300  0.159500  0.474700  1.0  0.0487
  C  C301  1  0.421900  0.156200  0.564900  1.0  -0.0058
  C  C302  1  0.285000  0.045500  0.449900  1.0  0.0085
  C  C303  1  0.417100  0.179700  0.622900  1.0  0.1251
  C  C304  1  0.227400  0.021000  0.474000  1.0  0.0895
  C  C305  1  0.758200  0.571900  0.503400  1.0  0.1147
  C  C306  1  0.703200  0.680100  0.474800  1.0  0.0714
  C  C307  1  0.680700  0.648100  0.285000  1.0  0.0107
  C  C308  1  0.607200  0.447700  0.474700  1.0  0.0513
  C  C309  1  0.734300  0.578100  0.564900  1.0  -0.0081
  C  C310  1  0.760500  0.715000  0.449900  1.0  0.0085
  C  C311  1  0.762600  0.582900  0.622900  1.0  0.1261
  C  C312  1  0.793600  0.772600  0.474000  1.0  0.088
  C  C313  1  0.186300  0.758200  0.003400  1.0  0.1137
  C  C314  1  0.023100  0.703200  0.974800  1.0  0.0712
  C  C315  1  0.032600  0.680700  0.785000  1.0  0.0113
  C  C316  1  0.159500  0.607200  0.974700  1.0  0.0506
  C  C317  1  0.156200  0.734300  0.064900  1.0  -0.0073
  C  C318  1  0.045500  0.760500  0.949900  1.0  0.0074
  C  C319  1  0.179700  0.762600  0.122900  1.0  0.1255
  C  C320  1  0.021000  0.793600  0.974000  1.0  0.0888
  C  C321  1  0.571900  0.813700  0.003400  1.0  0.1121
  C  C322  1  0.680100  0.976900  0.974800  1.0  0.0719
  C  C323  1  0.648100  0.967400  0.785000  1.0  0.0124
  C  C324  1  0.447700  0.840500  0.974700  1.0  0.0493
  C  C325  1  0.578100  0.843800  0.064900  1.0  -0.0075
  C  C326  1  0.715000  0.954500  0.949900  1.0  0.0083
  C  C327  1  0.582900  0.820300  0.122900  1.0  0.1256
  C  C328  1  0.772600  0.979000  0.974000  1.0  0.087
  C  C329  1  0.241800  0.428100  0.003400  1.0  0.1146
  C  C330  1  0.296800  0.319900  0.974800  1.0  0.0713
  C  C331  1  0.319300  0.351900  0.785000  1.0  0.011
  C  C332  1  0.392800  0.552300  0.974700  1.0  0.0493
  C  C333  1  0.265700  0.421900  0.064900  1.0  -0.0076
  C  C334  1  0.239500  0.285000  0.949900  1.0  0.0077
  C  C335  1  0.237400  0.417100  0.122900  1.0  0.1261
  C  C336  1  0.206400  0.227400  0.974000  1.0  0.0908
  C  C337  1  0.782850  0.217150  0.401000  1.0  0.3174
  C  C338  1  0.782850  0.565700  0.401000  1.0  0.3172
  C  C339  1  0.434300  0.217150  0.401000  1.0  0.3181
  C  C340  1  0.217150  0.782850  0.901000  1.0  0.318
  C  C341  1  0.217150  0.434300  0.901000  1.0  0.3173
  C  C342  1  0.565700  0.782850  0.901000  1.0  0.3174
  C  C343  1  0.217150  0.782850  0.599000  1.0  0.3185
  C  C344  1  0.565700  0.782850  0.599000  1.0  0.3175
  C  C345  1  0.217150  0.434300  0.599000  1.0  0.3174
  C  C346  1  0.782850  0.217150  0.099000  1.0  0.3173
  C  C347  1  0.434300  0.217150  0.099000  1.0  0.3183
  C  C348  1  0.782850  0.565700  0.099000  1.0  0.3173
  C  C349  1  0.613700  0.000000  0.500000  1.0  0.3412
  C  C350  1  0.000000  0.613700  0.500000  1.0  0.3408
  C  C351  1  0.386300  0.386300  0.500000  1.0  0.3403
  C  C352  1  0.386300  0.000000  0.000000  1.0  0.3413
  C  C353  1  0.000000  0.386300  0.000000  1.0  0.3412
  C  C354  1  0.613700  0.613700  0.000000  1.0  0.3422
  C  C355  1  0.386300  0.000000  0.500000  1.0  0.3413
  C  C356  1  0.000000  0.386300  0.500000  1.0  0.3412
  C  C357  1  0.613700  0.613700  0.500000  1.0  0.3422
  C  C358  1  0.613700  0.000000  0.000000  1.0  0.3412
  C  C359  1  0.000000  0.613700  0.000000  1.0  0.3408
  C  C360  1  0.386300  0.386300  0.000000  1.0  0.3403
  C  C361  1  0.677400  0.106300  0.250000  1.0  0.209
  C  C362  1  0.893700  0.571100  0.250000  1.0  0.2097
  C  C363  1  0.428900  0.322600  0.250000  1.0  0.2111
  C  C364  1  0.322600  0.893700  0.750000  1.0  0.209
  C  C365  1  0.106300  0.428900  0.750000  1.0  0.2094
  C  C366  1  0.571100  0.677400  0.750000  1.0  0.211
  C  C367  1  0.106300  0.677400  0.750000  1.0  0.2109
  C  C368  1  0.571100  0.893700  0.750000  1.0  0.2088
  C  C369  1  0.322600  0.428900  0.750000  1.0  0.2099
  C  C370  1  0.893700  0.322600  0.250000  1.0  0.2112
  C  C371  1  0.428900  0.106300  0.250000  1.0  0.2092
  C  C372  1  0.677400  0.571100  0.250000  1.0  0.2093
  C  C373  1  0.548050  0.096100  0.411000  1.0  0.3597
  C  C374  1  0.903900  0.451950  0.411000  1.0  0.3618
  C  C375  1  0.548050  0.451950  0.411000  1.0  0.3614
  C  C376  1  0.451950  0.903900  0.911000  1.0  0.3621
  C  C377  1  0.096100  0.548050  0.911000  1.0  0.3598
  C  C378  1  0.451950  0.548050  0.911000  1.0  0.3602
  C  C379  1  0.096100  0.548050  0.589000  1.0  0.3614
  C  C380  1  0.451950  0.903900  0.589000  1.0  0.3618
  C  C381  1  0.451950  0.548050  0.589000  1.0  0.3621
  C  C382  1  0.903900  0.451950  0.089000  1.0  0.362
  C  C383  1  0.548050  0.096100  0.089000  1.0  0.3615
  C  C384  1  0.548050  0.451950  0.089000  1.0  0.3613
  N  N385  1  0.741150  0.173090  0.436300  1.0  -0.3828
  N  N386  1  0.659540  0.037200  0.461600  1.0  -0.3884
  N  N387  1  0.680000  0.079800  0.308100  1.0  -0.4392
  N  N388  1  0.603400  0.121900  0.432400  1.0  -0.3283
  N  N389  1  0.826910  0.568060  0.436300  1.0  -0.3819
  N  N390  1  0.962800  0.622340  0.461600  1.0  -0.3892
  N  N391  1  0.920200  0.600200  0.308100  1.0  -0.4418
  N  N392  1  0.878100  0.481500  0.432400  1.0  -0.3256
  N  N393  1  0.431940  0.258850  0.436300  1.0  -0.3821
  N  N394  1  0.377660  0.340460  0.461600  1.0  -0.3892
  N  N395  1  0.399800  0.320000  0.308100  1.0  -0.4393
  N  N396  1  0.518500  0.396600  0.432400  1.0  -0.3269
  N  N397  1  0.258850  0.826910  0.936300  1.0  -0.3818
  N  N398  1  0.340460  0.962800  0.961600  1.0  -0.3889
  N  N399  1  0.320000  0.920200  0.808100  1.0  -0.4393
  N  N400  1  0.396600  0.878100  0.932400  1.0  -0.3274
  N  N401  1  0.173090  0.431940  0.936300  1.0  -0.382
  N  N402  1  0.037200  0.377660  0.961600  1.0  -0.3885
  N  N403  1  0.079800  0.399800  0.808100  1.0  -0.4415
  N  N404  1  0.121900  0.518500  0.932400  1.0  -0.3254
  N  N405  1  0.568060  0.741150  0.936300  1.0  -0.3824
  N  N406  1  0.622340  0.659540  0.961600  1.0  -0.3888
  N  N407  1  0.600200  0.680000  0.808100  1.0  -0.4402
  N  N408  1  0.481500  0.603400  0.932400  1.0  -0.3243
  N  N409  1  0.173090  0.741150  0.563700  1.0  -0.3823
  N  N410  1  0.037200  0.659540  0.538400  1.0  -0.3883
  N  N411  1  0.079800  0.680000  0.691900  1.0  -0.4413
  N  N412  1  0.121900  0.603400  0.567600  1.0  -0.3272
  N  N413  1  0.568060  0.826910  0.563700  1.0  -0.3825
  N  N414  1  0.622340  0.962800  0.538400  1.0  -0.3882
  N  N415  1  0.600200  0.920200  0.691900  1.0  -0.4419
  N  N416  1  0.481500  0.878100  0.567600  1.0  -0.3283
  N  N417  1  0.258850  0.431940  0.563700  1.0  -0.3821
  N  N418  1  0.340460  0.377660  0.538400  1.0  -0.3883
  N  N419  1  0.320000  0.399800  0.691900  1.0  -0.4439
  N  N420  1  0.396600  0.518500  0.567600  1.0  -0.3267
  N  N421  1  0.826910  0.258850  0.063700  1.0  -0.3822
  N  N422  1  0.962800  0.340460  0.038400  1.0  -0.3886
  N  N423  1  0.920200  0.320000  0.191900  1.0  -0.4428
  N  N424  1  0.878100  0.396600  0.067600  1.0  -0.3256
  N  N425  1  0.431940  0.173090  0.063700  1.0  -0.3819
  N  N426  1  0.377660  0.037200  0.038400  1.0  -0.388
  N  N427  1  0.399800  0.079800  0.191900  1.0  -0.4412
  N  N428  1  0.518500  0.121900  0.067600  1.0  -0.3287
  N  N429  1  0.741150  0.568060  0.063700  1.0  -0.3816
  N  N430  1  0.659540  0.622340  0.038400  1.0  -0.3884
  N  N431  1  0.680000  0.600200  0.191900  1.0  -0.4432
  N  N432  1  0.603400  0.481500  0.067600  1.0  -0.3256
  N  N433  1  0.258850  0.826910  0.563700  1.0  -0.3819
  N  N434  1  0.340460  0.962800  0.538400  1.0  -0.3884
  N  N435  1  0.320000  0.920200  0.691900  1.0  -0.4408
  N  N436  1  0.396600  0.878100  0.567600  1.0  -0.3284
  N  N437  1  0.173090  0.431940  0.563700  1.0  -0.3821
  N  N438  1  0.037200  0.377660  0.538400  1.0  -0.3881
  N  N439  1  0.079800  0.399800  0.691900  1.0  -0.4431
  N  N440  1  0.121900  0.518500  0.567600  1.0  -0.3256
  N  N441  1  0.568060  0.741150  0.563700  1.0  -0.3822
  N  N442  1  0.622340  0.659540  0.538400  1.0  -0.3886
  N  N443  1  0.600200  0.680000  0.691900  1.0  -0.4424
  N  N444  1  0.481500  0.603400  0.567600  1.0  -0.3245
  N  N445  1  0.741150  0.173090  0.063700  1.0  -0.3826
  N  N446  1  0.659540  0.037200  0.038400  1.0  -0.3881
  N  N447  1  0.680000  0.079800  0.191900  1.0  -0.4417
  N  N448  1  0.603400  0.121900  0.067600  1.0  -0.3285
  N  N449  1  0.826910  0.568060  0.063700  1.0  -0.3816
  N  N450  1  0.962800  0.622340  0.038400  1.0  -0.3884
  N  N451  1  0.920200  0.600200  0.191900  1.0  -0.443
  N  N452  1  0.878100  0.481500  0.067600  1.0  -0.3262
  N  N453  1  0.431940  0.258850  0.063700  1.0  -0.3822
  N  N454  1  0.377660  0.340460  0.038400  1.0  -0.3884
  N  N455  1  0.399800  0.320000  0.191900  1.0  -0.4415
  N  N456  1  0.518500  0.396600  0.067600  1.0  -0.3275
  N  N457  1  0.826910  0.258850  0.436300  1.0  -0.382
  N  N458  1  0.962800  0.340460  0.461600  1.0  -0.3892
  N  N459  1  0.920200  0.320000  0.308100  1.0  -0.44
  N  N460  1  0.878100  0.396600  0.432400  1.0  -0.3248
  N  N461  1  0.431940  0.173090  0.436300  1.0  -0.3822
  N  N462  1  0.377660  0.037200  0.461600  1.0  -0.3882
  N  N463  1  0.399800  0.079800  0.308100  1.0  -0.4385
  N  N464  1  0.518500  0.121900  0.432400  1.0  -0.3276
  N  N465  1  0.741150  0.568060  0.436300  1.0  -0.3818
  N  N466  1  0.659540  0.622340  0.461600  1.0  -0.3892
  N  N467  1  0.680000  0.600200  0.308100  1.0  -0.4416
  N  N468  1  0.603400  0.481500  0.432400  1.0  -0.3247
  N  N469  1  0.173090  0.741150  0.936300  1.0  -0.3827
  N  N470  1  0.037200  0.659540  0.961600  1.0  -0.3888
  N  N471  1  0.079800  0.680000  0.808100  1.0  -0.4389
  N  N472  1  0.121900  0.603400  0.932400  1.0  -0.3263
  N  N473  1  0.568060  0.826910  0.936300  1.0  -0.3823
  N  N474  1  0.622340  0.962800  0.961600  1.0  -0.3891
  N  N475  1  0.600200  0.920200  0.808100  1.0  -0.4394
  N  N476  1  0.481500  0.878100  0.932400  1.0  -0.3277
  N  N477  1  0.258850  0.431940  0.936300  1.0  -0.382
  N  N478  1  0.340460  0.377660  0.961600  1.0  -0.3886
  N  N479  1  0.320000  0.399800  0.808100  1.0  -0.4414
  N  N480  1  0.396600  0.518500  0.932400  1.0  -0.3263
  N  N481  1  0.676200  0.159200  0.250000  1.0  0.5714
  N  N482  1  0.840800  0.517000  0.250000  1.0  0.5699
  N  N483  1  0.483000  0.323800  0.250000  1.0  0.572
  N  N484  1  0.323800  0.840800  0.750000  1.0  0.571
  N  N485  1  0.159200  0.483000  0.750000  1.0  0.5714
  N  N486  1  0.517000  0.676200  0.750000  1.0  0.571
  N  N487  1  0.159200  0.676200  0.750000  1.0  0.5721
  N  N488  1  0.517000  0.840800  0.750000  1.0  0.5698
  N  N489  1  0.323800  0.483000  0.750000  1.0  0.5723
  N  N490  1  0.840800  0.323800  0.250000  1.0  0.5716
  N  N491  1  0.483000  0.159200  0.250000  1.0  0.5711
  N  N492  1  0.676200  0.517000  0.250000  1.0  0.5708
  N  N493  1  0.521650  0.043300  0.374200  1.0  0.6213
  N  N494  1  0.956700  0.478350  0.374200  1.0  0.6231
  N  N495  1  0.521650  0.478350  0.374200  1.0  0.6239
  N  N496  1  0.478350  0.956700  0.874200  1.0  0.6238
  N  N497  1  0.043300  0.521650  0.874200  1.0  0.6222
  N  N498  1  0.478350  0.521650  0.874200  1.0  0.6228
  N  N499  1  0.043300  0.521650  0.625800  1.0  0.621
  N  N500  1  0.478350  0.956700  0.625800  1.0  0.6209
  N  N501  1  0.478350  0.521650  0.625800  1.0  0.6222
  N  N502  1  0.956700  0.478350  0.125800  1.0  0.6214
  N  N503  1  0.521650  0.043300  0.125800  1.0  0.6204
  N  N504  1  0.521650  0.478350  0.125800  1.0  0.6211
  Cl  Cl505  1  0.719700  0.134800  0.695000  1.0  -0.3432
  Cl  Cl506  1  0.856200  0.030200  0.439900  1.0  -0.1694
  Cl  Cl507  1  0.865200  0.584900  0.695000  1.0  -0.3448
  Cl  Cl508  1  0.969800  0.826000  0.439900  1.0  -0.17
  Cl  Cl509  1  0.415100  0.280300  0.695000  1.0  -0.3438
  Cl  Cl510  1  0.174000  0.143800  0.439900  1.0  -0.1698
  Cl  Cl511  1  0.280300  0.865200  0.195000  1.0  -0.3437
  Cl  Cl512  1  0.143800  0.969800  0.939900  1.0  -0.1686
  Cl  Cl513  1  0.134800  0.415100  0.195000  1.0  -0.3436
  Cl  Cl514  1  0.030200  0.174000  0.939900  1.0  -0.1681
  Cl  Cl515  1  0.584900  0.719700  0.195000  1.0  -0.3442
  Cl  Cl516  1  0.826000  0.856200  0.939900  1.0  -0.1684
  Cl  Cl517  1  0.134800  0.719700  0.305000  1.0  -0.3444
  Cl  Cl518  1  0.030200  0.856200  0.560100  1.0  -0.1735
  Cl  Cl519  1  0.584900  0.865200  0.305000  1.0  -0.3454
  Cl  Cl520  1  0.826000  0.969800  0.560100  1.0  -0.1716
  Cl  Cl521  1  0.280300  0.415100  0.305000  1.0  -0.3433
  Cl  Cl522  1  0.143800  0.174000  0.560100  1.0  -0.1729
  Cl  Cl523  1  0.865200  0.280300  0.805000  1.0  -0.3462
  Cl  Cl524  1  0.969800  0.143800  0.060100  1.0  -0.1723
  Cl  Cl525  1  0.415100  0.134800  0.805000  1.0  -0.3437
  Cl  Cl526  1  0.174000  0.030200  0.060100  1.0  -0.174
  Cl  Cl527  1  0.719700  0.584900  0.805000  1.0  -0.3438
  Cl  Cl528  1  0.856200  0.826000  0.060100  1.0  -0.1719
  Cl  Cl529  1  0.280300  0.865200  0.305000  1.0  -0.3447
  Cl  Cl530  1  0.143800  0.969800  0.560100  1.0  -0.1682
  Cl  Cl531  1  0.134800  0.415100  0.305000  1.0  -0.3429
  Cl  Cl532  1  0.030200  0.174000  0.560100  1.0  -0.1677
  Cl  Cl533  1  0.584900  0.719700  0.305000  1.0  -0.3453
  Cl  Cl534  1  0.826000  0.856200  0.560100  1.0  -0.1676
  Cl  Cl535  1  0.719700  0.134800  0.805000  1.0  -0.3443
  Cl  Cl536  1  0.856200  0.030200  0.060100  1.0  -0.1689
  Cl  Cl537  1  0.865200  0.584900  0.805000  1.0  -0.344
  Cl  Cl538  1  0.969800  0.826000  0.060100  1.0  -0.169
  Cl  Cl539  1  0.415100  0.280300  0.805000  1.0  -0.3452
  Cl  Cl540  1  0.174000  0.143800  0.060100  1.0  -0.1691
  Cl  Cl541  1  0.865200  0.280300  0.695000  1.0  -0.3448
  Cl  Cl542  1  0.969800  0.143800  0.439900  1.0  -0.1724
  Cl  Cl543  1  0.415100  0.134800  0.695000  1.0  -0.3425
  Cl  Cl544  1  0.174000  0.030200  0.439900  1.0  -0.1738
  Cl  Cl545  1  0.719700  0.584900  0.695000  1.0  -0.3445
  Cl  Cl546  1  0.856200  0.826000  0.439900  1.0  -0.1728
  Cl  Cl547  1  0.134800  0.719700  0.195000  1.0  -0.3432
  Cl  Cl548  1  0.030200  0.856200  0.939900  1.0  -0.1739
  Cl  Cl549  1  0.584900  0.865200  0.195000  1.0  -0.3444
  Cl  Cl550  1  0.826000  0.969800  0.939900  1.0  -0.1723
  Cl  Cl551  1  0.280300  0.415100  0.195000  1.0  -0.3439
  Cl  Cl552  1  0.143800  0.174000  0.939900  1.0  -0.173
  O  O553  1  0.673290  0.179520  0.305820  1.0  -0.5929
  O  O554  1  0.553500  0.025400  0.355200  1.0  -0.4783
  O  O555  1  0.820480  0.493770  0.305820  1.0  -0.5903
  O  O556  1  0.974600  0.528100  0.355200  1.0  -0.4766
  O  O557  1  0.506230  0.326710  0.305820  1.0  -0.5925
  O  O558  1  0.471900  0.446500  0.355200  1.0  -0.4765
  O  O559  1  0.326710  0.820480  0.805820  1.0  -0.5927
  O  O560  1  0.446500  0.974600  0.855200  1.0  -0.4816
  O  O561  1  0.179520  0.506230  0.805820  1.0  -0.5908
  O  O562  1  0.025400  0.471900  0.855200  1.0  -0.4749
  O  O563  1  0.493770  0.673290  0.805820  1.0  -0.5943
  O  O564  1  0.528100  0.553500  0.855200  1.0  -0.476
  O  O565  1  0.179520  0.673290  0.694180  1.0  -0.5927
  O  O566  1  0.025400  0.553500  0.644800  1.0  -0.4748
  O  O567  1  0.493770  0.820480  0.694180  1.0  -0.5936
  O  O568  1  0.528100  0.974600  0.644800  1.0  -0.4786
  O  O569  1  0.326710  0.506230  0.694180  1.0  -0.5905
  O  O570  1  0.446500  0.471900  0.644800  1.0  -0.4768
  O  O571  1  0.820480  0.326710  0.194180  1.0  -0.5935
  O  O572  1  0.974600  0.446500  0.144800  1.0  -0.4758
  O  O573  1  0.506230  0.179520  0.194180  1.0  -0.5931
  O  O574  1  0.471900  0.025400  0.144800  1.0  -0.4783
  O  O575  1  0.673290  0.493770  0.194180  1.0  -0.5915
  O  O576  1  0.553500  0.528100  0.144800  1.0  -0.476
  O  O577  1  0.326710  0.820480  0.694180  1.0  -0.5935
  O  O578  1  0.446500  0.974600  0.644800  1.0  -0.4808
  O  O579  1  0.179520  0.506230  0.694180  1.0  -0.591
  O  O580  1  0.025400  0.471900  0.644800  1.0  -0.4735
  O  O581  1  0.493770  0.673290  0.694180  1.0  -0.5939
  O  O582  1  0.528100  0.553500  0.644800  1.0  -0.4758
  O  O583  1  0.673290  0.179520  0.194180  1.0  -0.593
  O  O584  1  0.553500  0.025400  0.144800  1.0  -0.4775
  O  O585  1  0.820480  0.493770  0.194180  1.0  -0.5911
  O  O586  1  0.974600  0.528100  0.144800  1.0  -0.4777
  O  O587  1  0.506230  0.326710  0.194180  1.0  -0.5927
  O  O588  1  0.471900  0.446500  0.144800  1.0  -0.476
  O  O589  1  0.820480  0.326710  0.305820  1.0  -0.5933
  O  O590  1  0.974600  0.446500  0.355200  1.0  -0.4759
  O  O591  1  0.506230  0.179520  0.305820  1.0  -0.5933
  O  O592  1  0.471900  0.025400  0.355200  1.0  -0.4788
  O  O593  1  0.673290  0.493770  0.305820  1.0  -0.5905
  O  O594  1  0.553500  0.528100  0.355200  1.0  -0.4768
  O  O595  1  0.179520  0.673290  0.805820  1.0  -0.5932
  O  O596  1  0.025400  0.553500  0.855200  1.0  -0.4753
  O  O597  1  0.493770  0.820480  0.805820  1.0  -0.5927
  O  O598  1  0.528100  0.974600  0.855200  1.0  -0.4796
  O  O599  1  0.326710  0.506230  0.805820  1.0  -0.5902
  O  O600  1  0.446500  0.471900  0.855200  1.0  -0.4767
