# generated using pymatgen
data_Ag6H5C12(O2F)3
_symmetry_space_group_name_H-M   'P 1'
_cell_length_a   6.90410000
_cell_length_b   18.74250000
_cell_length_c   22.41910000
_cell_angle_alpha   90.00000000
_cell_angle_beta   97.68700000
_cell_angle_gamma   90.00000000
_symmetry_Int_Tables_number   1
_chemical_formula_structural   Ag6H5C12(O2F)3
_chemical_formula_sum   'Ag24 H20 C48 O24 F12'
_cell_volume   2874.96373081
_cell_formula_units_Z   4
loop_
 _symmetry_equiv_pos_site_id
 _symmetry_equiv_pos_as_xyz
  1  'x, y, z'
loop_
 _atom_site_type_symbol
 _atom_site_label
 _atom_site_symmetry_multiplicity
 _atom_site_fract_x
 _atom_site_fract_y
 _atom_site_fract_z
 _atom_site_occupancy
 _atom_site_charge
  Ag  Ag1  1  0.851670  0.862310  0.585210  1.0  0.3551
  Ag  Ag2  1  0.573720  0.947430  0.646580  1.0  0.2891
  Ag  Ag3  1  0.477080  0.925740  0.507060  1.0  0.3947
  Ag  Ag4  1  0.130640  0.975160  0.557420  1.0  0.1754
  Ag  Ag5  1  0.917010  0.132920  0.548560  1.0  0.4157
  Ag  Ag6  1  0.911800  0.034990  0.671110  1.0  0.2486
  Ag  Ag7  1  0.648330  0.362310  0.914790  1.0  0.3534
  Ag  Ag8  1  0.926280  0.447430  0.853420  1.0  0.2871
  Ag  Ag9  1  0.022920  0.425740  0.992940  1.0  0.4019
  Ag  Ag10  1  0.369360  0.475160  0.942580  1.0  0.173
  Ag  Ag11  1  0.582990  0.632920  0.951440  1.0  0.4156
  Ag  Ag12  1  0.588200  0.534990  0.828890  1.0  0.2464
  Ag  Ag13  1  0.148330  0.137690  0.414790  1.0  0.3535
  Ag  Ag14  1  0.426280  0.052570  0.353420  1.0  0.2885
  Ag  Ag15  1  0.522920  0.074260  0.492940  1.0  0.4019
  Ag  Ag16  1  0.869360  0.024840  0.442580  1.0  0.174
  Ag  Ag17  1  0.082990  0.867080  0.451440  1.0  0.4156
  Ag  Ag18  1  0.088200  0.965010  0.328890  1.0  0.247
  Ag  Ag19  1  0.351670  0.637690  0.085210  1.0  0.3548
  Ag  Ag20  1  0.073720  0.552570  0.146580  1.0  0.2881
  Ag  Ag21  1  0.977080  0.574260  0.007060  1.0  0.3948
  Ag  Ag22  1  0.630640  0.524840  0.057420  1.0  0.1766
  Ag  Ag23  1  0.417010  0.367080  0.048560  1.0  0.4158
  Ag  Ag24  1  0.411800  0.465010  0.171110  1.0  0.2487
  H  H25  1  0.347000  0.680100  0.566000  1.0  0.1239
  H  H26  1  0.369700  0.580100  0.627900  1.0  0.1203
  H  H27  1  0.406200  0.593100  0.731000  1.0  0.121
  H  H28  1  0.380500  0.806100  0.712300  1.0  0.1272
  H  H29  1  0.310600  0.788100  0.807000  1.0  0.454
  H  H30  1  0.153000  0.180100  0.934000  1.0  0.1242
  H  H31  1  0.130300  0.080100  0.872100  1.0  0.1206
  H  H32  1  0.093800  0.093100  0.769000  1.0  0.1215
  H  H33  1  0.119500  0.306100  0.787700  1.0  0.1268
  H  H34  1  0.189400  0.288100  0.693000  1.0  0.4546
  H  H35  1  0.653000  0.319900  0.434000  1.0  0.1241
  H  H36  1  0.630300  0.419900  0.372100  1.0  0.1203
  H  H37  1  0.593800  0.406900  0.269000  1.0  0.1217
  H  H38  1  0.619500  0.193900  0.287700  1.0  0.1272
  H  H39  1  0.689400  0.211900  0.193000  1.0  0.455
  H  H40  1  0.847000  0.819900  0.066000  1.0  0.1239
  H  H41  1  0.869700  0.919900  0.127900  1.0  0.1201
  H  H42  1  0.906200  0.906900  0.231000  1.0  0.1204
  H  H43  1  0.880500  0.693900  0.212300  1.0  0.1276
  H  H44  1  0.810600  0.711900  0.307000  1.0  0.4551
  C  C45  1  0.752000  0.971000  0.575400  1.0  -0.4792
  C  C46  1  0.799800  0.029300  0.555600  1.0  -0.3686
  C  C47  1  0.918300  0.727500  0.500000  1.0  0.6817
  C  C48  1  0.863800  0.648100  0.491900  1.0  0.5166
  C  C49  1  0.341200  0.818300  0.593500  1.0  0.7221
  C  C50  1  0.361000  0.753300  0.633500  1.0  -0.0869
  C  C51  1  0.358800  0.685300  0.607600  1.0  -0.0568
  C  C52  1  0.374500  0.625500  0.644800  1.0  -0.0893
  C  C53  1  0.397200  0.633300  0.706600  1.0  -0.0383
  C  C54  1  0.406800  0.701400  0.732800  1.0  -0.1293
  C  C55  1  0.382500  0.760800  0.695500  1.0  -0.0515
  C  C56  1  0.441000  0.707100  0.800100  1.0  0.6587
  C  C57  1  0.748000  0.471000  0.924600  1.0  -0.4718
  C  C58  1  0.700200  0.529300  0.944400  1.0  -0.368
  C  C59  1  0.581700  0.227500  0.000000  1.0  0.6803
  C  C60  1  0.636200  0.148100  0.008100  1.0  0.5173
  C  C61  1  0.158800  0.318300  0.906500  1.0  0.7217
  C  C62  1  0.139000  0.253300  0.866500  1.0  -0.0859
  C  C63  1  0.141200  0.185300  0.892400  1.0  -0.0547
  C  C64  1  0.125500  0.125500  0.855200  1.0  -0.0892
  C  C65  1  0.102800  0.133300  0.793400  1.0  -0.0375
  C  C66  1  0.093200  0.201400  0.767200  1.0  -0.131
  C  C67  1  0.117500  0.260800  0.804500  1.0  -0.051
  C  C68  1  0.059000  0.207100  0.699900  1.0  0.6587
  C  C69  1  0.248000  0.029000  0.424600  1.0  -0.4736
  C  C70  1  0.200200  0.970700  0.444400  1.0  -0.3665
  C  C71  1  0.081700  0.272500  0.500000  1.0  0.6803
  C  C72  1  0.136200  0.351900  0.508100  1.0  0.518
  C  C73  1  0.658800  0.181700  0.406500  1.0  0.7217
  C  C74  1  0.639000  0.246700  0.366500  1.0  -0.0864
  C  C75  1  0.641200  0.314700  0.392400  1.0  -0.0549
  C  C76  1  0.625500  0.374500  0.355200  1.0  -0.0876
  C  C77  1  0.602800  0.366700  0.293400  1.0  -0.0392
  C  C78  1  0.593200  0.298600  0.267200  1.0  -0.1308
  C  C79  1  0.617500  0.239200  0.304500  1.0  -0.0496
  C  C80  1  0.559000  0.292900  0.199900  1.0  0.6584
  C  C81  1  0.252000  0.529000  0.075400  1.0  -0.4799
  C  C82  1  0.299800  0.470700  0.055600  1.0  -0.3668
  C  C83  1  0.418300  0.772500  0.000000  1.0  0.6816
  C  C84  1  0.363800  0.851900  0.991900  1.0  0.5173
  C  C85  1  0.841200  0.681700  0.093500  1.0  0.7213
  C  C86  1  0.861000  0.746700  0.133500  1.0  -0.0872
  C  C87  1  0.858800  0.814700  0.107600  1.0  -0.0581
  C  C88  1  0.874500  0.874500  0.144800  1.0  -0.0877
  C  C89  1  0.897200  0.866700  0.206600  1.0  -0.04
  C  C90  1  0.906800  0.798600  0.232800  1.0  -0.1293
  C  C91  1  0.882500  0.739200  0.195500  1.0  -0.0501
  C  C92  1  0.941000  0.792900  0.300100  1.0  0.6584
  O  O93  1  0.894900  0.753400  0.548900  1.0  -0.6392
  O  O94  1  0.983400  0.756000  0.455900  1.0  -0.5565
  O  O95  1  0.270900  0.874500  0.614500  1.0  -0.7153
  O  O96  1  0.398500  0.813800  0.543000  1.0  -0.6325
  O  O97  1  0.411800  0.770500  0.824200  1.0  -0.4598
  O  O98  1  0.500900  0.656200  0.832400  1.0  -0.6424
  O  O99  1  0.605100  0.253400  0.951100  1.0  -0.6406
  O  O100  1  0.516600  0.256000  0.044100  1.0  -0.5569
  O  O101  1  0.229100  0.374500  0.885500  1.0  -0.7147
  O  O102  1  0.101500  0.313800  0.957000  1.0  -0.6347
  O  O103  1  0.088200  0.270500  0.675800  1.0  -0.4622
  O  O104  1  0.999100  0.156200  0.667600  1.0  -0.6441
  O  O105  1  0.105100  0.246600  0.451100  1.0  -0.6405
  O  O106  1  0.016600  0.244000  0.544100  1.0  -0.5585
  O  O107  1  0.729100  0.125500  0.385500  1.0  -0.715
  O  O108  1  0.601500  0.186200  0.457000  1.0  -0.6353
  O  O109  1  0.588200  0.229500  0.175800  1.0  -0.4635
  O  O110  1  0.499100  0.343800  0.167600  1.0  -0.6432
  O  O111  1  0.394900  0.746600  0.048900  1.0  -0.6392
  O  O112  1  0.483400  0.744000  0.955900  1.0  -0.5572
  O  O113  1  0.770900  0.625500  0.114500  1.0  -0.7143
  O  O114  1  0.898500  0.686200  0.043000  1.0  -0.6325
  O  O115  1  0.911800  0.729500  0.324200  1.0  -0.4599
  O  O116  1  0.000900  0.843800  0.332400  1.0  -0.6421
  F  F117  1  0.738000  0.627900  0.524800  1.0  -0.1398
  F  F118  1  0.020000  0.607800  0.504200  1.0  -0.1547
  F  F119  1  0.794100  0.631000  0.436700  1.0  -0.1668
  F  F120  1  0.762000  0.127900  0.975200  1.0  -0.1402
  F  F121  1  0.480000  0.107800  0.995800  1.0  -0.1554
  F  F122  1  0.705900  0.131000  0.063300  1.0  -0.1653
  F  F123  1  0.262000  0.372100  0.475200  1.0  -0.1404
  F  F124  1  0.980000  0.392200  0.495800  1.0  -0.1538
  F  F125  1  0.205900  0.369000  0.563300  1.0  -0.1658
  F  F126  1  0.238000  0.872100  0.024800  1.0  -0.1387
  F  F127  1  0.520000  0.892200  0.004200  1.0  -0.1531
  F  F128  1  0.294100  0.869000  0.936700  1.0  -0.1686
