# generated using pymatgen
data_CdBH12C8N3O4
_symmetry_space_group_name_H-M   'P 1'
_cell_length_a   11.47700000
_cell_length_b   11.47700000
_cell_length_c   22.58500000
_cell_angle_alpha   90.00000000
_cell_angle_beta   90.00000000
_cell_angle_gamma   120.00000000
_symmetry_Int_Tables_number   1
_chemical_formula_structural   CdBH12C8N3O4
_chemical_formula_sum   'Cd6 B6 H72 C48 N18 O24'
_cell_volume   2576.36558881
_cell_formula_units_Z   6
loop_
 _symmetry_equiv_pos_site_id
 _symmetry_equiv_pos_as_xyz
  1  'x, y, z'
loop_
 _atom_site_type_symbol
 _atom_site_label
 _atom_site_symmetry_multiplicity
 _atom_site_fract_x
 _atom_site_fract_y
 _atom_site_fract_z
 _atom_site_occupancy
 _atom_site_charge
  Cd  Cd1  1  0.530100  0.765050  0.916670  1.0  1.0861
  Cd  Cd2  1  0.234950  0.469900  0.583330  1.0  1.0847
  Cd  Cd3  1  0.234950  0.765050  0.250000  1.0  1.0876
  Cd  Cd4  1  0.469900  0.234950  0.416670  1.0  1.0867
  Cd  Cd5  1  0.765050  0.530100  0.083330  1.0  1.0847
  Cd  Cd6  1  0.765050  0.234950  0.750000  1.0  1.0869
  B  B7  1  0.647700  0.647700  0.000000  1.0  0.8437
  B  B8  1  0.000000  0.352300  0.666667  1.0  0.843
  B  B9  1  0.352300  0.000000  0.333333  1.0  0.8433
  B  B10  1  0.352300  0.352300  0.500000  1.0  0.843
  B  B11  1  0.000000  0.647700  0.166670  1.0  0.8437
  B  B12  1  0.647700  0.000000  0.833330  1.0  0.8422
  H  H13  1  0.857800  0.814600  0.890000  1.0  0.058
  H  H14  1  0.824000  0.658900  0.920100  1.0  0.0493
  H  H15  1  0.900700  0.805400  0.964100  1.0  0.0471
  H  H16  1  0.333700  0.582300  0.035100  1.0  0.0648
  H  H17  1  0.465500  0.626100  0.086200  1.0  0.0542
  H  H18  1  0.396700  0.472300  0.047400  1.0  0.063
  H  H19  1  0.956800  0.142200  0.556670  1.0  0.0585
  H  H20  1  0.834900  0.176000  0.586770  1.0  0.0423
  H  H21  1  0.904700  0.099300  0.630770  1.0  0.0493
  H  H22  1  0.248600  0.666300  0.701770  1.0  0.0655
  H  H23  1  0.160600  0.534500  0.752870  1.0  0.055
  H  H24  1  0.075600  0.603300  0.714070  1.0  0.0665
  H  H25  1  0.185400  0.043200  0.223330  1.0  0.0571
  H  H26  1  0.341100  0.165100  0.253430  1.0  0.0463
  H  H27  1  0.194600  0.095300  0.297430  1.0  0.0461
  H  H28  1  0.417700  0.751400  0.368430  1.0  0.0663
  H  H29  1  0.373900  0.839400  0.419530  1.0  0.0564
  H  H30  1  0.527700  0.924400  0.380730  1.0  0.0672
  H  H31  1  0.142200  0.185400  0.390000  1.0  0.0572
  H  H32  1  0.176000  0.341100  0.420100  1.0  0.0488
  H  H33  1  0.099300  0.194600  0.464100  1.0  0.0464
  H  H34  1  0.666300  0.417700  0.535100  1.0  0.066
  H  H35  1  0.534500  0.373900  0.586200  1.0  0.0549
  H  H36  1  0.603300  0.527700  0.547400  1.0  0.0648
  H  H37  1  0.043200  0.857800  0.056670  1.0  0.0591
  H  H38  1  0.165100  0.824000  0.086770  1.0  0.0468
  H  H39  1  0.095300  0.900700  0.130770  1.0  0.05
  H  H40  1  0.751400  0.333700  0.201770  1.0  0.0654
  H  H41  1  0.839400  0.465500  0.252870  1.0  0.0554
  H  H42  1  0.924400  0.396700  0.214070  1.0  0.0666
  H  H43  1  0.814600  0.956800  0.723330  1.0  0.0566
  H  H44  1  0.658900  0.834900  0.753430  1.0  0.0484
  H  H45  1  0.805400  0.904700  0.797430  1.0  0.047
  H  H46  1  0.582300  0.248600  0.868430  1.0  0.0668
  H  H47  1  0.626100  0.160600  0.919530  1.0  0.0543
  H  H48  1  0.472300  0.075600  0.880730  1.0  0.0682
  H  H49  1  0.043200  0.185400  0.776670  1.0  0.0582
  H  H50  1  0.165100  0.341100  0.746570  1.0  0.0486
  H  H51  1  0.095300  0.194600  0.702570  1.0  0.0473
  H  H52  1  0.751400  0.417700  0.631570  1.0  0.0657
  H  H53  1  0.839400  0.373900  0.580470  1.0  0.0546
  H  H54  1  0.924400  0.527700  0.619270  1.0  0.065
  H  H55  1  0.814600  0.857800  0.110000  1.0  0.0607
  H  H56  1  0.658900  0.824000  0.079900  1.0  0.043
  H  H57  1  0.805400  0.900700  0.035900  1.0  0.0501
  H  H58  1  0.582300  0.333700  0.964900  1.0  0.0655
  H  H59  1  0.626100  0.465500  0.913800  1.0  0.0554
  H  H60  1  0.472300  0.396700  0.952600  1.0  0.0695
  H  H61  1  0.142200  0.956800  0.443330  1.0  0.058
  H  H62  1  0.176000  0.834900  0.413230  1.0  0.0485
  H  H63  1  0.099300  0.904700  0.369230  1.0  0.0461
  H  H64  1  0.666300  0.248600  0.298230  1.0  0.0663
  H  H65  1  0.534500  0.160600  0.247130  1.0  0.0556
  H  H66  1  0.603300  0.075600  0.285930  1.0  0.0679
  H  H67  1  0.956800  0.814600  0.276670  1.0  0.0586
  H  H68  1  0.834900  0.658900  0.246570  1.0  0.0519
  H  H69  1  0.904700  0.805400  0.202570  1.0  0.0466
  H  H70  1  0.248600  0.582300  0.131570  1.0  0.066
  H  H71  1  0.160600  0.626100  0.080470  1.0  0.0547
  H  H72  1  0.075600  0.472300  0.119270  1.0  0.0628
  H  H73  1  0.185400  0.142200  0.610000  1.0  0.0599
  H  H74  1  0.341100  0.176000  0.579900  1.0  0.0489
  H  H75  1  0.194600  0.099300  0.535900  1.0  0.0498
  H  H76  1  0.417700  0.666300  0.464900  1.0  0.066
  H  H77  1  0.373900  0.534500  0.413800  1.0  0.0552
  H  H78  1  0.527700  0.603300  0.452600  1.0  0.067
  H  H79  1  0.857800  0.043200  0.943330  1.0  0.0588
  H  H80  1  0.824000  0.165100  0.913230  1.0  0.0483
  H  H81  1  0.900700  0.095300  0.869230  1.0  0.0481
  H  H82  1  0.333700  0.751400  0.798230  1.0  0.0668
  H  H83  1  0.465500  0.839400  0.747130  1.0  0.0549
  H  H84  1  0.396700  0.924400  0.785930  1.0  0.0686
  C  C85  1  0.961900  0.512200  0.968200  1.0  0.4472
  C  C86  1  0.828200  0.753300  0.929500  1.0  0.0274
  C  C87  1  0.422900  0.576500  0.044600  1.0  0.0124
  C  C88  1  0.550300  0.038100  0.634870  1.0  0.4462
  C  C89  1  0.925100  0.171800  0.596170  1.0  0.0294
  C  C90  1  0.153600  0.577100  0.711270  1.0  0.0133
  C  C91  1  0.487800  0.449700  0.301530  1.0  0.4466
  C  C92  1  0.246700  0.074900  0.262830  1.0  0.0283
  C  C93  1  0.423500  0.846400  0.377930  1.0  0.0102
  C  C94  1  0.038100  0.487800  0.468200  1.0  0.4467
  C  C95  1  0.171800  0.246700  0.429500  1.0  0.0262
  C  C96  1  0.577100  0.423500  0.544600  1.0  0.0121
  C  C97  1  0.449700  0.961900  0.134870  1.0  0.4463
  C  C98  1  0.074900  0.828200  0.096170  1.0  0.0306
  C  C99  1  0.846400  0.422900  0.211270  1.0  0.012
  C  C100  1  0.512200  0.550300  0.801530  1.0  0.4476
  C  C101  1  0.753300  0.925100  0.762830  1.0  0.0281
  C  C102  1  0.576500  0.153600  0.877930  1.0  0.0099
  C  C103  1  0.449700  0.487800  0.698470  1.0  0.4473
  C  C104  1  0.074900  0.246700  0.737170  1.0  0.0281
  C  C105  1  0.846400  0.423500  0.622070  1.0  0.013
  C  C106  1  0.512200  0.961900  0.031800  1.0  0.4475
  C  C107  1  0.753300  0.828200  0.070500  1.0  0.0309
  C  C108  1  0.576500  0.422900  0.955400  1.0  0.0124
  C  C109  1  0.038100  0.550300  0.365130  1.0  0.4459
  C  C110  1  0.171800  0.925100  0.403830  1.0  0.028
  C  C111  1  0.577100  0.153600  0.288730  1.0  0.0098
  C  C112  1  0.550300  0.512200  0.198470  1.0  0.4466
  C  C113  1  0.925100  0.753300  0.237170  1.0  0.0273
  C  C114  1  0.153600  0.576500  0.122070  1.0  0.0116
  C  C115  1  0.487800  0.038100  0.531800  1.0  0.4474
  C  C116  1  0.246700  0.171800  0.570500  1.0  0.0305
  C  C117  1  0.423500  0.577100  0.455400  1.0  0.0136
  C  C118  1  0.961900  0.449700  0.865130  1.0  0.4467
  C  C119  1  0.828200  0.074900  0.903830  1.0  0.0294
  C  C120  1  0.422900  0.846400  0.788730  1.0  0.0103
  C  C121  1  0.033500  0.516750  0.916670  1.0  -0.4992
  C  C122  1  0.174900  0.587450  0.916670  1.0  0.4485
  C  C123  1  0.483250  0.966500  0.583330  1.0  -0.4998
  C  C124  1  0.412550  0.825100  0.583330  1.0  0.4503
  C  C125  1  0.483250  0.516750  0.250000  1.0  -0.4981
  C  C126  1  0.412550  0.587450  0.250000  1.0  0.4492
  C  C127  1  0.966500  0.483250  0.416670  1.0  -0.4975
  C  C128  1  0.825100  0.412550  0.416670  1.0  0.4495
  C  C129  1  0.516750  0.033500  0.083330  1.0  -0.4997
  C  C130  1  0.587450  0.174900  0.083330  1.0  0.4496
  C  C131  1  0.516750  0.483250  0.750000  1.0  -0.499
  C  C132  1  0.587450  0.412550  0.750000  1.0  0.4488
  N  N133  1  0.901100  0.508700  0.008400  1.0  -0.4807
  N  N134  1  0.607600  0.098900  0.675070  1.0  -0.4799
  N  N135  1  0.491300  0.392400  0.341730  1.0  -0.4813
  N  N136  1  0.098900  0.491300  0.508400  1.0  -0.483
  N  N137  1  0.392400  0.901100  0.175070  1.0  -0.4799
  N  N138  1  0.508700  0.607600  0.841730  1.0  -0.4796
  N  N139  1  0.392400  0.491300  0.658270  1.0  -0.4822
  N  N140  1  0.508700  0.901100  0.991600  1.0  -0.4806
  N  N141  1  0.098900  0.607600  0.324930  1.0  -0.4798
  N  N142  1  0.607600  0.508700  0.158270  1.0  -0.4814
  N  N143  1  0.491300  0.098900  0.491600  1.0  -0.4803
  N  N144  1  0.901100  0.392400  0.824930  1.0  -0.482
  N  N145  1  0.288600  0.644300  0.916670  1.0  -0.4864
  N  N146  1  0.355700  0.711400  0.583330  1.0  -0.4852
  N  N147  1  0.355700  0.644300  0.250000  1.0  -0.4852
  N  N148  1  0.711400  0.355700  0.416670  1.0  -0.4854
  N  N149  1  0.644300  0.288600  0.083330  1.0  -0.4855
  N  N150  1  0.644300  0.355700  0.750000  1.0  -0.4863
  O  O151  1  0.706200  0.729300  0.947100  1.0  -0.5142
  O  O152  1  0.518300  0.640500  0.998700  1.0  -0.5316
  O  O153  1  0.023100  0.293800  0.613770  1.0  -0.5126
  O  O154  1  0.122200  0.481700  0.665370  1.0  -0.5323
  O  O155  1  0.270700  0.976900  0.280430  1.0  -0.5155
  O  O156  1  0.359500  0.877800  0.332030  1.0  -0.5289
  O  O157  1  0.293800  0.270700  0.447100  1.0  -0.5153
  O  O158  1  0.481700  0.359500  0.498700  1.0  -0.5309
  O  O159  1  0.976900  0.706200  0.113770  1.0  -0.5131
  O  O160  1  0.877800  0.518300  0.165370  1.0  -0.5316
  O  O161  1  0.729300  0.023100  0.780430  1.0  -0.5149
  O  O162  1  0.640500  0.122200  0.832030  1.0  -0.5327
  O  O163  1  0.976900  0.270700  0.719570  1.0  -0.5132
  O  O164  1  0.877800  0.359500  0.667970  1.0  -0.529
  O  O165  1  0.729300  0.706200  0.052900  1.0  -0.5107
  O  O166  1  0.640500  0.518300  0.001300  1.0  -0.5304
  O  O167  1  0.293800  0.023100  0.386230  1.0  -0.5152
  O  O168  1  0.481700  0.122200  0.334630  1.0  -0.531
  O  O169  1  0.023100  0.729300  0.219570  1.0  -0.5146
  O  O170  1  0.122200  0.640500  0.167970  1.0  -0.53
  O  O171  1  0.270700  0.293800  0.552900  1.0  -0.5123
  O  O172  1  0.359500  0.481700  0.501300  1.0  -0.5303
  O  O173  1  0.706200  0.976900  0.886230  1.0  -0.5146
  O  O174  1  0.518300  0.877800  0.834630  1.0  -0.5299
