# generated using pymatgen
data_CuH12(C8O3)2
_symmetry_space_group_name_H-M   'P 1'
_cell_length_a   27.08600000
_cell_length_b   27.08600000
_cell_length_c   6.70520000
_cell_angle_alpha   90.00000000
_cell_angle_beta   90.00000000
_cell_angle_gamma   90.00000000
_symmetry_Int_Tables_number   1
_chemical_formula_structural   CuH12(C8O3)2
_chemical_formula_sum   'Cu8 H96 C128 O48'
_cell_volume   4919.27934046
_cell_formula_units_Z   8
loop_
 _symmetry_equiv_pos_site_id
 _symmetry_equiv_pos_as_xyz
  1  'x, y, z'
loop_
 _atom_site_type_symbol
 _atom_site_label
 _atom_site_symmetry_multiplicity
 _atom_site_fract_x
 _atom_site_fract_y
 _atom_site_fract_z
 _atom_site_occupancy
 _atom_site_charge
  Cu  Cu1  1  0.520970  0.020970  0.151590  1.0  0.8652
  Cu  Cu2  1  0.979030  0.479030  0.151590  1.0  0.8637
  Cu  Cu3  1  0.479030  0.520970  0.151590  1.0  0.8644
  Cu  Cu4  1  0.020970  0.979030  0.151590  1.0  0.8645
  Cu  Cu5  1  0.979030  0.020970  0.848410  1.0  0.8668
  Cu  Cu6  1  0.520970  0.479030  0.848410  1.0  0.8659
  Cu  Cu7  1  0.020970  0.520970  0.848410  1.0  0.8674
  Cu  Cu8  1  0.479030  0.979030  0.848410  1.0  0.8651
  H  H9  1  0.452800  0.109800  0.491700  1.0  0.1096
  H  H10  1  0.516600  0.248400  0.799600  1.0  0.1006
  H  H11  1  0.520900  0.172800  0.955200  1.0  0.0949
  H  H12  1  0.398500  0.162000  0.078100  1.0  0.1098
  H  H13  1  0.386300  0.143100  0.293500  1.0  0.0885
  H  H14  1  0.433500  0.123800  0.182300  1.0  0.0858
  H  H15  1  0.047200  0.390200  0.491700  1.0  0.11
  H  H16  1  0.983400  0.251600  0.799600  1.0  0.1002
  H  H17  1  0.979100  0.327200  0.955200  1.0  0.0952
  H  H18  1  0.101500  0.338000  0.078100  1.0  0.11
  H  H19  1  0.113700  0.356900  0.293500  1.0  0.0903
  H  H20  1  0.066500  0.376200  0.182300  1.0  0.0864
  H  H21  1  0.390200  0.452800  0.491700  1.0  0.1098
  H  H22  1  0.251600  0.516600  0.799600  1.0  0.101
  H  H23  1  0.327200  0.520900  0.955200  1.0  0.0964
  H  H24  1  0.338000  0.398500  0.078100  1.0  0.1099
  H  H25  1  0.356900  0.386300  0.293500  1.0  0.0912
  H  H26  1  0.376200  0.433500  0.182300  1.0  0.0826
  H  H27  1  0.109800  0.047200  0.491700  1.0  0.1088
  H  H28  1  0.248400  0.983400  0.799600  1.0  0.1014
  H  H29  1  0.172800  0.979100  0.955200  1.0  0.0964
  H  H30  1  0.162000  0.101500  0.078100  1.0  0.1107
  H  H31  1  0.143100  0.113700  0.293500  1.0  0.0914
  H  H32  1  0.123800  0.066500  0.182300  1.0  0.0854
  H  H33  1  0.047200  0.109800  0.508300  1.0  0.1097
  H  H34  1  0.983400  0.248400  0.200400  1.0  0.1006
  H  H35  1  0.979100  0.172800  0.044800  1.0  0.0946
  H  H36  1  0.101500  0.162000  0.921900  1.0  0.1092
  H  H37  1  0.113700  0.143100  0.706500  1.0  0.09
  H  H38  1  0.066500  0.123800  0.817700  1.0  0.0868
  H  H39  1  0.452800  0.390200  0.508300  1.0  0.1093
  H  H40  1  0.516600  0.251600  0.200400  1.0  0.1004
  H  H41  1  0.520900  0.327200  0.044800  1.0  0.0947
  H  H42  1  0.398500  0.338000  0.921900  1.0  0.1096
  H  H43  1  0.386300  0.356900  0.706500  1.0  0.0884
  H  H44  1  0.433500  0.376200  0.817700  1.0  0.0866
  H  H45  1  0.109800  0.452800  0.508300  1.0  0.1091
  H  H46  1  0.248400  0.516600  0.200400  1.0  0.1015
  H  H47  1  0.172800  0.520900  0.044800  1.0  0.0965
  H  H48  1  0.162000  0.398500  0.921900  1.0  0.1097
  H  H49  1  0.143100  0.386300  0.706500  1.0  0.0915
  H  H50  1  0.123800  0.433500  0.817700  1.0  0.086
  H  H51  1  0.390200  0.047200  0.508300  1.0  0.1096
  H  H52  1  0.251600  0.983400  0.200400  1.0  0.1012
  H  H53  1  0.327200  0.979100  0.044800  1.0  0.0956
  H  H54  1  0.338000  0.101500  0.921900  1.0  0.1099
  H  H55  1  0.356900  0.113700  0.706500  1.0  0.0902
  H  H56  1  0.376200  0.066500  0.817700  1.0  0.0839
  H  H57  1  0.547200  0.890200  0.508300  1.0  0.1099
  H  H58  1  0.483400  0.751600  0.200400  1.0  0.1
  H  H59  1  0.479100  0.827200  0.044800  1.0  0.0947
  H  H60  1  0.601500  0.838000  0.921900  1.0  0.109
  H  H61  1  0.613700  0.856900  0.706500  1.0  0.0899
  H  H62  1  0.566500  0.876200  0.817700  1.0  0.087
  H  H63  1  0.952800  0.609800  0.508300  1.0  0.1092
  H  H64  1  0.016600  0.748400  0.200400  1.0  0.1009
  H  H65  1  0.020900  0.672800  0.044800  1.0  0.0949
  H  H66  1  0.898500  0.662000  0.921900  1.0  0.1097
  H  H67  1  0.886300  0.643100  0.706500  1.0  0.088
  H  H68  1  0.933500  0.623800  0.817700  1.0  0.0864
  H  H69  1  0.609800  0.547200  0.508300  1.0  0.1088
  H  H70  1  0.748400  0.483400  0.200400  1.0  0.1013
  H  H71  1  0.672800  0.479100  0.044800  1.0  0.0955
  H  H72  1  0.662000  0.601500  0.921900  1.0  0.1097
  H  H73  1  0.643100  0.613700  0.706500  1.0  0.0916
  H  H74  1  0.623800  0.566500  0.817700  1.0  0.086
  H  H75  1  0.890200  0.952800  0.508300  1.0  0.1096
  H  H76  1  0.751600  0.016600  0.200400  1.0  0.1015
  H  H77  1  0.827200  0.020900  0.044800  1.0  0.0964
  H  H78  1  0.838000  0.898500  0.921900  1.0  0.1102
  H  H79  1  0.856900  0.886300  0.706500  1.0  0.09
  H  H80  1  0.876200  0.933500  0.817700  1.0  0.083
  H  H81  1  0.952800  0.890200  0.491700  1.0  0.1097
  H  H82  1  0.016600  0.751600  0.799600  1.0  0.1005
  H  H83  1  0.020900  0.827200  0.955200  1.0  0.0947
  H  H84  1  0.898500  0.838000  0.078100  1.0  0.1095
  H  H85  1  0.886300  0.856900  0.293500  1.0  0.0888
  H  H86  1  0.933500  0.876200  0.182300  1.0  0.0859
  H  H87  1  0.547200  0.609800  0.491700  1.0  0.1097
  H  H88  1  0.483400  0.748400  0.799600  1.0  0.1003
  H  H89  1  0.479100  0.672800  0.955200  1.0  0.0954
  H  H90  1  0.601500  0.662000  0.078100  1.0  0.1102
  H  H91  1  0.613700  0.643100  0.293500  1.0  0.0901
  H  H92  1  0.566500  0.623800  0.182300  1.0  0.0864
  H  H93  1  0.890200  0.547200  0.491700  1.0  0.1096
  H  H94  1  0.751600  0.483400  0.799600  1.0  0.1012
  H  H95  1  0.827200  0.479100  0.955200  1.0  0.0967
  H  H96  1  0.838000  0.601500  0.078100  1.0  0.1098
  H  H97  1  0.856900  0.613700  0.293500  1.0  0.0903
  H  H98  1  0.876200  0.566500  0.182300  1.0  0.083
  H  H99  1  0.609800  0.952800  0.491700  1.0  0.1093
  H  H100  1  0.748400  0.016600  0.799600  1.0  0.1009
  H  H101  1  0.672800  0.020900  0.955200  1.0  0.0963
  H  H102  1  0.662000  0.898500  0.078100  1.0  0.1106
  H  H103  1  0.643100  0.886300  0.293500  1.0  0.0928
  H  H104  1  0.623800  0.933500  0.182300  1.0  0.0855
  C  C105  1  0.491130  0.083740  0.836200  1.0  0.665
  C  C106  1  0.487700  0.133550  0.738900  1.0  -0.1692
  C  C107  1  0.465630  0.137560  0.554500  1.0  -0.2043
  C  C108  1  0.462740  0.183490  0.463400  1.0  0.255
  C  C109  1  0.482910  0.225610  0.551300  1.0  0.0099
  C  C110  1  0.503850  0.220680  0.735900  1.0  -0.0996
  C  C111  1  0.506430  0.175220  0.829800  1.0  -0.0394
  C  C112  1  0.412400  0.151840  0.203200  1.0  -0.007
  C  C113  1  0.008870  0.416260  0.836200  1.0  0.665
  C  C114  1  0.012300  0.366450  0.738900  1.0  -0.1679
  C  C115  1  0.034370  0.362440  0.554500  1.0  -0.2045
  C  C116  1  0.037260  0.316510  0.463400  1.0  0.2542
  C  C117  1  0.017090  0.274390  0.551300  1.0  0.0085
  C  C118  1  0.996150  0.279320  0.735900  1.0  -0.1004
  C  C119  1  0.993570  0.324780  0.829800  1.0  -0.0405
  C  C120  1  0.087600  0.348160  0.203200  1.0  -0.0103
  C  C121  1  0.416260  0.491130  0.836200  1.0  0.6644
  C  C122  1  0.366450  0.487700  0.738900  1.0  -0.1658
  C  C123  1  0.362440  0.465630  0.554500  1.0  -0.2049
  C  C124  1  0.316510  0.462740  0.463400  1.0  0.2546
  C  C125  1  0.274390  0.482910  0.551300  1.0  0.011
  C  C126  1  0.279320  0.503850  0.735900  1.0  -0.103
  C  C127  1  0.324780  0.506430  0.829800  1.0  -0.0432
  C  C128  1  0.348160  0.412400  0.203200  1.0  -0.0095
  C  C129  1  0.083740  0.008870  0.836200  1.0  0.6644
  C  C130  1  0.133550  0.012300  0.738900  1.0  -0.1659
  C  C131  1  0.137560  0.034370  0.554500  1.0  -0.2065
  C  C132  1  0.183490  0.037260  0.463400  1.0  0.2549
  C  C133  1  0.225610  0.017090  0.551300  1.0  0.0108
  C  C134  1  0.220680  0.996150  0.735900  1.0  -0.1017
  C  C135  1  0.175220  0.993570  0.829800  1.0  -0.0449
  C  C136  1  0.151840  0.087600  0.203200  1.0  -0.0084
  C  C137  1  0.008870  0.083740  0.163800  1.0  0.6648
  C  C138  1  0.012300  0.133550  0.261100  1.0  -0.1687
  C  C139  1  0.034370  0.137560  0.445500  1.0  -0.2037
  C  C140  1  0.037260  0.183490  0.536600  1.0  0.2548
  C  C141  1  0.017090  0.225610  0.448700  1.0  0.0085
  C  C142  1  0.996150  0.220680  0.264100  1.0  -0.1022
  C  C143  1  0.993570  0.175220  0.170200  1.0  -0.0414
  C  C144  1  0.087600  0.151840  0.796800  1.0  -0.0087
  C  C145  1  0.491130  0.416260  0.163800  1.0  0.6641
  C  C146  1  0.487700  0.366450  0.261100  1.0  -0.1684
  C  C147  1  0.465630  0.362440  0.445500  1.0  -0.2065
  C  C148  1  0.462740  0.316510  0.536600  1.0  0.2544
  C  C149  1  0.482910  0.274390  0.448700  1.0  0.0099
  C  C150  1  0.503850  0.279320  0.264100  1.0  -0.1002
  C  C151  1  0.506430  0.324780  0.170200  1.0  -0.0401
  C  C152  1  0.412400  0.348160  0.796800  1.0  -0.0076
  C  C153  1  0.083740  0.491130  0.163800  1.0  0.6639
  C  C154  1  0.133550  0.487700  0.261100  1.0  -0.1657
  C  C155  1  0.137560  0.465630  0.445500  1.0  -0.2064
  C  C156  1  0.183490  0.462740  0.536600  1.0  0.2551
  C  C157  1  0.225610  0.482910  0.448700  1.0  0.0109
  C  C158  1  0.220680  0.503850  0.264100  1.0  -0.1032
  C  C159  1  0.175220  0.506430  0.170200  1.0  -0.0448
  C  C160  1  0.151840  0.412400  0.796800  1.0  -0.008
  C  C161  1  0.416260  0.008870  0.163800  1.0  0.6634
  C  C162  1  0.366450  0.012300  0.261100  1.0  -0.1656
  C  C163  1  0.362440  0.034370  0.445500  1.0  -0.2065
  C  C164  1  0.316510  0.037260  0.536600  1.0  0.2544
  C  C165  1  0.274390  0.017090  0.448700  1.0  0.0107
  C  C166  1  0.279320  0.996150  0.264100  1.0  -0.1019
  C  C167  1  0.324780  0.993570  0.170200  1.0  -0.0438
  C  C168  1  0.348160  0.087600  0.796800  1.0  -0.0076
  C  C169  1  0.508870  0.916260  0.163800  1.0  0.6652
  C  C170  1  0.512300  0.866450  0.261100  1.0  -0.1682
  C  C171  1  0.534370  0.862440  0.445500  1.0  -0.2051
  C  C172  1  0.537260  0.816510  0.536600  1.0  0.2544
  C  C173  1  0.517090  0.774390  0.448700  1.0  0.0084
  C  C174  1  0.496150  0.779320  0.264100  1.0  -0.1009
  C  C175  1  0.493570  0.824780  0.170200  1.0  -0.041
  C  C176  1  0.587600  0.848160  0.796800  1.0  -0.0091
  C  C177  1  0.991130  0.583740  0.163800  1.0  0.6643
  C  C178  1  0.987700  0.633550  0.261100  1.0  -0.1686
  C  C179  1  0.965630  0.637560  0.445500  1.0  -0.2049
  C  C180  1  0.962740  0.683490  0.536600  1.0  0.255
  C  C181  1  0.982910  0.725610  0.448700  1.0  0.0099
  C  C182  1  0.003850  0.720680  0.264100  1.0  -0.1002
  C  C183  1  0.006430  0.675220  0.170200  1.0  -0.0401
  C  C184  1  0.912400  0.651840  0.796800  1.0  -0.0075
  C  C185  1  0.583740  0.508870  0.163800  1.0  0.6639
  C  C186  1  0.633550  0.512300  0.261100  1.0  -0.1661
  C  C187  1  0.637560  0.534370  0.445500  1.0  -0.207
  C  C188  1  0.683490  0.537260  0.536600  1.0  0.2548
  C  C189  1  0.725610  0.517090  0.448700  1.0  0.0108
  C  C190  1  0.720680  0.496150  0.264100  1.0  -0.102
  C  C191  1  0.675220  0.493570  0.170200  1.0  -0.0448
  C  C192  1  0.651840  0.587600  0.796800  1.0  -0.0079
  C  C193  1  0.916260  0.991130  0.163800  1.0  0.664
  C  C194  1  0.866450  0.987700  0.261100  1.0  -0.1658
  C  C195  1  0.862440  0.965630  0.445500  1.0  -0.2053
  C  C196  1  0.816510  0.962740  0.536600  1.0  0.2546
  C  C197  1  0.774390  0.982910  0.448700  1.0  0.0108
  C  C198  1  0.779320  0.003850  0.264100  1.0  -0.1031
  C  C199  1  0.824780  0.006430  0.170200  1.0  -0.044
  C  C200  1  0.848160  0.912400  0.796800  1.0  -0.0084
  C  C201  1  0.991130  0.916260  0.836200  1.0  0.6648
  C  C202  1  0.987700  0.866450  0.738900  1.0  -0.169
  C  C203  1  0.965630  0.862440  0.554500  1.0  -0.2059
  C  C204  1  0.962740  0.816510  0.463400  1.0  0.2543
  C  C205  1  0.982910  0.774390  0.551300  1.0  0.01
  C  C206  1  0.003850  0.779320  0.735900  1.0  -0.0999
  C  C207  1  0.006430  0.824780  0.829800  1.0  -0.0396
  C  C208  1  0.912400  0.848160  0.203200  1.0  -0.0085
  C  C209  1  0.508870  0.583740  0.836200  1.0  0.6649
  C  C210  1  0.512300  0.633550  0.738900  1.0  -0.1683
  C  C211  1  0.534370  0.637560  0.554500  1.0  -0.203
  C  C212  1  0.537260  0.683490  0.463400  1.0  0.2548
  C  C213  1  0.517090  0.725610  0.551300  1.0  0.0086
  C  C214  1  0.496150  0.720680  0.735900  1.0  -0.1018
  C  C215  1  0.493570  0.675220  0.829800  1.0  -0.0405
  C  C216  1  0.587600  0.651840  0.203200  1.0  -0.0087
  C  C217  1  0.916260  0.508870  0.836200  1.0  0.6639
  C  C218  1  0.866450  0.512300  0.738900  1.0  -0.1655
  C  C219  1  0.862440  0.534370  0.554500  1.0  -0.2059
  C  C220  1  0.816510  0.537260  0.463400  1.0  0.2544
  C  C221  1  0.774390  0.517090  0.551300  1.0  0.0109
  C  C222  1  0.779320  0.496150  0.735900  1.0  -0.1015
  C  C223  1  0.824780  0.493570  0.829800  1.0  -0.0441
  C  C224  1  0.848160  0.587600  0.203200  1.0  -0.008
  C  C225  1  0.583740  0.991130  0.836200  1.0  0.6643
  C  C226  1  0.633550  0.987700  0.738900  1.0  -0.1655
  C  C227  1  0.637560  0.965630  0.554500  1.0  -0.206
  C  C228  1  0.683490  0.962740  0.463400  1.0  0.2551
  C  C229  1  0.725610  0.982910  0.551300  1.0  0.0109
  C  C230  1  0.720680  0.003850  0.735900  1.0  -0.1031
  C  C231  1  0.675220  0.006430  0.829800  1.0  -0.0436
  C  C232  1  0.651840  0.912400  0.203200  1.0  -0.0094
  O  O233  1  0.510760  0.082660  0.004800  1.0  -0.5952
  O  O234  1  0.474960  0.046890  0.745500  1.0  -0.5801
  O  O235  1  0.440240  0.190960  0.285000  1.0  -0.2524
  O  O236  1  0.989240  0.417340  0.004800  1.0  -0.5956
  O  O237  1  0.025040  0.453110  0.745500  1.0  -0.5797
  O  O238  1  0.059760  0.309040  0.285000  1.0  -0.2534
  O  O239  1  0.417340  0.510760  0.004800  1.0  -0.6007
  O  O240  1  0.453110  0.474960  0.745500  1.0  -0.5774
  O  O241  1  0.309040  0.440240  0.285000  1.0  -0.2516
  O  O242  1  0.082660  0.989240  0.004800  1.0  -0.5996
  O  O243  1  0.046890  0.025040  0.745500  1.0  -0.5778
  O  O244  1  0.190960  0.059760  0.285000  1.0  -0.2514
  O  O245  1  0.989240  0.082660  0.995200  1.0  -0.5964
  O  O246  1  0.025040  0.046890  0.254500  1.0  -0.5795
  O  O247  1  0.059760  0.190960  0.715000  1.0  -0.2522
  O  O248  1  0.510760  0.417340  0.995200  1.0  -0.5957
  O  O249  1  0.474960  0.453110  0.254500  1.0  -0.5792
  O  O250  1  0.440240  0.309040  0.715000  1.0  -0.2523
  O  O251  1  0.082660  0.510760  0.995200  1.0  -0.601
  O  O252  1  0.046890  0.474960  0.254500  1.0  -0.5776
  O  O253  1  0.190960  0.440240  0.715000  1.0  -0.2512
  O  O254  1  0.417340  0.989240  0.995200  1.0  -0.5986
  O  O255  1  0.453110  0.025040  0.254500  1.0  -0.5767
  O  O256  1  0.309040  0.059760  0.715000  1.0  -0.2511
  O  O257  1  0.489240  0.917340  0.995200  1.0  -0.5968
  O  O258  1  0.525040  0.953110  0.254500  1.0  -0.5794
  O  O259  1  0.559760  0.809040  0.715000  1.0  -0.253
  O  O260  1  0.010760  0.582660  0.995200  1.0  -0.5952
  O  O261  1  0.974960  0.546890  0.254500  1.0  -0.5792
  O  O262  1  0.940240  0.690960  0.715000  1.0  -0.2525
  O  O263  1  0.582660  0.489240  0.995200  1.0  -0.5985
  O  O264  1  0.546890  0.525040  0.254500  1.0  -0.577
  O  O265  1  0.690960  0.559760  0.715000  1.0  -0.251
  O  O266  1  0.917340  0.010760  0.995200  1.0  -0.601
  O  O267  1  0.953110  0.974960  0.254500  1.0  -0.5772
  O  O268  1  0.809040  0.940240  0.715000  1.0  -0.2511
  O  O269  1  0.010760  0.917340  0.004800  1.0  -0.5953
  O  O270  1  0.974960  0.953110  0.745500  1.0  -0.5793
  O  O271  1  0.940240  0.809040  0.285000  1.0  -0.2528
  O  O272  1  0.489240  0.582660  0.004800  1.0  -0.596
  O  O273  1  0.525040  0.546890  0.745500  1.0  -0.5805
  O  O274  1  0.559760  0.690960  0.285000  1.0  -0.252
  O  O275  1  0.917340  0.489240  0.004800  1.0  -0.5995
  O  O276  1  0.953110  0.525040  0.745500  1.0  -0.5774
  O  O277  1  0.809040  0.559760  0.285000  1.0  -0.2519
  O  O278  1  0.582660  0.010760  0.004800  1.0  -0.6009
  O  O279  1  0.546890  0.974960  0.745500  1.0  -0.578
  O  O280  1  0.690960  0.940240  0.285000  1.0  -0.2516
