# generated using pymatgen
data_Cd4H63C77(NO5)7
_symmetry_space_group_name_H-M   'P 1'
_cell_length_a   14.00240000
_cell_length_b   16.70390000
_cell_length_c   26.82240000
_cell_angle_alpha   91.16500000
_cell_angle_beta   90.00000000
_cell_angle_gamma   90.00000000
_symmetry_Int_Tables_number   1
_chemical_formula_structural   Cd4H63C77(NO5)7
_chemical_formula_sum   'Cd8 H126 C154 N14 O70'
_cell_volume   6272.32009612
_cell_formula_units_Z   2
loop_
 _symmetry_equiv_pos_site_id
 _symmetry_equiv_pos_as_xyz
  1  'x, y, z'
loop_
 _atom_site_type_symbol
 _atom_site_label
 _atom_site_symmetry_multiplicity
 _atom_site_fract_x
 _atom_site_fract_y
 _atom_site_fract_z
 _atom_site_occupancy
 _atom_site_charge
  Cd  Cd1  1  0.447630  0.559840  0.254910  1.0  1.0655
  Cd  Cd2  1  0.690480  0.250280  0.498700  1.0  1.003
  Cd  Cd3  1  0.449210  0.942480  0.752940  1.0  1.0383
  Cd  Cd4  1  0.198260  0.251180  0.997580  1.0  1.0531
  Cd  Cd5  1  0.947630  0.440160  0.745090  1.0  1.0645
  Cd  Cd6  1  0.190480  0.749720  0.501300  1.0  0.9882
  Cd  Cd7  1  0.949210  0.057520  0.247060  1.0  1.0352
  Cd  Cd8  1  0.698260  0.748820  0.002420  1.0  1.0529
  H  H9  1  0.900400  0.279100  0.328700  1.0  0.2805
  H  H10  1  0.137500  0.559000  0.319300  1.0  0.1198
  H  H11  1  0.985400  0.522400  0.344800  1.0  0.1188
  H  H12  1  0.022600  0.301900  0.283500  1.0  0.1218
  H  H13  1  0.181300  0.335500  0.264500  1.0  0.1154
  H  H14  1  0.717100  0.340300  0.332900  1.0  0.1062
  H  H15  1  0.738700  0.225800  0.281700  1.0  0.1278
  H  H16  1  0.668700  0.202900  0.326300  1.0  0.1432
  H  H17  1  0.778400  0.176200  0.327700  1.0  0.1297
  H  H18  1  0.995600  0.211100  0.827100  1.0  0.2689
  H  H19  1  0.718100  0.150500  0.765700  1.0  0.1198
  H  H20  1  0.874600  0.186600  0.785400  1.0  0.1209
  H  H21  1  0.930700  0.959500  0.825700  1.0  0.1193
  H  H22  1  0.775500  0.921700  0.803300  1.0  0.1043
  H  H23  1  0.183000  0.159300  0.829900  1.0  0.1086
  H  H24  1  0.143300  0.276600  0.785100  1.0  0.1434
  H  H25  1  0.223600  0.294500  0.826300  1.0  0.14
  H  H26  1  0.115300  0.320700  0.836500  1.0  0.1196
  H  H27  1  0.984100  0.283100  0.167100  1.0  0.2797
  H  H28  1  0.766700  0.576500  0.193300  1.0  0.1111
  H  H29  1  0.917500  0.535600  0.166600  1.0  0.127
  H  H30  1  0.856600  0.308200  0.205200  1.0  0.117
  H  H31  1  0.703900  0.348100  0.229400  1.0  0.1134
  H  H32  1  0.169600  0.338800  0.166300  1.0  0.1031
  H  H33  1  0.131900  0.218400  0.208300  1.0  0.1263
  H  H34  1  0.215100  0.204700  0.168100  1.0  0.1381
  H  H35  1  0.108600  0.176000  0.155600  1.0  0.1186
  H  H36  1  0.448600  0.748900  0.423000  1.0  0.2787
  H  H37  1  0.750500  0.985300  0.443100  1.0  0.1082
  H  H38  1  0.731500  0.850600  0.420700  1.0  0.1205
  H  H39  1  0.450000  0.866000  0.452800  1.0  0.1149
  H  H40  1  0.467300  0.001200  0.472800  1.0  0.1216
  H  H41  1  0.552600  0.608600  0.418800  1.0  0.1052
  H  H42  1  0.410500  0.614600  0.468700  1.0  0.1231
  H  H43  1  0.409200  0.541500  0.429200  1.0  0.1426
  H  H44  1  0.348900  0.620700  0.418700  1.0  0.1231
  H  H45  1  0.446800  0.749400  0.579400  1.0  0.2737
  H  H46  1  0.750600  0.517300  0.547900  1.0  0.1112
  H  H47  1  0.731100  0.649300  0.575300  1.0  0.1222
  H  H48  1  0.445100  0.626600  0.562800  1.0  0.1135
  H  H49  1  0.464100  0.492500  0.538400  1.0  0.1178
  H  H50  1  0.551700  0.886800  0.589300  1.0  0.1036
  H  H51  1  0.408000  0.883000  0.540000  1.0  0.1256
  H  H52  1  0.409000  0.956000  0.579600  1.0  0.1308
  H  H53  1  0.347300  0.877600  0.590300  1.0  0.1207
  H  H54  1  0.439400  0.758600  0.085700  1.0  0.2724
  H  H55  1  0.425800  0.014800  0.045700  1.0  0.116
  H  H56  1  0.444400  0.882700  0.072400  1.0  0.1202
  H  H57  1  0.156400  0.860600  0.079400  1.0  0.1218
  H  H58  1  0.138800  0.989300  0.049500  1.0  0.1077
  H  H59  1  0.330300  0.624300  0.097500  1.0  0.1113
  H  H60  1  0.467300  0.625500  0.041900  1.0  0.1195
  H  H61  1  0.464000  0.550400  0.078000  1.0  0.1402
  H  H62  1  0.534000  0.623900  0.090300  1.0  0.1171
  H  H63  1  0.437400  0.745200  0.911300  1.0  0.2635
  H  H64  1  0.418800  0.495000  0.969400  1.0  0.1184
  H  H65  1  0.439700  0.630700  0.950500  1.0  0.1178
  H  H66  1  0.156800  0.648400  0.920700  1.0  0.121
  H  H67  1  0.136900  0.513600  0.937900  1.0  0.1112
  H  H68  1  0.331900  0.885500  0.912300  1.0  0.1106
  H  H69  1  0.462200  0.889000  0.969400  1.0  0.121
  H  H70  1  0.471000  0.957900  0.929000  1.0  0.138
  H  H71  1  0.534900  0.878700  0.923700  1.0  0.1168
  H  H72  1  0.400400  0.720900  0.671300  1.0  0.2808
  H  H73  1  0.637500  0.441000  0.680700  1.0  0.1173
  H  H74  1  0.485400  0.477600  0.655200  1.0  0.1189
  H  H75  1  0.522600  0.698100  0.716500  1.0  0.1225
  H  H76  1  0.681300  0.664500  0.735500  1.0  0.1149
  H  H77  1  0.217100  0.659700  0.667100  1.0  0.106
  H  H78  1  0.238700  0.774200  0.718300  1.0  0.1278
  H  H79  1  0.168700  0.797100  0.673700  1.0  0.1435
  H  H80  1  0.278400  0.823800  0.672300  1.0  0.1255
  H  H81  1  0.495600  0.788900  0.172900  1.0  0.2688
  H  H82  1  0.218100  0.849500  0.234300  1.0  0.1192
  H  H83  1  0.374600  0.813400  0.214600  1.0  0.1206
  H  H84  1  0.430700  0.040500  0.174300  1.0  0.12
  H  H85  1  0.275500  0.078300  0.196700  1.0  0.1047
  H  H86  1  0.683000  0.840700  0.170100  1.0  0.1069
  H  H87  1  0.643300  0.723400  0.214900  1.0  0.1424
  H  H88  1  0.723600  0.705500  0.173700  1.0  0.1397
  H  H89  1  0.615300  0.679300  0.163500  1.0  0.1212
  H  H90  1  0.484100  0.716900  0.832900  1.0  0.2803
  H  H91  1  0.266700  0.423500  0.806700  1.0  0.1112
  H  H92  1  0.417500  0.464400  0.833400  1.0  0.1256
  H  H93  1  0.356600  0.691800  0.794800  1.0  0.1178
  H  H94  1  0.203900  0.651900  0.770600  1.0  0.1142
  H  H95  1  0.669600  0.661200  0.833700  1.0  0.1036
  H  H96  1  0.631900  0.781600  0.791700  1.0  0.1333
  H  H97  1  0.715100  0.795300  0.831900  1.0  0.1376
  H  H98  1  0.608600  0.824000  0.844400  1.0  0.1169
  H  H99  1  0.948600  0.251100  0.577000  1.0  0.2798
  H  H100  1  0.250500  0.014700  0.556900  1.0  0.108
  H  H101  1  0.231500  0.149400  0.579300  1.0  0.1205
  H  H102  1  0.950000  0.134000  0.547200  1.0  0.115
  H  H103  1  0.967300  0.998800  0.527200  1.0  0.1209
  H  H104  1  0.052600  0.391400  0.581200  1.0  0.1065
  H  H105  1  0.910500  0.385400  0.531300  1.0  0.124
  H  H106  1  0.909200  0.458500  0.570800  1.0  0.1449
  H  H107  1  0.848900  0.379300  0.581300  1.0  0.1223
  H  H108  1  0.946800  0.250600  0.420600  1.0  0.2743
  H  H109  1  0.250600  0.482700  0.452100  1.0  0.1103
  H  H110  1  0.231100  0.350700  0.424700  1.0  0.1219
  H  H111  1  0.945100  0.373400  0.437200  1.0  0.1132
  H  H112  1  0.964100  0.507500  0.461600  1.0  0.1179
  H  H113  1  0.051700  0.113200  0.410700  1.0  0.1039
  H  H114  1  0.908000  0.117000  0.460000  1.0  0.124
  H  H115  1  0.909000  0.044000  0.420400  1.0  0.1318
  H  H116  1  0.847300  0.122400  0.409700  1.0  0.1202
  H  H117  1  0.939400  0.241400  0.914300  1.0  0.2722
  H  H118  1  0.925800  0.985200  0.954300  1.0  0.1154
  H  H119  1  0.944400  0.117300  0.927600  1.0  0.1203
  H  H120  1  0.656400  0.139400  0.920600  1.0  0.1218
  H  H121  1  0.638800  0.010700  0.950500  1.0  0.1076
  H  H122  1  0.830300  0.375700  0.902500  1.0  0.1106
  H  H123  1  0.967300  0.374500  0.958100  1.0  0.1169
  H  H124  1  0.964000  0.449600  0.922000  1.0  0.1403
  H  H125  1  0.034000  0.376100  0.909700  1.0  0.1163
  H  H126  1  0.937400  0.254800  0.088700  1.0  0.2643
  H  H127  1  0.918800  0.505000  0.030600  1.0  0.1188
  H  H128  1  0.939700  0.369300  0.049500  1.0  0.1179
  H  H129  1  0.656800  0.351600  0.079300  1.0  0.1212
  H  H130  1  0.636900  0.486400  0.062100  1.0  0.1109
  H  H131  1  0.831900  0.114500  0.087700  1.0  0.1123
  H  H132  1  0.962200  0.111000  0.030600  1.0  0.1212
  H  H133  1  0.971000  0.042100  0.071000  1.0  0.1381
  H  H134  1  0.034900  0.121300  0.076300  1.0  0.1165
  C  C135  1  0.273600  0.476200  0.275410  1.0  0.6249
  C  C136  1  0.174000  0.451600  0.289360  1.0  -0.0819
  C  C137  1  0.115200  0.506100  0.312800  1.0  -0.0511
  C  C138  1  0.024000  0.484800  0.327000  1.0  -0.0411
  C  C139  1  0.988200  0.409300  0.315600  1.0  -0.0792
  C  C140  1  0.046400  0.353800  0.291660  1.0  -0.0882
  C  C141  1  0.140300  0.374300  0.279530  1.0  -0.0399
  C  C142  1  0.886800  0.393000  0.330960  1.0  0.4969
  C  C143  1  0.759800  0.297000  0.345200  1.0  0.0642
  C  C144  1  0.734000  0.218300  0.317740  1.0  -0.352
  C  C145  1  0.740600  0.286100  0.400810  1.0  0.6045
  C  C146  1  0.629100  0.008900  0.772600  1.0  0.6615
  C  C147  1  0.730600  0.032400  0.783290  1.0  -0.1003
  C  C148  1  0.761100  0.111400  0.777760  1.0  -0.0534
  C  C149  1  0.854100  0.133000  0.789820  1.0  -0.0801
  C  C150  1  0.917300  0.077000  0.808250  1.0  -0.0911
  C  C151  1  0.887600  0.998200  0.813360  1.0  -0.0435
  C  C152  1  0.794900  0.975900  0.800400  1.0  -0.053
  C  C153  1  0.016400  0.097100  0.825590  1.0  0.5055
  C  C154  1  0.136900  0.199500  0.843980  1.0  0.0685
  C  C155  1  0.156500  0.279900  0.820930  1.0  -0.3626
  C  C156  1  0.154800  0.209500  0.900010  1.0  0.6011
  C  C157  1  0.622700  0.494600  0.230740  1.0  0.6609
  C  C158  1  0.720300  0.466600  0.214490  1.0  -0.0976
  C  C159  1  0.784500  0.521800  0.195400  1.0  -0.0352
  C  C160  1  0.874000  0.497500  0.179500  1.0  -0.0401
  C  C161  1  0.900600  0.417800  0.182180  1.0  -0.0979
  C  C162  1  0.837700  0.362500  0.202010  1.0  -0.0841
  C  C163  1  0.747600  0.386500  0.217120  1.0  -0.0487
  C  C164  1  0.000500  0.397300  0.164600  1.0  0.4927
  C  C165  1  0.125800  0.298000  0.150790  1.0  0.0724
  C  C166  1  0.147300  0.217100  0.172630  1.0  -0.3594
  C  C167  1  0.146500  0.291700  0.095090  1.0  0.6047
  C  C168  1  0.625500  0.094000  0.473470  1.0  0.6909
  C  C169  1  0.611400  0.006800  0.460410  1.0  -0.0901
  C  C170  1  0.689200  0.961200  0.444920  1.0  -0.0595
  C  C171  1  0.678100  0.881000  0.432050  1.0  -0.0443
  C  C172  1  0.588800  0.844700  0.435710  1.0  -0.0949
  C  C173  1  0.511200  0.890300  0.450760  1.0  -0.099
  C  C174  1  0.521400  0.970500  0.462850  1.0  -0.0596
  C  C175  1  0.584700  0.757700  0.421380  1.0  0.5487
  C  C176  1  0.493500  0.635500  0.406580  1.0  0.0856
  C  C177  1  0.407900  0.599900  0.433170  1.0  -0.3559
  C  C178  1  0.483700  0.617600  0.350510  1.0  0.6174
  C  C179  1  0.624000  0.405300  0.525560  1.0  0.657
  C  C180  1  0.609200  0.491900  0.540610  1.0  -0.1033
  C  C181  1  0.688200  0.539000  0.551540  1.0  -0.0396
  C  C182  1  0.676500  0.617500  0.567660  1.0  -0.0296
  C  C183  1  0.585700  0.650500  0.572770  1.0  -0.0869
  C  C184  1  0.507300  0.604100  0.560680  1.0  -0.0926
  C  C185  1  0.518600  0.524500  0.545470  1.0  -0.0427
  C  C186  1  0.580800  0.735100  0.592630  1.0  0.508
  C  C187  1  0.492500  0.860300  0.601780  1.0  0.0712
  C  C188  1  0.406400  0.897600  0.575540  1.0  -0.3564
  C  C189  1  0.483600  0.879400  0.657740  1.0  0.6256
  C  C190  1  0.265600  0.098500  0.027130  1.0  0.6619
  C  C191  1  0.280500  0.014700  0.044560  1.0  -0.1058
  C  C192  1  0.371000  0.983000  0.051990  1.0  -0.0393
  C  C193  1  0.382200  0.904600  0.068710  1.0  -0.102
  C  C194  1  0.302500  0.859100  0.079800  1.0  -0.0849
  C  C195  1  0.211500  0.891600  0.072290  1.0  -0.0302
  C  C196  1  0.201000  0.968200  0.054690  1.0  -0.0302
  C  C197  1  0.306200  0.776200  0.099760  1.0  0.5
  C  C198  1  0.392400  0.649600  0.107310  1.0  0.0608
  C  C199  1  0.471600  0.608700  0.076620  1.0  -0.3525
  C  C200  1  0.410000  0.632200  0.162260  1.0  0.6205
  C  C201  1  0.257900  0.406300  0.971130  1.0  0.6632
  C  C202  1  0.274800  0.492000  0.957000  1.0  -0.1054
  C  C203  1  0.365500  0.526400  0.959920  1.0  -0.0453
  C  C204  1  0.377900  0.607300  0.948960  1.0  -0.0742
  C  C205  1  0.299900  0.653200  0.935790  1.0  -0.0739
  C  C206  1  0.209900  0.617500  0.931090  1.0  -0.0426
  C  C207  1  0.198100  0.537600  0.941460  1.0  -0.0346
  C  C208  1  0.304500  0.741500  0.926750  1.0  0.5083
  C  C209  1  0.393800  0.859600  0.902780  1.0  0.0754
  C  C210  1  0.472600  0.899900  0.934040  1.0  -0.3419
  C  C211  1  0.410400  0.874600  0.847240  1.0  0.6698
  C  C212  1  0.773600  0.523800  0.724590  1.0  0.6237
  C  C213  1  0.674000  0.548400  0.710640  1.0  -0.0819
  C  C214  1  0.615200  0.493900  0.687200  1.0  -0.052
  C  C215  1  0.524000  0.515200  0.673000  1.0  -0.0402
  C  C216  1  0.488200  0.590700  0.684400  1.0  -0.0801
  C  C217  1  0.546400  0.646200  0.708340  1.0  -0.0869
  C  C218  1  0.640300  0.625700  0.720470  1.0  -0.0403
  C  C219  1  0.386800  0.607000  0.669040  1.0  0.4959
  C  C220  1  0.259800  0.703000  0.654800  1.0  0.0646
  C  C221  1  0.234000  0.781700  0.682260  1.0  -0.3513
  C  C222  1  0.240600  0.713900  0.599190  1.0  0.6046
  C  C223  1  0.129100  0.991100  0.227400  1.0  0.6593
  C  C224  1  0.230600  0.967600  0.216710  1.0  -0.1
  C  C225  1  0.261100  0.888600  0.222240  1.0  -0.0543
  C  C226  1  0.354100  0.867000  0.210180  1.0  -0.0819
  C  C227  1  0.417300  0.923000  0.191750  1.0  -0.0899
  C  C228  1  0.387600  0.001800  0.186640  1.0  -0.045
  C  C229  1  0.294900  0.024100  0.199600  1.0  -0.0525
  C  C230  1  0.516400  0.902900  0.174410  1.0  0.5049
  C  C231  1  0.636900  0.800500  0.156020  1.0  0.0689
  C  C232  1  0.656500  0.720100  0.179070  1.0  -0.3626
  C  C233  1  0.654800  0.790500  0.099990  1.0  0.5982
  C  C234  1  0.122700  0.505400  0.769260  1.0  0.6577
  C  C235  1  0.220300  0.533400  0.785510  1.0  -0.1
  C  C236  1  0.284500  0.478200  0.804600  1.0  -0.0368
  C  C237  1  0.374000  0.502500  0.820500  1.0  -0.0406
  C  C238  1  0.400600  0.582200  0.817820  1.0  -0.0973
  C  C239  1  0.337700  0.637500  0.797990  1.0  -0.0832
  C  C240  1  0.247600  0.613500  0.782880  1.0  -0.049
  C  C241  1  0.500500  0.602700  0.835400  1.0  0.4927
  C  C242  1  0.625800  0.702000  0.849210  1.0  0.0717
  C  C243  1  0.647300  0.782900  0.827370  1.0  -0.3608
  C  C244  1  0.646500  0.708300  0.904910  1.0  0.6075
  C  C245  1  0.125500  0.906000  0.526530  1.0  0.6838
  C  C246  1  0.111400  0.993200  0.539590  1.0  -0.0914
  C  C247  1  0.189200  0.038800  0.555080  1.0  -0.0589
  C  C248  1  0.178100  0.119000  0.567950  1.0  -0.0435
  C  C249  1  0.088800  0.155300  0.564290  1.0  -0.0956
  C  C250  1  0.011200  0.109700  0.549240  1.0  -0.0989
  C  C251  1  0.021400  0.029500  0.537150  1.0  -0.0611
  C  C252  1  0.084700  0.242300  0.578620  1.0  0.5481
  C  C253  1  0.993500  0.364500  0.593420  1.0  0.0848
  C  C254  1  0.907900  0.400100  0.566830  1.0  -0.358
  C  C255  1  0.983700  0.382400  0.649490  1.0  0.6184
  C  C256  1  0.124000  0.594700  0.474440  1.0  0.6577
  C  C257  1  0.109200  0.508100  0.459390  1.0  -0.1018
  C  C258  1  0.188200  0.461000  0.448460  1.0  -0.0396
  C  C259  1  0.176500  0.382500  0.432340  1.0  -0.0296
  C  C260  1  0.085700  0.349500  0.427230  1.0  -0.0874
  C  C261  1  0.007300  0.395900  0.439320  1.0  -0.0936
  C  C262  1  0.018600  0.475500  0.454530  1.0  -0.0439
  C  C263  1  0.080800  0.264900  0.407370  1.0  0.5074
  C  C264  1  0.992500  0.139700  0.398220  1.0  0.0716
  C  C265  1  0.906400  0.102400  0.424460  1.0  -0.3565
  C  C266  1  0.983600  0.120600  0.342260  1.0  0.6265
  C  C267  1  0.765600  0.901500  0.972870  1.0  0.6569
  C  C268  1  0.780500  0.985300  0.955440  1.0  -0.1067
  C  C269  1  0.871000  0.017000  0.948010  1.0  -0.0386
  C  C270  1  0.882200  0.095400  0.931290  1.0  -0.1018
  C  C271  1  0.802500  0.140900  0.920200  1.0  -0.0847
  C  C272  1  0.711500  0.108400  0.927710  1.0  -0.0302
  C  C273  1  0.701000  0.031800  0.945310  1.0  -0.0307
  C  C274  1  0.806200  0.223800  0.900240  1.0  0.5009
  C  C275  1  0.892400  0.350400  0.892690  1.0  0.0606
  C  C276  1  0.971600  0.391300  0.923380  1.0  -0.3514
  C  C277  1  0.910000  0.367800  0.837740  1.0  0.6213
  C  C278  1  0.757900  0.593700  0.028870  1.0  0.6568
  C  C279  1  0.774800  0.508000  0.043000  1.0  -0.1013
  C  C280  1  0.865500  0.473600  0.040080  1.0  -0.0449
  C  C281  1  0.877900  0.392700  0.051040  1.0  -0.0735
  C  C282  1  0.799900  0.346800  0.064210  1.0  -0.0743
  C  C283  1  0.709900  0.382500  0.068910  1.0  -0.0422
  C  C284  1  0.698100  0.462400  0.058540  1.0  -0.0346
  C  C285  1  0.804500  0.258500  0.073250  1.0  0.5064
  C  C286  1  0.893800  0.140400  0.097220  1.0  0.0762
  C  C287  1  0.972600  0.100100  0.065960  1.0  -0.343
  C  C288  1  0.910400  0.125400  0.152760  1.0  0.6496
  N  N289  1  0.858500  0.317720  0.333820  1.0  -0.3628
  N  N290  1  0.039900  0.174380  0.831230  1.0  -0.3542
  N  N291  1  0.026800  0.320700  0.162020  1.0  -0.3679
  N  N292  1  0.501200  0.720960  0.418090  1.0  -0.3896
  N  N293  1  0.498600  0.775080  0.589330  1.0  -0.3773
  N  N294  1  0.387300  0.734200  0.095720  1.0  -0.3645
  N  N295  1  0.385900  0.775210  0.913600  1.0  -0.3537
  N  N296  1  0.358500  0.682280  0.666180  1.0  -0.3631
  N  N297  1  0.539900  0.825620  0.168770  1.0  -0.3532
  N  N298  1  0.526800  0.679300  0.837980  1.0  -0.3675
  N  N299  1  0.001200  0.279040  0.581910  1.0  -0.3876
  N  N300  1  0.998600  0.224920  0.410670  1.0  -0.3777
  N  N301  1  0.887300  0.265800  0.904280  1.0  -0.3663
  N  N302  1  0.885900  0.224790  0.086400  1.0  -0.3537
  O  O303  1  0.288220  0.549730  0.269200  1.0  -0.5155
  O  O304  1  0.338080  0.424470  0.270980  1.0  -0.4348
  O  O305  1  0.832700  0.450740  0.340970  1.0  -0.4473
  O  O306  1  0.653620  0.280780  0.414460  1.0  -0.5256
  O  O307  1  0.807030  0.279190  0.431530  1.0  -0.5703
  O  O308  1  0.565160  0.062060  0.770200  1.0  -0.5189
  O  O309  1  0.610850  0.935670  0.766820  1.0  -0.5315
  O  O310  1  0.073830  0.043160  0.835590  1.0  -0.4553
  O  O311  1  0.241310  0.217000  0.914070  1.0  -0.4966
  O  O312  1  0.086510  0.216190  0.929990  1.0  -0.5614
  O  O313  1  0.555430  0.444580  0.234200  1.0  -0.5007
  O  O314  1  0.611650  0.567340  0.240000  1.0  -0.532
  O  O315  1  0.055740  0.451700  0.152570  1.0  -0.4503
  O  O316  1  0.233810  0.290040  0.082110  1.0  -0.5022
  O  O317  1  0.080590  0.281750  0.064180  1.0  -0.554
  O  O318  1  0.708900  0.116390  0.484620  1.0  -0.5707
  O  O319  1  0.555700  0.140900  0.473550  1.0  -0.5068
  O  O320  1  0.658500  0.720600  0.411700  1.0  -0.453
  O  O321  1  0.470630  0.670450  0.319690  1.0  -0.5522
  O  O322  1  0.484800  0.543850  0.337920  1.0  -0.5054
  O  O323  1  0.706500  0.384270  0.512340  1.0  -0.5589
  O  O324  1  0.555200  0.357300  0.526820  1.0  -0.5059
  O  O325  1  0.653530  0.767340  0.611040  1.0  -0.444
  O  O326  1  0.464100  0.826860  0.688190  1.0  -0.5713
  O  O327  1  0.491640  0.952780  0.670340  1.0  -0.5641
  O  O328  1  0.183270  0.118740  0.014030  1.0  -0.5185
  O  O329  1  0.335450  0.146440  0.026320  1.0  -0.4511
  O  O330  1  0.233200  0.746140  0.118940  1.0  -0.4309
  O  O331  1  0.405700  0.558470  0.173500  1.0  -0.5328
  O  O332  1  0.429600  0.685290  0.193540  1.0  -0.5454
  O  O333  1  0.326620  0.358130  0.972350  1.0  -0.4686
  O  O334  1  0.174040  0.386100  0.982100  1.0  -0.5209
  O  O335  1  0.229900  0.782660  0.932680  1.0  -0.4521
  O  O336  1  0.417400  0.947470  0.835240  1.0  -0.565
  O  O337  1  0.418820  0.819290  0.815950  1.0  -0.5783
  O  O338  1  0.788220  0.450270  0.730800  1.0  -0.5161
  O  O339  1  0.838080  0.575530  0.729020  1.0  -0.4362
  O  O340  1  0.332700  0.549260  0.659030  1.0  -0.4506
  O  O341  1  0.153620  0.719220  0.585540  1.0  -0.5245
  O  O342  1  0.307030  0.720810  0.568470  1.0  -0.5698
  O  O343  1  0.065160  0.937940  0.229800  1.0  -0.5203
  O  O344  1  0.110850  0.064330  0.233180  1.0  -0.5338
  O  O345  1  0.573830  0.956840  0.164410  1.0  -0.4536
  O  O346  1  0.741310  0.783000  0.085930  1.0  -0.497
  O  O347  1  0.586510  0.783810  0.070010  1.0  -0.5621
  O  O348  1  0.055430  0.555420  0.765800  1.0  -0.4987
  O  O349  1  0.111650  0.432660  0.760000  1.0  -0.5297
  O  O350  1  0.555740  0.548300  0.847430  1.0  -0.4809
  O  O351  1  0.733810  0.709960  0.917890  1.0  -0.4988
  O  O352  1  0.580590  0.718250  0.935820  1.0  -0.5523
  O  O353  1  0.208900  0.883610  0.515380  1.0  -0.5722
  O  O354  1  0.055700  0.859100  0.526450  1.0  -0.5088
  O  O355  1  0.158500  0.279400  0.588300  1.0  -0.4527
  O  O356  1  0.970630  0.329550  0.680310  1.0  -0.5618
  O  O357  1  0.984800  0.456150  0.662080  1.0  -0.5072
  O  O358  1  0.206500  0.615730  0.487660  1.0  -0.5592
  O  O359  1  0.055200  0.642700  0.473180  1.0  -0.505
  O  O360  1  0.153530  0.232660  0.388960  1.0  -0.4455
  O  O361  1  0.964100  0.173140  0.311810  1.0  -0.5722
  O  O362  1  0.991640  0.047220  0.329660  1.0  -0.5632
  O  O363  1  0.683270  0.881260  0.985970  1.0  -0.5186
  O  O364  1  0.835450  0.853560  0.973680  1.0  -0.4499
  O  O365  1  0.733200  0.253860  0.881060  1.0  -0.4327
  O  O366  1  0.905700  0.441530  0.826500  1.0  -0.5555
  O  O367  1  0.929600  0.314710  0.806460  1.0  -0.5472
  O  O368  1  0.826620  0.641870  0.027650  1.0  -0.4686
  O  O369  1  0.674040  0.613900  0.017900  1.0  -0.5212
  O  O370  1  0.729900  0.217340  0.067320  1.0  -0.4485
  O  O371  1  0.917400  0.052530  0.164760  1.0  -0.5622
  O  O372  1  0.918820  0.180710  0.184050  1.0  -0.5765
