# generated using pymatgen
data_MnH19C24S(N2O3)2
_symmetry_space_group_name_H-M   'P 1'
_cell_length_a   8.67150000
_cell_length_b   13.34030000
_cell_length_c   27.44120000
_cell_angle_alpha   93.87420000
_cell_angle_beta   90.00000000
_cell_angle_gamma   108.96600000
_symmetry_Int_Tables_number   1
_chemical_formula_structural   MnH19C24S(N2O3)2
_chemical_formula_sum   'Mn4 H76 C96 S4 N16 O24'
_cell_volume   2994.40411474
_cell_formula_units_Z   4
loop_
 _symmetry_equiv_pos_site_id
 _symmetry_equiv_pos_as_xyz
  1  'x, y, z'
loop_
 _atom_site_type_symbol
 _atom_site_label
 _atom_site_symmetry_multiplicity
 _atom_site_fract_x
 _atom_site_fract_y
 _atom_site_fract_z
 _atom_site_occupancy
 _atom_site_charge
  Mn  Mn1  1  0.877500  0.541920  0.202520  1.0  1.0637
  Mn  Mn2  1  0.335580  0.458080  0.297480  1.0  1.063
  Mn  Mn3  1  0.122500  0.458080  0.797480  1.0  1.064
  Mn  Mn4  1  0.664420  0.541920  0.702520  1.0  1.0642
  H  H5  1  0.447200  0.489800  0.114000  1.0  0.3555
  H  H6  1  0.307300  0.598800  0.138000  1.0  0.1477
  H  H7  1  0.144800  0.505600  0.126000  1.0  0.103
  H  H8  1  0.919500  0.333400  0.080100  1.0  0.103
  H  H9  1  0.758800  0.345400  0.014600  1.0  0.1032
  H  H10  1  0.871200  0.380800  0.939000  1.0  0.0875
  H  H11  1  0.308100  0.391400  0.992800  1.0  0.1142
  H  H12  1  0.920300  0.320800  0.229300  1.0  0.0677
  H  H13  1  0.805000  0.140600  0.218100  1.0  0.0994
  H  H14  1  0.500100  0.182800  0.119300  1.0  0.1185
  H  H15  1  0.616300  0.362800  0.136200  1.0  0.0622
  H  H16  1  0.738000  0.979000  0.190700  1.0  0.1162
  H  H17  1  0.618800  0.801200  0.174100  1.0  0.0516
  H  H18  1  0.258200  0.840800  0.101900  1.0  0.0952
  H  H19  1  0.367700  0.022800  0.117400  1.0  0.115
  H  H20  1  0.025300  0.716800  0.288600  1.0  0.0606
  H  H21  1  0.103800  0.894800  0.310100  1.0  0.0991
  H  H22  1  0.032200  0.943600  0.173700  1.0  0.1271
  H  H23  1  0.944800  0.763600  0.157500  1.0  0.0664
  H  H24  1  0.957400  0.510200  0.386000  1.0  0.3554
  H  H25  1  0.708500  0.401200  0.362000  1.0  0.1469
  H  H26  1  0.639200  0.494400  0.374000  1.0  0.1029
  H  H27  1  0.586100  0.666667  0.419900  1.0  0.1028
  H  H28  1  0.413400  0.654600  0.485400  1.0  0.1029
  H  H29  1  0.490400  0.619200  0.561000  1.0  0.0877
  H  H30  1  0.916700  0.608600  0.507200  1.0  0.1141
  H  H31  1  0.599500  0.679200  0.270700  1.0  0.0677
  H  H32  1  0.664400  0.859400  0.281900  1.0  0.0989
  H  H33  1  0.317300  0.817200  0.380700  1.0  0.1188
  H  H34  1  0.253500  0.637200  0.363800  1.0  0.0626
  H  H35  1  0.759000  0.021000  0.309300  1.0  0.1164
  H  H36  1  0.817600  0.198800  0.325900  1.0  0.0518
  H  H37  1  0.417400  0.159200  0.398100  1.0  0.0944
  H  H38  1  0.344900  0.977200  0.382600  1.0  0.1149
  H  H39  1  0.308500  0.283200  0.211400  1.0  0.0605
  H  H40  1  0.209000  0.105200  0.189900  1.0  0.0996
  H  H41  1  0.088600  0.056400  0.326300  1.0  0.1285
  H  H42  1  0.181200  0.236400  0.342500  1.0  0.0659
  H  H43  1  0.552800  0.510200  0.886000  1.0  0.3558
  H  H44  1  0.692700  0.401200  0.862000  1.0  0.1467
  H  H45  1  0.855200  0.494400  0.874000  1.0  0.1033
  H  H46  1  0.080500  0.666667  0.919900  1.0  0.1026
  H  H47  1  0.241200  0.654600  0.985400  1.0  0.1035
  H  H48  1  0.128800  0.619200  0.061000  1.0  0.0878
  H  H49  1  0.691900  0.608600  0.007200  1.0  0.1144
  H  H50  1  0.079700  0.679200  0.770700  1.0  0.0678
  H  H51  1  0.195000  0.859400  0.781900  1.0  0.0988
  H  H52  1  0.499900  0.817200  0.880700  1.0  0.1192
  H  H53  1  0.383700  0.637200  0.863800  1.0  0.0625
  H  H54  1  0.262000  0.021000  0.809300  1.0  0.1165
  H  H55  1  0.381200  0.198800  0.825900  1.0  0.0516
  H  H56  1  0.741800  0.159200  0.898100  1.0  0.0949
  H  H57  1  0.632300  0.977200  0.882600  1.0  0.1158
  H  H58  1  0.974700  0.283200  0.711400  1.0  0.0605
  H  H59  1  0.896200  0.105200  0.689900  1.0  0.0999
  H  H60  1  0.967800  0.056400  0.826300  1.0  0.1272
  H  H61  1  0.055200  0.236400  0.842500  1.0  0.066
  H  H62  1  0.042600  0.489800  0.614000  1.0  0.356
  H  H63  1  0.291500  0.598800  0.638000  1.0  0.148
  H  H64  1  0.360800  0.505600  0.626000  1.0  0.1031
  H  H65  1  0.413900  0.333400  0.580100  1.0  0.1034
  H  H66  1  0.586600  0.345400  0.514600  1.0  0.1032
  H  H67  1  0.509600  0.380800  0.439000  1.0  0.0877
  H  H68  1  0.083300  0.391400  0.492800  1.0  0.1145
  H  H69  1  0.400500  0.320800  0.729300  1.0  0.0675
  H  H70  1  0.335600  0.140600  0.718100  1.0  0.0991
  H  H71  1  0.682700  0.182800  0.619300  1.0  0.1183
  H  H72  1  0.746500  0.362800  0.636200  1.0  0.0621
  H  H73  1  0.241000  0.979000  0.690700  1.0  0.1165
  H  H74  1  0.182400  0.801200  0.674100  1.0  0.0514
  H  H75  1  0.582600  0.840800  0.601900  1.0  0.0952
  H  H76  1  0.655100  0.022800  0.617400  1.0  0.115
  H  H77  1  0.691500  0.716800  0.788600  1.0  0.0606
  H  H78  1  0.791000  0.894800  0.810100  1.0  0.0995
  H  H79  1  0.911400  0.943600  0.673700  1.0  0.1291
  H  H80  1  0.818800  0.763600  0.657500  1.0  0.0662
  C  C81  1  0.228540  0.507280  0.196140  1.0  0.7491
  C  C82  1  0.251540  0.523880  0.141650  1.0  -0.1272
  C  C83  1  0.127160  0.359120  0.042240  1.0  -0.2327
  C  C84  1  0.964290  0.346780  0.049440  1.0  -0.0499
  C  C85  1  0.868860  0.354520  0.010320  1.0  -0.1063
  C  C86  1  0.936290  0.375780  0.965000  1.0  -0.062
  C  C87  1  0.101170  0.389740  0.957910  1.0  -0.1532
  C  C88  1  0.197880  0.381760  0.996900  1.0  0.0107
  C  C89  1  0.176390  0.414380  0.908950  1.0  0.6834
  C  C90  1  0.830500  0.293000  0.208100  1.0  0.1701
  C  C91  1  0.763600  0.184000  0.200600  1.0  -0.1906
  C  C92  1  0.636500  0.138800  0.167700  1.0  0.0834
  C  C93  1  0.583200  0.208600  0.142900  1.0  -0.2193
  C  C94  1  0.654460  0.317520  0.153400  1.0  0.1685
  C  C95  1  0.566400  0.021800  0.157700  1.0  0.0433
  C  C96  1  0.639900  0.953400  0.173000  1.0  -0.2042
  C  C97  1  0.567900  0.845800  0.161900  1.0  0.1995
  C  C98  1  0.355800  0.869400  0.119700  1.0  0.1432
  C  C99  1  0.420000  0.978400  0.129300  1.0  -0.1568
  C  C100  1  0.026800  0.762800  0.264400  1.0  0.1996
  C  C101  1  0.077400  0.871000  0.277600  1.0  -0.1896
  C  C102  1  0.088520  0.942040  0.243780  1.0  0.1075
  C  C103  1  0.034500  0.899800  0.198400  1.0  -0.2183
  C  C104  1  0.982400  0.790400  0.189100  1.0  0.1893
  C  C105  1  0.721260  0.492720  0.303860  1.0  0.7485
  C  C106  1  0.727660  0.476120  0.358350  1.0  -0.1262
  C  C107  1  0.768040  0.640880  0.457760  1.0  -0.2347
  C  C108  1  0.617510  0.653220  0.450560  1.0  -0.0501
  C  C109  1  0.514340  0.645480  0.489680  1.0  -0.1065
  C  C110  1  0.560510  0.624220  0.535000  1.0  -0.0628
  C  C111  1  0.711430  0.610260  0.542090  1.0  -0.1537
  C  C112  1  0.816120  0.618240  0.503100  1.0  0.0111
  C  C113  1  0.762010  0.585620  0.591050  1.0  0.6851
  C  C114  1  0.537500  0.707000  0.291900  1.0  0.1699
  C  C115  1  0.579600  0.816000  0.299400  1.0  -0.1909
  C  C116  1  0.497700  0.861200  0.332300  1.0  0.0832
  C  C117  1  0.374600  0.791400  0.357100  1.0  -0.2178
  C  C118  1  0.336940  0.682480  0.346600  1.0  0.1686
  C  C119  1  0.544600  0.978200  0.342300  1.0  0.0455
  C  C120  1  0.686500  0.046600  0.327000  1.0  -0.2056
  C  C121  1  0.722100  0.154200  0.338100  1.0  0.1996
  C  C122  1  0.486400  0.130600  0.380300  1.0  0.142
  C  C123  1  0.441600  0.021600  0.370700  1.0  -0.1569
  C  C124  1  0.264000  0.237200  0.235600  1.0  0.2
  C  C125  1  0.206400  0.129000  0.222400  1.0  -0.1884
  C  C126  1  0.146480  0.057960  0.256220  1.0  0.1076
  C  C127  1  0.134700  0.100200  0.301600  1.0  -0.2175
  C  C128  1  0.192000  0.209600  0.310900  1.0  0.1896
  C  C129  1  0.771460  0.492720  0.803860  1.0  0.7485
  C  C130  1  0.748460  0.476120  0.858350  1.0  -0.1272
  C  C131  1  0.872840  0.640880  0.957760  1.0  -0.2373
  C  C132  1  0.035710  0.653220  0.950560  1.0  -0.0496
  C  C133  1  0.131140  0.645480  0.989680  1.0  -0.1058
  C  C134  1  0.063710  0.624220  0.035000  1.0  -0.0629
  C  C135  1  0.898830  0.610260  0.042090  1.0  -0.1541
  C  C136  1  0.802120  0.618240  0.003100  1.0  0.0083
  C  C137  1  0.823610  0.585620  0.091050  1.0  0.6853
  C  C138  1  0.169500  0.707000  0.791900  1.0  0.1697
  C  C139  1  0.236400  0.816000  0.799400  1.0  -0.19
  C  C140  1  0.363500  0.861200  0.832300  1.0  0.0829
  C  C141  1  0.416800  0.791400  0.857100  1.0  -0.2181
  C  C142  1  0.345540  0.682480  0.846600  1.0  0.169
  C  C143  1  0.433600  0.978200  0.842300  1.0  0.0454
  C  C144  1  0.360100  0.046600  0.827000  1.0  -0.2066
  C  C145  1  0.432100  0.154200  0.838100  1.0  0.1996
  C  C146  1  0.644200  0.130600  0.880300  1.0  0.1419
  C  C147  1  0.580000  0.021600  0.870700  1.0  -0.1569
  C  C148  1  0.973200  0.237200  0.735600  1.0  0.199
  C  C149  1  0.922600  0.129000  0.722400  1.0  -0.1892
  C  C150  1  0.911480  0.057960  0.756220  1.0  0.1075
  C  C151  1  0.965500  0.100200  0.801600  1.0  -0.217
  C  C152  1  0.017600  0.209600  0.810900  1.0  0.1909
  C  C153  1  0.278740  0.507280  0.696140  1.0  0.749
  C  C154  1  0.272340  0.523880  0.641650  1.0  -0.1276
  C  C155  1  0.231960  0.359120  0.542240  1.0  -0.2356
  C  C156  1  0.382490  0.346780  0.549440  1.0  -0.0512
  C  C157  1  0.485660  0.354520  0.510320  1.0  -0.107
  C  C158  1  0.439490  0.375780  0.465000  1.0  -0.0624
  C  C159  1  0.288570  0.389740  0.457910  1.0  -0.155
  C  C160  1  0.183880  0.381760  0.496900  1.0  0.0088
  C  C161  1  0.237990  0.414380  0.408950  1.0  0.6844
  C  C162  1  0.462500  0.293000  0.708100  1.0  0.1698
  C  C163  1  0.420400  0.184000  0.700600  1.0  -0.19
  C  C164  1  0.502300  0.138800  0.667700  1.0  0.0835
  C  C165  1  0.625400  0.208600  0.642900  1.0  -0.2197
  C  C166  1  0.663060  0.317520  0.653400  1.0  0.1689
  C  C167  1  0.455400  0.021800  0.657700  1.0  0.0436
  C  C168  1  0.313500  0.953400  0.673000  1.0  -0.2047
  C  C169  1  0.277900  0.845800  0.661900  1.0  0.2
  C  C170  1  0.513600  0.869400  0.619700  1.0  0.1422
  C  C171  1  0.558400  0.978400  0.629300  1.0  -0.1576
  C  C172  1  0.736000  0.762800  0.764400  1.0  0.1987
  C  C173  1  0.793600  0.871000  0.777600  1.0  -0.1889
  C  C174  1  0.853520  0.942040  0.743780  1.0  0.1072
  C  C175  1  0.865300  0.899800  0.698400  1.0  -0.2185
  C  C176  1  0.808000  0.790400  0.689100  1.0  0.1897
  S  S177  1  0.251430  0.345820  0.091170  1.0  1.2597
  S  S178  1  0.905610  0.654180  0.408830  1.0  1.2636
  S  S179  1  0.748570  0.654180  0.908830  1.0  1.263
  S  S180  1  0.094390  0.345820  0.591170  1.0  1.2589
  N  N181  1  0.343070  0.462740  0.115910  1.0  -0.5333
  N  N182  1  0.773180  0.360560  0.186390  1.0  -0.3475
  N  N183  1  0.435000  0.801400  0.136200  1.0  -0.394
  N  N184  1  0.981910  0.722220  0.220840  1.0  -0.3303
  N  N185  1  0.880330  0.537260  0.384090  1.0  -0.5327
  N  N186  1  0.412620  0.639440  0.313610  1.0  -0.3481
  N  N187  1  0.633600  0.198600  0.363800  1.0  -0.3958
  N  N188  1  0.259690  0.277780  0.279160  1.0  -0.3307
  N  N189  1  0.656930  0.537260  0.884090  1.0  -0.5288
  N  N190  1  0.226820  0.639440  0.813610  1.0  -0.3481
  N  N191  1  0.565000  0.198600  0.863800  1.0  -0.3955
  N  N192  1  0.018090  0.277780  0.779160  1.0  -0.3306
  N  N193  1  0.119670  0.462740  0.615910  1.0  -0.5284
  N  N194  1  0.587380  0.360560  0.686390  1.0  -0.3477
  N  N195  1  0.366400  0.801400  0.636200  1.0  -0.3933
  N  N196  1  0.740310  0.722220  0.720840  1.0  -0.3302
  O  O197  1  0.112990  0.529580  0.215270  1.0  -0.6326
  O  O198  1  0.330810  0.478220  0.218960  1.0  -0.6038
  O  O199  1  0.141450  0.287500  0.126470  1.0  -0.5881
  O  O200  1  0.375160  0.306920  0.070620  1.0  -0.5951
  O  O201  1  0.320550  0.414700  0.904110  1.0  -0.6168
  O  O202  1  0.090850  0.432500  0.875950  1.0  -0.6146
  O  O203  1  0.583410  0.470420  0.284730  1.0  -0.6329
  O  O204  1  0.852590  0.521780  0.281040  1.0  -0.6039
  O  O205  1  0.853950  0.712500  0.373530  1.0  -0.5885
  O  O206  1  0.068240  0.693080  0.429380  1.0  -0.5938
  O  O207  1  0.905850  0.585300  0.595890  1.0  -0.6173
  O  O208  1  0.658350  0.567500  0.624050  1.0  -0.6135
  O  O209  1  0.887010  0.470420  0.784730  1.0  -0.6315
  O  O210  1  0.669190  0.521780  0.781040  1.0  -0.6046
  O  O211  1  0.858550  0.712500  0.873530  1.0  -0.5885
  O  O212  1  0.624840  0.693080  0.929380  1.0  -0.5928
  O  O213  1  0.679450  0.585300  0.095890  1.0  -0.6175
  O  O214  1  0.909150  0.567500  0.124050  1.0  -0.6138
  O  O215  1  0.416590  0.529580  0.715270  1.0  -0.6312
  O  O216  1  0.147410  0.478220  0.718960  1.0  -0.6045
  O  O217  1  0.146050  0.287500  0.626470  1.0  -0.5877
  O  O218  1  0.931760  0.306920  0.570620  1.0  -0.5948
  O  O219  1  0.094150  0.414700  0.404110  1.0  -0.6171
  O  O220  1  0.341650  0.432500  0.375950  1.0  -0.6151
