# generated using pymatgen
data_MnH15C19S(NO2)3
_symmetry_space_group_name_H-M   'P 1'
_cell_length_a   8.70800000
_cell_length_b   11.66300000
_cell_length_c   27.21800000
_cell_angle_alpha   101.48500000
_cell_angle_beta   90.00000000
_cell_angle_gamma   90.00000000
_symmetry_Int_Tables_number   1
_chemical_formula_structural   MnH15C19S(NO2)3
_chemical_formula_sum   'Mn4 H60 C76 S4 N12 O24'
_cell_volume   2708.94837737
_cell_formula_units_Z   4
loop_
 _symmetry_equiv_pos_site_id
 _symmetry_equiv_pos_as_xyz
  1  'x, y, z'
loop_
 _atom_site_type_symbol
 _atom_site_label
 _atom_site_symmetry_multiplicity
 _atom_site_fract_x
 _atom_site_fract_y
 _atom_site_fract_z
 _atom_site_occupancy
 _atom_site_charge
  Mn  Mn1  1  0.366130  0.746150  0.803330  1.0  1.0198
  Mn  Mn2  1  0.866130  0.753850  0.696670  1.0  1.0205
  Mn  Mn3  1  0.633870  0.253850  0.196670  1.0  1.0196
  Mn  Mn4  1  0.133870  0.246150  0.303330  1.0  1.0194
  H  H5  1  0.951500  0.888400  0.887500  1.0  0.3315
  H  H6  1  0.749000  0.768200  0.877700  1.0  0.1351
  H  H7  1  0.644000  0.873900  0.872700  1.0  0.1087
  H  H8  1  0.863400  0.112600  0.993700  1.0  0.1062
  H  H9  1  0.433500  0.190200  0.041400  1.0  0.0908
  H  H10  1  0.345900  0.149500  0.959900  1.0  0.1145
  H  H11  1  0.520600  0.091300  0.894200  1.0  0.0875
  H  H12  1  0.536600  0.940500  0.754500  1.0  0.0702
  H  H13  1  0.541700  0.134600  0.753000  1.0  0.1166
  H  H14  1  0.188500  0.179000  0.848400  1.0  0.1258
  H  H15  1  0.191100  0.981200  0.845200  1.0  0.0713
  H  H16  1  0.460100  0.306300  0.733500  1.0  0.1209
  H  H17  1  0.462100  0.503600  0.738600  1.0  0.0634
  H  H18  1  0.283400  0.558200  0.870600  1.0  0.0829
  H  H19  1  0.272500  0.363100  0.869800  1.0  0.1252
  H  H20  1  0.451500  0.611600  0.612500  1.0  0.331
  H  H21  1  0.249000  0.731800  0.622300  1.0  0.1336
  H  H22  1  0.144000  0.626100  0.627300  1.0  0.1081
  H  H23  1  0.363400  0.387400  0.506300  1.0  0.1064
  H  H24  1  0.933500  0.309800  0.458600  1.0  0.0909
  H  H25  1  0.845900  0.350500  0.540100  1.0  0.1143
  H  H26  1  0.020600  0.408700  0.605800  1.0  0.0872
  H  H27  1  0.036600  0.559500  0.745500  1.0  0.07
  H  H28  1  0.041700  0.365400  0.747000  1.0  0.1167
  H  H29  1  0.688500  0.321000  0.651600  1.0  0.1254
  H  H30  1  0.691100  0.518800  0.654800  1.0  0.0712
  H  H31  1  0.960100  0.193700  0.766500  1.0  0.1214
  H  H32  1  0.962100  0.996400  0.761400  1.0  0.0631
  H  H33  1  0.783400  0.941800  0.629400  1.0  0.0827
  H  H34  1  0.772500  0.136900  0.630200  1.0  0.1247
  H  H35  1  0.048500  0.111600  0.112500  1.0  0.3322
  H  H36  1  0.251000  0.231800  0.122300  1.0  0.1334
  H  H37  1  0.356000  0.126100  0.127300  1.0  0.1082
  H  H38  1  0.136600  0.887400  0.006300  1.0  0.1064
  H  H39  1  0.566500  0.809800  0.958600  1.0  0.091
  H  H40  1  0.654100  0.850500  0.040100  1.0  0.1143
  H  H41  1  0.479400  0.908700  0.105800  1.0  0.0875
  H  H42  1  0.463400  0.059500  0.245500  1.0  0.07
  H  H43  1  0.458300  0.865400  0.247000  1.0  0.1165
  H  H44  1  0.811500  0.821000  0.151600  1.0  0.1257
  H  H45  1  0.808900  0.018800  0.154800  1.0  0.0712
  H  H46  1  0.539900  0.693700  0.266500  1.0  0.1214
  H  H47  1  0.537900  0.496400  0.261400  1.0  0.063
  H  H48  1  0.716600  0.441800  0.129400  1.0  0.0826
  H  H49  1  0.727500  0.636900  0.130200  1.0  0.1249
  H  H50  1  0.548500  0.388400  0.387500  1.0  0.3321
  H  H51  1  0.751000  0.268200  0.377700  1.0  0.1353
  H  H52  1  0.856000  0.373900  0.372700  1.0  0.1087
  H  H53  1  0.636600  0.612600  0.493700  1.0  0.1062
  H  H54  1  0.066500  0.690200  0.541400  1.0  0.0909
  H  H55  1  0.154100  0.649500  0.459900  1.0  0.1143
  H  H56  1  0.979400  0.591300  0.394200  1.0  0.0876
  H  H57  1  0.963400  0.440500  0.254500  1.0  0.07
  H  H58  1  0.958300  0.634600  0.253000  1.0  0.1165
  H  H59  1  0.311500  0.679000  0.348400  1.0  0.1261
  H  H60  1  0.308900  0.481200  0.345200  1.0  0.0716
  H  H61  1  0.039900  0.806300  0.233500  1.0  0.1208
  H  H62  1  0.037900  0.003600  0.238600  1.0  0.0635
  H  H63  1  0.216600  0.058200  0.370600  1.0  0.0829
  H  H64  1  0.227500  0.863100  0.369800  1.0  0.1252
  C  C65  1  0.732500  0.791100  0.805320  1.0  0.7122
  C  C66  1  0.740500  0.835500  0.861900  1.0  -0.1129
  C  C67  1  0.706900  0.096700  0.938100  1.0  -0.2526
  C  C68  1  0.759600  0.120500  0.987100  1.0  0.0347
  C  C69  1  0.657300  0.156200  0.026100  1.0  -0.146
  C  C70  1  0.502600  0.166600  0.015300  1.0  -0.016
  C  C71  1  0.449900  0.142500  0.966700  1.0  -0.1201
  C  C72  1  0.554400  0.107300  0.927200  1.0  -0.0065
  C  C73  1  0.714500  0.185900  0.079500  1.0  0.6941
  C  C74  1  0.464700  0.989300  0.773500  1.0  0.1885
  C  C75  1  0.469000  0.105900  0.772400  1.0  -0.1869
  C  C76  1  0.364600  0.180900  0.800500  1.0  0.093
  C  C77  1  0.260300  0.132100  0.828500  1.0  -0.1978
  C  C78  1  0.263700  0.012900  0.826600  1.0  0.1975
  C  C79  1  0.368100  0.308800  0.802100  1.0  0.1073
  C  C80  1  0.423800  0.355500  0.762300  1.0  -0.2057
  C  C81  1  0.424800  0.475000  0.765800  1.0  0.198
  C  C82  1  0.320500  0.506600  0.842600  1.0  0.1741
  C  C83  1  0.313900  0.388900  0.842400  1.0  -0.2104
  C  C84  1  0.232500  0.708900  0.694680  1.0  0.7068
  C  C85  1  0.240500  0.664500  0.638100  1.0  -0.1126
  C  C86  1  0.206900  0.403300  0.561900  1.0  -0.2513
  C  C87  1  0.259600  0.379500  0.512900  1.0  0.0343
  C  C88  1  0.157300  0.343800  0.473900  1.0  -0.145
  C  C89  1  0.002600  0.333400  0.484700  1.0  -0.0153
  C  C90  1  0.949900  0.357500  0.533300  1.0  -0.1217
  C  C91  1  0.054400  0.392700  0.572800  1.0  -0.009
  C  C92  1  0.214500  0.314100  0.420500  1.0  0.6921
  C  C93  1  0.964700  0.510700  0.726500  1.0  0.1887
  C  C94  1  0.969000  0.394100  0.727600  1.0  -0.1869
  C  C95  1  0.864600  0.319100  0.699500  1.0  0.0928
  C  C96  1  0.760300  0.367900  0.671500  1.0  -0.1981
  C  C97  1  0.763700  0.487100  0.673400  1.0  0.1967
  C  C98  1  0.868100  0.191200  0.697900  1.0  0.1073
  C  C99  1  0.923800  0.144500  0.737700  1.0  -0.2046
  C  C100  1  0.924800  0.025000  0.734200  1.0  0.1972
  C  C101  1  0.820500  0.993400  0.657400  1.0  0.1748
  C  C102  1  0.813900  0.111100  0.657600  1.0  -0.2097
  C  C103  1  0.267500  0.208900  0.194680  1.0  0.7059
  C  C104  1  0.259500  0.164500  0.138100  1.0  -0.1128
  C  C105  1  0.293100  0.903300  0.061900  1.0  -0.2523
  C  C106  1  0.240400  0.879500  0.012900  1.0  0.0339
  C  C107  1  0.342700  0.843800  0.973900  1.0  -0.146
  C  C108  1  0.497400  0.833400  0.984700  1.0  -0.0156
  C  C109  1  0.550100  0.857500  0.033300  1.0  -0.1195
  C  C110  1  0.445600  0.892700  0.072800  1.0  -0.0105
  C  C111  1  0.285500  0.814100  0.920500  1.0  0.6923
  C  C112  1  0.535300  0.010700  0.226500  1.0  0.1883
  C  C113  1  0.531000  0.894100  0.227600  1.0  -0.1865
  C  C114  1  0.635400  0.819100  0.199500  1.0  0.0928
  C  C115  1  0.739700  0.867900  0.171500  1.0  -0.199
  C  C116  1  0.736300  0.987100  0.173400  1.0  0.1954
  C  C117  1  0.631900  0.691200  0.197900  1.0  0.1077
  C  C118  1  0.576200  0.644500  0.237700  1.0  -0.2048
  C  C119  1  0.575200  0.525000  0.234200  1.0  0.1975
  C  C120  1  0.679500  0.493400  0.157400  1.0  0.1745
  C  C121  1  0.686100  0.611100  0.157600  1.0  -0.2102
  C  C122  1  0.767500  0.291100  0.305320  1.0  0.7114
  C  C123  1  0.759500  0.335500  0.361900  1.0  -0.115
  C  C124  1  0.793100  0.596700  0.438100  1.0  -0.2501
  C  C125  1  0.740400  0.620500  0.487100  1.0  0.0329
  C  C126  1  0.842700  0.656200  0.526100  1.0  -0.1454
  C  C127  1  0.997400  0.666667  0.515300  1.0  -0.0145
  C  C128  1  0.050100  0.642500  0.466700  1.0  -0.1186
  C  C129  1  0.945600  0.607300  0.427200  1.0  -0.0078
  C  C130  1  0.785500  0.685900  0.579500  1.0  0.694
  C  C131  1  0.035300  0.489300  0.273500  1.0  0.1882
  C  C132  1  0.031000  0.605900  0.272400  1.0  -0.1861
  C  C133  1  0.135400  0.680900  0.300500  1.0  0.093
  C  C134  1  0.239700  0.632100  0.328500  1.0  -0.1991
  C  C135  1  0.236300  0.512900  0.326600  1.0  0.1963
  C  C136  1  0.131900  0.808800  0.302100  1.0  0.1077
  C  C137  1  0.076200  0.855500  0.262300  1.0  -0.2059
  C  C138  1  0.075200  0.975000  0.265800  1.0  0.1981
  C  C139  1  0.179500  0.006600  0.342600  1.0  0.1744
  C  C140  1  0.186100  0.888900  0.342400  1.0  -0.2099
  S  S141  1  0.839900  0.054360  0.888410  1.0  1.2434
  S  S142  1  0.339900  0.445640  0.611590  1.0  1.239
  S  S143  1  0.160100  0.945640  0.111590  1.0  1.2391
  S  S144  1  0.660100  0.554360  0.388410  1.0  1.2431
  N  N145  1  0.864100  0.915600  0.880540  1.0  -0.5502
  N  N146  1  0.363800  0.941400  0.800060  1.0  -0.3672
  N  N147  1  0.376900  0.551300  0.804970  1.0  -0.3582
  N  N148  1  0.364100  0.584400  0.619460  1.0  -0.5494
  N  N149  1  0.863800  0.558600  0.699940  1.0  -0.365
  N  N150  1  0.876900  0.948700  0.695030  1.0  -0.3611
  N  N151  1  0.135900  0.084400  0.119460  1.0  -0.5407
  N  N152  1  0.636200  0.058600  0.199940  1.0  -0.3651
  N  N153  1  0.623100  0.448700  0.195030  1.0  -0.3609
  N  N154  1  0.635900  0.415600  0.380540  1.0  -0.5431
  N  N155  1  0.136200  0.441400  0.300060  1.0  -0.3669
  N  N156  1  0.123100  0.051300  0.304970  1.0  -0.3575
  O  O157  1  0.609100  0.743600  0.789070  1.0  -0.6255
  O  O158  1  0.846900  0.801100  0.778800  1.0  -0.5993
  O  O159  1  0.769000  0.077700  0.844100  1.0  -0.5945
  O  O160  1  0.984500  0.106300  0.905020  1.0  -0.5857
  O  O161  1  0.858300  0.191800  0.085160  1.0  -0.6406
  O  O162  1  0.618500  0.208100  0.114030  1.0  -0.6303
  O  O163  1  0.109100  0.756400  0.710930  1.0  -0.6265
  O  O164  1  0.346900  0.698900  0.721200  1.0  -0.5987
  O  O165  1  0.269000  0.422300  0.655900  1.0  -0.5967
  O  O166  1  0.484500  0.393700  0.594980  1.0  -0.5858
  O  O167  1  0.358300  0.308200  0.414840  1.0  -0.6401
  O  O168  1  0.118500  0.291900  0.385970  1.0  -0.6308
  O  O169  1  0.390900  0.256400  0.210930  1.0  -0.6273
  O  O170  1  0.153100  0.198900  0.221200  1.0  -0.5988
  O  O171  1  0.231000  0.922300  0.155900  1.0  -0.5973
  O  O172  1  0.015500  0.893700  0.094980  1.0  -0.5854
  O  O173  1  0.141700  0.808200  0.914840  1.0  -0.6405
  O  O174  1  0.381500  0.791900  0.885970  1.0  -0.6308
  O  O175  1  0.890900  0.243600  0.289070  1.0  -0.6257
  O  O176  1  0.653100  0.301100  0.278800  1.0  -0.5993
  O  O177  1  0.731000  0.577700  0.344100  1.0  -0.5942
  O  O178  1  0.515500  0.606300  0.405020  1.0  -0.5852
  O  O179  1  0.641700  0.691800  0.585160  1.0  -0.6408
  O  O180  1  0.881500  0.708100  0.614030  1.0  -0.6309
