# generated using pymatgen
data_AlH8C14O5
_symmetry_space_group_name_H-M   'P 1'
_cell_length_a   18.87800000
_cell_length_b   18.87800000
_cell_length_c   37.04300000
_cell_angle_alpha   90.00000000
_cell_angle_beta   90.00000000
_cell_angle_gamma   90.00000000
_symmetry_Int_Tables_number   1
_chemical_formula_structural   AlH8C14O5
_chemical_formula_sum   'Al16 H128 C224 O80'
_cell_volume   13201.34300001
_cell_formula_units_Z   16
loop_
 _symmetry_equiv_pos_site_id
 _symmetry_equiv_pos_as_xyz
  1  'x, y, z'
loop_
 _atom_site_type_symbol
 _atom_site_label
 _atom_site_symmetry_multiplicity
 _atom_site_fract_x
 _atom_site_fract_y
 _atom_site_fract_z
 _atom_site_occupancy
 _atom_site_charge
  Al  Al1  1  0.868620  0.095580  0.080730  1.0  1.8001
  Al  Al2  1  0.131380  0.904420  0.080730  1.0  1.7994
  Al  Al3  1  0.404420  0.368620  0.580730  1.0  1.8002
  Al  Al4  1  0.595580  0.631380  0.580730  1.0  1.8004
  Al  Al5  1  0.631380  0.595580  0.419270  1.0  1.7974
  Al  Al6  1  0.368620  0.404420  0.419270  1.0  1.7989
  Al  Al7  1  0.095580  0.868620  0.919270  1.0  1.7994
  Al  Al8  1  0.904420  0.131380  0.919270  1.0  1.7982
  Al  Al9  1  0.834620  0.165380  0.000000  1.0  1.7974
  Al  Al10  1  0.165380  0.834620  0.000000  1.0  1.7977
  Al  Al11  1  0.334620  0.334620  0.500000  1.0  1.7974
  Al  Al12  1  0.665380  0.665380  0.500000  1.0  1.7977
  Al  Al13  1  0.000000  0.000000  0.114470  1.0  1.7783
  Al  Al14  1  0.500000  0.500000  0.614470  1.0  1.7783
  Al  Al15  1  0.500000  0.500000  0.385530  1.0  1.7788
  Al  Al16  1  0.000000  0.000000  0.885530  1.0  1.7788
  H  H17  1  0.788000  0.362500  0.046400  1.0  0.1076
  H  H18  1  0.587500  0.490600  0.283400  1.0  0.104
  H  H19  1  0.796800  0.244500  0.137900  1.0  0.1052
  H  H20  1  0.798600  0.348100  0.172300  1.0  0.1156
  H  H21  1  0.752600  0.597500  0.327000  1.0  0.1062
  H  H22  1  0.864500  0.539500  0.119200  1.0  0.11
  H  H23  1  0.792000  0.465700  0.081200  1.0  0.111
  H  H24  1  0.874700  0.838000  0.144500  1.0  0.1108
  H  H25  1  0.641200  0.496000  0.226600  1.0  0.1134
  H  H26  1  0.811000  0.737600  0.163900  1.0  0.1084
  H  H27  1  0.036400  0.709300  0.112000  1.0  0.1143
  H  H28  1  0.808500  0.602100  0.271000  1.0  0.117
  H  H29  1  0.808600  0.645700  0.210000  1.0  0.1125
  H  H30  1  0.738800  0.446400  0.193800  1.0  0.1073
  H  H31  1  0.716100  0.016600  0.031100  1.0  0.0613
  H  H32  1  0.970100  0.611300  0.129900  1.0  0.1014
  H  H33  1  0.212000  0.637500  0.046400  1.0  0.1071
  H  H34  1  0.412500  0.509400  0.283400  1.0  0.104
  H  H35  1  0.203200  0.755500  0.137900  1.0  0.1047
  H  H36  1  0.201400  0.651900  0.172300  1.0  0.1154
  H  H37  1  0.247400  0.402500  0.327000  1.0  0.1063
  H  H38  1  0.135500  0.460500  0.119200  1.0  0.1096
  H  H39  1  0.208000  0.534300  0.081200  1.0  0.1104
  H  H40  1  0.125300  0.162000  0.144500  1.0  0.1101
  H  H41  1  0.358800  0.504000  0.226600  1.0  0.113
  H  H42  1  0.189000  0.262400  0.163900  1.0  0.1085
  H  H43  1  0.963600  0.290700  0.112000  1.0  0.1144
  H  H44  1  0.191500  0.397900  0.271000  1.0  0.117
  H  H45  1  0.191400  0.354300  0.210000  1.0  0.1131
  H  H46  1  0.261200  0.553600  0.193800  1.0  0.1069
  H  H47  1  0.283900  0.983400  0.031100  1.0  0.0612
  H  H48  1  0.029900  0.388700  0.129900  1.0  0.1014
  H  H49  1  0.137500  0.288000  0.546400  1.0  0.1073
  H  H50  1  0.009400  0.087500  0.783400  1.0  0.1039
  H  H51  1  0.255500  0.296800  0.637900  1.0  0.1062
  H  H52  1  0.151900  0.298600  0.672300  1.0  0.116
  H  H53  1  0.902500  0.252600  0.827000  1.0  0.1068
  H  H54  1  0.960500  0.364500  0.619200  1.0  0.1092
  H  H55  1  0.034300  0.292000  0.581200  1.0  0.1107
  H  H56  1  0.662000  0.374700  0.644500  1.0  0.1119
  H  H57  1  0.004000  0.141200  0.726600  1.0  0.1141
  H  H58  1  0.762400  0.311000  0.663900  1.0  0.1107
  H  H59  1  0.790700  0.536400  0.612000  1.0  0.1143
  H  H60  1  0.897900  0.308500  0.771000  1.0  0.1177
  H  H61  1  0.854300  0.308600  0.710000  1.0  0.1132
  H  H62  1  0.053600  0.238800  0.693800  1.0  0.1083
  H  H63  1  0.483400  0.216100  0.531100  1.0  0.0615
  H  H64  1  0.888700  0.470100  0.629900  1.0  0.1013
  H  H65  1  0.862500  0.712000  0.546400  1.0  0.1081
  H  H66  1  0.990600  0.912500  0.783400  1.0  0.1045
  H  H67  1  0.744500  0.703200  0.637900  1.0  0.1064
  H  H68  1  0.848100  0.701400  0.672300  1.0  0.116
  H  H69  1  0.097500  0.747400  0.827000  1.0  0.1068
  H  H70  1  0.039500  0.635500  0.619200  1.0  0.1093
  H  H71  1  0.965700  0.708000  0.581200  1.0  0.1112
  H  H72  1  0.338000  0.625300  0.644500  1.0  0.1116
  H  H73  1  0.996000  0.858800  0.726600  1.0  0.1141
  H  H74  1  0.237600  0.689000  0.663900  1.0  0.1104
  H  H75  1  0.209300  0.463600  0.612000  1.0  0.1147
  H  H76  1  0.102100  0.691500  0.771000  1.0  0.1173
  H  H77  1  0.145700  0.691400  0.710000  1.0  0.1133
  H  H78  1  0.946400  0.761200  0.693800  1.0  0.1078
  H  H79  1  0.516600  0.783900  0.531100  1.0  0.0613
  H  H80  1  0.111300  0.529900  0.629900  1.0  0.1007
  H  H81  1  0.712000  0.862500  0.453600  1.0  0.1081
  H  H82  1  0.912500  0.990600  0.216600  1.0  0.1033
  H  H83  1  0.703200  0.744500  0.362100  1.0  0.1053
  H  H84  1  0.701400  0.848100  0.327700  1.0  0.1155
  H  H85  1  0.747400  0.097500  0.173000  1.0  0.1061
  H  H86  1  0.635500  0.039500  0.380800  1.0  0.1096
  H  H87  1  0.708000  0.965700  0.418800  1.0  0.1119
  H  H88  1  0.625300  0.338000  0.355500  1.0  0.1112
  H  H89  1  0.858800  0.996000  0.273400  1.0  0.1135
  H  H90  1  0.689000  0.237600  0.336100  1.0  0.1101
  H  H91  1  0.463600  0.209300  0.388000  1.0  0.1144
  H  H92  1  0.691500  0.102100  0.229000  1.0  0.1169
  H  H93  1  0.691400  0.145700  0.290000  1.0  0.1126
  H  H94  1  0.761200  0.946400  0.306200  1.0  0.1067
  H  H95  1  0.783900  0.516600  0.468900  1.0  0.0613
  H  H96  1  0.529900  0.111300  0.370100  1.0  0.1013
  H  H97  1  0.288000  0.137500  0.453600  1.0  0.1083
  H  H98  1  0.087500  0.009400  0.216600  1.0  0.1037
  H  H99  1  0.296800  0.255500  0.362100  1.0  0.1055
  H  H100  1  0.298600  0.151900  0.327700  1.0  0.1154
  H  H101  1  0.252600  0.902500  0.173000  1.0  0.1066
  H  H102  1  0.364500  0.960500  0.380800  1.0  0.1098
  H  H103  1  0.292000  0.034300  0.418800  1.0  0.1112
  H  H104  1  0.374700  0.662000  0.355500  1.0  0.1104
  H  H105  1  0.141200  0.004000  0.273400  1.0  0.114
  H  H106  1  0.311000  0.762400  0.336100  1.0  0.1102
  H  H107  1  0.536400  0.790700  0.388000  1.0  0.1135
  H  H108  1  0.308500  0.897900  0.229000  1.0  0.117
  H  H109  1  0.308600  0.854300  0.290000  1.0  0.1131
  H  H110  1  0.238800  0.053600  0.306200  1.0  0.1071
  H  H111  1  0.216100  0.483400  0.468900  1.0  0.0614
  H  H112  1  0.470100  0.888700  0.370100  1.0  0.1013
  H  H113  1  0.362500  0.788000  0.953600  1.0  0.107
  H  H114  1  0.490600  0.587500  0.716600  1.0  0.1035
  H  H115  1  0.244500  0.796800  0.862100  1.0  0.1066
  H  H116  1  0.348100  0.798600  0.827700  1.0  0.1164
  H  H117  1  0.597500  0.752600  0.673000  1.0  0.107
  H  H118  1  0.539500  0.864500  0.880800  1.0  0.1091
  H  H119  1  0.465700  0.792000  0.918800  1.0  0.1115
  H  H120  1  0.838000  0.874700  0.855500  1.0  0.112
  H  H121  1  0.496000  0.641200  0.773400  1.0  0.1143
  H  H122  1  0.737600  0.811000  0.836100  1.0  0.1098
  H  H123  1  0.709300  0.036400  0.888000  1.0  0.1142
  H  H124  1  0.602100  0.808500  0.729000  1.0  0.1175
  H  H125  1  0.645700  0.808600  0.790000  1.0  0.1131
  H  H126  1  0.446400  0.738800  0.806200  1.0  0.1079
  H  H127  1  0.016600  0.716100  0.968900  1.0  0.0607
  H  H128  1  0.611300  0.970100  0.870100  1.0  0.1007
  H  H129  1  0.637500  0.212000  0.953600  1.0  0.1074
  H  H130  1  0.509400  0.412500  0.716600  1.0  0.1035
  H  H131  1  0.755500  0.203200  0.862100  1.0  0.1063
  H  H132  1  0.651900  0.201400  0.827700  1.0  0.1162
  H  H133  1  0.402500  0.247400  0.673000  1.0  0.1066
  H  H134  1  0.460500  0.135500  0.880800  1.0  0.1092
  H  H135  1  0.534300  0.208000  0.918800  1.0  0.1119
  H  H136  1  0.162000  0.125300  0.855500  1.0  0.1121
  H  H137  1  0.504000  0.358800  0.773400  1.0  0.114
  H  H138  1  0.262400  0.189000  0.836100  1.0  0.1091
  H  H139  1  0.290700  0.963600  0.888000  1.0  0.1143
  H  H140  1  0.397900  0.191500  0.729000  1.0  0.1174
  H  H141  1  0.354300  0.191400  0.790000  1.0  0.1133
  H  H142  1  0.553600  0.261200  0.806200  1.0  0.1078
  H  H143  1  0.983400  0.283900  0.968900  1.0  0.0608
  H  H144  1  0.388700  0.029900  0.870100  1.0  0.1008
  C  C145  1  0.961700  0.783600  0.125970  1.0  -0.1415
  C  C146  1  0.000400  0.846800  0.113930  1.0  0.7016
  C  C147  1  0.792300  0.293600  0.088770  1.0  -0.1333
  C  C148  1  0.627100  0.544700  0.346110  1.0  0.6974
  C  C149  1  0.790700  0.359400  0.071980  1.0  -0.0603
  C  C150  1  0.664000  0.545500  0.310330  1.0  -0.1231
  C  C151  1  0.797300  0.227500  0.067150  1.0  0.7404
  C  C152  1  0.631900  0.513700  0.280670  1.0  -0.0379
  C  C153  1  0.795600  0.289400  0.126300  1.0  -0.0573
  C  C154  1  0.797200  0.351200  0.146750  1.0  -0.1364
  C  C155  1  0.730200  0.577000  0.306520  1.0  -0.0559
  C  C156  1  0.840300  0.541300  0.141700  1.0  -0.1038
  C  C157  1  0.793000  0.420800  0.092700  1.0  -0.1296
  C  C158  1  0.894500  0.792000  0.141800  1.0  -0.0699
  C  C159  1  0.664500  0.515600  0.247000  1.0  -0.1372
  C  C160  1  0.856700  0.732000  0.153600  1.0  -0.1213
  C  C161  1  0.732600  0.546700  0.243100  1.0  0.0379
  C  C162  1  0.845500  0.601500  0.162700  1.0  0.0367
  C  C163  1  0.796800  0.416900  0.130480  1.0  0.0617
  C  C164  1  0.800000  0.482800  0.152800  1.0  0.0533
  C  C165  1  0.990700  0.715500  0.122220  1.0  -0.1128
  C  C166  1  0.764000  0.579000  0.273300  1.0  -0.1183
  C  C167  1  0.807500  0.603900  0.195800  1.0  -0.0994
  C  C168  1  0.765400  0.486200  0.185900  1.0  -0.1661
  C  C169  1  0.755400  0.047400  0.034260  1.0  0.6123
  C  C170  1  0.768200  0.545200  0.207700  1.0  0.0227
  C  C171  1  0.886100  0.663700  0.150300  1.0  0.0315
  C  C172  1  0.951300  0.657400  0.133700  1.0  -0.1349
  C  C173  1  0.038300  0.216400  0.125970  1.0  -0.1414
  C  C174  1  0.999600  0.153200  0.113930  1.0  0.7015
  C  C175  1  0.207700  0.706400  0.088770  1.0  -0.1309
  C  C176  1  0.372900  0.455300  0.346110  1.0  0.6956
  C  C177  1  0.209300  0.640600  0.071980  1.0  -0.0605
  C  C178  1  0.336000  0.454500  0.310330  1.0  -0.1224
  C  C179  1  0.202700  0.772500  0.067150  1.0  0.7396
  C  C180  1  0.368100  0.486300  0.280670  1.0  -0.0393
  C  C181  1  0.204400  0.710600  0.126300  1.0  -0.0568
  C  C182  1  0.202800  0.648800  0.146750  1.0  -0.1368
  C  C183  1  0.269800  0.423000  0.306520  1.0  -0.0544
  C  C184  1  0.159700  0.458700  0.141700  1.0  -0.105
  C  C185  1  0.207000  0.579200  0.092700  1.0  -0.1277
  C  C186  1  0.105500  0.208000  0.141800  1.0  -0.0702
  C  C187  1  0.335500  0.484400  0.247000  1.0  -0.1362
  C  C188  1  0.143300  0.268000  0.153600  1.0  -0.1193
  C  C189  1  0.267400  0.453300  0.243100  1.0  0.0383
  C  C190  1  0.154500  0.398500  0.162700  1.0  0.0364
  C  C191  1  0.203200  0.583100  0.130480  1.0  0.0616
  C  C192  1  0.200000  0.517200  0.152800  1.0  0.0527
  C  C193  1  0.009300  0.284500  0.122220  1.0  -0.1126
  C  C194  1  0.236000  0.421000  0.273300  1.0  -0.1206
  C  C195  1  0.192500  0.396100  0.195800  1.0  -0.1
  C  C196  1  0.234600  0.513800  0.185900  1.0  -0.1664
  C  C197  1  0.244600  0.952600  0.034260  1.0  0.6144
  C  C198  1  0.231800  0.454800  0.207700  1.0  0.0216
  C  C199  1  0.113900  0.336300  0.150300  1.0  0.0318
  C  C200  1  0.048700  0.342600  0.133700  1.0  -0.1362
  C  C201  1  0.716400  0.461700  0.625970  1.0  -0.1408
  C  C202  1  0.653200  0.500400  0.613930  1.0  0.7002
  C  C203  1  0.206400  0.292300  0.588770  1.0  -0.1314
  C  C204  1  0.955300  0.127100  0.846110  1.0  0.6961
  C  C205  1  0.140600  0.290700  0.571980  1.0  -0.0586
  C  C206  1  0.954500  0.164000  0.810330  1.0  -0.1197
  C  C207  1  0.272500  0.297300  0.567150  1.0  0.7353
  C  C208  1  0.986300  0.131900  0.780670  1.0  -0.0383
  C  C209  1  0.210600  0.295600  0.626300  1.0  -0.0576
  C  C210  1  0.148800  0.297200  0.646750  1.0  -0.137
  C  C211  1  0.923000  0.230200  0.806520  1.0  -0.0582
  C  C212  1  0.958700  0.340300  0.641700  1.0  -0.104
  C  C213  1  0.079200  0.293000  0.592700  1.0  -0.1284
  C  C214  1  0.708000  0.394500  0.641800  1.0  -0.0708
  C  C215  1  0.984400  0.164500  0.747000  1.0  -0.1389
  C  C216  1  0.768000  0.356700  0.653600  1.0  -0.1213
  C  C217  1  0.953300  0.232600  0.743100  1.0  0.0382
  C  C218  1  0.898500  0.345500  0.662700  1.0  0.0352
  C  C219  1  0.083100  0.296800  0.630480  1.0  0.0618
  C  C220  1  0.017200  0.300000  0.652800  1.0  0.0558
  C  C221  1  0.784500  0.490700  0.622220  1.0  -0.1121
  C  C222  1  0.921000  0.264000  0.773300  1.0  -0.1228
  C  C223  1  0.896100  0.307500  0.695800  1.0  -0.1015
  C  C224  1  0.013800  0.265400  0.685900  1.0  -0.1658
  C  C225  1  0.452600  0.255400  0.534260  1.0  0.6146
  C  C226  1  0.954800  0.268200  0.707700  1.0  0.023
  C  C227  1  0.836300  0.386100  0.650300  1.0  0.0304
  C  C228  1  0.842600  0.451300  0.633700  1.0  -0.1384
  C  C229  1  0.283600  0.538300  0.625970  1.0  -0.1406
  C  C230  1  0.346800  0.499600  0.613930  1.0  0.7
  C  C231  1  0.793600  0.707700  0.588770  1.0  -0.1303
  C  C232  1  0.044700  0.872900  0.846110  1.0  0.6954
  C  C233  1  0.859400  0.709300  0.571980  1.0  -0.0598
  C  C234  1  0.045500  0.836000  0.810330  1.0  -0.1198
  C  C235  1  0.727500  0.702700  0.567150  1.0  0.7346
  C  C236  1  0.013700  0.868100  0.780670  1.0  -0.0387
  C  C237  1  0.789400  0.704400  0.626300  1.0  -0.0588
  C  C238  1  0.851200  0.702800  0.646750  1.0  -0.1374
  C  C239  1  0.077000  0.769800  0.806520  1.0  -0.0587
  C  C240  1  0.041300  0.659700  0.641700  1.0  -0.1044
  C  C241  1  0.920800  0.707000  0.592700  1.0  -0.1275
  C  C242  1  0.292000  0.605500  0.641800  1.0  -0.0702
  C  C243  1  0.015600  0.835500  0.747000  1.0  -0.1387
  C  C244  1  0.232000  0.643300  0.653600  1.0  -0.1213
  C  C245  1  0.046700  0.767400  0.743100  1.0  0.038
  C  C246  1  0.101500  0.654500  0.662700  1.0  0.0355
  C  C247  1  0.916900  0.703200  0.630480  1.0  0.0626
  C  C248  1  0.982800  0.700000  0.652800  1.0  0.055
  C  C249  1  0.215500  0.509300  0.622220  1.0  -0.1111
  C  C250  1  0.079000  0.736000  0.773300  1.0  -0.1204
  C  C251  1  0.103900  0.692500  0.695800  1.0  -0.1016
  C  C252  1  0.986200  0.734600  0.685900  1.0  -0.1668
  C  C253  1  0.547400  0.744600  0.534260  1.0  0.6107
  C  C254  1  0.045200  0.731800  0.707700  1.0  0.0231
  C  C255  1  0.163700  0.613900  0.650300  1.0  0.0305
  C  C256  1  0.157400  0.548700  0.633700  1.0  -0.1357
  C  C257  1  0.538300  0.283600  0.374030  1.0  -0.1417
  C  C258  1  0.499600  0.346800  0.386070  1.0  0.7019
  C  C259  1  0.707700  0.793600  0.411230  1.0  -0.1313
  C  C260  1  0.872900  0.044700  0.153890  1.0  0.6963
  C  C261  1  0.709300  0.859400  0.428020  1.0  -0.0604
  C  C262  1  0.836000  0.045500  0.189670  1.0  -0.1228
  C  C263  1  0.702700  0.727500  0.432850  1.0  0.7395
  C  C264  1  0.868100  0.013700  0.219330  1.0  -0.0388
  C  C265  1  0.704400  0.789400  0.373700  1.0  -0.0581
  C  C266  1  0.702800  0.851200  0.353250  1.0  -0.1368
  C  C267  1  0.769800  0.077000  0.193480  1.0  -0.0556
  C  C268  1  0.659700  0.041300  0.358300  1.0  -0.1055
  C  C269  1  0.707000  0.920800  0.407300  1.0  -0.1269
  C  C270  1  0.605500  0.292000  0.358200  1.0  -0.0693
  C  C271  1  0.835500  0.015600  0.253000  1.0  -0.1355
  C  C272  1  0.643300  0.232000  0.346400  1.0  -0.1194
  C  C273  1  0.767400  0.046700  0.256900  1.0  0.0381
  C  C274  1  0.654500  0.101500  0.337300  1.0  0.0362
  C  C275  1  0.703200  0.916900  0.369520  1.0  0.0619
  C  C276  1  0.700000  0.982800  0.347200  1.0  0.0528
  C  C277  1  0.509300  0.215500  0.377780  1.0  -0.1121
  C  C278  1  0.736000  0.079000  0.226700  1.0  -0.1205
  C  C279  1  0.692500  0.103900  0.304200  1.0  -0.0996
  C  C280  1  0.734600  0.986200  0.314100  1.0  -0.165
  C  C281  1  0.744600  0.547400  0.465740  1.0  0.6139
  C  C282  1  0.731800  0.045200  0.292300  1.0  0.0219
  C  C283  1  0.613900  0.163700  0.349700  1.0  0.032
  C  C284  1  0.548700  0.157400  0.366300  1.0  -0.1348
  C  C285  1  0.461700  0.716400  0.374030  1.0  -0.1415
  C  C286  1  0.500400  0.653200  0.386070  1.0  0.7016
  C  C287  1  0.292300  0.206400  0.411230  1.0  -0.1318
  C  C288  1  0.127100  0.955300  0.153890  1.0  0.6965
  C  C289  1  0.290700  0.140600  0.428020  1.0  -0.062
  C  C290  1  0.164000  0.954500  0.189670  1.0  -0.1225
  C  C291  1  0.297300  0.272500  0.432850  1.0  0.7402
  C  C292  1  0.131900  0.986300  0.219330  1.0  -0.0385
  C  C293  1  0.295600  0.210600  0.373700  1.0  -0.0588
  C  C294  1  0.297200  0.148800  0.353250  1.0  -0.1372
  C  C295  1  0.230200  0.923000  0.193480  1.0  -0.0569
  C  C296  1  0.340300  0.958700  0.358300  1.0  -0.1041
  C  C297  1  0.293000  0.079200  0.407300  1.0  -0.1289
  C  C298  1  0.394500  0.708000  0.358200  1.0  -0.0705
  C  C299  1  0.164500  0.984400  0.253000  1.0  -0.1372
  C  C300  1  0.356700  0.768000  0.346400  1.0  -0.1211
  C  C301  1  0.232600  0.953300  0.256900  1.0  0.0378
  C  C302  1  0.345500  0.898500  0.337300  1.0  0.0372
  C  C303  1  0.296800  0.083100  0.369520  1.0  0.0614
  C  C304  1  0.300000  0.017200  0.347200  1.0  0.0532
  C  C305  1  0.490700  0.784500  0.377780  1.0  -0.1127
  C  C306  1  0.264000  0.921000  0.226700  1.0  -0.1186
  C  C307  1  0.307500  0.896100  0.304200  1.0  -0.1002
  C  C308  1  0.265400  0.013800  0.314100  1.0  -0.1661
  C  C309  1  0.255400  0.452600  0.465740  1.0  0.6108
  C  C310  1  0.268200  0.954800  0.292300  1.0  0.0228
  C  C311  1  0.386100  0.836300  0.349700  1.0  0.032
  C  C312  1  0.451300  0.842600  0.366300  1.0  -0.1357
  C  C313  1  0.783600  0.961700  0.874030  1.0  -0.1406
  C  C314  1  0.846800  0.000400  0.886070  1.0  0.7002
  C  C315  1  0.293600  0.792300  0.911230  1.0  -0.1314
  C  C316  1  0.544700  0.627100  0.653890  1.0  0.6956
  C  C317  1  0.359400  0.790700  0.928020  1.0  -0.0605
  C  C318  1  0.545500  0.664000  0.689670  1.0  -0.1202
  C  C319  1  0.227500  0.797300  0.932850  1.0  0.734
  C  C320  1  0.513700  0.631900  0.719330  1.0  -0.0383
  C  C321  1  0.289400  0.795600  0.873700  1.0  -0.0594
  C  C322  1  0.351200  0.797200  0.853250  1.0  -0.1365
  C  C323  1  0.577000  0.730200  0.693480  1.0  -0.0588
  C  C324  1  0.541300  0.840300  0.858300  1.0  -0.1049
  C  C325  1  0.420800  0.793000  0.907300  1.0  -0.1267
  C  C326  1  0.792000  0.894500  0.858200  1.0  -0.0716
  C  C327  1  0.515600  0.664500  0.753000  1.0  -0.1381
  C  C328  1  0.732000  0.856700  0.846400  1.0  -0.1208
  C  C329  1  0.546700  0.732600  0.756900  1.0  0.0381
  C  C330  1  0.601500  0.845500  0.837300  1.0  0.0352
  C  C331  1  0.416900  0.796800  0.869520  1.0  0.0628
  C  C332  1  0.482800  0.800000  0.847200  1.0  0.0551
  C  C333  1  0.715500  0.990700  0.877780  1.0  -0.1113
  C  C334  1  0.579000  0.764000  0.726700  1.0  -0.1216
  C  C335  1  0.603900  0.807500  0.804200  1.0  -0.1019
  C  C336  1  0.486200  0.765400  0.814100  1.0  -0.1665
  C  C337  1  0.047400  0.755400  0.965740  1.0  0.613
  C  C338  1  0.545200  0.768200  0.792300  1.0  0.0231
  C  C339  1  0.663700  0.886100  0.849700  1.0  0.0309
  C  C340  1  0.657400  0.951300  0.866300  1.0  -0.1373
  C  C341  1  0.216400  0.038300  0.874030  1.0  -0.1409
  C  C342  1  0.153200  0.999600  0.886070  1.0  0.7005
  C  C343  1  0.706400  0.207700  0.911230  1.0  -0.1309
  C  C344  1  0.455300  0.372900  0.653890  1.0  0.6965
  C  C345  1  0.640600  0.209300  0.928020  1.0  -0.06
  C  C346  1  0.454500  0.336000  0.689670  1.0  -0.1198
  C  C347  1  0.772500  0.202700  0.932850  1.0  0.7351
  C  C348  1  0.486300  0.368100  0.719330  1.0  -0.0385
  C  C349  1  0.710600  0.204400  0.873700  1.0  -0.0595
  C  C350  1  0.648800  0.202800  0.853250  1.0  -0.1389
  C  C351  1  0.423000  0.269800  0.693480  1.0  -0.0592
  C  C352  1  0.458700  0.159700  0.858300  1.0  -0.1043
  C  C353  1  0.579200  0.207000  0.907300  1.0  -0.1298
  C  C354  1  0.208000  0.105500  0.858200  1.0  -0.0706
  C  C355  1  0.484400  0.335500  0.753000  1.0  -0.1384
  C  C356  1  0.268000  0.143300  0.846400  1.0  -0.122
  C  C357  1  0.453300  0.267400  0.756900  1.0  0.0378
  C  C358  1  0.398500  0.154500  0.837300  1.0  0.0354
  C  C359  1  0.583100  0.203200  0.869520  1.0  0.0623
  C  C360  1  0.517200  0.200000  0.847200  1.0  0.0558
  C  C361  1  0.284500  0.009300  0.877780  1.0  -0.1116
  C  C362  1  0.421000  0.236000  0.726700  1.0  -0.122
  C  C363  1  0.396100  0.192500  0.804200  1.0  -0.1018
  C  C364  1  0.513800  0.234600  0.814100  1.0  -0.1653
  C  C365  1  0.952600  0.244600  0.965740  1.0  0.6143
  C  C366  1  0.454800  0.231800  0.792300  1.0  0.0231
  C  C367  1  0.336300  0.113900  0.849700  1.0  0.0308
  C  C368  1  0.342600  0.048700  0.866300  1.0  -0.1365
  O  O369  1  0.802400  0.169700  0.084500  1.0  -0.6044
  O  O370  1  0.063500  0.840500  0.102500  1.0  -0.63
  O  O371  1  0.796400  0.034600  0.061170  1.0  -0.5764
  O  O372  1  0.932500  0.021700  0.079460  1.0  -0.7277
  O  O373  1  0.894700  0.127700  0.034970  1.0  -0.7558
  O  O374  1  0.662600  0.569600  0.372730  1.0  -0.6043
  O  O375  1  0.565700  0.520400  0.347750  1.0  -0.6267
  O  O376  1  0.798700  0.232800  0.033210  1.0  -0.5881
  O  O377  1  0.967000  0.905700  0.116040  1.0  -0.6144
  O  O378  1  0.762300  0.096700  0.011650  1.0  -0.621
  O  O379  1  0.197600  0.830300  0.084500  1.0  -0.6048
  O  O380  1  0.936500  0.159500  0.102500  1.0  -0.6294
  O  O381  1  0.203600  0.965400  0.061170  1.0  -0.5771
  O  O382  1  0.067500  0.978300  0.079460  1.0  -0.7261
  O  O383  1  0.105300  0.872300  0.034970  1.0  -0.7559
  O  O384  1  0.337400  0.430400  0.372730  1.0  -0.6015
  O  O385  1  0.434300  0.479600  0.347750  1.0  -0.6271
  O  O386  1  0.201300  0.767200  0.033210  1.0  -0.5869
  O  O387  1  0.033000  0.094300  0.116040  1.0  -0.6141
  O  O388  1  0.237700  0.903300  0.011650  1.0  -0.622
  O  O389  1  0.330300  0.302400  0.584500  1.0  -0.6049
  O  O390  1  0.659500  0.563500  0.602500  1.0  -0.6287
  O  O391  1  0.465400  0.296400  0.561170  1.0  -0.5731
  O  O392  1  0.478300  0.432500  0.579460  1.0  -0.7281
  O  O393  1  0.372300  0.394700  0.534970  1.0  -0.752
  O  O394  1  0.930400  0.162600  0.872730  1.0  -0.6037
  O  O395  1  0.979600  0.065700  0.847750  1.0  -0.627
  O  O396  1  0.267200  0.298700  0.533210  1.0  -0.5873
  O  O397  1  0.594300  0.467000  0.616040  1.0  -0.6145
  O  O398  1  0.403300  0.262300  0.511650  1.0  -0.6218
  O  O399  1  0.669700  0.697600  0.584500  1.0  -0.6048
  O  O400  1  0.340500  0.436500  0.602500  1.0  -0.6296
  O  O401  1  0.534600  0.703600  0.561170  1.0  -0.5752
  O  O402  1  0.521700  0.567500  0.579460  1.0  -0.7273
  O  O403  1  0.627700  0.605300  0.534970  1.0  -0.7531
  O  O404  1  0.069600  0.837400  0.872730  1.0  -0.6046
  O  O405  1  0.020400  0.934300  0.847750  1.0  -0.6271
  O  O406  1  0.732800  0.701300  0.533210  1.0  -0.5882
  O  O407  1  0.405700  0.533000  0.616040  1.0  -0.6151
  O  O408  1  0.596700  0.737700  0.511650  1.0  -0.6239
  O  O409  1  0.697600  0.669700  0.415500  1.0  -0.6045
  O  O410  1  0.436500  0.340500  0.397500  1.0  -0.6252
  O  O411  1  0.703600  0.534600  0.438830  1.0  -0.5774
  O  O412  1  0.567500  0.521700  0.420540  1.0  -0.7303
  O  O413  1  0.605300  0.627700  0.465030  1.0  -0.7555
  O  O414  1  0.837400  0.069600  0.127270  1.0  -0.6027
  O  O415  1  0.934300  0.020400  0.152250  1.0  -0.6277
  O  O416  1  0.701300  0.732800  0.466790  1.0  -0.5892
  O  O417  1  0.533000  0.405700  0.383960  1.0  -0.614
  O  O418  1  0.737700  0.596700  0.488350  1.0  -0.6213
  O  O419  1  0.302400  0.330300  0.415500  1.0  -0.6048
  O  O420  1  0.563500  0.659500  0.397500  1.0  -0.6286
  O  O421  1  0.296400  0.465400  0.438830  1.0  -0.5772
  O  O422  1  0.432500  0.478300  0.420540  1.0  -0.7259
  O  O423  1  0.394700  0.372300  0.465030  1.0  -0.7556
  O  O424  1  0.162600  0.930400  0.127270  1.0  -0.6039
  O  O425  1  0.065700  0.979600  0.152250  1.0  -0.6276
  O  O426  1  0.298700  0.267200  0.466790  1.0  -0.5879
  O  O427  1  0.467000  0.594300  0.383960  1.0  -0.6136
  O  O428  1  0.262300  0.403300  0.488350  1.0  -0.6222
  O  O429  1  0.169700  0.802400  0.915500  1.0  -0.6039
  O  O430  1  0.840500  0.063500  0.897500  1.0  -0.6245
  O  O431  1  0.034600  0.796400  0.938830  1.0  -0.5743
  O  O432  1  0.021700  0.932500  0.920540  1.0  -0.7283
  O  O433  1  0.127700  0.894700  0.965030  1.0  -0.7524
  O  O434  1  0.569600  0.662600  0.627270  1.0  -0.6047
  O  O435  1  0.520400  0.565700  0.652250  1.0  -0.6281
  O  O436  1  0.232800  0.798700  0.966790  1.0  -0.5886
  O  O437  1  0.905700  0.967000  0.883960  1.0  -0.6145
  O  O438  1  0.096700  0.762300  0.988350  1.0  -0.623
  O  O439  1  0.830300  0.197600  0.915500  1.0  -0.6049
  O  O440  1  0.159500  0.936500  0.897500  1.0  -0.628
  O  O441  1  0.965400  0.203600  0.938830  1.0  -0.5747
  O  O442  1  0.978300  0.067500  0.920540  1.0  -0.7279
  O  O443  1  0.872300  0.105300  0.965030  1.0  -0.7523
  O  O444  1  0.430400  0.337400  0.627270  1.0  -0.6049
  O  O445  1  0.479600  0.434300  0.652250  1.0  -0.6275
  O  O446  1  0.767200  0.201300  0.966790  1.0  -0.5888
  O  O447  1  0.094300  0.033000  0.883960  1.0  -0.6141
  O  O448  1  0.903300  0.237700  0.988350  1.0  -0.6221
