# generated using pymatgen
data_ZnH8C12(IN2)2
_symmetry_space_group_name_H-M   'P 1'
_cell_length_a   13.78760000
_cell_length_b   27.87470000
_cell_length_c   45.41500000
_cell_angle_alpha   90.00000000
_cell_angle_beta   90.00000000
_cell_angle_gamma   90.00000000
_symmetry_Int_Tables_number   1
_chemical_formula_structural   ZnH8C12(IN2)2
_chemical_formula_sum   'Zn24 H192 C288 I48 N96'
_cell_volume   17454.12958109
_cell_formula_units_Z   24
loop_
 _symmetry_equiv_pos_site_id
 _symmetry_equiv_pos_as_xyz
  1  'x, y, z'
loop_
 _atom_site_type_symbol
 _atom_site_label
 _atom_site_symmetry_multiplicity
 _atom_site_fract_x
 _atom_site_fract_y
 _atom_site_fract_z
 _atom_site_occupancy
 _atom_site_charge
  Zn  Zn1  1  0.161050  0.256730  0.313840  1.0  0.8782
  Zn  Zn2  1  0.338950  0.756730  0.686160  1.0  0.8767
  Zn  Zn3  1  0.150560  0.448870  0.576840  1.0  0.8554
  Zn  Zn4  1  0.650560  0.551130  0.923160  1.0  0.8562
  Zn  Zn5  1  0.369460  0.475000  0.412020  1.0  0.8297
  Zn  Zn6  1  0.661050  0.743270  0.186160  1.0  0.8777
  Zn  Zn7  1  0.869460  0.525000  0.087980  1.0  0.8287
  Zn  Zn8  1  0.838950  0.243270  0.813840  1.0  0.8758
  Zn  Zn9  1  0.130540  0.975000  0.587980  1.0  0.8303
  Zn  Zn10  1  0.849440  0.051130  0.076840  1.0  0.8567
  Zn  Zn11  1  0.349440  0.948870  0.423160  1.0  0.8539
  Zn  Zn12  1  0.630540  0.025000  0.912020  1.0  0.8302
  Zn  Zn13  1  0.849440  0.551130  0.423160  1.0  0.8557
  Zn  Zn14  1  0.349440  0.448870  0.076840  1.0  0.854
  Zn  Zn15  1  0.369460  0.975000  0.087980  1.0  0.8294
  Zn  Zn16  1  0.630540  0.525000  0.587980  1.0  0.83
  Zn  Zn17  1  0.150560  0.948870  0.923160  1.0  0.855
  Zn  Zn18  1  0.661050  0.243270  0.313840  1.0  0.8776
  Zn  Zn19  1  0.650560  0.051130  0.576840  1.0  0.8575
  Zn  Zn20  1  0.338950  0.256730  0.813840  1.0  0.8767
  Zn  Zn21  1  0.130540  0.475000  0.912020  1.0  0.8306
  Zn  Zn22  1  0.161050  0.756730  0.186160  1.0  0.878
  Zn  Zn23  1  0.869460  0.025000  0.412020  1.0  0.8288
  Zn  Zn24  1  0.838950  0.743270  0.686160  1.0  0.8758
  H  H25  1  0.815200  0.898800  0.616000  1.0  0.1249
  H  H26  1  0.471100  0.071700  0.878100  1.0  0.0869
  H  H27  1  0.964700  0.154100  0.727600  1.0  0.1119
  H  H28  1  0.636000  0.810100  0.631800  1.0  0.1123
  H  H29  1  0.184800  0.601200  0.116000  1.0  0.1246
  H  H30  1  0.993900  0.955700  0.537500  1.0  0.0852
  H  H31  1  0.904300  0.346900  0.092600  1.0  0.1232
  H  H32  1  0.128300  0.051700  0.005700  1.0  0.1221
  H  H33  1  0.951400  0.271700  0.332200  1.0  0.0895
  H  H34  1  0.628300  0.948300  0.494300  1.0  0.1219
  H  H35  1  0.115300  0.078200  0.571200  1.0  0.0898
  H  H36  1  0.006100  0.544300  0.037500  1.0  0.0846
  H  H37  1  0.987700  0.202600  0.223300  1.0  0.1092
  H  H38  1  0.633900  0.656900  0.935900  1.0  0.0974
  H  H39  1  0.547500  0.652400  0.837600  1.0  0.1251
  H  H40  1  0.951400  0.304500  0.770700  1.0  0.1006
  H  H41  1  0.194600  0.407600  0.517100  1.0  0.0912
  H  H42  1  0.035300  0.345900  0.227600  1.0  0.1119
  H  H43  1  0.451400  0.728300  0.167800  1.0  0.0892
  H  H44  1  0.956500  0.468200  0.548100  1.0  0.0786
  H  H45  1  0.694600  0.592400  0.982900  1.0  0.0911
  H  H46  1  0.883300  0.148800  0.905500  1.0  0.1267
  H  H47  1  0.487700  0.797400  0.276700  1.0  0.1094
  H  H48  1  0.971100  0.928300  0.621900  1.0  0.0877
  H  H49  1  0.113500  0.384300  0.474300  1.0  0.1243
  H  H50  1  0.613500  0.615700  0.025700  1.0  0.1232
  H  H51  1  0.922800  0.083300  0.136100  1.0  0.1022
  H  H52  1  0.564000  0.985500  0.853200  1.0  0.0903
  H  H53  1  0.456500  0.531800  0.951900  1.0  0.0779
  H  H54  1  0.871700  0.448300  0.505700  1.0  0.1214
  H  H55  1  0.048600  0.195500  0.270700  1.0  0.1004
  H  H56  1  0.093700  0.335500  0.274300  1.0  0.0843
  H  H57  1  0.548600  0.804500  0.229300  1.0  0.0987
  H  H58  1  0.595700  0.846900  0.907400  1.0  0.1233
  H  H59  1  0.866100  0.156900  0.064100  1.0  0.0982
  H  H60  1  0.805400  0.092400  0.017100  1.0  0.0905
  H  H61  1  0.404300  0.653100  0.407400  1.0  0.123
  H  H62  1  0.095700  0.153100  0.592600  1.0  0.1232
  H  H63  1  0.371700  0.551700  0.994300  1.0  0.122
  H  H64  1  0.616700  0.648800  0.094500  1.0  0.1261
  H  H65  1  0.395300  0.770900  0.411600  1.0  0.1171
  H  H66  1  0.604700  0.729100  0.911600  1.0  0.1171
  H  H67  1  0.493900  0.044300  0.962500  1.0  0.0863
  H  H68  1  0.936000  0.485500  0.146800  1.0  0.0923
  H  H69  1  0.406300  0.835500  0.725700  1.0  0.0844
  H  H70  1  0.512300  0.702600  0.776700  1.0  0.1094
  H  H71  1  0.460300  0.587800  0.329900  1.0  0.1163
  H  H72  1  0.960300  0.412200  0.170100  1.0  0.1165
  H  H73  1  0.028900  0.571700  0.121900  1.0  0.0876
  H  H74  1  0.364000  0.689900  0.131800  1.0  0.1131
  H  H75  1  0.039700  0.087800  0.670100  1.0  0.1162
  H  H76  1  0.684800  0.398800  0.384000  1.0  0.1237
  H  H77  1  0.886500  0.115700  0.974300  1.0  0.1242
  H  H78  1  0.386500  0.884300  0.525700  1.0  0.1239
  H  H79  1  0.012300  0.297400  0.723300  1.0  0.1091
  H  H80  1  0.116700  0.351200  0.405500  1.0  0.1263
  H  H81  1  0.305400  0.907600  0.482900  1.0  0.0911
  H  H82  1  0.543500  0.968200  0.451900  1.0  0.078
  H  H83  1  0.451400  0.695500  0.729300  1.0  0.1
  H  H84  1  0.539700  0.912200  0.829900  1.0  0.1161
  H  H85  1  0.528900  0.428300  0.378100  1.0  0.0867
  H  H86  1  0.047500  0.347600  0.662400  1.0  0.1246
  H  H87  1  0.104700  0.270900  0.588400  1.0  0.1168
  H  H88  1  0.535300  0.654100  0.272400  1.0  0.1121
  H  H89  1  0.548600  0.771700  0.667800  1.0  0.0892
  H  H90  1  0.697100  0.683500  0.133500  1.0  0.0883
  H  H91  1  0.506100  0.455700  0.462500  1.0  0.0864
  H  H92  1  0.160700  0.572700  0.029000  1.0  0.1178
  H  H93  1  0.422800  0.916700  0.363900  1.0  0.1015
  H  H94  1  0.436000  0.514500  0.353200  1.0  0.0902
  H  H95  1  0.064000  0.014500  0.646800  1.0  0.0924
  H  H96  1  0.383300  0.851200  0.594500  1.0  0.126
  H  H97  1  0.802900  0.183500  0.866500  1.0  0.0875
  H  H98  1  0.197100  0.316500  0.366500  1.0  0.0882
  H  H99  1  0.452500  0.847600  0.337600  1.0  0.1251
  H  H100  1  0.906300  0.164500  0.774300  1.0  0.0842
  H  H101  1  0.302900  0.816500  0.633500  1.0  0.0883
  H  H102  1  0.077200  0.416700  0.636100  1.0  0.1019
  H  H103  1  0.577200  0.583300  0.863900  1.0  0.1018
  H  H104  1  0.593700  0.664500  0.225700  1.0  0.0841
  H  H105  1  0.133900  0.343100  0.564100  1.0  0.098
  H  H106  1  0.660700  0.427300  0.471000  1.0  0.1173
  H  H107  1  0.366100  0.843100  0.435900  1.0  0.0973
  H  H108  1  0.615300  0.921800  0.928800  1.0  0.0915
  H  H109  1  0.884700  0.421800  0.071200  1.0  0.0896
  H  H110  1  0.384700  0.578200  0.428800  1.0  0.0901
  H  H111  1  0.315200  0.101200  0.884000  1.0  0.124
  H  H112  1  0.839300  0.927300  0.529000  1.0  0.1173
  H  H113  1  0.339300  0.072700  0.971000  1.0  0.1171
  H  H114  1  0.952500  0.152400  0.162400  1.0  0.125
  H  H115  1  0.864000  0.310100  0.368200  1.0  0.1132
  H  H116  1  0.043500  0.031800  0.048100  1.0  0.0795
  H  H117  1  0.895300  0.229100  0.088400  1.0  0.1168
  H  H118  1  0.464700  0.845900  0.772400  1.0  0.1118
  H  H119  1  0.048600  0.228300  0.832200  1.0  0.0891
  H  H120  1  0.136000  0.189900  0.868200  1.0  0.112
  H  H121  1  0.871700  0.948300  0.994300  1.0  0.1217
  H  H122  1  0.048600  0.728300  0.667800  1.0  0.089
  H  H123  1  0.936000  0.985500  0.353200  1.0  0.0915
  H  H124  1  0.395300  0.270900  0.088400  1.0  0.1169
  H  H125  1  0.895300  0.729100  0.411600  1.0  0.1171
  H  H126  1  0.633900  0.156900  0.564100  1.0  0.0977
  H  H127  1  0.133900  0.843100  0.935900  1.0  0.097
  H  H128  1  0.115300  0.578200  0.928800  1.0  0.0904
  H  H129  1  0.339300  0.572700  0.529000  1.0  0.1176
  H  H130  1  0.886500  0.615700  0.525700  1.0  0.1237
  H  H131  1  0.697100  0.183500  0.366500  1.0  0.0884
  H  H132  1  0.093700  0.835500  0.225700  1.0  0.0843
  H  H133  1  0.471100  0.571700  0.621900  1.0  0.0873
  H  H134  1  0.883300  0.648800  0.594500  1.0  0.1261
  H  H135  1  0.922800  0.583300  0.363900  1.0  0.1017
  H  H136  1  0.464700  0.345900  0.727600  1.0  0.1119
  H  H137  1  0.615300  0.421800  0.571200  1.0  0.09
  H  H138  1  0.371700  0.051700  0.505700  1.0  0.1218
  H  H139  1  0.593700  0.164500  0.274300  1.0  0.0842
  H  H140  1  0.628300  0.448300  0.005700  1.0  0.1218
  H  H141  1  0.964700  0.654100  0.772400  1.0  0.1119
  H  H142  1  0.184800  0.101200  0.384000  1.0  0.1238
  H  H143  1  0.564000  0.485500  0.646800  1.0  0.0922
  H  H144  1  0.116700  0.851200  0.094500  1.0  0.1259
  H  H145  1  0.487700  0.297400  0.223300  1.0  0.1093
  H  H146  1  0.386500  0.384300  0.974300  1.0  0.1242
  H  H147  1  0.366100  0.343100  0.064100  1.0  0.0982
  H  H148  1  0.104700  0.770900  0.911600  1.0  0.117
  H  H149  1  0.528900  0.928300  0.121900  1.0  0.0879
  H  H150  1  0.305400  0.407600  0.017100  1.0  0.0914
  H  H151  1  0.636000  0.310100  0.868200  1.0  0.1121
  H  H152  1  0.613500  0.115700  0.474300  1.0  0.1243
  H  H153  1  0.460300  0.087800  0.170100  1.0  0.1165
  H  H154  1  0.315200  0.601200  0.616000  1.0  0.125
  H  H155  1  0.971100  0.428300  0.878100  1.0  0.0869
  H  H156  1  0.302900  0.316500  0.866500  1.0  0.0873
  H  H157  1  0.160700  0.072700  0.471000  1.0  0.1172
  H  H158  1  0.684800  0.898800  0.116000  1.0  0.1247
  H  H159  1  0.951400  0.804500  0.729300  1.0  0.0991
  H  H160  1  0.616700  0.148800  0.405500  1.0  0.1265
  H  H161  1  0.383300  0.351200  0.905500  1.0  0.1264
  H  H162  1  0.543500  0.468200  0.048100  1.0  0.0781
  H  H163  1  0.506100  0.955700  0.037500  1.0  0.0847
  H  H164  1  0.595700  0.346900  0.592600  1.0  0.1231
  H  H165  1  0.043500  0.531800  0.451900  1.0  0.0783
  H  H166  1  0.660700  0.927300  0.029000  1.0  0.1177
  H  H167  1  0.577200  0.083300  0.636100  1.0  0.1023
  H  H168  1  0.136000  0.689900  0.631800  1.0  0.1121
  H  H169  1  0.095700  0.653100  0.907400  1.0  0.123
  H  H170  1  0.906300  0.664500  0.725700  1.0  0.0841
  H  H171  1  0.384700  0.078200  0.071200  1.0  0.0895
  H  H172  1  0.951400  0.771700  0.167800  1.0  0.0897
  H  H173  1  0.960300  0.912200  0.329900  1.0  0.1163
  H  H174  1  0.884700  0.921800  0.428800  1.0  0.0902
  H  H175  1  0.406300  0.335500  0.774300  1.0  0.0844
  H  H176  1  0.993900  0.455700  0.962500  1.0  0.0861
  H  H177  1  0.956500  0.968200  0.951900  1.0  0.078
  H  H178  1  0.539700  0.412200  0.670100  1.0  0.1162
  H  H179  1  0.451400  0.195500  0.770700  1.0  0.1004
  H  H180  1  0.451400  0.228300  0.332200  1.0  0.0893
  H  H181  1  0.694600  0.092400  0.517100  1.0  0.0909
  H  H182  1  0.039700  0.587800  0.829900  1.0  0.1162
  H  H183  1  0.012300  0.797400  0.776700  1.0  0.1092
  H  H184  1  0.904300  0.846900  0.407400  1.0  0.1233
  H  H185  1  0.047500  0.847600  0.837600  1.0  0.1252
  H  H186  1  0.805400  0.592400  0.482900  1.0  0.0909
  H  H187  1  0.493900  0.544300  0.537500  1.0  0.0857
  H  H188  1  0.548600  0.271700  0.832200  1.0  0.0891
  H  H189  1  0.404300  0.153100  0.092600  1.0  0.1232
  H  H190  1  0.113500  0.884300  0.025700  1.0  0.1235
  H  H191  1  0.604700  0.229100  0.588400  1.0  0.1167
  H  H192  1  0.987700  0.702600  0.276700  1.0  0.1094
  H  H193  1  0.077200  0.916700  0.863900  1.0  0.1017
  H  H194  1  0.048600  0.695500  0.229300  1.0  0.0999
  H  H195  1  0.512300  0.202600  0.723300  1.0  0.1092
  H  H196  1  0.815200  0.398800  0.884000  1.0  0.1238
  H  H197  1  0.952500  0.652400  0.337600  1.0  0.1249
  H  H198  1  0.028900  0.071700  0.378100  1.0  0.0868
  H  H199  1  0.006100  0.044300  0.462500  1.0  0.0862
  H  H200  1  0.547500  0.152400  0.662400  1.0  0.1252
  H  H201  1  0.535300  0.154100  0.227600  1.0  0.1121
  H  H202  1  0.456500  0.031800  0.548100  1.0  0.079
  H  H203  1  0.035300  0.845900  0.272400  1.0  0.1118
  H  H204  1  0.128300  0.551700  0.494300  1.0  0.1221
  H  H205  1  0.548600  0.304500  0.270700  1.0  0.0989
  H  H206  1  0.802900  0.683500  0.633500  1.0  0.0886
  H  H207  1  0.194600  0.907600  0.982900  1.0  0.091
  H  H208  1  0.864000  0.810100  0.131800  1.0  0.1133
  H  H209  1  0.839300  0.427300  0.971000  1.0  0.1171
  H  H210  1  0.197100  0.816500  0.133500  1.0  0.0878
  H  H211  1  0.866100  0.656900  0.435900  1.0  0.0971
  H  H212  1  0.422800  0.416700  0.136100  1.0  0.1018
  H  H213  1  0.436000  0.014500  0.146800  1.0  0.0924
  H  H214  1  0.064000  0.514500  0.853200  1.0  0.0909
  H  H215  1  0.364000  0.189900  0.368200  1.0  0.113
  H  H216  1  0.452500  0.347600  0.162400  1.0  0.1248
  C  C217  1  0.079900  0.401100  0.489330  1.0  -0.1338
  C  C218  1  0.372300  0.915100  0.484970  1.0  0.1349
  C  C219  1  0.542700  0.443800  0.446390  1.0  0.139
  C  C220  1  0.982800  0.412300  0.486200  1.0  -0.1178
  C  C221  1  0.442700  0.756600  0.354840  1.0  0.4244
  C  C222  1  0.056400  0.572200  0.102680  1.0  0.1553
  C  C223  1  0.434600  0.845800  0.357720  1.0  -0.1275
  C  C224  1  0.099200  0.300500  0.598660  1.0  -0.1261
  C  C225  1  0.067100  0.188800  0.868550  1.0  -0.1404
  C  C226  1  0.991600  0.224800  0.719120  1.0  -0.0757
  C  C227  1  0.073400  0.308100  0.263540  1.0  0.1338
  C  C228  1  0.489100  0.730300  0.766730  1.0  -0.1165
  C  C229  1  0.943600  0.927800  0.602680  1.0  0.1556
  C  C230  1  0.583300  0.613400  0.873510  1.0  0.1249
  C  C231  1  0.573400  0.691900  0.236460  1.0  0.1346
  C  C232  1  0.850900  0.910200  0.599580  1.0  -0.1381
  C  C233  1  0.071100  0.043200  0.635760  1.0  0.1419
  C  C234  1  0.443800  0.586700  0.350240  1.0  -0.1263
  C  C235  1  0.350900  0.089800  0.900420  1.0  -0.1398
  C  C236  1  0.588700  0.875000  0.895830  1.0  -0.137
  C  C237  1  0.398600  0.580200  0.408300  1.0  0.124
  C  C238  1  0.134600  0.572900  0.048400  1.0  -0.14
  C  C239  1  0.371700  0.814600  0.632770  1.0  0.126
  C  C240  1  0.601400  0.919800  0.908300  1.0  0.1234
  C  C241  1  0.149100  0.589800  0.099580  1.0  -0.1378
  C  C242  1  0.556200  0.913300  0.850240  1.0  -0.1269
  C  C243  1  0.634600  0.427100  0.451600  1.0  -0.1418
  C  C244  1  0.627700  0.584900  0.984970  1.0  0.1371
  C  C245  1  0.556400  0.427800  0.397320  1.0  0.1598
  C  C246  1  0.010900  0.230300  0.233270  1.0  -0.1163
  C  C247  1  0.383600  0.843600  0.415670  1.0  0.134
  C  C248  1  0.649100  0.410200  0.400420  1.0  -0.1387
  C  C249  1  0.978200  0.279500  0.188090  1.0  0.3827
  C  C250  1  0.365400  0.072900  0.951600  1.0  -0.1426
  C  C251  1  0.508400  0.724800  0.280880  1.0  -0.0773
  C  C252  1  0.101400  0.080200  0.591700  1.0  0.1235
  C  C253  1  0.071100  0.103400  0.959430  1.0  0.3895
  C  C254  1  0.065500  0.128500  0.633720  1.0  -0.1108
  C  C255  1  0.514900  0.789200  0.653000  1.0  0.1488
  C  C256  1  0.928900  0.456800  0.135760  1.0  0.1405
  C  C257  1  0.081100  0.336000  0.390250  1.0  -0.1549
  C  C258  1  0.014900  0.210800  0.847000  1.0  0.1452
  C  C259  1  0.571100  0.896600  0.540570  1.0  0.3889
  C  C260  1  0.898600  0.419800  0.091700  1.0  0.1242
  C  C261  1  0.485100  0.710800  0.153000  1.0  0.1456
  C  C262  1  0.562700  0.938600  0.492080  1.0  -0.146
  C  C263  1  0.521800  0.779500  0.811910  1.0  0.3822
  C  C264  1  0.428900  0.543200  0.364240  1.0  0.1412
  C  C265  1  0.510900  0.769700  0.266730  1.0  -0.1173
  C  C266  1  0.927300  0.359900  0.415140  1.0  0.3693
  C  C267  1  0.427300  0.640100  0.084860  1.0  0.3698
  C  C268  1  0.900800  0.199500  0.098660  1.0  -0.1265
  C  C269  1  0.953000  0.273800  0.761550  1.0  0.123
  C  C270  1  0.021800  0.220500  0.688090  1.0  0.3825
  C  C271  1  0.934500  0.371500  0.133720  1.0  -0.1105
  C  C272  1  0.918900  0.164000  0.890250  1.0  -0.1557
  C  C273  1  0.088700  0.125000  0.604170  1.0  -0.1362
  C  C274  1  0.443600  0.072200  0.897320  1.0  0.1546
  C  C275  1  0.932900  0.311200  0.368550  1.0  -0.1416
  C  C276  1  0.416700  0.886600  0.373510  1.0  0.1246
  C  C277  1  0.811600  0.910000  0.571530  1.0  -0.0854
  C  C278  1  0.418900  0.836000  0.609750  1.0  -0.1541
  C  C279  1  0.017200  0.087700  0.986200  1.0  -0.1171
  C  C280  1  0.554400  0.824000  0.852060  1.0  0.4098
  C  C281  1  0.054400  0.176000  0.647940  1.0  0.4101
  C  C282  1  0.128300  0.314600  0.367230  1.0  0.1241
  C  C283  1  0.572700  0.859900  0.584860  1.0  0.3697
  C  C284  1  0.056200  0.086700  0.649760  1.0  -0.1284
  C  C285  1  0.411300  0.625000  0.395830  1.0  -0.1358
  C  C286  1  0.934600  0.154200  0.142280  1.0  -0.1275
  C  C287  1  0.989100  0.269700  0.733270  1.0  -0.1157
  C  C288  1  0.565400  0.654200  0.857720  1.0  -0.1265
  C  C289  1  0.616400  0.656400  0.915670  1.0  0.1341
  C  C290  1  0.488700  0.549300  0.967000  1.0  0.1313
  C  C291  1  0.628300  0.685400  0.132770  1.0  0.1244
  C  C292  1  0.065400  0.345800  0.642280  1.0  -0.1275
  C  C293  1  0.574000  0.698600  0.871880  1.0  -0.1014
  C  C294  1  0.127700  0.415100  0.515030  1.0  0.1333
  C  C295  1  0.011300  0.049300  0.033000  1.0  0.1262
  C  C296  1  0.453000  0.726200  0.738450  1.0  0.1225
  C  C297  1  0.511300  0.950700  0.467000  1.0  0.1269
  C  C298  1  0.062700  0.061400  0.007920  1.0  -0.1467
  C  C299  1  0.579900  0.598900  0.010670  1.0  -0.1339
  C  C300  1  0.434500  0.628500  0.366280  1.0  -0.1101
  C  C301  1  0.517200  0.912300  0.513800  1.0  -0.1183
  C  C302  1  0.008400  0.275200  0.219120  1.0  -0.076
  C  C303  1  0.871700  0.185400  0.867230  1.0  0.1285
  C  C304  1  0.961200  0.185500  0.735720  1.0  -0.1328
  C  C305  1  0.038800  0.314500  0.235720  1.0  -0.1345
  C  C306  1  0.920100  0.098900  0.989330  1.0  -0.1338
  C  C307  1  0.457300  0.056200  0.946390  1.0  0.1395
  C  C308  1  0.428900  0.603400  0.040570  1.0  0.3889
  C  C309  1  0.791800  0.394400  0.432570  1.0  0.4155
  C  C310  1  0.072700  0.140100  0.915140  1.0  0.3693
  C  C311  1  0.567100  0.811200  0.631450  1.0  -0.1405
  C  C312  1  0.478200  0.720500  0.311910  1.0  0.3822
  C  C313  1  0.937300  0.438600  0.507920  1.0  -0.1486
  C  C314  1  0.400800  0.800500  0.401340  1.0  -0.1241
  C  C315  1  0.980300  0.335000  0.390920  1.0  -0.1022
  C  C316  1  0.926000  0.198600  0.128120  1.0  -0.1012
  C  C317  1  0.083300  0.386600  0.626490  1.0  0.1259
  C  C318  1  0.208200  0.105600  0.932570  1.0  0.4166
  C  C319  1  0.291800  0.605600  0.067430  1.0  0.4161
  C  C320  1  0.437300  0.561400  0.992080  1.0  -0.1509
  C  C321  1  0.432900  0.688800  0.131450  1.0  -0.1428
  C  C322  1  0.538800  0.685500  0.264280  1.0  -0.1351
  C  C323  1  0.480300  0.665000  0.109080  1.0  -0.1023
  C  C324  1  0.057300  0.256600  0.645160  1.0  0.4243
  C  C325  1  0.311600  0.090000  0.928470  1.0  -0.084
  C  C326  1  0.042700  0.556200  0.053610  1.0  0.1424
  C  C327  1  0.461200  0.814500  0.764280  1.0  -0.1336
  C  C328  1  0.547000  0.773800  0.238450  1.0  0.1217
  C  C329  1  0.911300  0.375000  0.104170  1.0  -0.1352
  C  C330  1  0.599200  0.699500  0.901340  1.0  -0.1255
  C  C331  1  0.426000  0.801400  0.371880  1.0  -0.1017
  C  C332  1  0.426600  0.808100  0.736460  1.0  0.1343
  C  C333  1  0.708200  0.894400  0.567430  1.0  0.4165
  C  C334  1  0.565500  0.871500  0.866280  1.0  -0.1113
  C  C335  1  0.019700  0.165000  0.890920  1.0  -0.1028
  C  C336  1  0.445600  0.676000  0.352060  1.0  0.4096
  C  C337  1  0.945600  0.324000  0.147940  1.0  0.4095
  C  C338  1  0.688400  0.410000  0.428470  1.0  -0.0833
  C  C339  1  0.926600  0.191900  0.763540  1.0  0.1352
  C  C340  1  0.074000  0.301400  0.628120  1.0  -0.1016
  C  C341  1  0.883600  0.156400  0.084330  1.0  0.1311
  C  C342  1  0.491600  0.775200  0.780880  1.0  -0.0771
  C  C343  1  0.519700  0.835000  0.609080  1.0  -0.102
  C  C344  1  0.988700  0.450700  0.533000  1.0  0.1326
  C  C345  1  0.872300  0.084900  0.015030  1.0  0.1342
  C  C346  1  0.581100  0.664000  0.109750  1.0  -0.1528
  C  C347  1  0.928900  0.396600  0.459430  1.0  0.3888
  C  C348  1  0.943800  0.413300  0.149760  1.0  -0.1285
  C  C349  1  0.482800  0.587700  0.013800  1.0  -0.1178
  C  C350  1  0.865400  0.927100  0.548400  1.0  -0.1409
  C  C351  1  0.420100  0.901100  0.510670  1.0  -0.134
  C  C352  1  0.188400  0.590000  0.071530  1.0  -0.0828
  C  C353  1  0.957300  0.943800  0.553610  1.0  0.1415
  C  C354  1  0.557300  0.743400  0.854840  1.0  0.4245
  C  C355  1  0.116400  0.343600  0.584330  1.0  0.1315
  C  C356  1  0.047000  0.226200  0.261550  1.0  0.1227
  C  C357  1  0.985100  0.289200  0.347000  1.0  0.1456
  C  C358  1  0.942700  0.243400  0.145160  1.0  0.4242
  C  C359  1  0.571100  0.956800  0.864240  1.0  0.1444
  C  C360  1  0.916700  0.113400  0.126490  1.0  0.1257
  C  C361  1  0.457300  0.556200  0.553610  1.0  0.1386
  C  C362  1  0.127700  0.915100  0.984970  1.0  0.1341
  C  C363  1  0.991600  0.724800  0.780880  1.0  -0.0771
  C  C364  1  0.437300  0.061400  0.507920  1.0  -0.1507
  C  C365  1  0.453000  0.226200  0.761550  1.0  0.1247
  C  C366  1  0.372300  0.415100  0.015030  1.0  0.1341
  C  C367  1  0.928900  0.956800  0.364240  1.0  0.1413
  C  C368  1  0.920100  0.598900  0.510670  1.0  -0.1342
  C  C369  1  0.056400  0.072200  0.397320  1.0  0.1556
  C  C370  1  0.554400  0.324000  0.647940  1.0  0.4099
  C  C371  1  0.571100  0.456800  0.635760  1.0  0.1417
  C  C372  1  0.943600  0.427800  0.897320  1.0  0.1556
  C  C373  1  0.937300  0.938600  0.992080  1.0  -0.1508
  C  C374  1  0.634600  0.927100  0.048400  1.0  -0.1397
  C  C375  1  0.791800  0.894400  0.067430  1.0  0.4157
  C  C376  1  0.099200  0.800500  0.901340  1.0  -0.1248
  C  C377  1  0.057300  0.756600  0.854840  1.0  0.4244
  C  C378  1  0.014900  0.710800  0.653000  1.0  0.1456
  C  C379  1  0.017200  0.587700  0.513800  1.0  -0.1172
  C  C380  1  0.616400  0.156400  0.584330  1.0  0.131
  C  C381  1  0.985100  0.789200  0.153000  1.0  0.1498
  C  C382  1  0.208200  0.605600  0.567430  1.0  0.4167
  C  C383  1  0.350900  0.589800  0.599580  1.0  -0.1378
  C  C384  1  0.291800  0.105600  0.432570  1.0  0.4161
  C  C385  1  0.065400  0.845800  0.857720  1.0  -0.127
  C  C386  1  0.628300  0.185400  0.367230  1.0  0.1241
  C  C387  1  0.957300  0.443800  0.946390  1.0  0.1422
  C  C388  1  0.521800  0.279500  0.688090  1.0  0.3826
  C  C389  1  0.400800  0.300500  0.098660  1.0  -0.1249
  C  C390  1  0.428900  0.103400  0.459430  1.0  0.3892
  C  C391  1  0.434600  0.345800  0.142280  1.0  -0.1275
  C  C392  1  0.054400  0.676000  0.852060  1.0  0.41
  C  C393  1  0.416700  0.386600  0.126490  1.0  0.126
  C  C394  1  0.079900  0.901100  0.010670  1.0  -0.134
  C  C395  1  0.573400  0.191900  0.263540  1.0  0.1357
  C  C396  1  0.942700  0.743400  0.354840  1.0  0.4245
  C  C397  1  0.062700  0.561400  0.492080  1.0  -0.1465
  C  C398  1  0.556400  0.927800  0.102680  1.0  0.1618
  C  C399  1  0.088700  0.625000  0.895830  1.0  -0.1353
  C  C400  1  0.517200  0.412300  0.986200  1.0  -0.1175
  C  C401  1  0.871700  0.685400  0.632770  1.0  0.1248
  C  C402  1  0.883600  0.656400  0.415670  1.0  0.1312
  C  C403  1  0.149100  0.089800  0.400420  1.0  -0.1421
  C  C404  1  0.872300  0.584900  0.484970  1.0  0.1338
  C  C405  1  0.478200  0.220500  0.188090  1.0  0.3826
  C  C406  1  0.426600  0.308100  0.763540  1.0  0.1338
  C  C407  1  0.565400  0.154200  0.642280  1.0  -0.1278
  C  C408  1  0.574000  0.198600  0.628120  1.0  -0.1014
  C  C409  1  0.581100  0.164000  0.390250  1.0  -0.1546
  C  C410  1  0.934500  0.871500  0.366280  1.0  -0.1106
  C  C411  1  0.073400  0.808100  0.236460  1.0  0.1342
  C  C412  1  0.579900  0.098900  0.489330  1.0  -0.133
  C  C413  1  0.934600  0.654200  0.357720  1.0  -0.1281
  C  C414  1  0.565500  0.371500  0.633720  1.0  -0.1112
  C  C415  1  0.047000  0.726200  0.238450  1.0  0.1225
  C  C416  1  0.461200  0.314500  0.735720  1.0  -0.1334
  C  C417  1  0.116400  0.843600  0.915670  1.0  0.1322
  C  C418  1  0.011300  0.549300  0.467000  1.0  0.1267
  C  C419  1  0.420100  0.401100  0.989330  1.0  -0.1342
  C  C420  1  0.428900  0.043200  0.135760  1.0  0.1416
  C  C421  1  0.900800  0.699500  0.401340  1.0  -0.1261
  C  C422  1  0.128300  0.814600  0.132770  1.0  0.127
  C  C423  1  0.688400  0.910000  0.071530  1.0  -0.0831
  C  C424  1  0.038800  0.814500  0.264280  1.0  -0.1346
  C  C425  1  0.398600  0.080200  0.091700  1.0  0.1247
  C  C426  1  0.365400  0.572900  0.548400  1.0  -0.1412
  C  C427  1  0.926600  0.691900  0.736460  1.0  0.1349
  C  C428  1  0.021800  0.720500  0.811910  1.0  0.3821
  C  C429  1  0.926000  0.698600  0.371880  1.0  -0.1011
  C  C430  1  0.482800  0.087700  0.486200  1.0  -0.1177
  C  C431  1  0.508400  0.224800  0.219120  1.0  -0.0761
  C  C432  1  0.434500  0.128500  0.133720  1.0  -0.1105
  C  C433  1  0.443800  0.086700  0.149760  1.0  -0.1284
  C  C434  1  0.480300  0.165000  0.390920  1.0  -0.1022
  C  C435  1  0.443600  0.572200  0.602680  1.0  0.1594
  C  C436  1  0.489100  0.230300  0.733270  1.0  -0.1156
  C  C437  1  0.557300  0.243400  0.645160  1.0  0.4242
  C  C438  1  0.916700  0.613400  0.373510  1.0  0.1283
  C  C439  1  0.418900  0.336000  0.890250  1.0  -0.156
  C  C440  1  0.083300  0.886600  0.873510  1.0  0.1246
  C  C441  1  0.188400  0.090000  0.428470  1.0  -0.0829
  C  C442  1  0.850900  0.410200  0.900420  1.0  -0.1393
  C  C443  1  0.074000  0.801400  0.871880  1.0  -0.1018
  C  C444  1  0.510900  0.269700  0.233270  1.0  -0.1163
  C  C445  1  0.432900  0.188800  0.368550  1.0  -0.1419
  C  C446  1  0.019700  0.665000  0.609080  1.0  -0.1027
  C  C447  1  0.811600  0.410000  0.928470  1.0  -0.0855
  C  C448  1  0.485100  0.210800  0.347000  1.0  0.1487
  C  C449  1  0.572700  0.359900  0.915140  1.0  0.3692
  C  C450  1  0.445600  0.176000  0.147940  1.0  0.4097
  C  C451  1  0.708200  0.394400  0.932570  1.0  0.4163
  C  C452  1  0.426000  0.301400  0.128120  1.0  -0.1015
  C  C453  1  0.071100  0.543200  0.864240  1.0  0.1413
  C  C454  1  0.945600  0.824000  0.352060  1.0  0.4094
  C  C455  1  0.491600  0.275200  0.719120  1.0  -0.0757
  C  C456  1  0.928900  0.896600  0.040570  1.0  0.3888
  C  C457  1  0.071100  0.603400  0.540570  1.0  0.3891
  C  C458  1  0.556200  0.413300  0.649760  1.0  -0.1288
  C  C459  1  0.562700  0.438600  0.007920  1.0  -0.1473
  C  C460  1  0.511300  0.450700  0.033000  1.0  0.1262
  C  C461  1  0.311600  0.590000  0.571530  1.0  -0.0841
  C  C462  1  0.932900  0.811200  0.131450  1.0  -0.1419
  C  C463  1  0.514900  0.289200  0.847000  1.0  0.1449
  C  C464  1  0.588700  0.375000  0.604170  1.0  -0.1364
  C  C465  1  0.989100  0.769700  0.766730  1.0  -0.1163
  C  C466  1  0.982800  0.912300  0.013800  1.0  -0.1185
  C  C467  1  0.571100  0.396600  0.959430  1.0  0.389
  C  C468  1  0.072700  0.640100  0.584860  1.0  0.3697
  C  C469  1  0.599200  0.199500  0.598660  1.0  -0.1266
  C  C470  1  0.542700  0.943800  0.053610  1.0  0.1396
  C  C471  1  0.988700  0.950700  0.967000  1.0  0.129
  C  C472  1  0.042700  0.056200  0.446390  1.0  0.139
  C  C473  1  0.010900  0.730300  0.266730  1.0  -0.1173
  C  C474  1  0.978200  0.779500  0.311910  1.0  0.3822
  C  C475  1  0.056200  0.586700  0.850240  1.0  -0.1261
  C  C476  1  0.442700  0.256600  0.145160  1.0  0.4243
  C  C477  1  0.411300  0.125000  0.104170  1.0  -0.1351
  C  C478  1  0.898600  0.919800  0.408300  1.0  0.1232
  C  C479  1  0.583300  0.113400  0.626490  1.0  0.1259
  C  C480  1  0.865400  0.427100  0.951600  1.0  -0.1427
  C  C481  1  0.488700  0.049300  0.533000  1.0  0.1275
  C  C482  1  0.081100  0.836000  0.109750  1.0  -0.1539
  C  C483  1  0.943800  0.913300  0.350240  1.0  -0.1268
  C  C484  1  0.961200  0.685500  0.764280  1.0  -0.1337
  C  C485  1  0.008400  0.775200  0.280880  1.0  -0.0773
  C  C486  1  0.371700  0.314600  0.867230  1.0  0.1258
  C  C487  1  0.911300  0.875000  0.395830  1.0  -0.1343
  C  C488  1  0.101400  0.580200  0.908300  1.0  0.1235
  C  C489  1  0.918900  0.664000  0.609750  1.0  -0.1542
  C  C490  1  0.067100  0.688800  0.631450  1.0  -0.1414
  C  C491  1  0.547000  0.273800  0.261550  1.0  0.1225
  C  C492  1  0.927300  0.859900  0.084860  1.0  0.3698
  C  C493  1  0.627700  0.084900  0.515030  1.0  0.1341
  C  C494  1  0.538800  0.185500  0.235720  1.0  -0.1335
  C  C495  1  0.601400  0.419800  0.591700  1.0  0.1235
  C  C496  1  0.383600  0.343600  0.084330  1.0  0.1316
  C  C497  1  0.134600  0.072900  0.451600  1.0  -0.1417
  C  C498  1  0.427300  0.140100  0.415140  1.0  0.3693
  C  C499  1  0.953000  0.773800  0.738450  1.0  0.1233
  C  C500  1  0.065500  0.628500  0.866280  1.0  -0.1105
  C  C501  1  0.980300  0.835000  0.109080  1.0  -0.1019
  C  C502  1  0.519700  0.335000  0.890920  1.0  -0.1025
  C  C503  1  0.649100  0.910200  0.099580  1.0  -0.1374
  C  C504  1  0.567100  0.311200  0.868550  1.0  -0.1407
  I  I505  1  0.435510  0.014770  0.394550  1.0  -0.3614
  I  I506  1  0.667340  0.057050  0.067590  1.0  -0.3803
  I  I507  1  0.332660  0.442950  0.567590  1.0  -0.3807
  I  I508  1  0.323590  0.667120  0.674550  1.0  -0.3253
  I  I509  1  0.183370  0.805110  0.694330  1.0  -0.37
  I  I510  1  0.709160  0.008790  0.962180  1.0  -0.3861
  I  I511  1  0.290840  0.491210  0.462180  1.0  -0.3866
  I  I512  1  0.283590  0.427050  0.372310  1.0  -0.3488
  I  I513  1  0.564490  0.485230  0.894550  1.0  -0.3616
  I  I514  1  0.176410  0.167120  0.325450  1.0  -0.3247
  I  I515  1  0.216410  0.927050  0.627690  1.0  -0.3475
  I  I516  1  0.316630  0.305110  0.305670  1.0  -0.3701
  I  I517  1  0.783590  0.572950  0.127690  1.0  -0.3469
  I  I518  1  0.832660  0.557050  0.932410  1.0  -0.3807
  I  I519  1  0.823590  0.332880  0.825450  1.0  -0.3235
  I  I520  1  0.683370  0.194890  0.805670  1.0  -0.3698
  I  I521  1  0.716410  0.072950  0.872310  1.0  -0.3486
  I  I522  1  0.676410  0.832880  0.174550  1.0  -0.3244
  I  I523  1  0.790840  0.508790  0.037820  1.0  -0.3868
  I  I524  1  0.167340  0.942950  0.432410  1.0  -0.38
  I  I525  1  0.209160  0.991210  0.537820  1.0  -0.3869
  I  I526  1  0.064490  0.514770  0.605450  1.0  -0.3606
  I  I527  1  0.935510  0.985230  0.105450  1.0  -0.3602
  I  I528  1  0.816630  0.694890  0.194330  1.0  -0.3702
  I  I529  1  0.667340  0.557050  0.432410  1.0  -0.3803
  I  I530  1  0.209160  0.491210  0.962180  1.0  -0.3865
  I  I531  1  0.290840  0.991210  0.037820  1.0  -0.3871
  I  I532  1  0.935510  0.485230  0.394550  1.0  -0.3618
  I  I533  1  0.332660  0.942950  0.932410  1.0  -0.3806
  I  I534  1  0.683370  0.694890  0.694330  1.0  -0.3699
  I  I535  1  0.716410  0.572950  0.627690  1.0  -0.3473
  I  I536  1  0.435510  0.514770  0.105450  1.0  -0.3606
  I  I537  1  0.564490  0.985230  0.605450  1.0  -0.3601
  I  I538  1  0.064490  0.014770  0.894550  1.0  -0.3613
  I  I539  1  0.283590  0.927050  0.127690  1.0  -0.3472
  I  I540  1  0.167340  0.442950  0.067590  1.0  -0.3801
  I  I541  1  0.176410  0.667120  0.174550  1.0  -0.3253
  I  I542  1  0.816630  0.194890  0.305670  1.0  -0.3702
  I  I543  1  0.183370  0.305110  0.805670  1.0  -0.37
  I  I544  1  0.783590  0.072950  0.372310  1.0  -0.3483
  I  I545  1  0.832660  0.057050  0.567590  1.0  -0.3807
  I  I546  1  0.216410  0.427050  0.872310  1.0  -0.3491
  I  I547  1  0.316630  0.805110  0.194330  1.0  -0.3702
  I  I548  1  0.790840  0.008790  0.462180  1.0  -0.3862
  I  I549  1  0.323590  0.167120  0.825450  1.0  -0.3247
  I  I550  1  0.676410  0.332880  0.325450  1.0  -0.3235
  I  I551  1  0.709160  0.508790  0.537820  1.0  -0.3867
  I  I552  1  0.823590  0.832880  0.674550  1.0  -0.3243
  N  N553  1  0.664700  0.908500  0.542420  1.0  -0.5332
  N  N554  1  0.031200  0.176700  0.676530  1.0  -0.4872
  N  N555  1  0.582700  0.708800  0.154290  1.0  -0.3131
  N  N556  1  0.082700  0.291200  0.345710  1.0  -0.3125
  N  N557  1  0.034300  0.261400  0.673620  1.0  -0.4846
  N  N558  1  0.534300  0.738600  0.826380  1.0  -0.4828
  N  N559  1  0.164700  0.091500  0.957580  1.0  -0.5351
  N  N560  1  0.890700  0.114200  0.097900  1.0  -0.3078
  N  N561  1  0.917500  0.061200  0.037020  1.0  -0.3191
  N  N562  1  0.335300  0.591500  0.042420  1.0  -0.5345
  N  N563  1  0.833100  0.368800  0.411220  1.0  -0.4224
  N  N564  1  0.905000  0.460100  0.107280  1.0  -0.3033
  N  N565  1  0.931400  0.285400  0.131340  1.0  -0.4677
  N  N566  1  0.531200  0.823300  0.823470  1.0  -0.4959
  N  N567  1  0.095000  0.039900  0.607280  1.0  -0.304
  N  N568  1  0.502400  0.444100  0.419690  1.0  -0.3362
  N  N569  1  0.666900  0.868800  0.588780  1.0  -0.4188
  N  N570  1  0.417300  0.791200  0.654290  1.0  -0.3124
  N  N571  1  0.419900  0.764800  0.723500  1.0  -0.3383
  N  N572  1  0.405000  0.539900  0.392720  1.0  -0.3043
  N  N573  1  0.568600  0.785400  0.868660  1.0  -0.473
  N  N574  1  0.166900  0.131200  0.911220  1.0  -0.4206
  N  N575  1  0.465700  0.761400  0.326380  1.0  -0.4852
  N  N576  1  0.333100  0.631200  0.088780  1.0  -0.4221
  N  N577  1  0.520700  0.872700  0.561240  1.0  -0.3745
  N  N578  1  0.917300  0.208800  0.845710  1.0  -0.3122
  N  N579  1  0.919900  0.235200  0.776500  1.0  -0.3357
  N  N580  1  0.997600  0.944100  0.580310  1.0  -0.3357
  N  N581  1  0.479300  0.627300  0.061240  1.0  -0.3753
  N  N582  1  0.968800  0.323300  0.176530  1.0  -0.4898
  N  N583  1  0.979300  0.372700  0.438760  1.0  -0.3704
  N  N584  1  0.497600  0.055900  0.919690  1.0  -0.3391
  N  N585  1  0.417500  0.938800  0.462980  1.0  -0.3198
  N  N586  1  0.580100  0.735200  0.223500  1.0  -0.3382
  N  N587  1  0.109300  0.385800  0.597900  1.0  -0.3081
  N  N588  1  0.965700  0.238600  0.173620  1.0  -0.4836
  N  N589  1  0.431400  0.714600  0.368660  1.0  -0.4769
  N  N590  1  0.595000  0.960100  0.892720  1.0  -0.305
  N  N591  1  0.468800  0.676700  0.323470  1.0  -0.4874
  N  N592  1  0.835300  0.408500  0.457580  1.0  -0.5297
  N  N593  1  0.082500  0.438800  0.537020  1.0  -0.3184
  N  N594  1  0.020700  0.127300  0.938760  1.0  -0.374
  N  N595  1  0.068600  0.214600  0.631340  1.0  -0.4716
  N  N596  1  0.002400  0.555900  0.080310  1.0  -0.3374
  N  N597  1  0.080100  0.264800  0.276500  1.0  -0.3367
  N  N598  1  0.390700  0.885800  0.402100  1.0  -0.309
  N  N599  1  0.609300  0.614200  0.902100  1.0  -0.3072
  N  N600  1  0.582500  0.561200  0.962980  1.0  -0.3196
  N  N601  1  0.568600  0.285400  0.631340  1.0  -0.4716
  N  N602  1  0.020700  0.627300  0.561240  1.0  -0.3679
  N  N603  1  0.405000  0.039900  0.107280  1.0  -0.3037
  N  N604  1  0.431400  0.214600  0.131340  1.0  -0.4677
  N  N605  1  0.497600  0.555900  0.580310  1.0  -0.3363
  N  N606  1  0.082500  0.938800  0.962980  1.0  -0.3185
  N  N607  1  0.835300  0.908500  0.042420  1.0  -0.5346
  N  N608  1  0.833100  0.868800  0.088780  1.0  -0.4215
  N  N609  1  0.417300  0.291200  0.845710  1.0  -0.314
  N  N610  1  0.002400  0.055900  0.419690  1.0  -0.3375
  N  N611  1  0.582500  0.061200  0.537020  1.0  -0.3185
  N  N612  1  0.917500  0.561200  0.462980  1.0  -0.321
  N  N613  1  0.164700  0.591500  0.542420  1.0  -0.5328
  N  N614  1  0.419900  0.264800  0.776500  1.0  -0.336
  N  N615  1  0.534300  0.238600  0.673620  1.0  -0.484
  N  N616  1  0.905000  0.960100  0.392720  1.0  -0.3043
  N  N617  1  0.582700  0.208800  0.345710  1.0  -0.3132
  N  N618  1  0.166900  0.631200  0.588780  1.0  -0.4203
  N  N619  1  0.080100  0.764800  0.223500  1.0  -0.3386
  N  N620  1  0.666900  0.368800  0.911220  1.0  -0.4207
  N  N621  1  0.890700  0.614200  0.402100  1.0  -0.3074
  N  N622  1  0.520700  0.372700  0.938760  1.0  -0.369
  N  N623  1  0.609300  0.114200  0.597900  1.0  -0.3073
  N  N624  1  0.968800  0.823300  0.323470  1.0  -0.4888
  N  N625  1  0.580100  0.235200  0.276500  1.0  -0.3366
  N  N626  1  0.417500  0.438800  0.037020  1.0  -0.3199
  N  N627  1  0.031200  0.676700  0.823470  1.0  -0.4895
  N  N628  1  0.333100  0.131200  0.411220  1.0  -0.4217
  N  N629  1  0.595000  0.460100  0.607280  1.0  -0.3038
  N  N630  1  0.468800  0.176700  0.176530  1.0  -0.4892
  N  N631  1  0.095000  0.539900  0.892720  1.0  -0.3038
  N  N632  1  0.531200  0.323300  0.676530  1.0  -0.4972
  N  N633  1  0.664700  0.408500  0.957580  1.0  -0.5263
  N  N634  1  0.479300  0.127300  0.438760  1.0  -0.3703
  N  N635  1  0.082700  0.791200  0.154290  1.0  -0.312
  N  N636  1  0.919900  0.735200  0.723500  1.0  -0.3373
  N  N637  1  0.465700  0.261400  0.173620  1.0  -0.4843
  N  N638  1  0.335300  0.091500  0.457580  1.0  -0.5359
  N  N639  1  0.931400  0.785400  0.368660  1.0  -0.4769
  N  N640  1  0.068600  0.714600  0.868660  1.0  -0.478
  N  N641  1  0.390700  0.385800  0.097900  1.0  -0.308
  N  N642  1  0.109300  0.885800  0.902100  1.0  -0.3089
  N  N643  1  0.034300  0.761400  0.826380  1.0  -0.4855
  N  N644  1  0.502400  0.944100  0.080310  1.0  -0.3361
  N  N645  1  0.965700  0.738600  0.326380  1.0  -0.4898
  N  N646  1  0.917300  0.708800  0.654290  1.0  -0.3133
  N  N647  1  0.997600  0.444100  0.919690  1.0  -0.334
  N  N648  1  0.979300  0.872700  0.061240  1.0  -0.3761
