# generated using pymatgen
data_ZnH8C12(IN2)2
_symmetry_space_group_name_H-M   'P 1'
_cell_length_a   27.77400000
_cell_length_b   13.89330000
_cell_length_c   44.58500000
_cell_angle_alpha   90.00000000
_cell_angle_beta   90.00000000
_cell_angle_gamma   90.00000000
_symmetry_Int_Tables_number   1
_chemical_formula_structural   ZnH8C12(IN2)2
_chemical_formula_sum   'Zn24 H192 C288 I48 N96'
_cell_volume   17204.12604561
_cell_formula_units_Z   24
loop_
 _symmetry_equiv_pos_site_id
 _symmetry_equiv_pos_as_xyz
  1  'x, y, z'
loop_
 _atom_site_type_symbol
 _atom_site_label
 _atom_site_symmetry_multiplicity
 _atom_site_fract_x
 _atom_site_fract_y
 _atom_site_fract_z
 _atom_site_occupancy
 _atom_site_charge
  Zn  Zn1  1  0.258440  0.323260  0.180050  1.0  0.8834
  Zn  Zn2  1  0.525010  0.620370  0.414740  1.0  0.8258
  Zn  Zn3  1  0.048540  0.646960  0.413400  1.0  0.8562
  Zn  Zn4  1  0.241560  0.676740  0.680050  1.0  0.8814
  Zn  Zn5  1  0.974990  0.379630  0.914740  1.0  0.8274
  Zn  Zn6  1  0.451460  0.353040  0.913400  1.0  0.8577
  Zn  Zn7  1  0.741560  0.823260  0.319950  1.0  0.8838
  Zn  Zn8  1  0.474990  0.120370  0.085260  1.0  0.8261
  Zn  Zn9  1  0.951460  0.146960  0.086600  1.0  0.8563
  Zn  Zn10  1  0.758440  0.176740  0.819950  1.0  0.8811
  Zn  Zn11  1  0.025010  0.879630  0.585260  1.0  0.8262
  Zn  Zn12  1  0.548540  0.853040  0.586600  1.0  0.857
  Zn  Zn13  1  0.741560  0.676740  0.819950  1.0  0.8812
  Zn  Zn14  1  0.474990  0.379630  0.585260  1.0  0.8269
  Zn  Zn15  1  0.951460  0.353040  0.586600  1.0  0.858
  Zn  Zn16  1  0.758440  0.323260  0.319950  1.0  0.8835
  Zn  Zn17  1  0.025010  0.620370  0.085260  1.0  0.8258
  Zn  Zn18  1  0.548540  0.646960  0.086600  1.0  0.8555
  Zn  Zn19  1  0.258440  0.176740  0.680050  1.0  0.8812
  Zn  Zn20  1  0.525010  0.879630  0.914740  1.0  0.8266
  Zn  Zn21  1  0.048540  0.853040  0.913400  1.0  0.857
  Zn  Zn22  1  0.241560  0.823260  0.180050  1.0  0.8838
  Zn  Zn23  1  0.974990  0.120370  0.414740  1.0  0.8263
  Zn  Zn24  1  0.451460  0.146960  0.413400  1.0  0.8568
  H  H25  1  0.201400  0.438600  0.223200  1.0  0.1017
  H  H26  1  0.207900  0.499800  0.271300  1.0  0.1165
  H  H27  1  0.350900  0.446500  0.268500  1.0  0.1193
  H  H28  1  0.339600  0.380400  0.221100  1.0  0.0886
  H  H29  1  0.489100  0.559300  0.353900  1.0  0.1024
  H  H30  1  0.418600  0.531200  0.328800  1.0  0.1133
  H  H31  1  0.346200  0.587300  0.405200  1.0  0.1169
  H  H32  1  0.418900  0.612000  0.429000  1.0  0.0905
  H  H33  1  0.155000  0.637500  0.429200  1.0  0.0851
  H  H34  1  0.227700  0.603000  0.407100  1.0  0.1185
  H  H35  1  0.155500  0.534400  0.331000  1.0  0.1259
  H  H36  1  0.084800  0.563500  0.356400  1.0  0.0906
  H  H37  1  0.029500  0.455700  0.442700  1.0  0.1
  H  H38  1  0.049300  0.375100  0.487000  1.0  0.1133
  H  H39  1  0.097000  0.625500  0.521500  1.0  0.1304
  H  H40  1  0.076600  0.699600  0.477200  1.0  0.0813
  H  H41  1  0.192700  0.706600  0.622200  1.0  0.0842
  H  H42  1  0.157200  0.623900  0.583200  1.0  0.1272
  H  H43  1  0.167200  0.383000  0.632600  1.0  0.1195
  H  H44  1  0.206500  0.472700  0.669000  1.0  0.083
  H  H45  1  0.076100  0.036400  0.619100  1.0  0.1016
  H  H46  1  0.102500  0.193900  0.612100  1.0  0.1193
  H  H47  1  0.061800  0.175300  0.525000  1.0  0.1189
  H  H48  1  0.038000  0.018800  0.533800  1.0  0.0948
  H  H49  1  0.298600  0.561400  0.723200  1.0  0.1016
  H  H50  1  0.292100  0.500200  0.771300  1.0  0.1163
  H  H51  1  0.149100  0.553500  0.768500  1.0  0.1187
  H  H52  1  0.160400  0.619600  0.721100  1.0  0.0868
  H  H53  1  0.010900  0.440700  0.853900  1.0  0.1025
  H  H54  1  0.081400  0.468800  0.828800  1.0  0.1134
  H  H55  1  0.153800  0.412700  0.905200  1.0  0.1168
  H  H56  1  0.081100  0.388000  0.929000  1.0  0.0912
  H  H57  1  0.345000  0.362500  0.929200  1.0  0.0854
  H  H58  1  0.272300  0.397000  0.907100  1.0  0.1192
  H  H59  1  0.344500  0.465600  0.831000  1.0  0.1263
  H  H60  1  0.415200  0.436500  0.856400  1.0  0.0907
  H  H61  1  0.470500  0.544300  0.942700  1.0  0.1003
  H  H62  1  0.450700  0.624900  0.987000  1.0  0.1129
  H  H63  1  0.403000  0.374500  0.021500  1.0  0.1305
  H  H64  1  0.423400  0.300400  0.977200  1.0  0.083
  H  H65  1  0.307300  0.293400  0.122200  1.0  0.0857
  H  H66  1  0.342800  0.376100  0.083200  1.0  0.1295
  H  H67  1  0.332800  0.617000  0.132600  1.0  0.119
  H  H68  1  0.293500  0.527300  0.169000  1.0  0.0829
  H  H69  1  0.423900  0.963600  0.119100  1.0  0.1014
  H  H70  1  0.397500  0.806100  0.112100  1.0  0.1195
  H  H71  1  0.438200  0.824700  0.025000  1.0  0.1192
  H  H72  1  0.462000  0.981200  0.033800  1.0  0.0947
  H  H73  1  0.798600  0.938600  0.276800  1.0  0.1013
  H  H74  1  0.792100  0.999800  0.228700  1.0  0.1163
  H  H75  1  0.649100  0.946500  0.231500  1.0  0.1189
  H  H76  1  0.660400  0.880400  0.278900  1.0  0.0878
  H  H77  1  0.510900  0.059300  0.146100  1.0  0.1032
  H  H78  1  0.581400  0.031200  0.171200  1.0  0.1134
  H  H79  1  0.653800  0.087300  0.094800  1.0  0.1166
  H  H80  1  0.581100  0.112000  0.071000  1.0  0.0905
  H  H81  1  0.845000  0.137500  0.070800  1.0  0.0854
  H  H82  1  0.772300  0.103000  0.092900  1.0  0.1188
  H  H83  1  0.844500  0.034400  0.169000  1.0  0.1261
  H  H84  1  0.915200  0.063500  0.143600  1.0  0.0915
  H  H85  1  0.970500  0.955700  0.057300  1.0  0.1006
  H  H86  1  0.950700  0.875100  0.013000  1.0  0.1127
  H  H87  1  0.903000  0.125500  0.978500  1.0  0.1305
  H  H88  1  0.923400  0.199600  0.022800  1.0  0.0812
  H  H89  1  0.807300  0.206600  0.877800  1.0  0.0852
  H  H90  1  0.842800  0.123900  0.916800  1.0  0.1274
  H  H91  1  0.832800  0.883000  0.867400  1.0  0.1195
  H  H92  1  0.793500  0.972700  0.831000  1.0  0.0824
  H  H93  1  0.923900  0.536400  0.880900  1.0  0.1015
  H  H94  1  0.897500  0.693900  0.887900  1.0  0.1194
  H  H95  1  0.938200  0.675300  0.975000  1.0  0.1193
  H  H96  1  0.962000  0.518800  0.966200  1.0  0.0958
  H  H97  1  0.701400  0.061400  0.776800  1.0  0.1015
  H  H98  1  0.707900  0.000200  0.728700  1.0  0.1164
  H  H99  1  0.850900  0.053500  0.731500  1.0  0.1193
  H  H100  1  0.839600  0.119600  0.778900  1.0  0.0874
  H  H101  1  0.989100  0.940700  0.646100  1.0  0.1026
  H  H102  1  0.918600  0.968800  0.671200  1.0  0.1131
  H  H103  1  0.846200  0.912700  0.594800  1.0  0.1168
  H  H104  1  0.918900  0.888000  0.571000  1.0  0.0905
  H  H105  1  0.655000  0.862500  0.570800  1.0  0.0853
  H  H106  1  0.727700  0.897000  0.592900  1.0  0.1184
  H  H107  1  0.655500  0.965600  0.669000  1.0  0.1268
  H  H108  1  0.584800  0.936500  0.643600  1.0  0.0914
  H  H109  1  0.529500  0.044300  0.557300  1.0  0.1007
  H  H110  1  0.549300  0.124900  0.513000  1.0  0.1129
  H  H111  1  0.597000  0.874500  0.478500  1.0  0.1299
  H  H112  1  0.576600  0.800400  0.522800  1.0  0.0829
  H  H113  1  0.692700  0.793400  0.377800  1.0  0.0859
  H  H114  1  0.657200  0.876100  0.416800  1.0  0.1298
  H  H115  1  0.667200  0.117000  0.367400  1.0  0.1187
  H  H116  1  0.706500  0.027300  0.331000  1.0  0.0823
  H  H117  1  0.576100  0.463600  0.380900  1.0  0.1011
  H  H118  1  0.602500  0.306100  0.387900  1.0  0.1195
  H  H119  1  0.561800  0.324700  0.475000  1.0  0.1188
  H  H120  1  0.538000  0.481200  0.466200  1.0  0.0959
  H  H121  1  0.798600  0.561400  0.776800  1.0  0.1012
  H  H122  1  0.792100  0.500200  0.728700  1.0  0.1161
  H  H123  1  0.649100  0.553500  0.731500  1.0  0.119
  H  H124  1  0.660400  0.619600  0.778900  1.0  0.0876
  H  H125  1  0.510900  0.440700  0.646100  1.0  0.1032
  H  H126  1  0.581400  0.468800  0.671200  1.0  0.1134
  H  H127  1  0.653800  0.412700  0.594800  1.0  0.1165
  H  H128  1  0.581100  0.388000  0.571000  1.0  0.0907
  H  H129  1  0.845000  0.362500  0.570800  1.0  0.0855
  H  H130  1  0.772300  0.397000  0.592900  1.0  0.1188
  H  H131  1  0.844500  0.465600  0.669000  1.0  0.1262
  H  H132  1  0.915200  0.436500  0.643600  1.0  0.0914
  H  H133  1  0.970500  0.544300  0.557300  1.0  0.1005
  H  H134  1  0.950700  0.624900  0.513000  1.0  0.1129
  H  H135  1  0.903000  0.374500  0.478500  1.0  0.1299
  H  H136  1  0.923400  0.300400  0.522800  1.0  0.083
  H  H137  1  0.807300  0.293400  0.377800  1.0  0.086
  H  H138  1  0.842800  0.376100  0.416800  1.0  0.1272
  H  H139  1  0.832800  0.617000  0.367400  1.0  0.1189
  H  H140  1  0.793500  0.527300  0.331000  1.0  0.0823
  H  H141  1  0.923900  0.963600  0.380900  1.0  0.1007
  H  H142  1  0.897500  0.806100  0.387900  1.0  0.1194
  H  H143  1  0.938200  0.824700  0.475000  1.0  0.1191
  H  H144  1  0.962000  0.981200  0.466200  1.0  0.0957
  H  H145  1  0.701400  0.438600  0.276800  1.0  0.1016
  H  H146  1  0.707900  0.499800  0.228700  1.0  0.1164
  H  H147  1  0.850900  0.446500  0.231500  1.0  0.1193
  H  H148  1  0.839600  0.380400  0.278900  1.0  0.0874
  H  H149  1  0.989100  0.559300  0.146100  1.0  0.1025
  H  H150  1  0.918600  0.531200  0.171200  1.0  0.1131
  H  H151  1  0.846200  0.587300  0.094800  1.0  0.117
  H  H152  1  0.918900  0.612000  0.071000  1.0  0.0903
  H  H153  1  0.655000  0.637500  0.070800  1.0  0.0856
  H  H154  1  0.727700  0.603000  0.092900  1.0  0.1185
  H  H155  1  0.655500  0.534400  0.169000  1.0  0.1267
  H  H156  1  0.584800  0.563500  0.143600  1.0  0.0913
  H  H157  1  0.529500  0.455700  0.057300  1.0  0.1005
  H  H158  1  0.549300  0.375100  0.013000  1.0  0.1129
  H  H159  1  0.597000  0.625500  0.978500  1.0  0.1304
  H  H160  1  0.576600  0.699600  0.022800  1.0  0.0812
  H  H161  1  0.692700  0.706600  0.877800  1.0  0.0846
  H  H162  1  0.657200  0.623900  0.916800  1.0  0.1301
  H  H163  1  0.667200  0.383000  0.867400  1.0  0.1195
  H  H164  1  0.706500  0.472700  0.831000  1.0  0.0825
  H  H165  1  0.576100  0.036400  0.880900  1.0  0.1014
  H  H166  1  0.602500  0.193900  0.887900  1.0  0.1194
  H  H167  1  0.561800  0.175300  0.975000  1.0  0.1189
  H  H168  1  0.538000  0.018800  0.966200  1.0  0.0959
  H  H169  1  0.201400  0.061400  0.723200  1.0  0.1015
  H  H170  1  0.207900  0.000200  0.771300  1.0  0.1166
  H  H171  1  0.350900  0.053500  0.768500  1.0  0.1191
  H  H172  1  0.339600  0.119600  0.721100  1.0  0.0891
  H  H173  1  0.489100  0.940700  0.853900  1.0  0.1026
  H  H174  1  0.418600  0.968800  0.828800  1.0  0.1135
  H  H175  1  0.346200  0.912700  0.905200  1.0  0.1169
  H  H176  1  0.418900  0.888000  0.929000  1.0  0.0911
  H  H177  1  0.155000  0.862500  0.929200  1.0  0.085
  H  H178  1  0.227700  0.897000  0.907100  1.0  0.1187
  H  H179  1  0.155500  0.965600  0.831000  1.0  0.1262
  H  H180  1  0.084800  0.936500  0.856400  1.0  0.0908
  H  H181  1  0.029500  0.044300  0.942700  1.0  0.1004
  H  H182  1  0.049300  0.124900  0.987000  1.0  0.1129
  H  H183  1  0.097000  0.874500  0.021500  1.0  0.1303
  H  H184  1  0.076600  0.800400  0.977200  1.0  0.0831
  H  H185  1  0.192700  0.793400  0.122200  1.0  0.0855
  H  H186  1  0.157200  0.876100  0.083200  1.0  0.1268
  H  H187  1  0.167200  0.117000  0.132600  1.0  0.1189
  H  H188  1  0.206500  0.027300  0.169000  1.0  0.083
  H  H189  1  0.076100  0.463600  0.119100  1.0  0.1013
  H  H190  1  0.102500  0.306100  0.112100  1.0  0.1194
  H  H191  1  0.061800  0.324700  0.025000  1.0  0.1191
  H  H192  1  0.038000  0.481200  0.033800  1.0  0.0949
  H  H193  1  0.298600  0.938600  0.223200  1.0  0.1017
  H  H194  1  0.292100  0.999800  0.271300  1.0  0.1164
  H  H195  1  0.149100  0.946500  0.268500  1.0  0.1188
  H  H196  1  0.160400  0.880400  0.221100  1.0  0.0866
  H  H197  1  0.010900  0.059300  0.353900  1.0  0.1025
  H  H198  1  0.081400  0.031200  0.328800  1.0  0.1133
  H  H199  1  0.153800  0.087300  0.405200  1.0  0.1165
  H  H200  1  0.081100  0.112000  0.429000  1.0  0.0906
  H  H201  1  0.345000  0.137500  0.429200  1.0  0.085
  H  H202  1  0.272300  0.103000  0.407100  1.0  0.119
  H  H203  1  0.344500  0.034400  0.331000  1.0  0.126
  H  H204  1  0.415200  0.063500  0.356400  1.0  0.0907
  H  H205  1  0.470500  0.955700  0.442700  1.0  0.1001
  H  H206  1  0.450700  0.875100  0.487000  1.0  0.113
  H  H207  1  0.403000  0.125500  0.521500  1.0  0.1306
  H  H208  1  0.423400  0.199600  0.477200  1.0  0.0813
  H  H209  1  0.307300  0.206600  0.622200  1.0  0.0847
  H  H210  1  0.342800  0.123900  0.583200  1.0  0.1297
  H  H211  1  0.332800  0.883000  0.632600  1.0  0.1193
  H  H212  1  0.293500  0.972700  0.669000  1.0  0.0829
  H  H213  1  0.423900  0.536400  0.619100  1.0  0.1021
  H  H214  1  0.397500  0.693900  0.612100  1.0  0.1194
  H  H215  1  0.438200  0.675300  0.525000  1.0  0.1191
  H  H216  1  0.462000  0.518800  0.533800  1.0  0.0948
  C  C217  1  0.231800  0.437700  0.232990  1.0  0.1361
  C  C218  1  0.235600  0.475200  0.261430  1.0  -0.1157
  C  C219  1  0.280200  0.476800  0.275610  1.0  -0.1038
  C  C220  1  0.319600  0.443300  0.260000  1.0  -0.1379
  C  C221  1  0.312600  0.404700  0.231700  1.0  0.1339
  C  C222  1  0.459500  0.564900  0.364440  1.0  0.1443
  C  C223  1  0.417600  0.549200  0.349300  1.0  -0.1035
  C  C224  1  0.373200  0.559400  0.363760  1.0  -0.0767
  C  C225  1  0.375200  0.581700  0.394000  1.0  -0.1142
  C  C226  1  0.418800  0.596000  0.408240  1.0  0.1194
  C  C227  1  0.155300  0.615000  0.409080  1.0  0.1463
  C  C228  1  0.198700  0.596400  0.395920  1.0  -0.1292
  C  C229  1  0.200200  0.567800  0.366290  1.0  -0.0704
  C  C230  1  0.156300  0.555100  0.351350  1.0  -0.1356
  C  C231  1  0.114500  0.573000  0.366600  1.0  0.1347
  C  C232  1  0.284300  0.509600  0.307440  1.0  0.3796
  C  C233  1  0.327600  0.547100  0.348450  1.0  0.394
  C  C234  1  0.245700  0.551300  0.350170  1.0  0.395
  C  C235  1  0.044100  0.490000  0.458700  1.0  0.1116
  C  C236  1  0.055800  0.441900  0.485100  1.0  -0.0857
  C  C237  1  0.076600  0.490300  0.508060  1.0  -0.0987
  C  C238  1  0.083900  0.589200  0.505400  1.0  -0.1707
  C  C239  1  0.071700  0.632100  0.479000  1.0  0.1455
  C  C240  1  0.188900  0.638900  0.624000  1.0  0.1473
  C  C241  1  0.166700  0.590900  0.600900  1.0  -0.1642
  C  C242  1  0.158500  0.493300  0.604040  1.0  -0.0939
  C  C243  1  0.172900  0.449700  0.629500  1.0  -0.1417
  C  C244  1  0.196400  0.504300  0.651190  1.0  0.1604
  C  C245  1  0.073600  0.064900  0.599800  1.0  0.1347
  C  C246  1  0.089200  0.158700  0.595800  1.0  -0.088
  C  C247  1  0.085100  0.200300  0.567900  1.0  -0.0755
  C  C248  1  0.065300  0.147600  0.544400  1.0  -0.1374
  C  C249  1  0.051200  0.055200  0.549800  1.0  0.1314
  C  C250  1  0.092800  0.439900  0.535600  1.0  0.3385
  C  C251  1  0.132400  0.439000  0.579560  1.0  0.3816
  C  C252  1  0.098800  0.303300  0.563100  1.0  0.3546
  C  C253  1  0.268200  0.562300  0.732990  1.0  0.1352
  C  C254  1  0.264400  0.524800  0.761430  1.0  -0.1132
  C  C255  1  0.219800  0.523200  0.775610  1.0  -0.1033
  C  C256  1  0.180400  0.556700  0.760000  1.0  -0.1395
  C  C257  1  0.187400  0.595300  0.731700  1.0  0.1346
  C  C258  1  0.040500  0.435100  0.864440  1.0  0.1451
  C  C259  1  0.082400  0.450800  0.849300  1.0  -0.1029
  C  C260  1  0.126800  0.440600  0.863760  1.0  -0.0765
  C  C261  1  0.124800  0.418300  0.894000  1.0  -0.1133
  C  C262  1  0.081200  0.404000  0.908240  1.0  0.1201
  C  C263  1  0.344700  0.385000  0.909080  1.0  0.1468
  C  C264  1  0.301300  0.403600  0.895920  1.0  -0.1289
  C  C265  1  0.299800  0.432200  0.866290  1.0  -0.0702
  C  C266  1  0.343700  0.444900  0.851350  1.0  -0.1369
  C  C267  1  0.385500  0.427000  0.866600  1.0  0.1327
  C  C268  1  0.215700  0.490400  0.807440  1.0  0.3796
  C  C269  1  0.172400  0.452900  0.848450  1.0  0.3937
  C  C270  1  0.254300  0.448700  0.850170  1.0  0.395
  C  C271  1  0.455900  0.510000  0.958700  1.0  0.1114
  C  C272  1  0.444200  0.558100  0.985100  1.0  -0.0818
  C  C273  1  0.423400  0.509700  0.008060  1.0  -0.0966
  C  C274  1  0.416100  0.410800  0.005400  1.0  -0.1692
  C  C275  1  0.428300  0.367900  0.979000  1.0  0.1465
  C  C276  1  0.311100  0.361100  0.124000  1.0  0.1467
  C  C277  1  0.333333  0.409100  0.100900  1.0  -0.1634
  C  C278  1  0.341500  0.506700  0.104040  1.0  -0.0945
  C  C279  1  0.327100  0.550300  0.129500  1.0  -0.1424
  C  C280  1  0.303600  0.495700  0.151190  1.0  0.1585
  C  C281  1  0.426400  0.935100  0.099800  1.0  0.1336
  C  C282  1  0.410800  0.841300  0.095800  1.0  -0.0889
  C  C283  1  0.414900  0.799700  0.067900  1.0  -0.0759
  C  C284  1  0.434700  0.852400  0.044400  1.0  -0.1379
  C  C285  1  0.448800  0.944800  0.049800  1.0  0.1323
  C  C286  1  0.407200  0.560100  0.035600  1.0  0.3402
  C  C287  1  0.367600  0.561000  0.079560  1.0  0.3813
  C  C288  1  0.401200  0.696700  0.063100  1.0  0.3555
  C  C289  1  0.768200  0.937700  0.267010  1.0  0.1351
  C  C290  1  0.764400  0.975200  0.238570  1.0  -0.1127
  C  C291  1  0.719800  0.976800  0.224390  1.0  -0.1028
  C  C292  1  0.680400  0.943300  0.240000  1.0  -0.1394
  C  C293  1  0.687400  0.904700  0.268300  1.0  0.1347
  C  C294  1  0.540500  0.064900  0.135560  1.0  0.1451
  C  C295  1  0.582400  0.049200  0.150700  1.0  -0.1057
  C  C296  1  0.626800  0.059400  0.136240  1.0  -0.077
  C  C297  1  0.624800  0.081700  0.106000  1.0  -0.1143
  C  C298  1  0.581200  0.096000  0.091760  1.0  0.1211
  C  C299  1  0.844700  0.115000  0.090920  1.0  0.1467
  C  C300  1  0.801300  0.096400  0.104080  1.0  -0.1282
  C  C301  1  0.799800  0.067800  0.133710  1.0  -0.0699
  C  C302  1  0.843700  0.055100  0.148650  1.0  -0.137
  C  C303  1  0.885500  0.073000  0.133400  1.0  0.1338
  C  C304  1  0.715700  0.009600  0.192560  1.0  0.3801
  C  C305  1  0.672400  0.047100  0.151550  1.0  0.3936
  C  C306  1  0.754300  0.051300  0.149830  1.0  0.395
  C  C307  1  0.955900  0.990000  0.041300  1.0  0.1097
  C  C308  1  0.944200  0.941900  0.014900  1.0  -0.0847
  C  C309  1  0.923400  0.990300  0.991940  1.0  -0.0983
  C  C310  1  0.916100  0.089200  0.994600  1.0  -0.1701
  C  C311  1  0.928300  0.132100  0.021000  1.0  0.146
  C  C312  1  0.811100  0.138900  0.876000  1.0  0.1475
  C  C313  1  0.833300  0.090900  0.899100  1.0  -0.1641
  C  C314  1  0.841500  0.993300  0.895960  1.0  -0.0951
  C  C315  1  0.827100  0.949700  0.870500  1.0  -0.1411
  C  C316  1  0.803600  0.004300  0.848810  1.0  0.1575
  C  C317  1  0.926400  0.564900  0.900200  1.0  0.1349
  C  C318  1  0.910800  0.658700  0.904200  1.0  -0.0889
  C  C319  1  0.914900  0.700300  0.932100  1.0  -0.0753
  C  C320  1  0.934700  0.647600  0.955600  1.0  -0.1406
  C  C321  1  0.948800  0.555200  0.950200  1.0  0.1331
  C  C322  1  0.907200  0.939900  0.964400  1.0  0.3401
  C  C323  1  0.867600  0.939000  0.920440  1.0  0.3811
  C  C324  1  0.901200  0.803300  0.936900  1.0  0.3552
  C  C325  1  0.731800  0.062300  0.767010  1.0  0.1359
  C  C326  1  0.735600  0.024800  0.738570  1.0  -0.1158
  C  C327  1  0.780200  0.023200  0.724390  1.0  -0.1034
  C  C328  1  0.819600  0.056700  0.740000  1.0  -0.1372
  C  C329  1  0.812600  0.095300  0.768300  1.0  0.1342
  C  C330  1  0.959500  0.935100  0.635560  1.0  0.1446
  C  C331  1  0.917600  0.950800  0.650700  1.0  -0.1059
  C  C332  1  0.873200  0.940600  0.636240  1.0  -0.0772
  C  C333  1  0.875200  0.918300  0.606000  1.0  -0.1144
  C  C334  1  0.918800  0.904000  0.591760  1.0  0.1216
  C  C335  1  0.655300  0.885000  0.590920  1.0  0.1463
  C  C336  1  0.698700  0.903600  0.604080  1.0  -0.1302
  C  C337  1  0.700200  0.932200  0.633710  1.0  -0.0704
  C  C338  1  0.656300  0.944900  0.648650  1.0  -0.1373
  C  C339  1  0.614500  0.927000  0.633400  1.0  0.1352
  C  C340  1  0.784300  0.990400  0.692560  1.0  0.3799
  C  C341  1  0.827600  0.952900  0.651550  1.0  0.3937
  C  C342  1  0.745700  0.948700  0.649830  1.0  0.395
  C  C343  1  0.544100  0.010000  0.541300  1.0  0.1102
  C  C344  1  0.555800  0.058100  0.514900  1.0  -0.0835
  C  C345  1  0.576600  0.009700  0.491940  1.0  -0.0981
  C  C346  1  0.583900  0.910800  0.494600  1.0  -0.1714
  C  C347  1  0.571700  0.867900  0.521000  1.0  0.1463
  C  C348  1  0.688900  0.861100  0.376000  1.0  0.1472
  C  C349  1  0.666667  0.909100  0.399100  1.0  -0.164
  C  C350  1  0.658500  0.006700  0.395960  1.0  -0.0941
  C  C351  1  0.672900  0.050300  0.370500  1.0  -0.1419
  C  C352  1  0.696400  0.995700  0.348810  1.0  0.1586
  C  C353  1  0.573600  0.435100  0.400200  1.0  0.1344
  C  C354  1  0.589200  0.341300  0.404200  1.0  -0.09
  C  C355  1  0.585100  0.299700  0.432100  1.0  -0.0756
  C  C356  1  0.565300  0.352400  0.455600  1.0  -0.1397
  C  C357  1  0.551200  0.444800  0.450200  1.0  0.1318
  C  C358  1  0.592800  0.060100  0.464400  1.0  0.3385
  C  C359  1  0.632400  0.061000  0.420440  1.0  0.3809
  C  C360  1  0.598800  0.196700  0.436900  1.0  0.3552
  C  C361  1  0.768200  0.562300  0.767010  1.0  0.1351
  C  C362  1  0.764400  0.524800  0.738570  1.0  -0.1129
  C  C363  1  0.719800  0.523200  0.724390  1.0  -0.1039
  C  C364  1  0.680400  0.556700  0.740000  1.0  -0.1392
  C  C365  1  0.687400  0.595300  0.768300  1.0  0.1342
  C  C366  1  0.540500  0.435100  0.635560  1.0  0.1452
  C  C367  1  0.582400  0.450800  0.650700  1.0  -0.1063
  C  C368  1  0.626800  0.440600  0.636240  1.0  -0.077
  C  C369  1  0.624800  0.418300  0.606000  1.0  -0.1146
  C  C370  1  0.581200  0.404000  0.591760  1.0  0.1209
  C  C371  1  0.844700  0.385000  0.590920  1.0  0.1465
  C  C372  1  0.801300  0.403600  0.604080  1.0  -0.1283
  C  C373  1  0.799800  0.432200  0.633710  1.0  -0.07
  C  C374  1  0.843700  0.444900  0.648650  1.0  -0.1372
  C  C375  1  0.885500  0.427000  0.633400  1.0  0.1337
  C  C376  1  0.715700  0.490400  0.692560  1.0  0.3801
  C  C377  1  0.672400  0.452900  0.651550  1.0  0.3936
  C  C378  1  0.754300  0.448700  0.649830  1.0  0.395
  C  C379  1  0.955900  0.510000  0.541300  1.0  0.1098
  C  C380  1  0.944200  0.558100  0.514900  1.0  -0.0825
  C  C381  1  0.923400  0.509700  0.491940  1.0  -0.098
  C  C382  1  0.916100  0.410800  0.494600  1.0  -0.1698
  C  C383  1  0.928300  0.367900  0.521000  1.0  0.1459
  C  C384  1  0.811100  0.361100  0.376000  1.0  0.1474
  C  C385  1  0.833300  0.409100  0.399100  1.0  -0.1631
  C  C386  1  0.841500  0.506700  0.395960  1.0  -0.0958
  C  C387  1  0.827100  0.550300  0.370500  1.0  -0.1421
  C  C388  1  0.803600  0.495700  0.348810  1.0  0.1581
  C  C389  1  0.926400  0.935100  0.400200  1.0  0.1352
  C  C390  1  0.910800  0.841300  0.404200  1.0  -0.0889
  C  C391  1  0.914900  0.799700  0.432100  1.0  -0.0756
  C  C392  1  0.934700  0.852400  0.455600  1.0  -0.1407
  C  C393  1  0.948800  0.944800  0.450200  1.0  0.1323
  C  C394  1  0.907200  0.560100  0.464400  1.0  0.3402
  C  C395  1  0.867600  0.561000  0.420440  1.0  0.3808
  C  C396  1  0.901200  0.696700  0.436900  1.0  0.3557
  C  C397  1  0.731800  0.437700  0.267010  1.0  0.1365
  C  C398  1  0.735600  0.475200  0.238570  1.0  -0.1155
  C  C399  1  0.780200  0.476800  0.224390  1.0  -0.1025
  C  C400  1  0.819600  0.443300  0.240000  1.0  -0.1379
  C  C401  1  0.812600  0.404700  0.268300  1.0  0.1348
  C  C402  1  0.959500  0.564900  0.135560  1.0  0.1447
  C  C403  1  0.917600  0.549200  0.150700  1.0  -0.1055
  C  C404  1  0.873200  0.559400  0.136240  1.0  -0.0771
  C  C405  1  0.875200  0.581700  0.106000  1.0  -0.1143
  C  C406  1  0.918800  0.596000  0.091760  1.0  0.1215
  C  C407  1  0.655300  0.615000  0.090920  1.0  0.1464
  C  C408  1  0.698700  0.596400  0.104080  1.0  -0.1299
  C  C409  1  0.700200  0.567800  0.133710  1.0  -0.0704
  C  C410  1  0.656300  0.555100  0.148650  1.0  -0.137
  C  C411  1  0.614500  0.573000  0.133400  1.0  0.1353
  C  C412  1  0.784300  0.509600  0.192560  1.0  0.38
  C  C413  1  0.827600  0.547100  0.151550  1.0  0.3938
  C  C414  1  0.745700  0.551300  0.149830  1.0  0.395
  C  C415  1  0.544100  0.490000  0.041300  1.0  0.1103
  C  C416  1  0.555800  0.441900  0.014900  1.0  -0.085
  C  C417  1  0.576600  0.490300  0.991940  1.0  -0.0983
  C  C418  1  0.583900  0.589200  0.994600  1.0  -0.1709
  C  C419  1  0.571700  0.632100  0.021000  1.0  0.1453
  C  C420  1  0.688900  0.638900  0.876000  1.0  0.1478
  C  C421  1  0.666667  0.590900  0.899100  1.0  -0.1643
  C  C422  1  0.658500  0.493300  0.895960  1.0  -0.0931
  C  C423  1  0.672900  0.449700  0.870500  1.0  -0.1415
  C  C424  1  0.696400  0.504300  0.848810  1.0  0.1583
  C  C425  1  0.573600  0.064900  0.900200  1.0  0.1339
  C  C426  1  0.589200  0.158700  0.904200  1.0  -0.0901
  C  C427  1  0.585100  0.200300  0.932100  1.0  -0.0759
  C  C428  1  0.565300  0.147600  0.955600  1.0  -0.1397
  C  C429  1  0.551200  0.055200  0.950200  1.0  0.1325
  C  C430  1  0.592800  0.439900  0.964400  1.0  0.3384
  C  C431  1  0.632400  0.439000  0.920440  1.0  0.3812
  C  C432  1  0.598800  0.303300  0.936900  1.0  0.3548
  C  C433  1  0.231800  0.062300  0.732990  1.0  0.136
  C  C434  1  0.235600  0.024800  0.761430  1.0  -0.1159
  C  C435  1  0.280200  0.023200  0.775610  1.0  -0.103
  C  C436  1  0.319600  0.056700  0.760000  1.0  -0.1372
  C  C437  1  0.312600  0.095300  0.731700  1.0  0.1343
  C  C438  1  0.459500  0.935100  0.864440  1.0  0.1442
  C  C439  1  0.417600  0.950800  0.849300  1.0  -0.1041
  C  C440  1  0.373200  0.940600  0.863760  1.0  -0.0768
  C  C441  1  0.375200  0.918300  0.894000  1.0  -0.1141
  C  C442  1  0.418800  0.904000  0.908240  1.0  0.1203
  C  C443  1  0.155300  0.885000  0.909080  1.0  0.1467
  C  C444  1  0.198700  0.903600  0.895920  1.0  -0.1296
  C  C445  1  0.200200  0.932200  0.866290  1.0  -0.0704
  C  C446  1  0.156300  0.944900  0.851350  1.0  -0.1359
  C  C447  1  0.114500  0.927000  0.866600  1.0  0.1346
  C  C448  1  0.284300  0.990400  0.807440  1.0  0.3795
  C  C449  1  0.327600  0.952900  0.848450  1.0  0.3939
  C  C450  1  0.245700  0.948700  0.850170  1.0  0.395
  C  C451  1  0.044100  0.010000  0.958700  1.0  0.1123
  C  C452  1  0.055800  0.058100  0.985100  1.0  -0.083
  C  C453  1  0.076600  0.009700  0.008060  1.0  -0.0985
  C  C454  1  0.083900  0.910800  0.005400  1.0  -0.1713
  C  C455  1  0.071700  0.867900  0.979000  1.0  0.1468
  C  C456  1  0.188900  0.861100  0.124000  1.0  0.1465
  C  C457  1  0.166700  0.909100  0.100900  1.0  -0.1646
  C  C458  1  0.158500  0.006700  0.104040  1.0  -0.094
  C  C459  1  0.172900  0.050300  0.129500  1.0  -0.1424
  C  C460  1  0.196400  0.995700  0.151190  1.0  0.1597
  C  C461  1  0.073600  0.435100  0.099800  1.0  0.1339
  C  C462  1  0.089200  0.341300  0.095800  1.0  -0.0881
  C  C463  1  0.085100  0.299700  0.067900  1.0  -0.0754
  C  C464  1  0.065300  0.352400  0.044400  1.0  -0.1378
  C  C465  1  0.051200  0.444800  0.049800  1.0  0.1319
  C  C466  1  0.092800  0.060100  0.035600  1.0  0.3386
  C  C467  1  0.132400  0.061000  0.079560  1.0  0.3814
  C  C468  1  0.098800  0.196700  0.063100  1.0  0.3551
  C  C469  1  0.268200  0.937700  0.232990  1.0  0.1348
  C  C470  1  0.264400  0.975200  0.261430  1.0  -0.1131
  C  C471  1  0.219800  0.976800  0.275610  1.0  -0.104
  C  C472  1  0.180400  0.943300  0.260000  1.0  -0.1397
  C  C473  1  0.187400  0.904700  0.231700  1.0  0.1341
  C  C474  1  0.040500  0.064900  0.364440  1.0  0.1454
  C  C475  1  0.082400  0.049200  0.349300  1.0  -0.1021
  C  C476  1  0.126800  0.059400  0.363760  1.0  -0.0765
  C  C477  1  0.124800  0.081700  0.394000  1.0  -0.1131
  C  C478  1  0.081200  0.096000  0.408240  1.0  0.1196
  C  C479  1  0.344700  0.115000  0.409080  1.0  0.1462
  C  C480  1  0.301300  0.096400  0.395920  1.0  -0.1287
  C  C481  1  0.299800  0.067800  0.366290  1.0  -0.0702
  C  C482  1  0.343700  0.055100  0.351350  1.0  -0.1366
  C  C483  1  0.385500  0.073000  0.366600  1.0  0.1329
  C  C484  1  0.215700  0.009600  0.307440  1.0  0.3797
  C  C485  1  0.172400  0.047100  0.348450  1.0  0.3938
  C  C486  1  0.254300  0.051300  0.350170  1.0  0.395
  C  C487  1  0.455900  0.990000  0.458700  1.0  0.1109
  C  C488  1  0.444200  0.941900  0.485100  1.0  -0.085
  C  C489  1  0.423400  0.990300  0.508060  1.0  -0.0969
  C  C490  1  0.416100  0.089200  0.505400  1.0  -0.1695
  C  C491  1  0.428300  0.132100  0.479000  1.0  0.1464
  C  C492  1  0.311100  0.138900  0.624000  1.0  0.1468
  C  C493  1  0.333333  0.090900  0.600900  1.0  -0.163
  C  C494  1  0.341500  0.993300  0.604040  1.0  -0.0946
  C  C495  1  0.327100  0.949700  0.629500  1.0  -0.141
  C  C496  1  0.303600  0.004300  0.651190  1.0  0.159
  C  C497  1  0.426400  0.564900  0.599800  1.0  0.1348
  C  C498  1  0.410800  0.658700  0.595800  1.0  -0.0888
  C  C499  1  0.414900  0.700300  0.567900  1.0  -0.0754
  C  C500  1  0.434700  0.647600  0.544400  1.0  -0.1373
  C  C501  1  0.448800  0.555200  0.549800  1.0  0.1318
  C  C502  1  0.407200  0.939900  0.535600  1.0  0.3402
  C  C503  1  0.367600  0.939000  0.579560  1.0  0.3816
  C  C504  1  0.401200  0.803300  0.563100  1.0  0.355
  I  I505  1  0.168460  0.323090  0.167700  1.0  -0.3076
  I  I506  1  0.300230  0.160570  0.185760  1.0  -0.3679
  I  I507  1  0.575580  0.707970  0.375880  1.0  -0.3445
  I  I508  1  0.505520  0.695800  0.465820  1.0  -0.4285
  I  I509  1  0.983110  0.563060  0.383140  1.0  -0.4021
  I  I510  1  0.057050  0.828520  0.420670  1.0  -0.3988
  I  I511  1  0.331540  0.676910  0.667700  1.0  -0.3087
  I  I512  1  0.199770  0.839430  0.685760  1.0  -0.3684
  I  I513  1  0.924420  0.292030  0.875880  1.0  -0.3452
  I  I514  1  0.994480  0.304200  0.965820  1.0  -0.4273
  I  I515  1  0.516890  0.436940  0.883140  1.0  -0.4009
  I  I516  1  0.442950  0.171480  0.920670  1.0  -0.3984
  I  I517  1  0.831540  0.823090  0.332300  1.0  -0.3077
  I  I518  1  0.699770  0.660570  0.314240  1.0  -0.3687
  I  I519  1  0.424420  0.207970  0.124120  1.0  -0.3446
  I  I520  1  0.494480  0.195800  0.034180  1.0  -0.4268
  I  I521  1  0.016890  0.063060  0.116860  1.0  -0.4012
  I  I522  1  0.942950  0.328520  0.079330  1.0  -0.3986
  I  I523  1  0.668460  0.176910  0.832300  1.0  -0.3072
  I  I524  1  0.800230  0.339430  0.814240  1.0  -0.3679
  I  I525  1  0.075580  0.792030  0.624120  1.0  -0.3446
  I  I526  1  0.005520  0.804200  0.534180  1.0  -0.4287
  I  I527  1  0.483110  0.936940  0.616860  1.0  -0.4012
  I  I528  1  0.557050  0.671480  0.579330  1.0  -0.399
  I  I529  1  0.831540  0.676910  0.832300  1.0  -0.3079
  I  I530  1  0.699770  0.839430  0.814240  1.0  -0.3684
  I  I531  1  0.424420  0.292030  0.624120  1.0  -0.345
  I  I532  1  0.494480  0.304200  0.534180  1.0  -0.4273
  I  I533  1  0.016890  0.436940  0.616860  1.0  -0.4006
  I  I534  1  0.942950  0.171480  0.579330  1.0  -0.3986
  I  I535  1  0.668460  0.323090  0.332300  1.0  -0.307
  I  I536  1  0.800230  0.160570  0.314240  1.0  -0.3679
  I  I537  1  0.075580  0.707970  0.124120  1.0  -0.3443
  I  I538  1  0.005520  0.695800  0.034180  1.0  -0.4283
  I  I539  1  0.483110  0.563060  0.116860  1.0  -0.4018
  I  I540  1  0.557050  0.828520  0.079330  1.0  -0.3992
  I  I541  1  0.168460  0.176910  0.667700  1.0  -0.3078
  I  I542  1  0.300230  0.339430  0.685760  1.0  -0.3679
  I  I543  1  0.575580  0.792030  0.875880  1.0  -0.345
  I  I544  1  0.505520  0.804200  0.965820  1.0  -0.4287
  I  I545  1  0.983110  0.936940  0.883140  1.0  -0.4019
  I  I546  1  0.057050  0.671480  0.920670  1.0  -0.3988
  I  I547  1  0.331540  0.823090  0.167700  1.0  -0.3085
  I  I548  1  0.199770  0.660570  0.185760  1.0  -0.3687
  I  I549  1  0.924420  0.207970  0.375880  1.0  -0.3447
  I  I550  1  0.994480  0.195800  0.465820  1.0  -0.4271
  I  I551  1  0.516890  0.063060  0.383140  1.0  -0.4012
  I  I552  1  0.442950  0.328520  0.420670  1.0  -0.3983
  N  N553  1  0.269300  0.400500  0.218800  1.0  -0.2954
  N  N554  1  0.460700  0.588000  0.393940  1.0  -0.3155
  N  N555  1  0.113300  0.603200  0.395070  1.0  -0.3327
  N  N556  1  0.327600  0.520900  0.319400  1.0  -0.4109
  N  N557  1  0.287500  0.564200  0.364460  1.0  -0.4585
  N  N558  1  0.242400  0.523500  0.321230  1.0  -0.5567
  N  N559  1  0.053300  0.585000  0.455510  1.0  -0.3234
  N  N560  1  0.205600  0.597100  0.648620  1.0  -0.324
  N  N561  1  0.055000  0.013100  0.577100  1.0  -0.3306
  N  N562  1  0.118200  0.490800  0.556160  1.0  -0.4272
  N  N563  1  0.124400  0.346400  0.584410  1.0  -0.4728
  N  N564  1  0.081600  0.346700  0.538020  1.0  -0.4656
  N  N565  1  0.230700  0.599500  0.718800  1.0  -0.2948
  N  N566  1  0.039300  0.412000  0.893940  1.0  -0.3167
  N  N567  1  0.386700  0.396800  0.895070  1.0  -0.3322
  N  N568  1  0.172400  0.479100  0.819400  1.0  -0.409
  N  N569  1  0.212500  0.435800  0.864460  1.0  -0.4587
  N  N570  1  0.257600  0.476500  0.821230  1.0  -0.5568
  N  N571  1  0.446700  0.415000  0.955510  1.0  -0.3245
  N  N572  1  0.294400  0.402900  0.148620  1.0  -0.3257
  N  N573  1  0.445000  0.986900  0.077100  1.0  -0.3295
  N  N574  1  0.381800  0.509200  0.056160  1.0  -0.4256
  N  N575  1  0.375600  0.653600  0.084410  1.0  -0.4739
  N  N576  1  0.418400  0.653300  0.038020  1.0  -0.4642
  N  N577  1  0.730700  0.900500  0.281200  1.0  -0.2944
  N  N578  1  0.539300  0.088000  0.106060  1.0  -0.3139
  N  N579  1  0.886700  0.103200  0.104930  1.0  -0.3322
  N  N580  1  0.672400  0.020900  0.180600  1.0  -0.4094
  N  N581  1  0.712500  0.064200  0.135540  1.0  -0.4594
  N  N582  1  0.757600  0.023500  0.178770  1.0  -0.557
  N  N583  1  0.946700  0.085000  0.044490  1.0  -0.3214
  N  N584  1  0.794400  0.097100  0.851380  1.0  -0.3232
  N  N585  1  0.945000  0.513100  0.922900  1.0  -0.3294
  N  N586  1  0.881800  0.990800  0.943840  1.0  -0.427
  N  N587  1  0.875600  0.846400  0.915590  1.0  -0.4723
  N  N588  1  0.918400  0.846700  0.961980  1.0  -0.4646
  N  N589  1  0.769300  0.099500  0.781200  1.0  -0.2957
  N  N590  1  0.960700  0.912000  0.606060  1.0  -0.3138
  N  N591  1  0.613300  0.896800  0.604930  1.0  -0.3334
  N  N592  1  0.827600  0.979100  0.680600  1.0  -0.4107
  N  N593  1  0.787500  0.935800  0.635540  1.0  -0.4603
  N  N594  1  0.742400  0.976500  0.678770  1.0  -0.5568
  N  N595  1  0.553300  0.915000  0.544490  1.0  -0.3201
  N  N596  1  0.705600  0.902900  0.351380  1.0  -0.3211
  N  N597  1  0.555000  0.486900  0.422900  1.0  -0.3298
  N  N598  1  0.618200  0.009200  0.443840  1.0  -0.4268
  N  N599  1  0.624400  0.153600  0.415590  1.0  -0.4726
  N  N600  1  0.581600  0.153300  0.461980  1.0  -0.466
  N  N601  1  0.730700  0.599500  0.781200  1.0  -0.2952
  N  N602  1  0.539300  0.412000  0.606060  1.0  -0.3151
  N  N603  1  0.886700  0.396800  0.604930  1.0  -0.3324
  N  N604  1  0.672400  0.479100  0.680600  1.0  -0.4097
  N  N605  1  0.712500  0.435800  0.635540  1.0  -0.4605
  N  N606  1  0.757600  0.476500  0.678770  1.0  -0.557
  N  N607  1  0.946700  0.415000  0.544490  1.0  -0.3205
  N  N608  1  0.794400  0.402900  0.351380  1.0  -0.3235
  N  N609  1  0.945000  0.986900  0.422900  1.0  -0.3291
  N  N610  1  0.881800  0.509200  0.443840  1.0  -0.4256
  N  N611  1  0.875600  0.653600  0.415590  1.0  -0.4727
  N  N612  1  0.918400  0.653300  0.461980  1.0  -0.4657
  N  N613  1  0.769300  0.400500  0.281200  1.0  -0.2952
  N  N614  1  0.960700  0.588000  0.106060  1.0  -0.3137
  N  N615  1  0.613300  0.603200  0.104930  1.0  -0.3326
  N  N616  1  0.827600  0.520900  0.180600  1.0  -0.4105
  N  N617  1  0.787500  0.564200  0.135540  1.0  -0.4593
  N  N618  1  0.742400  0.523500  0.178770  1.0  -0.5566
  N  N619  1  0.553300  0.585000  0.044490  1.0  -0.321
  N  N620  1  0.705600  0.597100  0.851380  1.0  -0.3211
  N  N621  1  0.555000  0.013100  0.922900  1.0  -0.3302
  N  N622  1  0.618200  0.490800  0.943840  1.0  -0.4278
  N  N623  1  0.624400  0.346400  0.915590  1.0  -0.4722
  N  N624  1  0.581600  0.346700  0.961980  1.0  -0.4652
  N  N625  1  0.269300  0.099500  0.718800  1.0  -0.295
  N  N626  1  0.460700  0.912000  0.893940  1.0  -0.3146
  N  N627  1  0.113300  0.896800  0.895070  1.0  -0.3338
  N  N628  1  0.327600  0.979100  0.819400  1.0  -0.4108
  N  N629  1  0.287500  0.935800  0.864460  1.0  -0.4586
  N  N630  1  0.242400  0.976500  0.821230  1.0  -0.5566
  N  N631  1  0.053300  0.915000  0.955510  1.0  -0.3251
  N  N632  1  0.205600  0.902900  0.148620  1.0  -0.323
  N  N633  1  0.055000  0.486900  0.077100  1.0  -0.3301
  N  N634  1  0.118200  0.009200  0.056160  1.0  -0.4263
  N  N635  1  0.124400  0.153600  0.084410  1.0  -0.4735
  N  N636  1  0.081600  0.153300  0.038020  1.0  -0.4643
  N  N637  1  0.230700  0.900500  0.218800  1.0  -0.2948
  N  N638  1  0.039300  0.088000  0.393940  1.0  -0.3166
  N  N639  1  0.386700  0.103200  0.395070  1.0  -0.3317
  N  N640  1  0.172400  0.020900  0.319400  1.0  -0.4091
  N  N641  1  0.212500  0.064200  0.364460  1.0  -0.4586
  N  N642  1  0.257600  0.023500  0.321230  1.0  -0.5571
  N  N643  1  0.446700  0.085000  0.455510  1.0  -0.3233
  N  N644  1  0.294400  0.097100  0.648620  1.0  -0.3265
  N  N645  1  0.445000  0.513100  0.577100  1.0  -0.3298
  N  N646  1  0.381800  0.990800  0.556160  1.0  -0.4266
  N  N647  1  0.375600  0.846400  0.584410  1.0  -0.4734
  N  N648  1  0.418400  0.846700  0.538020  1.0  -0.4646
