# generated using pymatgen
data_ZnH8C12(IN2)2
_symmetry_space_group_name_H-M   'P 1'
_cell_length_a   13.83530000
_cell_length_b   27.55040000
_cell_length_c   44.53980000
_cell_angle_alpha   90.00000000
_cell_angle_beta   90.00000000
_cell_angle_gamma   90.00000000
_symmetry_Int_Tables_number   1
_chemical_formula_structural   ZnH8C12(IN2)2
_chemical_formula_sum   'Zn24 H192 C288 I48 N96'
_cell_volume   16977.14867419
_cell_formula_units_Z   24
loop_
 _symmetry_equiv_pos_site_id
 _symmetry_equiv_pos_as_xyz
  1  'x, y, z'
loop_
 _atom_site_type_symbol
 _atom_site_label
 _atom_site_symmetry_multiplicity
 _atom_site_fract_x
 _atom_site_fract_y
 _atom_site_fract_z
 _atom_site_occupancy
 _atom_site_charge
  Zn  Zn1  1  0.124550  0.477720  0.584770  1.0  0.8267
  Zn  Zn2  1  0.155560  0.953980  0.584340  1.0  0.892
  Zn  Zn3  1  0.844440  0.546020  0.084340  1.0  0.8937
  Zn  Zn4  1  0.655560  0.046020  0.915660  1.0  0.8947
  Zn  Zn5  1  0.674070  0.239910  0.178790  1.0  0.8743
  Zn  Zn6  1  0.174070  0.760090  0.321210  1.0  0.8748
  Zn  Zn7  1  0.375450  0.977720  0.415230  1.0  0.8263
  Zn  Zn8  1  0.344440  0.453980  0.415660  1.0  0.8931
  Zn  Zn9  1  0.825930  0.739910  0.821210  1.0  0.8717
  Zn  Zn10  1  0.325930  0.260090  0.678790  1.0  0.8726
  Zn  Zn11  1  0.875450  0.022280  0.084770  1.0  0.8248
  Zn  Zn12  1  0.624550  0.522280  0.915230  1.0  0.8265
  Zn  Zn13  1  0.674070  0.739910  0.321210  1.0  0.8742
  Zn  Zn14  1  0.124550  0.977720  0.915230  1.0  0.8268
  Zn  Zn15  1  0.155560  0.453980  0.915660  1.0  0.8931
  Zn  Zn16  1  0.655560  0.546020  0.584340  1.0  0.8945
  Zn  Zn17  1  0.875450  0.522280  0.415230  1.0  0.8253
  Zn  Zn18  1  0.344440  0.953980  0.084340  1.0  0.8914
  Zn  Zn19  1  0.174070  0.260090  0.178790  1.0  0.8745
  Zn  Zn20  1  0.825930  0.239910  0.678790  1.0  0.8718
  Zn  Zn21  1  0.325930  0.760090  0.821210  1.0  0.8729
  Zn  Zn22  1  0.624550  0.022280  0.584770  1.0  0.8262
  Zn  Zn23  1  0.844440  0.046020  0.415660  1.0  0.8945
  Zn  Zn24  1  0.375450  0.477720  0.084770  1.0  0.8259
  H  H25  1  0.436200  0.198200  0.723000  1.0  0.0856
  H  H26  1  0.080200  0.657800  0.594200  1.0  0.118
  H  H27  1  0.474500  0.581800  0.884500  1.0  0.09
  H  H28  1  0.626600  0.085300  0.024200  1.0  0.1194
  H  H29  1  0.319000  0.610800  0.892100  1.0  0.118
  H  H30  1  0.181000  0.110800  0.107900  1.0  0.118
  H  H31  1  0.704300  0.064100  0.981200  1.0  0.0768
  H  H32  1  0.534300  0.149800  0.832700  1.0  0.1151
  H  H33  1  0.617600  0.160800  0.221800  1.0  0.0944
  H  H34  1  0.896800  0.916400  0.070200  1.0  0.0847
  H  H35  1  0.629900  0.153600  0.931400  1.0  0.0933
  H  H36  1  0.378200  0.365600  0.590000  1.0  0.1145
  H  H37  1  0.097000  0.775000  0.591600  1.0  0.1176
  H  H38  1  0.430500  0.014100  0.353200  1.0  0.0947
  H  H39  1  0.554000  0.151700  0.269000  1.0  0.1134
  H  H40  1  0.025500  0.081800  0.115500  1.0  0.0898
  H  H41  1  0.795700  0.564100  0.018800  1.0  0.0779
  H  H42  1  0.465700  0.350200  0.332700  1.0  0.1158
  H  H43  1  0.054000  0.848300  0.231000  1.0  0.1137
  H  H44  1  0.946000  0.651700  0.731000  1.0  0.1132
  H  H45  1  0.206200  0.831400  0.370900  1.0  0.1035
  H  H46  1  0.541600  0.467200  0.441300  1.0  0.0846
  H  H47  1  0.458400  0.032800  0.941300  1.0  0.0844
  H  H48  1  0.819000  0.389200  0.607900  1.0  0.1178
  H  H49  1  0.965700  0.649800  0.167300  1.0  0.1154
  H  H50  1  0.434900  0.420400  0.358400  1.0  0.0944
  H  H51  1  0.373500  0.181000  0.126100  1.0  0.1175
  H  H52  1  0.621800  0.134400  0.090000  1.0  0.1144
  H  H53  1  0.103200  0.583600  0.570200  1.0  0.0851
  H  H54  1  0.873500  0.819000  0.373900  1.0  0.1173
  H  H55  1  0.065100  0.920400  0.641600  1.0  0.0949
  H  H56  1  0.958400  0.967200  0.558700  1.0  0.0843
  H  H57  1  0.372000  0.055000  0.983700  1.0  0.1127
  H  H58  1  0.497600  0.203700  0.771400  1.0  0.1071
  H  H59  1  0.525500  0.918200  0.384500  1.0  0.0899
  H  H60  1  0.461300  0.085300  0.328800  1.0  0.1137
  H  H61  1  0.961300  0.914700  0.171200  1.0  0.1137
  H  H62  1  0.563800  0.301800  0.223000  1.0  0.0829
  H  H63  1  0.018500  0.029200  0.033400  1.0  0.0859
  H  H64  1  0.569500  0.485900  0.853200  1.0  0.0953
  H  H65  1  0.997600  0.796300  0.728600  1.0  0.1073
  H  H66  1  0.204300  0.935900  0.518800  1.0  0.0762
  H  H67  1  0.706200  0.168600  0.129100  1.0  0.1041
  H  H68  1  0.870100  0.653600  0.068600  1.0  0.0932
  H  H69  1  0.121800  0.865600  0.410000  1.0  0.1143
  H  H70  1  0.930500  0.985900  0.146800  1.0  0.0956
  H  H71  1  0.981500  0.470800  0.533400  1.0  0.0863
  H  H72  1  0.465000  0.220800  0.163800  1.0  0.0823
  H  H73  1  0.628000  0.445000  0.483700  1.0  0.1127
  H  H74  1  0.446000  0.348300  0.769000  1.0  0.1136
  H  H75  1  0.965000  0.779200  0.336200  1.0  0.0832
  H  H76  1  0.481500  0.529200  0.966600  1.0  0.0863
  H  H77  1  0.295700  0.435900  0.481200  1.0  0.078
  H  H78  1  0.117600  0.839200  0.278200  1.0  0.0941
  H  H79  1  0.069500  0.514100  0.646800  1.0  0.0956
  H  H80  1  0.826200  0.445900  0.524600  1.0  0.1201
  H  H81  1  0.518500  0.970800  0.466600  1.0  0.086
  H  H82  1  0.873400  0.585300  0.975800  1.0  0.1194
  H  H83  1  0.126500  0.681000  0.873900  1.0  0.1167
  H  H84  1  0.603200  0.416400  0.929800  1.0  0.086
  H  H85  1  0.382400  0.339200  0.721800  1.0  0.0944
  H  H86  1  0.403000  0.275000  0.408400  1.0  0.1176
  H  H87  1  0.626500  0.319000  0.626100  1.0  0.1168
  H  H88  1  0.038700  0.585300  0.671200  1.0  0.1136
  H  H89  1  0.919800  0.842200  0.094200  1.0  0.1177
  H  H90  1  0.129900  0.846400  0.568600  1.0  0.0939
  H  H91  1  0.128000  0.555000  0.016300  1.0  0.1123
  H  H92  1  0.126600  0.914700  0.475800  1.0  0.1191
  H  H93  1  0.370100  0.346400  0.431400  1.0  0.0934
  H  H94  1  0.597000  0.225000  0.908400  1.0  0.1178
  H  H95  1  0.673800  0.945900  0.475400  1.0  0.121
  H  H96  1  0.502400  0.296300  0.271400  1.0  0.1075
  H  H97  1  0.373400  0.414700  0.524200  1.0  0.1197
  H  H98  1  0.396800  0.083600  0.429800  1.0  0.0862
  H  H99  1  0.419800  0.157800  0.405800  1.0  0.1172
  H  H100  1  0.173800  0.054100  0.024600  1.0  0.1207
  H  H101  1  0.903000  0.725000  0.091600  1.0  0.1176
  H  H102  1  0.034300  0.850200  0.667300  1.0  0.1153
  H  H103  1  0.934900  0.579600  0.141600  1.0  0.0954
  H  H104  1  0.326200  0.554100  0.975400  1.0  0.1206
  H  H105  1  0.002400  0.703700  0.228600  1.0  0.107
  H  H106  1  0.878200  0.634400  0.910000  1.0  0.1146
  H  H107  1  0.872000  0.945000  0.516300  1.0  0.1131
  H  H108  1  0.580200  0.342200  0.905800  1.0  0.1179
  H  H109  1  0.063800  0.698200  0.277000  1.0  0.0846
  H  H110  1  0.936200  0.801800  0.777000  1.0  0.0837
  H  H111  1  0.681000  0.889200  0.392100  1.0  0.118
  H  H112  1  0.793800  0.668600  0.870900  1.0  0.1037
  H  H113  1  0.041600  0.532800  0.058700  1.0  0.0841
  H  H114  1  0.974500  0.418200  0.615500  1.0  0.0901
  H  H115  1  0.293800  0.331400  0.629100  1.0  0.1035
  H  H116  1  0.538700  0.414700  0.828800  1.0  0.1137
  H  H117  1  0.535000  0.279200  0.663800  1.0  0.0822
  H  H118  1  0.565100  0.079600  0.858400  1.0  0.0947
  H  H119  1  0.882400  0.660800  0.778200  1.0  0.0945
  H  H120  1  0.035000  0.720800  0.836200  1.0  0.0827
  H  H121  1  0.038700  0.085300  0.828800  1.0  0.1138
  H  H122  1  0.793800  0.168600  0.629100  1.0  0.1032
  H  H123  1  0.018500  0.529200  0.466600  1.0  0.086
  H  H124  1  0.034300  0.350200  0.832700  1.0  0.1155
  H  H125  1  0.293800  0.831400  0.870900  1.0  0.1035
  H  H126  1  0.126600  0.414700  0.024200  1.0  0.1193
  H  H127  1  0.378200  0.865600  0.910000  1.0  0.1143
  H  H128  1  0.554000  0.651700  0.231000  1.0  0.1134
  H  H129  1  0.121800  0.365600  0.090000  1.0  0.1146
  H  H130  1  0.706200  0.668600  0.370900  1.0  0.1041
  H  H131  1  0.974500  0.918200  0.884500  1.0  0.0901
  H  H132  1  0.065100  0.420400  0.858400  1.0  0.0935
  H  H133  1  0.872000  0.445000  0.983700  1.0  0.1133
  H  H134  1  0.069500  0.014100  0.853200  1.0  0.0949
  H  H135  1  0.502400  0.796300  0.228600  1.0  0.1075
  H  H136  1  0.961300  0.414700  0.328800  1.0  0.1135
  H  H137  1  0.603200  0.916400  0.570200  1.0  0.0852
  H  H138  1  0.597000  0.725000  0.591600  1.0  0.1178
  H  H139  1  0.795700  0.064100  0.481200  1.0  0.0781
  H  H140  1  0.465700  0.850200  0.167300  1.0  0.1157
  H  H141  1  0.002400  0.203700  0.271400  1.0  0.1072
  H  H142  1  0.295700  0.935900  0.018800  1.0  0.0777
  H  H143  1  0.878200  0.134400  0.590000  1.0  0.1145
  H  H144  1  0.403000  0.775000  0.091600  1.0  0.1176
  H  H145  1  0.461300  0.585300  0.171200  1.0  0.1138
  H  H146  1  0.382400  0.839200  0.778200  1.0  0.0942
  H  H147  1  0.103200  0.083600  0.929800  1.0  0.0861
  H  H148  1  0.569500  0.985900  0.646800  1.0  0.0954
  H  H149  1  0.981500  0.970800  0.966600  1.0  0.0861
  H  H150  1  0.097000  0.275000  0.908400  1.0  0.1176
  H  H151  1  0.873500  0.319000  0.126100  1.0  0.1177
  H  H152  1  0.936200  0.301800  0.723000  1.0  0.0837
  H  H153  1  0.373500  0.681000  0.373900  1.0  0.1172
  H  H154  1  0.563800  0.801800  0.277000  1.0  0.0843
  H  H155  1  0.965000  0.279200  0.163800  1.0  0.0827
  H  H156  1  0.396800  0.583600  0.070200  1.0  0.0847
  H  H157  1  0.129900  0.346400  0.931400  1.0  0.0936
  H  H158  1  0.319000  0.110800  0.607900  1.0  0.1182
  H  H159  1  0.474500  0.081800  0.615500  1.0  0.0899
  H  H160  1  0.946000  0.151700  0.769000  1.0  0.1133
  H  H161  1  0.080200  0.157800  0.905800  1.0  0.1176
  H  H162  1  0.681000  0.389200  0.107900  1.0  0.1181
  H  H163  1  0.370100  0.846400  0.068600  1.0  0.0935
  H  H164  1  0.035000  0.220800  0.663800  1.0  0.0826
  H  H165  1  0.541600  0.967200  0.058700  1.0  0.0837
  H  H166  1  0.446000  0.848300  0.731000  1.0  0.1137
  H  H167  1  0.628000  0.945000  0.016300  1.0  0.1124
  H  H168  1  0.126500  0.181000  0.626100  1.0  0.1167
  H  H169  1  0.054000  0.348300  0.269000  1.0  0.1135
  H  H170  1  0.063800  0.198200  0.223000  1.0  0.0847
  H  H171  1  0.525500  0.418200  0.115500  1.0  0.0901
  H  H172  1  0.626500  0.819000  0.873900  1.0  0.1167
  H  H173  1  0.621800  0.634400  0.410000  1.0  0.1142
  H  H174  1  0.534300  0.649800  0.667300  1.0  0.1152
  H  H175  1  0.617600  0.660800  0.278200  1.0  0.0945
  H  H176  1  0.372000  0.555000  0.516300  1.0  0.1129
  H  H177  1  0.930500  0.485900  0.353200  1.0  0.0952
  H  H178  1  0.481500  0.029200  0.533400  1.0  0.0863
  H  H179  1  0.535000  0.779200  0.836200  1.0  0.0823
  H  H180  1  0.882400  0.160800  0.721800  1.0  0.0942
  H  H181  1  0.430500  0.514100  0.146800  1.0  0.0956
  H  H182  1  0.580200  0.842200  0.594200  1.0  0.1178
  H  H183  1  0.518500  0.470800  0.033400  1.0  0.0861
  H  H184  1  0.206200  0.331400  0.129100  1.0  0.1036
  H  H185  1  0.626600  0.585300  0.475800  1.0  0.1194
  H  H186  1  0.919800  0.342200  0.405800  1.0  0.1176
  H  H187  1  0.870100  0.153600  0.431400  1.0  0.0929
  H  H188  1  0.373400  0.914700  0.975800  1.0  0.119
  H  H189  1  0.826200  0.945900  0.975400  1.0  0.1205
  H  H190  1  0.673800  0.445900  0.024600  1.0  0.1206
  H  H191  1  0.434900  0.920400  0.141600  1.0  0.0952
  H  H192  1  0.025500  0.581800  0.384500  1.0  0.0898
  H  H193  1  0.041600  0.032800  0.441300  1.0  0.0849
  H  H194  1  0.497600  0.703700  0.728600  1.0  0.1069
  H  H195  1  0.458400  0.532800  0.558700  1.0  0.0849
  H  H196  1  0.128000  0.055000  0.483700  1.0  0.1127
  H  H197  1  0.896800  0.416400  0.429800  1.0  0.0861
  H  H198  1  0.181000  0.610800  0.392100  1.0  0.1179
  H  H199  1  0.173800  0.554100  0.475400  1.0  0.121
  H  H200  1  0.873400  0.085300  0.524200  1.0  0.1197
  H  H201  1  0.903000  0.225000  0.408400  1.0  0.1176
  H  H202  1  0.204300  0.435900  0.981200  1.0  0.0764
  H  H203  1  0.565100  0.579600  0.641600  1.0  0.0952
  H  H204  1  0.326200  0.054100  0.524600  1.0  0.1203
  H  H205  1  0.629900  0.653600  0.568600  1.0  0.0936
  H  H206  1  0.538700  0.914700  0.671200  1.0  0.1135
  H  H207  1  0.958400  0.467200  0.941300  1.0  0.0848
  H  H208  1  0.934900  0.079600  0.358400  1.0  0.0953
  H  H209  1  0.997600  0.296300  0.771400  1.0  0.1073
  H  H210  1  0.117600  0.339200  0.221800  1.0  0.0943
  H  H211  1  0.419800  0.657800  0.094200  1.0  0.1178
  H  H212  1  0.704300  0.564100  0.518800  1.0  0.0767
  H  H213  1  0.819000  0.889200  0.892100  1.0  0.1175
  H  H214  1  0.965700  0.149800  0.332700  1.0  0.1154
  H  H215  1  0.436200  0.698200  0.777000  1.0  0.0846
  H  H216  1  0.465000  0.720800  0.336200  1.0  0.0826
  C  C217  1  0.562700  0.196100  0.867260  1.0  -0.0929
  C  C218  1  0.389300  0.346800  0.410890  1.0  0.1528
  C  C219  1  0.546900  0.241500  0.850780  1.0  0.419
  C  C220  1  0.937300  0.696100  0.132740  1.0  -0.0919
  C  C221  1  0.056000  0.076500  0.096700  1.0  0.1296
  C  C222  1  0.059400  0.629800  0.635550  1.0  -0.0852
  C  C223  1  0.954700  0.823200  0.151190  1.0  0.3857
  C  C224  1  0.045300  0.676800  0.651190  1.0  0.3863
  C  C225  1  0.445800  0.085900  0.349570  1.0  -0.1084
  C  C226  1  0.422600  0.128500  0.394530  1.0  -0.0861
  C  C227  1  0.091700  0.583900  0.591230  1.0  0.1204
  C  C228  1  0.946000  0.651400  0.146860  1.0  -0.1178
  C  C229  1  0.991400  0.780100  0.192140  1.0  0.3534
  C  C230  1  0.635700  0.063100  0.981510  1.0  0.1337
  C  C231  1  0.110700  0.846800  0.589110  1.0  0.1537
  C  C232  1  0.638100  0.172800  0.128100  1.0  0.1212
  C  C233  1  0.591700  0.416100  0.908770  1.0  0.1201
  C  C234  1  0.437000  0.229000  0.732720  1.0  0.124
  C  C235  1  0.408300  0.083900  0.408770  1.0  0.1203
  C  C236  1  0.545300  0.323200  0.848810  1.0  0.3861
  C  C237  1  0.577400  0.371500  0.894530  1.0  -0.0852
  C  C238  1  0.693600  0.915100  0.434570  1.0  -0.0894
  C  C239  1  0.064300  0.628800  0.919990  1.0  0.3594
  C  C240  1  0.937200  0.910900  0.464330  1.0  0.4048
  C  C241  1  0.590100  0.075300  0.007200  1.0  -0.1783
  C  C242  1  0.492300  0.045000  0.958250  1.0  0.138
  C  C243  1  0.059500  0.557400  0.016460  1.0  -0.1513
  C  C244  1  0.861900  0.672800  0.871900  1.0  0.1207
  C  C245  1  0.558000  0.321000  0.626100  1.0  -0.1003
  C  C246  1  0.944000  0.423500  0.596700  1.0  0.1295
  C  C247  1  0.435700  0.128800  0.080010  1.0  0.3601
  C  C248  1  0.361900  0.327200  0.628100  1.0  0.1211
  C  C249  1  0.437300  0.303900  0.367260  1.0  -0.0922
  C  C250  1  0.593600  0.188500  0.232120  1.0  0.1335
  C  C251  1  0.046900  0.758500  0.649220  1.0  0.4194
  C  C252  1  0.937000  0.771000  0.767280  1.0  0.1246
  C  C253  1  0.591400  0.195500  0.897530  1.0  -0.1302
  C  C254  1  0.908600  0.695500  0.102470  1.0  -0.1305
  C  C255  1  0.062700  0.803900  0.632740  1.0  -0.0926
  C  C256  1  0.297400  0.097200  0.061410  1.0  0.359
  C  C257  1  0.929000  0.956300  0.135700  1.0  0.1324
  C  C258  1  0.510600  0.346600  0.604440  1.0  -0.0925
  C  C259  1  0.442700  0.317000  0.760170  1.0  -0.1184
  C  C260  1  0.851300  0.406500  0.592440  1.0  -0.1145
  C  C261  1  0.071000  0.543700  0.635700  1.0  0.1326
  C  C262  1  0.491400  0.219900  0.307860  1.0  0.3533
  C  C263  1  0.573700  0.109700  0.868410  1.0  0.1225
  C  C264  1  0.926300  0.609700  0.131590  1.0  0.1225
  C  C265  1  0.024100  0.775900  0.223740  1.0  -0.0776
  C  C266  1  0.444000  0.576500  0.903300  1.0  0.129
  C  C267  1  0.610700  0.153200  0.910890  1.0  0.1539
  C  C268  1  0.408600  0.304500  0.397530  1.0  -0.1308
  C  C269  1  0.202600  0.597200  0.938590  1.0  0.3588
  C  C270  1  0.351300  0.593500  0.907560  1.0  -0.1156
  C  C271  1  0.797400  0.902800  0.438590  1.0  0.358
  C  C272  1  0.010600  0.653400  0.895560  1.0  -0.0921
  C  C273  1  0.940600  0.870200  0.135550  1.0  -0.0838
  C  C274  1  0.554200  0.414100  0.849570  1.0  -0.1089
  C  C275  1  0.563000  0.271000  0.232720  1.0  0.1237
  C  C276  1  0.364300  0.436900  0.481510  1.0  0.1323
  C  C277  1  0.002400  0.702700  0.851310  1.0  0.1253
  C  C278  1  0.412100  0.348800  0.605300  1.0  -0.0781
  C  C279  1  0.475900  0.275900  0.776260  1.0  -0.0778
  C  C280  1  0.906400  0.688500  0.767880  1.0  0.1354
  C  C281  1  0.997600  0.797300  0.351310  1.0  0.1258
  C  C282  1  0.473800  0.232000  0.761690  1.0  -0.1079
  C  C283  1  0.953100  0.741500  0.149220  1.0  0.419
  C  C284  1  0.446000  0.348600  0.353140  1.0  -0.1175
  C  C285  1  0.564300  0.371200  0.580010  1.0  0.3601
  C  C286  1  0.077400  0.628500  0.605470  1.0  -0.086
  C  C287  1  0.447500  0.545600  0.951000  1.0  0.1456
  C  C288  1  0.052500  0.045600  0.049000  1.0  0.1409
  C  C289  1  0.489600  0.073500  0.008860  1.0  -0.0914
  C  C290  1  0.556000  0.923500  0.403300  1.0  0.1291
  C  C291  1  0.947500  0.454400  0.549000  1.0  0.1427
  C  C292  1  0.453100  0.258500  0.350780  1.0  0.4192
  C  C293  1  0.554000  0.151400  0.853140  1.0  -0.1176
  C  C294  1  0.942000  0.821000  0.373900  1.0  -0.1015
  C  C295  1  0.922600  0.871500  0.105470  1.0  -0.0854
  C  C296  1  0.935700  0.871200  0.419990  1.0  0.3598
  C  C297  1  0.144200  0.060500  0.043400  1.0  -0.1372
  C  C298  1  0.062800  0.589100  0.964330  1.0  0.4038
  C  C299  1  0.912100  0.651200  0.894700  1.0  -0.0753
  C  C300  1  0.193600  0.084900  0.065430  1.0  -0.09
  C  C301  1  0.497600  0.202700  0.148690  1.0  0.1266
  C  C302  1  0.054000  0.848600  0.646860  1.0  -0.1186
  C  C303  1  0.702600  0.402800  0.561410  1.0  0.3586
  C  C304  1  0.648700  0.906500  0.407560  1.0  -0.115
  C  C305  1  0.559500  0.442600  0.483540  1.0  -0.1508
  C  C306  1  0.426300  0.390300  0.368410  1.0  0.1213
  C  C307  1  0.093600  0.811500  0.267880  1.0  0.1343
  C  C308  1  0.409900  0.424700  0.507200  1.0  -0.1763
  C  C309  1  0.940500  0.942600  0.516460  1.0  -0.1474
  C  C310  1  0.057300  0.817000  0.239830  1.0  -0.118
  C  C311  1  0.087900  0.848800  0.394700  1.0  -0.0734
  C  C312  1  0.855800  0.439500  0.543400  1.0  -0.1394
  C  C313  1  0.502400  0.297300  0.648690  1.0  0.1265
  C  C314  1  0.054200  0.585900  0.650430  1.0  -0.1119
  C  C315  1  0.135700  0.936900  0.518490  1.0  0.1332
  C  C316  1  0.864300  0.563100  0.018490  1.0  0.1328
  C  C317  1  0.562800  0.410900  0.535670  1.0  0.4048
  C  C318  1  0.073700  0.890300  0.631590  1.0  0.1219
  C  C319  1  0.437200  0.089100  0.035670  1.0  0.4039
  C  C320  1  0.989600  0.926500  0.491140  1.0  -0.0911
  C  C321  1  0.406400  0.311500  0.732120  1.0  0.1352
  C  C322  1  0.008600  0.719900  0.692140  1.0  0.3532
  C  C323  1  0.091400  0.804500  0.602470  1.0  -0.1313
  C  C324  1  0.148700  0.093500  0.092440  1.0  -0.1155
  C  C325  1  0.454700  0.176800  0.348810  1.0  0.3861
  C  C326  1  0.524100  0.224100  0.276260  1.0  -0.0778
  C  C327  1  0.442000  0.179000  0.126100  1.0  -0.1011
  C  C328  1  0.510400  0.426500  0.508860  1.0  -0.091
  C  C329  1  0.507700  0.455000  0.458250  1.0  0.138
  C  C330  1  0.355800  0.560500  0.956600  1.0  -0.1408
  C  C331  1  0.889300  0.653200  0.089110  1.0  0.1516
  C  C332  1  0.945800  0.914100  0.150430  1.0  -0.1117
  C  C333  1  0.063000  0.729000  0.267280  1.0  0.1245
  C  C334  1  0.429000  0.043700  0.364300  1.0  0.1321
  C  C335  1  0.552500  0.954400  0.451000  1.0  0.1422
  C  C336  1  0.975900  0.724100  0.723740  1.0  -0.0779
  C  C337  1  0.992300  0.955000  0.541750  1.0  0.1361
  C  C338  1  0.026200  0.732000  0.238310  1.0  -0.1084
  C  C339  1  0.440600  0.129800  0.364450  1.0  -0.0857
  C  C340  1  0.806400  0.415100  0.565430  1.0  -0.0908
  C  C341  1  0.010400  0.573500  0.991140  1.0  -0.0919
  C  C342  1  0.489400  0.153400  0.104440  1.0  -0.0922
  C  C343  1  0.909900  0.575300  0.992800  1.0  -0.1756
  C  C344  1  0.508600  0.280100  0.807860  1.0  0.3535
  C  C345  1  0.138100  0.827200  0.371900  1.0  0.1216
  C  C346  1  0.058000  0.679000  0.873900  1.0  -0.1004
  C  C347  1  0.989400  0.846600  0.395560  1.0  -0.0916
  C  C348  1  0.007700  0.545000  0.041750  1.0  0.1368
  C  C349  1  0.557300  0.183000  0.260170  1.0  -0.1191
  C  C350  1  0.942700  0.683000  0.739830  1.0  -0.117
  C  C351  1  0.571000  0.456300  0.864300  1.0  0.1369
  C  C352  1  0.644200  0.939500  0.456600  1.0  -0.1387
  C  C353  1  0.973800  0.768000  0.738310  1.0  -0.1075
  C  C354  1  0.908300  0.916100  0.091230  1.0  0.1215
  C  C355  1  0.587900  0.151200  0.105300  1.0  -0.0767
  C  C356  1  0.306400  0.584900  0.934570  1.0  -0.0916
  C  C357  1  0.440500  0.057400  0.983540  1.0  -0.1493
  C  C358  1  0.559400  0.370200  0.864450  1.0  -0.0844
  C  C359  1  0.526200  0.268000  0.261690  1.0  -0.1082
  C  C360  1  0.090100  0.924700  0.492800  1.0  -0.1787
  C  C361  1  0.058000  0.179000  0.626100  1.0  -0.1001
  C  C362  1  0.453100  0.758500  0.149220  1.0  0.4194
  C  C363  1  0.942000  0.321000  0.126100  1.0  -0.1006
  C  C364  1  0.077400  0.128500  0.894530  1.0  -0.0853
  C  C365  1  0.059500  0.057400  0.483540  1.0  -0.15
  C  C366  1  0.412100  0.848800  0.894700  1.0  -0.0755
  C  C367  1  0.202600  0.097200  0.561410  1.0  0.359
  C  C368  1  0.591400  0.695500  0.602470  1.0  -0.1302
  C  C369  1  0.010400  0.073500  0.508860  1.0  -0.0915
  C  C370  1  0.062800  0.089100  0.535670  1.0  0.4039
  C  C371  1  0.563000  0.771000  0.267280  1.0  0.1244
  C  C372  1  0.364300  0.936900  0.018490  1.0  0.1325
  C  C373  1  0.002400  0.202700  0.648690  1.0  0.126
  C  C374  1  0.491400  0.719900  0.192140  1.0  0.3533
  C  C375  1  0.954700  0.323200  0.348810  1.0  0.3858
  C  C376  1  0.054000  0.348600  0.853140  1.0  -0.1177
  C  C377  1  0.937300  0.196100  0.367260  1.0  -0.0919
  C  C378  1  0.351300  0.093500  0.592440  1.0  -0.1151
  C  C379  1  0.940500  0.442600  0.983540  1.0  -0.1485
  C  C380  1  0.406400  0.811500  0.767880  1.0  0.1348
  C  C381  1  0.437200  0.589100  0.464330  1.0  0.4039
  C  C382  1  0.946000  0.151400  0.353140  1.0  -0.1233
  C  C383  1  0.587900  0.651200  0.394700  1.0  -0.0786
  C  C384  1  0.889300  0.153200  0.410890  1.0  0.1533
  C  C385  1  0.445800  0.585900  0.150430  1.0  -0.112
  C  C386  1  0.454700  0.676800  0.151190  1.0  0.386
  C  C387  1  0.492300  0.545000  0.541750  1.0  0.1363
  C  C388  1  0.577400  0.871500  0.605470  1.0  -0.0857
  C  C389  1  0.010600  0.153400  0.604440  1.0  -0.0926
  C  C390  1  0.110700  0.346800  0.910890  1.0  0.1541
  C  C391  1  0.556000  0.423500  0.096700  1.0  0.1329
  C  C392  1  0.940600  0.370200  0.364450  1.0  -0.0844
  C  C393  1  0.929000  0.456300  0.364300  1.0  0.1336
  C  C394  1  0.922600  0.371500  0.394530  1.0  -0.0855
  C  C395  1  0.045300  0.176800  0.848810  1.0  0.3864
  C  C396  1  0.024100  0.275900  0.276260  1.0  -0.0776
  C  C397  1  0.937000  0.271000  0.732720  1.0  0.1238
  C  C398  1  0.059400  0.129800  0.864450  1.0  -0.0855
  C  C399  1  0.473800  0.732000  0.738310  1.0  -0.1078
  C  C400  1  0.447500  0.045600  0.549000  1.0  0.1441
  C  C401  1  0.442000  0.679000  0.373900  1.0  -0.1019
  C  C402  1  0.306400  0.084900  0.565430  1.0  -0.0913
  C  C403  1  0.489600  0.573500  0.491140  1.0  -0.0919
  C  C404  1  0.635700  0.563100  0.518490  1.0  0.1332
  C  C405  1  0.908300  0.416100  0.408770  1.0  0.12
  C  C406  1  0.989400  0.346600  0.104440  1.0  -0.0922
  C  C407  1  0.559400  0.870200  0.635550  1.0  -0.0838
  C  C408  1  0.997600  0.297300  0.148690  1.0  0.1266
  C  C409  1  0.007700  0.045000  0.458250  1.0  0.1373
  C  C410  1  0.644200  0.439500  0.043400  1.0  -0.1373
  C  C411  1  0.475900  0.775900  0.723740  1.0  -0.0775
  C  C412  1  0.546900  0.741500  0.649220  1.0  0.419
  C  C413  1  0.693600  0.415100  0.065430  1.0  -0.089
  C  C414  1  0.947500  0.954400  0.951000  1.0  0.1455
  C  C415  1  0.554200  0.914100  0.650430  1.0  -0.1112
  C  C416  1  0.906400  0.188500  0.732120  1.0  0.1346
  C  C417  1  0.057300  0.317000  0.260170  1.0  -0.1185
  C  C418  1  0.935700  0.371200  0.080010  1.0  0.3603
  C  C419  1  0.087900  0.348800  0.105300  1.0  -0.0791
  C  C420  1  0.429000  0.543700  0.135700  1.0  0.1325
  C  C421  1  0.926300  0.109700  0.368410  1.0  0.1226
  C  C422  1  0.545300  0.823200  0.651190  1.0  0.386
  C  C423  1  0.444000  0.076500  0.596700  1.0  0.1295
  C  C424  1  0.440500  0.557400  0.516460  1.0  -0.148
  C  C425  1  0.989600  0.426500  0.008860  1.0  -0.0909
  C  C426  1  0.554000  0.651400  0.646860  1.0  -0.1185
  C  C427  1  0.944000  0.923500  0.903300  1.0  0.1322
  C  C428  1  0.442700  0.817000  0.739830  1.0  -0.1178
  C  C429  1  0.992300  0.455000  0.958250  1.0  0.138
  C  C430  1  0.355800  0.060500  0.543400  1.0  -0.1401
  C  C431  1  0.564300  0.871200  0.919990  1.0  0.3597
  C  C432  1  0.702600  0.902800  0.938590  1.0  0.3583
  C  C433  1  0.440600  0.629800  0.135550  1.0  -0.0854
  C  C434  1  0.909900  0.075300  0.507200  1.0  -0.1767
  C  C435  1  0.508600  0.780100  0.692140  1.0  0.3534
  C  C436  1  0.908600  0.195500  0.397530  1.0  -0.1313
  C  C437  1  0.144200  0.560500  0.456600  1.0  -0.1377
  C  C438  1  0.559500  0.942600  0.016460  1.0  -0.151
  C  C439  1  0.064300  0.128800  0.580010  1.0  0.3599
  C  C440  1  0.489400  0.653400  0.395560  1.0  -0.0916
  C  C441  1  0.437300  0.803900  0.132740  1.0  -0.0919
  C  C442  1  0.510400  0.926500  0.991140  1.0  -0.0911
  C  C443  1  0.638100  0.672800  0.371900  1.0  0.1214
  C  C444  1  0.861900  0.172800  0.628100  1.0  0.1213
  C  C445  1  0.510600  0.846600  0.895560  1.0  -0.0921
  C  C446  1  0.864300  0.063100  0.481510  1.0  0.1331
  C  C447  1  0.091700  0.083900  0.908770  1.0  0.1197
  C  C448  1  0.361900  0.827200  0.871900  1.0  0.121
  C  C449  1  0.562700  0.696100  0.632740  1.0  -0.0929
  C  C450  1  0.437000  0.729000  0.767280  1.0  0.125
  C  C451  1  0.502400  0.797300  0.851310  1.0  0.1283
  C  C452  1  0.552500  0.454400  0.049000  1.0  0.141
  C  C453  1  0.422600  0.628500  0.105470  1.0  -0.0858
  C  C454  1  0.524100  0.724100  0.223740  1.0  -0.0779
  C  C455  1  0.573700  0.609700  0.631590  1.0  0.122
  C  C456  1  0.973800  0.268000  0.761690  1.0  -0.1076
  C  C457  1  0.052500  0.545600  0.451000  1.0  0.1426
  C  C458  1  0.648700  0.406500  0.092440  1.0  -0.1153
  C  C459  1  0.409900  0.924700  0.992800  1.0  -0.1772
  C  C460  1  0.426300  0.890300  0.131590  1.0  0.1224
  C  C461  1  0.851300  0.906500  0.907560  1.0  -0.1152
  C  C462  1  0.571000  0.956300  0.635700  1.0  0.1332
  C  C463  1  0.557300  0.683000  0.239830  1.0  -0.1175
  C  C464  1  0.991400  0.280100  0.307860  1.0  0.3535
  C  C465  1  0.054200  0.085900  0.849570  1.0  -0.1093
  C  C466  1  0.056000  0.576500  0.403300  1.0  0.1325
  C  C467  1  0.008600  0.219900  0.807860  1.0  0.3533
  C  C468  1  0.507700  0.955000  0.041750  1.0  0.1366
  C  C469  1  0.046900  0.258500  0.850780  1.0  0.4192
  C  C470  1  0.593600  0.688500  0.267880  1.0  0.1349
  C  C471  1  0.135700  0.436900  0.981510  1.0  0.1334
  C  C472  1  0.091400  0.304500  0.897530  1.0  -0.1312
  C  C473  1  0.590100  0.575300  0.492800  1.0  -0.1782
  C  C474  1  0.937200  0.410900  0.035670  1.0  0.4049
  C  C475  1  0.975900  0.224100  0.776260  1.0  -0.0779
  C  C476  1  0.610700  0.653200  0.589110  1.0  0.1525
  C  C477  1  0.855800  0.939500  0.956600  1.0  -0.1407
  C  C478  1  0.090100  0.424700  0.007200  1.0  -0.1769
  C  C479  1  0.093600  0.311500  0.232120  1.0  0.1344
  C  C480  1  0.497600  0.702700  0.351310  1.0  0.1271
  C  C481  1  0.526200  0.768000  0.238310  1.0  -0.1081
  C  C482  1  0.073700  0.390300  0.868410  1.0  0.1212
  C  C483  1  0.408600  0.804500  0.102470  1.0  -0.1309
  C  C484  1  0.953100  0.241500  0.350780  1.0  0.419
  C  C485  1  0.026200  0.232000  0.261690  1.0  -0.1085
  C  C486  1  0.138100  0.327200  0.128100  1.0  0.1216
  C  C487  1  0.797400  0.402800  0.061410  1.0  0.3582
  C  C488  1  0.063000  0.229000  0.232720  1.0  0.1234
  C  C489  1  0.408300  0.583900  0.091230  1.0  0.1248
  C  C490  1  0.912100  0.151200  0.605300  1.0  -0.077
  C  C491  1  0.945800  0.414100  0.349570  1.0  -0.11
  C  C492  1  0.389300  0.846800  0.089110  1.0  0.1525
  C  C493  1  0.297400  0.597200  0.438590  1.0  0.3588
  C  C494  1  0.062700  0.303900  0.867260  1.0  -0.0928
  C  C495  1  0.591700  0.916100  0.591230  1.0  0.1203
  C  C496  1  0.942700  0.183000  0.760170  1.0  -0.118
  C  C497  1  0.193600  0.584900  0.434570  1.0  -0.0904
  C  C498  1  0.558000  0.821000  0.873900  1.0  -0.0997
  C  C499  1  0.148700  0.593500  0.407560  1.0  -0.116
  C  C500  1  0.071000  0.043700  0.864300  1.0  0.1354
  C  C501  1  0.446000  0.848600  0.146860  1.0  -0.1204
  C  C502  1  0.806400  0.915100  0.934570  1.0  -0.0912
  C  C503  1  0.562800  0.910900  0.964330  1.0  0.4047
  C  C504  1  0.435700  0.628800  0.419990  1.0  0.3596
  I  I505  1  0.799900  0.072310  0.122460  1.0  -0.3989
  I  I506  1  0.175900  0.674870  0.335740  1.0  -0.2828
  I  I507  1  0.330150  0.802260  0.315490  1.0  -0.3607
  I  I508  1  0.830150  0.197740  0.184510  1.0  -0.3618
  I  I509  1  0.580910  0.983800  0.887060  1.0  -0.3633
  I  I510  1  0.919090  0.483800  0.112940  1.0  -0.3622
  I  I511  1  0.669850  0.697740  0.815490  1.0  -0.3634
  I  I512  1  0.824100  0.825130  0.835740  1.0  -0.2828
  I  I513  1  0.828640  0.059830  0.922180  1.0  -0.4192
  I  I514  1  0.299600  0.997600  0.462910  1.0  -0.4706
  I  I515  1  0.700100  0.572310  0.877540  1.0  -0.399
  I  I516  1  0.799600  0.002400  0.037090  1.0  -0.4706
  I  I517  1  0.324100  0.174870  0.664260  1.0  -0.2823
  I  I518  1  0.419090  0.516200  0.387060  1.0  -0.3638
  I  I519  1  0.169850  0.302260  0.684510  1.0  -0.3625
  I  I520  1  0.700400  0.502400  0.962910  1.0  -0.4707
  I  I521  1  0.171360  0.440170  0.422180  1.0  -0.4205
  I  I522  1  0.328640  0.940170  0.577820  1.0  -0.4198
  I  I523  1  0.675900  0.325130  0.164260  1.0  -0.2828
  I  I524  1  0.299900  0.927690  0.377540  1.0  -0.4
  I  I525  1  0.671360  0.559830  0.077820  1.0  -0.4204
  I  I526  1  0.200400  0.497600  0.537090  1.0  -0.4707
  I  I527  1  0.200100  0.427690  0.622460  1.0  -0.3999
  I  I528  1  0.080910  0.016200  0.612940  1.0  -0.3605
  I  I529  1  0.824100  0.325130  0.664260  1.0  -0.2827
  I  I530  1  0.324100  0.674870  0.835740  1.0  -0.2828
  I  I531  1  0.799900  0.572310  0.377540  1.0  -0.3991
  I  I532  1  0.830150  0.697740  0.315490  1.0  -0.3623
  I  I533  1  0.171360  0.940170  0.077820  1.0  -0.4205
  I  I534  1  0.330150  0.302260  0.184510  1.0  -0.3647
  I  I535  1  0.669850  0.197740  0.684510  1.0  -0.366
  I  I536  1  0.700400  0.002400  0.537090  1.0  -0.4707
  I  I537  1  0.675900  0.825130  0.335740  1.0  -0.2829
  I  I538  1  0.299900  0.427690  0.122460  1.0  -0.3995
  I  I539  1  0.700100  0.072310  0.622460  1.0  -0.3993
  I  I540  1  0.080910  0.516200  0.887060  1.0  -0.3627
  I  I541  1  0.200100  0.927690  0.877540  1.0  -0.3998
  I  I542  1  0.799600  0.502400  0.462910  1.0  -0.4706
  I  I543  1  0.671360  0.059830  0.422180  1.0  -0.4201
  I  I544  1  0.299600  0.497600  0.037090  1.0  -0.4706
  I  I545  1  0.919090  0.983800  0.387060  1.0  -0.3644
  I  I546  1  0.169850  0.802260  0.815490  1.0  -0.3625
  I  I547  1  0.200400  0.997600  0.962910  1.0  -0.4707
  I  I548  1  0.828640  0.559830  0.577820  1.0  -0.4195
  I  I549  1  0.580910  0.483800  0.612940  1.0  -0.3611
  I  I550  1  0.328640  0.440170  0.922180  1.0  -0.4198
  I  I551  1  0.175900  0.174870  0.164260  1.0  -0.2824
  I  I552  1  0.419090  0.016200  0.112940  1.0  -0.3617
  N  N553  1  0.440600  0.216300  0.365410  1.0  -0.4758
  N  N554  1  0.007400  0.052800  0.075190  1.0  -0.3479
  N  N555  1  0.407100  0.299500  0.649410  1.0  -0.3124
  N  N556  1  0.839900  0.876400  0.416700  1.0  -0.4792
  N  N557  1  0.096800  0.767100  0.281920  1.0  -0.3396
  N  N558  1  0.157400  0.579500  0.962590  1.0  -0.457
  N  N559  1  0.104600  0.890700  0.603170  1.0  -0.33
  N  N560  1  0.907100  0.700500  0.850590  1.0  -0.3122
  N  N561  1  0.604600  0.109300  0.896830  1.0  -0.3302
  N  N562  1  0.903200  0.732900  0.781920  1.0  -0.3384
  N  N563  1  0.520200  0.237500  0.821790  1.0  -0.4917
  N  N564  1  0.520100  0.323600  0.819910  1.0  -0.4173
  N  N565  1  0.979900  0.823600  0.180090  1.0  -0.4182
  N  N566  1  0.660100  0.376400  0.583300  1.0  -0.478
  N  N567  1  0.657400  0.420500  0.537410  1.0  -0.4574
  N  N568  1  0.092900  0.799500  0.350590  1.0  -0.312
  N  N569  1  0.395400  0.390700  0.396830  1.0  -0.3297
  N  N570  1  0.590000  0.458100  0.894280  1.0  -0.3198
  N  N571  1  0.592900  0.200500  0.149410  1.0  -0.3137
  N  N572  1  0.992600  0.447200  0.575190  1.0  -0.3503
  N  N573  1  0.979800  0.737500  0.178210  1.0  -0.4915
  N  N574  1  0.559400  0.283700  0.865410  1.0  -0.4783
  N  N575  1  0.410000  0.041900  0.394280  1.0  -0.3187
  N  N576  1  0.403200  0.267100  0.718080  1.0  -0.3388
  N  N577  1  0.012400  0.612400  0.943430  1.0  -0.3666
  N  N578  1  0.410100  0.450500  0.456630  1.0  -0.3119
  N  N579  1  0.842600  0.920500  0.462590  1.0  -0.4541
  N  N580  1  0.160100  0.623600  0.916700  1.0  -0.4854
  N  N581  1  0.492600  0.552800  0.924810  1.0  -0.3498
  N  N582  1  0.089900  0.950500  0.543370  1.0  -0.3077
  N  N583  1  0.596800  0.232900  0.218080  1.0  -0.3368
  N  N584  1  0.020100  0.676400  0.680090  1.0  -0.4166
  N  N585  1  0.940600  0.783700  0.134590  1.0  -0.4755
  N  N586  1  0.910100  0.549500  0.043370  1.0  -0.3081
  N  N587  1  0.479900  0.176400  0.319910  1.0  -0.4171
  N  N588  1  0.339900  0.123600  0.083300  1.0  -0.488
  N  N589  1  0.487600  0.112400  0.056570  1.0  -0.3672
  N  N590  1  0.987600  0.887600  0.443430  1.0  -0.3687
  N  N591  1  0.512400  0.387600  0.556570  1.0  -0.3674
  N  N592  1  0.342600  0.079500  0.037410  1.0  -0.4547
  N  N593  1  0.020200  0.762500  0.678210  1.0  -0.5017
  N  N594  1  0.589900  0.049500  0.956630  1.0  -0.3134
  N  N595  1  0.910000  0.958100  0.105720  1.0  -0.3179
  N  N596  1  0.507400  0.947200  0.424810  1.0  -0.3507
  N  N597  1  0.059400  0.716300  0.634590  1.0  -0.4798
  N  N598  1  0.895400  0.609300  0.103170  1.0  -0.3309
  N  N599  1  0.090000  0.541900  0.605720  1.0  -0.3177
  N  N600  1  0.479800  0.262500  0.321790  1.0  -0.492
  N  N601  1  0.020200  0.262500  0.821790  1.0  -0.5015
  N  N602  1  0.940600  0.283700  0.365410  1.0  -0.4735
  N  N603  1  0.604600  0.609300  0.603170  1.0  -0.3301
  N  N604  1  0.979900  0.323600  0.319910  1.0  -0.4175
  N  N605  1  0.907100  0.200500  0.649410  1.0  -0.3131
  N  N606  1  0.512400  0.887600  0.943430  1.0  -0.3676
  N  N607  1  0.596800  0.732900  0.281920  1.0  -0.3387
  N  N608  1  0.589900  0.549500  0.543370  1.0  -0.3079
  N  N609  1  0.657400  0.920500  0.962590  1.0  -0.4536
  N  N610  1  0.590000  0.958100  0.605720  1.0  -0.3188
  N  N611  1  0.910000  0.458100  0.394280  1.0  -0.3187
  N  N612  1  0.895400  0.109300  0.396830  1.0  -0.3308
  N  N613  1  0.660100  0.876400  0.916700  1.0  -0.4849
  N  N614  1  0.090000  0.041900  0.894280  1.0  -0.3185
  N  N615  1  0.979800  0.237500  0.321790  1.0  -0.4916
  N  N616  1  0.903200  0.232900  0.718080  1.0  -0.3378
  N  N617  1  0.092900  0.299500  0.149410  1.0  -0.3127
  N  N618  1  0.592900  0.700500  0.350590  1.0  -0.3128
  N  N619  1  0.992600  0.947200  0.924810  1.0  -0.3477
  N  N620  1  0.910100  0.049500  0.456630  1.0  -0.3132
  N  N621  1  0.020100  0.176400  0.819910  1.0  -0.4174
  N  N622  1  0.059400  0.216300  0.865410  1.0  -0.486
  N  N623  1  0.520100  0.823600  0.680090  1.0  -0.418
  N  N624  1  0.492600  0.052800  0.575190  1.0  -0.3499
  N  N625  1  0.839900  0.376400  0.083300  1.0  -0.4744
  N  N626  1  0.007400  0.552800  0.424810  1.0  -0.3499
  N  N627  1  0.012400  0.112400  0.556570  1.0  -0.3658
  N  N628  1  0.440600  0.716300  0.134590  1.0  -0.4878
  N  N629  1  0.987600  0.387600  0.056570  1.0  -0.368
  N  N630  1  0.157400  0.079500  0.537410  1.0  -0.4519
  N  N631  1  0.089900  0.450500  0.956630  1.0  -0.3121
  N  N632  1  0.410000  0.541900  0.105720  1.0  -0.3183
  N  N633  1  0.403200  0.767100  0.781920  1.0  -0.34
  N  N634  1  0.559400  0.783700  0.634590  1.0  -0.4798
  N  N635  1  0.479900  0.676400  0.180090  1.0  -0.4165
  N  N636  1  0.479800  0.762500  0.178210  1.0  -0.5016
  N  N637  1  0.507400  0.447200  0.075190  1.0  -0.348
  N  N638  1  0.842600  0.420500  0.037410  1.0  -0.4532
  N  N639  1  0.407100  0.799500  0.850590  1.0  -0.3131
  N  N640  1  0.342600  0.579500  0.462590  1.0  -0.457
  N  N641  1  0.487600  0.612400  0.443430  1.0  -0.3676
  N  N642  1  0.410100  0.950500  0.043370  1.0  -0.3081
  N  N643  1  0.520200  0.737500  0.678210  1.0  -0.4952
  N  N644  1  0.339900  0.623600  0.416700  1.0  -0.479
  N  N645  1  0.160100  0.123600  0.583300  1.0  -0.4796
  N  N646  1  0.104600  0.390700  0.896830  1.0  -0.33
  N  N647  1  0.096800  0.267100  0.218080  1.0  -0.3384
  N  N648  1  0.395400  0.890700  0.103170  1.0  -0.3287
