# generated using pymatgen
data_ZnH8C12(IN2)2
_symmetry_space_group_name_H-M   'P 1'
_cell_length_a   13.79810000
_cell_length_b   27.67750000
_cell_length_c   44.34150000
_cell_angle_alpha   90.00000000
_cell_angle_beta   90.00000000
_cell_angle_gamma   90.00000000
_symmetry_Int_Tables_number   1
_chemical_formula_structural   ZnH8C12(IN2)2
_chemical_formula_sum   'Zn24 H192 C288 I48 N96'
_cell_volume   16933.88195670
_cell_formula_units_Z   24
loop_
 _symmetry_equiv_pos_site_id
 _symmetry_equiv_pos_as_xyz
  1  'x, y, z'
loop_
 _atom_site_type_symbol
 _atom_site_label
 _atom_site_symmetry_multiplicity
 _atom_site_fract_x
 _atom_site_fract_y
 _atom_site_fract_z
 _atom_site_occupancy
 _atom_site_charge
  Zn  Zn1  1  0.370000  0.479150  0.082950  1.0  0.8421
  Zn  Zn2  1  0.656920  0.546340  0.583280  1.0  0.8447
  Zn  Zn3  1  0.342590  0.752080  0.820860  1.0  0.8705
  Zn  Zn4  1  0.630000  0.020850  0.582950  1.0  0.8467
  Zn  Zn5  1  0.843080  0.046340  0.416720  1.0  0.8446
  Zn  Zn6  1  0.343080  0.953660  0.083280  1.0  0.8448
  Zn  Zn7  1  0.130000  0.979150  0.917050  1.0  0.8468
  Zn  Zn8  1  0.156920  0.453660  0.916720  1.0  0.8448
  Zn  Zn9  1  0.157410  0.252080  0.179140  1.0  0.8707
  Zn  Zn10  1  0.870000  0.520850  0.417050  1.0  0.8427
  Zn  Zn11  1  0.657410  0.747920  0.320860  1.0  0.8703
  Zn  Zn12  1  0.842590  0.247920  0.679140  1.0  0.8691
  Zn  Zn13  1  0.157410  0.752080  0.320860  1.0  0.8709
  Zn  Zn14  1  0.656920  0.046340  0.916720  1.0  0.8439
  Zn  Zn15  1  0.156920  0.953660  0.583280  1.0  0.8448
  Zn  Zn16  1  0.342590  0.252080  0.679140  1.0  0.8702
  Zn  Zn17  1  0.842590  0.747920  0.820860  1.0  0.8691
  Zn  Zn18  1  0.630000  0.520850  0.917050  1.0  0.8472
  Zn  Zn19  1  0.343080  0.453660  0.416720  1.0  0.8447
  Zn  Zn20  1  0.370000  0.979150  0.417050  1.0  0.8424
  Zn  Zn21  1  0.130000  0.479150  0.582950  1.0  0.8465
  Zn  Zn22  1  0.870000  0.020850  0.082950  1.0  0.8423
  Zn  Zn23  1  0.657410  0.247920  0.179140  1.0  0.8704
  Zn  Zn24  1  0.843080  0.546340  0.083280  1.0  0.8454
  H  H25  1  0.366000  0.683600  0.373500  1.0  0.106
  H  H26  1  0.485800  0.079900  0.615500  1.0  0.0941
  H  H27  1  0.959800  0.150500  0.333333  1.0  0.1116
  H  H28  1  0.675000  0.390500  0.109000  1.0  0.1075
  H  H29  1  0.989000  0.968900  0.967000  1.0  0.0759
  H  H30  1  0.603000  0.724900  0.589100  1.0  0.1181
  H  H31  1  0.045900  0.194200  0.224500  1.0  0.1014
  H  H32  1  0.958500  0.154300  0.768000  1.0  0.1086
  H  H33  1  0.116900  0.367100  0.095200  1.0  0.0775
  H  H34  1  0.459800  0.849500  0.166700  1.0  0.1111
  H  H35  1  0.894500  0.413700  0.430500  1.0  0.0876
  H  H36  1  0.399100  0.833800  0.780800  1.0  0.0999
  H  H37  1  0.014200  0.579900  0.384500  1.0  0.0939
  H  H38  1  0.461600  0.529700  0.557400  1.0  0.0906
  H  H39  1  0.952000  0.415700  0.328400  1.0  0.0975
  H  H40  1  0.576100  0.581300  0.640700  1.0  0.0865
  H  H41  1  0.454100  0.694200  0.775500  1.0  0.1016
  H  H42  1  0.798600  0.067000  0.481500  1.0  0.048
  H  H43  1  0.912200  0.343500  0.407800  1.0  0.108
  H  H44  1  0.985800  0.920100  0.884500  1.0  0.094
  H  H45  1  0.508000  0.701800  0.727200  1.0  0.1111
  H  H46  1  0.992000  0.201800  0.272800  1.0  0.111
  H  H47  1  0.928900  0.487500  0.354800  1.0  0.0974
  H  H48  1  0.634000  0.816400  0.873500  1.0  0.1045
  H  H49  1  0.412200  0.656500  0.092200  1.0  0.1078
  H  H50  1  0.100900  0.333800  0.219200  1.0  0.1
  H  H51  1  0.045000  0.219700  0.665800  1.0  0.0826
  H  H52  1  0.452000  0.584300  0.171600  1.0  0.0978
  H  H53  1  0.201400  0.433000  0.981500  1.0  0.0454
  H  H54  1  0.071100  0.012500  0.854800  1.0  0.0969
  H  H55  1  0.325000  0.109500  0.609000  1.0  0.1076
  H  H56  1  0.428900  0.512500  0.145200  1.0  0.0983
  H  H57  1  0.514200  0.420100  0.115500  1.0  0.0945
  H  H58  1  0.825000  0.890500  0.891000  1.0  0.1074
  H  H59  1  0.455000  0.719700  0.334200  1.0  0.0816
  H  H60  1  0.954100  0.305800  0.724500  1.0  0.1013
  H  H61  1  0.866000  0.316400  0.126500  1.0  0.1067
  H  H62  1  0.175500  0.553600  0.476100  1.0  0.1099
  H  H63  1  0.492000  0.798200  0.227200  1.0  0.1119
  H  H64  1  0.489000  0.031100  0.533000  1.0  0.0762
  H  H65  1  0.955000  0.280300  0.165800  1.0  0.0834
  H  H66  1  0.458500  0.845700  0.732000  1.0  0.1089
  H  H67  1  0.196300  0.332100  0.133200  1.0  0.1077
  H  H68  1  0.545900  0.805800  0.275500  1.0  0.1017
  H  H69  1  0.571100  0.987500  0.645200  1.0  0.098
  H  H70  1  0.324500  0.053600  0.523900  1.0  0.1096
  H  H71  1  0.545000  0.780300  0.834200  1.0  0.0833
  H  H72  1  0.139300  0.349600  0.931900  1.0  0.0688
  H  H73  1  0.008000  0.298200  0.772800  1.0  0.1121
  H  H74  1  0.675500  0.446400  0.023900  1.0  0.1098
  H  H75  1  0.541500  0.654300  0.232000  1.0  0.1082
  H  H76  1  0.383100  0.867100  0.904800  1.0  0.0769
  H  H77  1  0.040200  0.349500  0.833300  1.0  0.1113
  H  H78  1  0.639300  0.650400  0.568100  1.0  0.0687
  H  H79  1  0.883100  0.132900  0.595200  1.0  0.0772
  H  H80  1  0.372900  0.909600  0.974600  1.0  0.1159
  H  H81  1  0.041500  0.345700  0.268000  1.0  0.109
  H  H82  1  0.394500  0.586300  0.069500  1.0  0.086
  H  H83  1  0.011000  0.531100  0.467000  1.0  0.0758
  H  H84  1  0.803700  0.167900  0.633200  1.0  0.1074
  H  H85  1  0.540200  0.650500  0.666667  1.0  0.1118
  H  H86  1  0.127200  0.052000  0.485500  1.0  0.103
  H  H87  1  0.105500  0.086300  0.930500  1.0  0.0872
  H  H88  1  0.860700  0.150400  0.431900  1.0  0.0692
  H  H89  1  0.076100  0.418700  0.859300  1.0  0.0857
  H  H90  1  0.961600  0.470300  0.942600  1.0  0.0892
  H  H91  1  0.103000  0.275100  0.910900  1.0  0.1183
  H  H92  1  0.605500  0.913700  0.569500  1.0  0.086
  H  H93  1  0.303700  0.832100  0.866800  1.0  0.1072
  H  H94  1  0.127100  0.409600  0.025400  1.0  0.1165
  H  H95  1  0.423900  0.918700  0.140700  1.0  0.0865
  H  H96  1  0.397000  0.775100  0.089100  1.0  0.1183
  H  H97  1  0.696300  0.667900  0.366800  1.0  0.1096
  H  H98  1  0.548000  0.915700  0.671600  1.0  0.0977
  H  H99  1  0.175000  0.609500  0.391000  1.0  0.1075
  H  H100  1  0.087800  0.156500  0.907800  1.0  0.1078
  H  H101  1  0.038400  0.029700  0.442600  1.0  0.09
  H  H102  1  0.872800  0.448000  0.985500  1.0  0.1036
  H  H103  1  0.372800  0.552000  0.514500  1.0  0.1026
  H  H104  1  0.538400  0.970300  0.057400  1.0  0.0888
  H  H105  1  0.048000  0.084300  0.828400  1.0  0.0975
  H  H106  1  0.616900  0.632900  0.404800  1.0  0.0769
  H  H107  1  0.897000  0.224900  0.410900  1.0  0.1184
  H  H108  1  0.701400  0.567000  0.518500  1.0  0.0452
  H  H109  1  0.923900  0.081300  0.359300  1.0  0.0857
  H  H110  1  0.587800  0.843500  0.592200  1.0  0.1077
  H  H111  1  0.899100  0.166200  0.719200  1.0  0.0995
  H  H112  1  0.824500  0.946400  0.976100  1.0  0.1095
  H  H113  1  0.134000  0.183600  0.626500  1.0  0.1042
  H  H114  1  0.298600  0.933000  0.018500  1.0  0.0484
  H  H115  1  0.627100  0.590400  0.474600  1.0  0.1168
  H  H116  1  0.872900  0.090400  0.525400  1.0  0.1165
  H  H117  1  0.360700  0.849600  0.068100  1.0  0.0691
  H  H118  1  0.600900  0.666200  0.280800  1.0  0.0999
  H  H119  1  0.511000  0.468900  0.033000  1.0  0.0757
  H  H120  1  0.627200  0.948000  0.014500  1.0  0.1024
  H  H121  1  0.616900  0.132900  0.095200  1.0  0.0772
  H  H122  1  0.600900  0.166200  0.219200  1.0  0.0995
  H  H123  1  0.571100  0.487500  0.854800  1.0  0.098
  H  H124  1  0.105500  0.586300  0.569500  1.0  0.0861
  H  H125  1  0.175000  0.109500  0.109000  1.0  0.1074
  H  H126  1  0.627200  0.448000  0.485500  1.0  0.1029
  H  H127  1  0.454100  0.194200  0.724500  1.0  0.1015
  H  H128  1  0.008000  0.798200  0.727200  1.0  0.112
  H  H129  1  0.627100  0.090400  0.025400  1.0  0.1167
  H  H130  1  0.298600  0.433000  0.481500  1.0  0.0485
  H  H131  1  0.798600  0.567000  0.018500  1.0  0.0475
  H  H132  1  0.127200  0.552000  0.014500  1.0  0.1024
  H  H133  1  0.100900  0.833800  0.280800  1.0  0.0999
  H  H134  1  0.540200  0.150500  0.833300  1.0  0.1108
  H  H135  1  0.541500  0.154300  0.268000  1.0  0.1084
  H  H136  1  0.038400  0.529700  0.057400  1.0  0.0898
  H  H137  1  0.897000  0.724900  0.089100  1.0  0.1183
  H  H138  1  0.325000  0.609500  0.891000  1.0  0.1077
  H  H139  1  0.696300  0.167900  0.133200  1.0  0.1077
  H  H140  1  0.011000  0.031100  0.033000  1.0  0.0759
  H  H141  1  0.412200  0.156500  0.407800  1.0  0.1081
  H  H142  1  0.883100  0.632900  0.904800  1.0  0.0772
  H  H143  1  0.899100  0.666200  0.780800  1.0  0.0999
  H  H144  1  0.399100  0.333800  0.719200  1.0  0.1
  H  H145  1  0.511000  0.968900  0.467000  1.0  0.0755
  H  H146  1  0.545900  0.305800  0.224500  1.0  0.1014
  H  H147  1  0.514200  0.920100  0.384500  1.0  0.0939
  H  H148  1  0.576100  0.081300  0.859300  1.0  0.0861
  H  H149  1  0.992000  0.701800  0.227200  1.0  0.1108
  H  H150  1  0.912200  0.843500  0.092200  1.0  0.1074
  H  H151  1  0.372800  0.052000  0.985500  1.0  0.1033
  H  H152  1  0.955000  0.780300  0.334200  1.0  0.0835
  H  H153  1  0.605500  0.413700  0.930500  1.0  0.0872
  H  H154  1  0.489000  0.531100  0.967000  1.0  0.076
  H  H155  1  0.045000  0.719700  0.834200  1.0  0.0833
  H  H156  1  0.603000  0.224900  0.910900  1.0  0.1184
  H  H157  1  0.196300  0.832100  0.366800  1.0  0.1079
  H  H158  1  0.201400  0.933000  0.518500  1.0  0.0448
  H  H159  1  0.366000  0.183600  0.126500  1.0  0.1061
  H  H160  1  0.701400  0.067000  0.981500  1.0  0.0467
  H  H161  1  0.928900  0.987500  0.145200  1.0  0.0983
  H  H162  1  0.961600  0.970300  0.557400  1.0  0.0902
  H  H163  1  0.360700  0.349600  0.431900  1.0  0.0691
  H  H164  1  0.383100  0.367100  0.595200  1.0  0.0775
  H  H165  1  0.175500  0.053600  0.023900  1.0  0.11
  H  H166  1  0.014200  0.079900  0.115500  1.0  0.0942
  H  H167  1  0.548000  0.415700  0.828400  1.0  0.0975
  H  H168  1  0.461600  0.029700  0.942600  1.0  0.0896
  H  H169  1  0.139300  0.849600  0.568100  1.0  0.0687
  H  H170  1  0.872800  0.948000  0.514500  1.0  0.1029
  H  H171  1  0.459800  0.349500  0.333333  1.0  0.1116
  H  H172  1  0.954100  0.805800  0.775500  1.0  0.1015
  H  H173  1  0.423900  0.418700  0.359300  1.0  0.0858
  H  H174  1  0.397000  0.275100  0.410900  1.0  0.1188
  H  H175  1  0.860700  0.650400  0.068100  1.0  0.0691
  H  H176  1  0.872900  0.590400  0.974600  1.0  0.1164
  H  H177  1  0.894500  0.913700  0.069500  1.0  0.0861
  H  H178  1  0.458500  0.345700  0.768000  1.0  0.1091
  H  H179  1  0.041500  0.845700  0.232000  1.0  0.1089
  H  H180  1  0.303700  0.332100  0.633200  1.0  0.1095
  H  H181  1  0.985800  0.420100  0.615500  1.0  0.0942
  H  H182  1  0.538400  0.470300  0.442600  1.0  0.0899
  H  H183  1  0.675000  0.890500  0.391000  1.0  0.1076
  H  H184  1  0.428900  0.012500  0.354800  1.0  0.097
  H  H185  1  0.634000  0.316400  0.626500  1.0  0.1046
  H  H186  1  0.071100  0.512500  0.645200  1.0  0.0981
  H  H187  1  0.127100  0.909600  0.474600  1.0  0.1162
  H  H188  1  0.134000  0.683600  0.873500  1.0  0.1042
  H  H189  1  0.040200  0.849500  0.666667  1.0  0.1118
  H  H190  1  0.076100  0.918700  0.640700  1.0  0.0862
  H  H191  1  0.485800  0.579900  0.884500  1.0  0.0939
  H  H192  1  0.455000  0.219700  0.165800  1.0  0.0828
  H  H193  1  0.394500  0.086300  0.430500  1.0  0.0868
  H  H194  1  0.866000  0.816400  0.373500  1.0  0.1065
  H  H195  1  0.952000  0.915700  0.171600  1.0  0.0977
  H  H196  1  0.103000  0.775100  0.589100  1.0  0.118
  H  H197  1  0.372900  0.409600  0.525400  1.0  0.1165
  H  H198  1  0.587800  0.343500  0.907800  1.0  0.1075
  H  H199  1  0.452000  0.084300  0.328400  1.0  0.0975
  H  H200  1  0.639300  0.150400  0.931900  1.0  0.069
  H  H201  1  0.045900  0.694200  0.275500  1.0  0.1016
  H  H202  1  0.545000  0.280300  0.665800  1.0  0.0816
  H  H203  1  0.989000  0.468900  0.533000  1.0  0.0758
  H  H204  1  0.508000  0.201800  0.772800  1.0  0.1115
  H  H205  1  0.324500  0.553600  0.976100  1.0  0.1096
  H  H206  1  0.675500  0.946400  0.476100  1.0  0.1099
  H  H207  1  0.959800  0.650500  0.166700  1.0  0.1112
  H  H208  1  0.087800  0.656500  0.592200  1.0  0.1082
  H  H209  1  0.803700  0.667900  0.866800  1.0  0.1083
  H  H210  1  0.824500  0.446400  0.523900  1.0  0.1095
  H  H211  1  0.492000  0.298200  0.272800  1.0  0.1118
  H  H212  1  0.116900  0.867100  0.404800  1.0  0.0768
  H  H213  1  0.825000  0.390500  0.609000  1.0  0.1074
  H  H214  1  0.048000  0.584300  0.671600  1.0  0.0978
  H  H215  1  0.958500  0.654300  0.732000  1.0  0.1081
  H  H216  1  0.923900  0.581300  0.140700  1.0  0.0863
  C  C217  1  0.692700  0.418000  0.067100  1.0  -0.1242
  C  C218  1  0.516500  0.846200  0.894500  1.0  -0.0867
  C  C219  1  0.494200  0.543100  0.540400  1.0  0.1027
  C  C220  1  0.702200  0.903000  0.937100  1.0  0.3458
  C  C221  1  0.055300  0.257900  0.851800  1.0  0.4028
  C  C222  1  0.441300  0.555300  0.514700  1.0  -0.0887
  C  C223  1  0.980300  0.278800  0.307900  1.0  0.33
  C  C224  1  0.563700  0.869900  0.635500  1.0  -0.1494
  C  C225  1  0.511500  0.795900  0.850200  1.0  0.1174
  C  C226  1  0.439800  0.585300  0.150500  1.0  -0.0994
  C  C227  1  0.905100  0.413700  0.409400  1.0  0.1466
  C  C228  1  0.939800  0.414700  0.349500  1.0  -0.098
  C  C229  1  0.919200  0.151700  0.609200  1.0  -0.0964
  C  C230  1  0.016500  0.153800  0.605500  1.0  -0.0864
  C  C231  1  0.307300  0.082000  0.567100  1.0  -0.1248
  C  C232  1  0.645000  0.440600  0.042700  1.0  -0.1259
  C  C233  1  0.428900  0.802400  0.131700  1.0  -0.1342
  C  C234  1  0.578300  0.693000  0.269400  1.0  0.1237
  C  C235  1  0.425500  0.542400  0.134800  1.0  0.1141
  C  C236  1  0.855700  0.908300  0.906700  1.0  -0.0836
  C  C237  1  0.953500  0.954200  0.951100  1.0  0.1385
  C  C238  1  0.046700  0.225000  0.233900  1.0  0.1371
  C  C239  1  0.560200  0.914700  0.650500  1.0  -0.1008
  C  C240  1  0.598600  0.696200  0.600800  1.0  -0.1358
  C  C241  1  0.571100  0.697600  0.631700  1.0  -0.1336
  C  C242  1  0.401400  0.803800  0.100800  1.0  -0.1342
  C  C243  1  0.083300  0.127600  0.896300  1.0  -0.1564
  C  C244  1  0.488400  0.571700  0.490300  1.0  -0.0996
  C  C245  1  0.483500  0.653800  0.394500  1.0  -0.0871
  C  C246  1  0.434200  0.588800  0.462300  1.0  0.3923
  C  C247  1  0.941300  0.444700  0.985300  1.0  -0.0893
  C  C248  1  0.480300  0.721200  0.192100  1.0  0.3298
  C  C249  1  0.916700  0.372400  0.396300  1.0  -0.155
  C  C250  1  0.145000  0.559400  0.457300  1.0  -0.1268
  C  C251  1  0.855000  0.940600  0.957300  1.0  -0.1287
  C  C252  1  0.118700  0.348700  0.911500  1.0  0.1761
  C  C253  1  0.082500  0.388400  0.869200  1.0  0.1384
  C  C254  1  0.192700  0.582000  0.432900  1.0  -0.1248
  C  C255  1  0.448100  0.676700  0.150500  1.0  0.4096
  C  C256  1  0.546700  0.775000  0.266100  1.0  0.137
  C  C257  1  0.558700  0.944700  0.014700  1.0  -0.0899
  C  C258  1  0.438700  0.847700  0.146400  1.0  -0.1333
  C  C259  1  0.901400  0.196200  0.399200  1.0  -0.1349
  C  C260  1  0.132800  0.435100  0.982300  1.0  0.1663
  C  C261  1  0.983500  0.346200  0.105500  1.0  -0.0876
  C  C262  1  0.444700  0.757900  0.148200  1.0  0.4031
  C  C263  1  0.019700  0.221200  0.807900  1.0  0.3299
  C  C264  1  0.565500  0.819200  0.872900  1.0  -0.1144
  C  C265  1  0.202200  0.097000  0.562900  1.0  0.345
  C  C266  1  0.955700  0.185800  0.759600  1.0  -0.1222
  C  C267  1  0.985300  0.270700  0.762100  1.0  -0.0941
  C  C268  1  0.591000  0.578000  0.491200  1.0  -0.1429
  C  C269  1  0.988500  0.295900  0.149800  1.0  0.1189
  C  C270  1  0.367200  0.935100  0.017700  1.0  0.1685
  C  C271  1  0.381300  0.848700  0.088500  1.0  0.1746
  C  C272  1  0.453500  0.045800  0.548900  1.0  0.1369
  C  C273  1  0.098600  0.303800  0.899200  1.0  -0.1346
  C  C274  1  0.561300  0.652300  0.646400  1.0  -0.123
  C  C275  1  0.546500  0.454200  0.048900  1.0  0.1355
  C  C276  1  0.985100  0.225100  0.775900  1.0  -0.0871
  C  C277  1  0.436300  0.630100  0.135500  1.0  -0.1463
  C  C278  1  0.060200  0.085300  0.849500  1.0  -0.0975
  C  C279  1  0.580800  0.651700  0.390800  1.0  -0.1035
  C  C280  1  0.371100  0.826300  0.869200  1.0  0.0867
  C  C281  1  0.934200  0.411200  0.037700  1.0  0.3935
  C  C282  1  0.583300  0.872400  0.603700  1.0  -0.1531
  C  C283  1  0.434500  0.680800  0.372900  1.0  -0.1171
  C  C284  1  0.417500  0.888400  0.130800  1.0  0.1389
  C  C285  1  0.514900  0.725100  0.224100  1.0  -0.0853
  C  C286  1  0.416700  0.627600  0.103700  1.0  -0.1532
  C  C287  1  0.797800  0.403000  0.062900  1.0  0.3445
  C  C288  1  0.044300  0.314200  0.259600  1.0  -0.1201
  C  C289  1  0.094900  0.086300  0.909400  1.0  0.146
  C  C290  1  0.453300  0.725000  0.766100  1.0  0.1372
  C  C291  1  0.953300  0.275000  0.733900  1.0  0.1381
  C  C292  1  0.565800  0.911200  0.962300  1.0  0.3924
  C  C293  1  0.944700  0.242100  0.351800  1.0  0.4024
  C  C294  1  0.932100  0.372400  0.081500  1.0  0.3634
  C  C295  1  0.994200  0.456900  0.959600  1.0  0.1042
  C  C296  1  0.505800  0.956900  0.040400  1.0  0.1024
  C  C297  1  0.046700  0.574700  0.403100  1.0  0.1264
  C  C298  1  0.297800  0.597000  0.437100  1.0  0.3445
  C  C299  1  0.544300  0.685800  0.240400  1.0  -0.1222
  C  C300  1  0.067900  0.127600  0.581500  1.0  0.363
  C  C301  1  0.058700  0.055300  0.485300  1.0  -0.0905
  C  C302  1  0.632800  0.564900  0.517700  1.0  0.1672
  C  C303  1  0.071100  0.302400  0.868300  1.0  -0.1343
  C  C304  1  0.485100  0.774900  0.724100  1.0  -0.0855
  C  C305  1  0.618700  0.651300  0.588500  1.0  0.1747
  C  C306  1  0.065800  0.088800  0.537700  1.0  0.3926
  C  C307  1  0.594900  0.913700  0.590600  1.0  0.1461
  C  C308  1  0.934500  0.319200  0.127100  1.0  -0.117
  C  C309  1  0.555300  0.742100  0.648200  1.0  0.4024
  C  C310  1  0.091000  0.422000  0.008800  1.0  -0.144
  C  C311  1  0.355700  0.091700  0.593300  1.0  -0.083
  C  C312  1  0.909000  0.078000  0.508800  1.0  -0.1443
  C  C313  1  0.078300  0.307000  0.230600  1.0  0.1235
  C  C314  1  0.061300  0.347700  0.853600  1.0  -0.1333
  C  C315  1  0.574500  0.957600  0.634800  1.0  0.113
  C  C316  1  0.074500  0.042400  0.865200  1.0  0.116
  C  C317  1  0.953300  0.925300  0.903100  1.0  0.126
  C  C318  1  0.807300  0.918000  0.932900  1.0  -0.1258
  C  C319  1  0.867200  0.064900  0.482300  1.0  0.1684
  C  C320  1  0.519700  0.778800  0.692100  1.0  0.3299
  C  C321  1  0.925500  0.457600  0.365200  1.0  0.1124
  C  C322  1  0.511600  0.928300  0.990300  1.0  -0.0992
  C  C323  1  0.551900  0.823300  0.650500  1.0  0.4092
  C  C324  1  0.567900  0.872400  0.918500  1.0  0.363
  C  C325  1  0.881300  0.151300  0.411500  1.0  0.1743
  C  C326  1  0.014900  0.274900  0.275900  1.0  -0.0865
  C  C327  1  0.938700  0.152300  0.353600  1.0  -0.1218
  C  C328  1  0.921700  0.193000  0.730600  1.0  0.1224
  C  C329  1  0.011600  0.071700  0.509700  1.0  -0.0992
  C  C330  1  0.063700  0.130100  0.864500  1.0  -0.1461
  C  C331  1  0.917500  0.111600  0.369200  1.0  0.1413
  C  C332  1  0.628900  0.673700  0.369200  1.0  0.0884
  C  C333  1  0.582500  0.611600  0.630800  1.0  0.1428
  C  C334  1  0.409000  0.922000  0.991200  1.0  -0.1447
  C  C335  1  0.080800  0.348300  0.109200  1.0  -0.1006
  C  C336  1  0.432100  0.627600  0.418500  1.0  0.3629
  C  C337  1  0.144300  0.591700  0.406700  1.0  -0.0829
  C  C338  1  0.936300  0.369900  0.364500  1.0  -0.1491
  C  C339  1  0.455700  0.814200  0.740400  1.0  -0.1204
  C  C340  1  0.546700  0.425300  0.096900  1.0  0.1266
  C  C341  1  0.355000  0.059400  0.542700  1.0  -0.1268
  C  C342  1  0.128900  0.326300  0.130800  1.0  0.0862
  C  C343  1  0.046500  0.545800  0.451100  1.0  0.137
  C  C344  1  0.065500  0.180800  0.627100  1.0  -0.1151
  C  C345  1  0.485300  0.729300  0.737900  1.0  -0.0947
  C  C346  1  0.453300  0.074700  0.596900  1.0  0.1278
  C  C347  1  0.011500  0.204100  0.649800  1.0  0.117
  C  C348  1  0.488500  0.704100  0.350200  1.0  0.1186
  C  C349  1  0.014700  0.229300  0.262100  1.0  -0.0961
  C  C350  1  0.405100  0.586300  0.090600  1.0  0.1473
  C  C351  1  0.644300  0.408300  0.093300  1.0  -0.0813
  C  C352  1  0.419200  0.848300  0.890800  1.0  -0.103
  C  C353  1  0.051900  0.176700  0.849500  1.0  0.4102
  C  C354  1  0.928900  0.197600  0.368300  1.0  -0.1336
  C  C355  1  0.948100  0.323300  0.349500  1.0  0.409
  C  C356  1  0.871100  0.173700  0.630800  1.0  0.0873
  C  C357  1  0.421700  0.807000  0.769400  1.0  0.1222
  C  C358  1  0.514700  0.770700  0.237900  1.0  -0.0941
  C  C359  1  0.005800  0.043100  0.459600  1.0  0.1037
  C  C360  1  0.988400  0.428300  0.009700  1.0  -0.1001
  C  C361  1  0.988500  0.795900  0.350200  1.0  0.1179
  C  C362  1  0.046700  0.725000  0.266100  1.0  0.137
  C  C363  1  0.453500  0.545800  0.951100  1.0  0.1409
  C  C364  1  0.409000  0.422000  0.508800  1.0  -0.1437
  C  C365  1  0.934500  0.819200  0.372900  1.0  -0.1168
  C  C366  1  0.551900  0.323300  0.849500  1.0  0.4095
  C  C367  1  0.453300  0.574700  0.903100  1.0  0.1262
  C  C368  1  0.505800  0.456900  0.459600  1.0  0.1032
  C  C369  1  0.919200  0.651700  0.890800  1.0  -0.1029
  C  C370  1  0.118700  0.848700  0.588500  1.0  0.1751
  C  C371  1  0.192700  0.082000  0.067100  1.0  -0.1247
  C  C372  1  0.797800  0.903000  0.437100  1.0  0.3443
  C  C373  1  0.953500  0.454200  0.548900  1.0  0.1366
  C  C374  1  0.488400  0.071700  0.009700  1.0  -0.0993
  C  C375  1  0.098600  0.803800  0.600800  1.0  -0.1355
  C  C376  1  0.371100  0.326300  0.630800  1.0  0.0873
  C  C377  1  0.519700  0.278800  0.807900  1.0  0.33
  C  C378  1  0.544300  0.185800  0.259600  1.0  -0.123
  C  C379  1  0.901400  0.696200  0.100800  1.0  -0.136
  C  C380  1  0.485300  0.229300  0.762100  1.0  -0.0955
  C  C381  1  0.618700  0.151300  0.911500  1.0  0.1756
  C  C382  1  0.571100  0.197600  0.868300  1.0  -0.1336
  C  C383  1  0.060200  0.585300  0.650500  1.0  -0.101
  C  C384  1  0.948100  0.823300  0.150500  1.0  0.409
  C  C385  1  0.439800  0.085300  0.349500  1.0  -0.0976
  C  C386  1  0.455700  0.314200  0.759600  1.0  -0.1201
  C  C387  1  0.953300  0.775000  0.766100  1.0  0.1373
  C  C388  1  0.355700  0.591700  0.906700  1.0  -0.0833
  C  C389  1  0.932100  0.872400  0.418500  1.0  0.3632
  C  C390  1  0.307300  0.582000  0.932900  1.0  -0.1248
  C  C391  1  0.514900  0.225100  0.275900  1.0  -0.0865
  C  C392  1  0.065500  0.680800  0.872900  1.0  -0.1145
  C  C393  1  0.591000  0.078000  0.008800  1.0  -0.1433
  C  C394  1  0.574500  0.457600  0.865200  1.0  0.1138
  C  C395  1  0.546500  0.954200  0.451100  1.0  0.1408
  C  C396  1  0.065800  0.588800  0.962300  1.0  0.3923
  C  C397  1  0.091000  0.922000  0.491200  1.0  -0.1433
  C  C398  1  0.546700  0.925300  0.403100  1.0  0.1281
  C  C399  1  0.855000  0.440600  0.542700  1.0  -0.1277
  C  C400  1  0.563700  0.369900  0.864500  1.0  -0.1468
  C  C401  1  0.583300  0.372400  0.896300  1.0  -0.1537
  C  C402  1  0.019700  0.721200  0.692100  1.0  0.3298
  C  C403  1  0.936300  0.869900  0.135500  1.0  -0.1467
  C  C404  1  0.561300  0.152300  0.853600  1.0  -0.1341
  C  C405  1  0.419200  0.348300  0.609200  1.0  -0.0956
  C  C406  1  0.580800  0.151700  0.109200  1.0  -0.097
  C  C407  1  0.080800  0.848300  0.390800  1.0  -0.1037
  C  C408  1  0.909000  0.578000  0.991200  1.0  -0.1444
  C  C409  1  0.058700  0.555300  0.014700  1.0  -0.0905
  C  C410  1  0.980300  0.778800  0.192100  1.0  0.3299
  C  C411  1  0.438700  0.347700  0.353600  1.0  -0.1211
  C  C412  1  0.063700  0.630100  0.635500  1.0  -0.149
  C  C413  1  0.488500  0.204100  0.149800  1.0  0.1187
  C  C414  1  0.448100  0.176700  0.349500  1.0  0.4097
  C  C415  1  0.416700  0.127600  0.396300  1.0  -0.1568
  C  C416  1  0.441300  0.055300  0.985300  1.0  -0.0892
  C  C417  1  0.939800  0.914700  0.150500  1.0  -0.0994
  C  C418  1  0.145000  0.059400  0.042700  1.0  -0.1259
  C  C419  1  0.941300  0.944700  0.514700  1.0  -0.0886
  C  C420  1  0.925500  0.957600  0.134800  1.0  0.1125
  C  C421  1  0.016500  0.653800  0.894500  1.0  -0.0868
  C  C422  1  0.082500  0.888400  0.630800  1.0  0.1413
  C  C423  1  0.916700  0.872400  0.103700  1.0  -0.1527
  C  C424  1  0.381300  0.348700  0.411500  1.0  0.1755
  C  C425  1  0.480300  0.221200  0.307900  1.0  0.3298
  C  C426  1  0.994200  0.956900  0.540400  1.0  0.1028
  C  C427  1  0.005800  0.543100  0.040400  1.0  0.1029
  C  C428  1  0.071100  0.802400  0.631700  1.0  -0.1342
  C  C429  1  0.644300  0.908300  0.406700  1.0  -0.083
  C  C430  1  0.983500  0.846200  0.394500  1.0  -0.0871
  C  C431  1  0.094900  0.586300  0.590600  1.0  0.1483
  C  C432  1  0.702200  0.403000  0.562900  1.0  0.3454
  C  C433  1  0.928900  0.697600  0.131700  1.0  -0.1337
  C  C434  1  0.074500  0.542400  0.634800  1.0  0.1138
  C  C435  1  0.011500  0.704100  0.850200  1.0  0.1171
  C  C436  1  0.367200  0.435100  0.482300  1.0  0.1683
  C  C437  1  0.428900  0.302400  0.368300  1.0  -0.1342
  C  C438  1  0.917500  0.611600  0.130800  1.0  0.1407
  C  C439  1  0.582500  0.111600  0.869200  1.0  0.1396
  C  C440  1  0.905100  0.913700  0.090600  1.0  0.147
  C  C441  1  0.560200  0.414700  0.849500  1.0  -0.0972
  C  C442  1  0.511600  0.428300  0.509700  1.0  -0.1
  C  C443  1  0.632800  0.064900  0.982300  1.0  0.1672
  C  C444  1  0.014900  0.774900  0.224100  1.0  -0.0853
  C  C445  1  0.988400  0.928300  0.490300  1.0  -0.0995
  C  C446  1  0.434200  0.088800  0.037700  1.0  0.3925
  C  C447  1  0.144300  0.091700  0.093300  1.0  -0.0826
  C  C448  1  0.985300  0.770700  0.737900  1.0  -0.0933
  C  C449  1  0.061300  0.847700  0.646400  1.0  -0.1227
  C  C450  1  0.421700  0.307000  0.730600  1.0  0.1233
  C  C451  1  0.202200  0.597000  0.937100  1.0  0.3448
  C  C452  1  0.628900  0.173700  0.130800  1.0  0.0874
  C  C453  1  0.921700  0.693000  0.769400  1.0  0.1245
  C  C454  1  0.485100  0.274900  0.775900  1.0  -0.087
  C  C455  1  0.938700  0.652300  0.146400  1.0  -0.134
  C  C456  1  0.881300  0.651300  0.088500  1.0  0.1743
  C  C457  1  0.514700  0.270700  0.262100  1.0  -0.0948
  C  C458  1  0.425500  0.042400  0.365200  1.0  0.1161
  C  C459  1  0.645000  0.940600  0.457300  1.0  -0.1267
  C  C460  1  0.871100  0.673700  0.869200  1.0  0.086
  C  C461  1  0.405100  0.086300  0.409400  1.0  0.1461
  C  C462  1  0.434500  0.180800  0.127100  1.0  -0.1181
  C  C463  1  0.417500  0.388400  0.369200  1.0  0.1398
  C  C464  1  0.546700  0.275000  0.233900  1.0  0.1376
  C  C465  1  0.132800  0.935100  0.517700  1.0  0.1669
  C  C466  1  0.014700  0.729300  0.237900  1.0  -0.0954
  C  C467  1  0.516500  0.346200  0.605500  1.0  -0.0869
  C  C468  1  0.067900  0.627600  0.918500  1.0  0.3627
  C  C469  1  0.985100  0.725100  0.724100  1.0  -0.0855
  C  C470  1  0.011600  0.571700  0.990300  1.0  -0.0992
  C  C471  1  0.511500  0.295900  0.649800  1.0  0.1177
  C  C472  1  0.953300  0.425300  0.596900  1.0  0.1288
  C  C473  1  0.867200  0.564900  0.017700  1.0  0.1683
  C  C474  1  0.567900  0.372400  0.581500  1.0  0.3632
  C  C475  1  0.558700  0.444700  0.485300  1.0  -0.0909
  C  C476  1  0.436300  0.130100  0.364500  1.0  -0.1486
  C  C477  1  0.565800  0.411200  0.537700  1.0  0.3934
  C  C478  1  0.297800  0.097000  0.062900  1.0  0.3444
  C  C479  1  0.955700  0.685800  0.740400  1.0  -0.1215
  C  C480  1  0.692700  0.918000  0.432900  1.0  -0.1245
  C  C481  1  0.453300  0.225000  0.733900  1.0  0.1367
  C  C482  1  0.807300  0.418000  0.567100  1.0  -0.1256
  C  C483  1  0.483500  0.153800  0.105500  1.0  -0.0869
  C  C484  1  0.934200  0.911200  0.462300  1.0  0.3927
  C  C485  1  0.855700  0.408300  0.593300  1.0  -0.0827
  C  C486  1  0.444700  0.257900  0.351800  1.0  0.4029
  C  C487  1  0.432100  0.127600  0.081500  1.0  0.3631
  C  C488  1  0.046700  0.074700  0.096900  1.0  0.1255
  C  C489  1  0.565500  0.319200  0.627100  1.0  -0.1153
  C  C490  1  0.401400  0.303800  0.399200  1.0  -0.134
  C  C491  1  0.598600  0.196200  0.899200  1.0  -0.1345
  C  C492  1  0.044300  0.814200  0.240400  1.0  -0.1201
  C  C493  1  0.944700  0.742100  0.148200  1.0  0.4025
  C  C494  1  0.555300  0.242100  0.851800  1.0  0.4024
  C  C495  1  0.594900  0.413700  0.909400  1.0  0.1466
  C  C496  1  0.494200  0.043100  0.959600  1.0  0.1043
  C  C497  1  0.128900  0.826300  0.369200  1.0  0.0865
  C  C498  1  0.078300  0.807000  0.269400  1.0  0.1223
  C  C499  1  0.046500  0.045800  0.048900  1.0  0.1355
  C  C500  1  0.355000  0.559400  0.957300  1.0  -0.1276
  C  C501  1  0.083300  0.627600  0.603700  1.0  -0.1552
  C  C502  1  0.055300  0.757900  0.648200  1.0  0.403
  C  C503  1  0.051900  0.676700  0.650500  1.0  0.4098
  C  C504  1  0.578300  0.193000  0.230600  1.0  0.122
  I  I505  1  0.417980  0.014330  0.112190  1.0  -0.3668
  I  I506  1  0.789950  0.569360  0.381500  1.0  -0.3472
  I  I507  1  0.814390  0.716010  0.314970  1.0  -0.3881
  I  I508  1  0.196110  0.999810  0.964600  1.0  -0.4272
  I  I509  1  0.289950  0.430640  0.118500  1.0  -0.3469
  I  I510  1  0.861100  0.328500  0.663250  1.0  -0.3123
  I  I511  1  0.314390  0.283990  0.185030  1.0  -0.3875
  I  I512  1  0.824660  0.555120  0.576550  1.0  -0.4182
  I  I513  1  0.138900  0.171500  0.163250  1.0  -0.3128
  I  I514  1  0.582020  0.485670  0.612190  1.0  -0.3664
  I  I515  1  0.675340  0.055120  0.423450  1.0  -0.4181
  I  I516  1  0.324660  0.444880  0.923450  1.0  -0.418
  I  I517  1  0.175340  0.944880  0.076550  1.0  -0.418
  I  I518  1  0.361100  0.671500  0.836750  1.0  -0.3132
  I  I519  1  0.803890  0.500190  0.464600  1.0  -0.4272
  I  I520  1  0.696110  0.000190  0.535400  1.0  -0.4272
  I  I521  1  0.710050  0.069360  0.618500  1.0  -0.3471
  I  I522  1  0.303890  0.499810  0.035400  1.0  -0.4272
  I  I523  1  0.210050  0.930640  0.881500  1.0  -0.3476
  I  I524  1  0.685610  0.216010  0.685030  1.0  -0.3884
  I  I525  1  0.185610  0.783990  0.814970  1.0  -0.3882
  I  I526  1  0.917980  0.985670  0.387810  1.0  -0.3682
  I  I527  1  0.082020  0.514330  0.887810  1.0  -0.3676
  I  I528  1  0.638900  0.828500  0.336750  1.0  -0.3125
  I  I529  1  0.303890  0.999810  0.464600  1.0  -0.4272
  I  I530  1  0.210050  0.430640  0.618500  1.0  -0.3472
  I  I531  1  0.803890  0.000190  0.035400  1.0  -0.4272
  I  I532  1  0.324660  0.944880  0.576550  1.0  -0.4179
  I  I533  1  0.675340  0.555120  0.076550  1.0  -0.4182
  I  I534  1  0.789950  0.069360  0.118500  1.0  -0.347
  I  I535  1  0.185610  0.283990  0.685030  1.0  -0.3882
  I  I536  1  0.638900  0.328500  0.163250  1.0  -0.3122
  I  I537  1  0.696110  0.500190  0.964600  1.0  -0.4272
  I  I538  1  0.685610  0.716010  0.814970  1.0  -0.3887
  I  I539  1  0.314390  0.783990  0.314970  1.0  -0.3875
  I  I540  1  0.814390  0.216010  0.185030  1.0  -0.3878
  I  I541  1  0.289950  0.930640  0.381500  1.0  -0.3473
  I  I542  1  0.196110  0.499810  0.535400  1.0  -0.4271
  I  I543  1  0.082020  0.014330  0.612190  1.0  -0.3661
  I  I544  1  0.361100  0.171500  0.663250  1.0  -0.3131
  I  I545  1  0.582020  0.985670  0.887810  1.0  -0.3676
  I  I546  1  0.710050  0.569360  0.881500  1.0  -0.3473
  I  I547  1  0.861100  0.828500  0.836750  1.0  -0.3126
  I  I548  1  0.175340  0.444880  0.423450  1.0  -0.4182
  I  I549  1  0.417980  0.514330  0.387810  1.0  -0.3682
  I  I550  1  0.824660  0.055120  0.923450  1.0  -0.4181
  I  I551  1  0.917980  0.485670  0.112190  1.0  -0.3669
  I  I552  1  0.138900  0.671500  0.336750  1.0  -0.3129
  N  N553  1  0.887900  0.111900  0.397800  1.0  -0.2078
  N  N554  1  0.919900  0.236700  0.718300  1.0  -0.3098
  N  N555  1  0.917400  0.204800  0.649600  1.0  -0.3197
  N  N556  1  0.066700  0.215100  0.865900  1.0  -0.393
  N  N557  1  0.660100  0.920100  0.961300  1.0  -0.4396
  N  N558  1  0.093200  0.042600  0.895100  1.0  -0.3558
  N  N559  1  0.972500  0.323600  0.320100  1.0  -0.4653
  N  N560  1  0.933300  0.284900  0.365900  1.0  -0.3955
  N  N561  1  0.336200  0.622200  0.415200  1.0  -0.3386
  N  N562  1  0.527500  0.823600  0.679900  1.0  -0.4574
  N  N563  1  0.090600  0.450100  0.958200  1.0  -0.3329
  N  N564  1  0.663800  0.877800  0.915200  1.0  -0.3382
  N  N565  1  0.001200  0.552000  0.425200  1.0  -0.3307
  N  N566  1  0.566700  0.784900  0.634100  1.0  -0.3975
  N  N567  1  0.470700  0.763500  0.177500  1.0  -0.5352
  N  N568  1  0.970700  0.236500  0.322500  1.0  -0.5432
  N  N569  1  0.998800  0.948000  0.925200  1.0  -0.3306
  N  N570  1  0.339900  0.579900  0.461300  1.0  -0.4303
  N  N571  1  0.593200  0.957400  0.604900  1.0  -0.3567
  N  N572  1  0.580100  0.736700  0.281700  1.0  -0.3117
  N  N573  1  0.582600  0.704800  0.350400  1.0  -0.3175
  N  N574  1  0.080100  0.263300  0.218300  1.0  -0.3122
  N  N575  1  0.839900  0.420100  0.038700  1.0  -0.4347
  N  N576  1  0.483000  0.612300  0.442200  1.0  -0.3343
  N  N577  1  0.163800  0.122200  0.584800  1.0  -0.3393
  N  N578  1  0.590600  0.549900  0.541800  1.0  -0.3302
  N  N579  1  0.529300  0.736500  0.677500  1.0  -0.5335
  N  N580  1  0.472500  0.676400  0.179900  1.0  -0.4641
  N  N581  1  0.836200  0.377800  0.084800  1.0  -0.3379
  N  N582  1  0.433300  0.715100  0.134100  1.0  -0.3947
  N  N583  1  0.517000  0.887700  0.942200  1.0  -0.3339
  N  N584  1  0.406800  0.542600  0.104900  1.0  -0.357
  N  N585  1  0.027500  0.176400  0.820100  1.0  -0.4648
  N  N586  1  0.112100  0.388100  0.897800  1.0  -0.2086
  N  N587  1  0.417400  0.795200  0.850400  1.0  -0.3183
  N  N588  1  0.612100  0.611900  0.602200  1.0  -0.2065
  N  N589  1  0.160100  0.079900  0.538700  1.0  -0.4358
  N  N590  1  0.082600  0.295200  0.149600  1.0  -0.3175
  N  N591  1  0.419900  0.763300  0.781700  1.0  -0.3108
  N  N592  1  0.501200  0.448000  0.074800  1.0  -0.3301
  N  N593  1  0.906800  0.457400  0.395100  1.0  -0.3566
  N  N594  1  0.909400  0.049900  0.458200  1.0  -0.3351
  N  N595  1  0.387900  0.888100  0.102200  1.0  -0.2083
  N  N596  1  0.409400  0.950100  0.041800  1.0  -0.332
  N  N597  1  0.029300  0.263500  0.822500  1.0  -0.5443
  N  N598  1  0.017000  0.112300  0.557800  1.0  -0.3322
  N  N599  1  0.498800  0.052000  0.574800  1.0  -0.3287
  N  N600  1  0.983000  0.387700  0.057800  1.0  -0.3351
  N  N601  1  0.336200  0.122200  0.084800  1.0  -0.3392
  N  N602  1  0.663800  0.377800  0.584800  1.0  -0.3375
  N  N603  1  0.501200  0.948000  0.425200  1.0  -0.3312
  N  N604  1  0.093200  0.542600  0.604900  1.0  -0.356
  N  N605  1  0.529300  0.236500  0.822500  1.0  -0.5348
  N  N606  1  0.580100  0.236700  0.218300  1.0  -0.3103
  N  N607  1  0.590600  0.049900  0.958200  1.0  -0.3343
  N  N608  1  0.080100  0.763300  0.281700  1.0  -0.3111
  N  N609  1  0.112100  0.888100  0.602200  1.0  -0.2072
  N  N610  1  0.887900  0.611900  0.102200  1.0  -0.2068
  N  N611  1  0.517000  0.387700  0.557800  1.0  -0.3337
  N  N612  1  0.983000  0.887700  0.442200  1.0  -0.3353
  N  N613  1  0.339900  0.079900  0.038700  1.0  -0.4309
  N  N614  1  0.906800  0.957400  0.104900  1.0  -0.3572
  N  N615  1  0.836200  0.877800  0.415200  1.0  -0.3429
  N  N616  1  0.090600  0.950100  0.541800  1.0  -0.33
  N  N617  1  0.409400  0.450100  0.458200  1.0  -0.335
  N  N618  1  0.919900  0.736700  0.781700  1.0  -0.3105
  N  N619  1  0.839900  0.920100  0.461300  1.0  -0.4348
  N  N620  1  0.417400  0.295200  0.649600  1.0  -0.3188
  N  N621  1  0.066700  0.715100  0.634100  1.0  -0.3973
  N  N622  1  0.933300  0.784900  0.134100  1.0  -0.3949
  N  N623  1  0.029300  0.763500  0.677500  1.0  -0.5361
  N  N624  1  0.909400  0.549900  0.041800  1.0  -0.332
  N  N625  1  0.387900  0.388100  0.397800  1.0  -0.2085
  N  N626  1  0.593200  0.457400  0.895100  1.0  -0.3582
  N  N627  1  0.470700  0.263500  0.322500  1.0  -0.535
  N  N628  1  0.406800  0.042600  0.395100  1.0  -0.3559
  N  N629  1  0.998800  0.448000  0.574800  1.0  -0.3289
  N  N630  1  0.612100  0.111900  0.897800  1.0  -0.2079
  N  N631  1  0.498800  0.552000  0.925200  1.0  -0.3291
  N  N632  1  0.527500  0.323600  0.820100  1.0  -0.4652
  N  N633  1  0.972500  0.823600  0.179900  1.0  -0.4655
  N  N634  1  0.970700  0.736500  0.177500  1.0  -0.533
  N  N635  1  0.027500  0.676400  0.679900  1.0  -0.4644
  N  N636  1  0.660100  0.420100  0.538700  1.0  -0.4345
  N  N637  1  0.160100  0.579900  0.961300  1.0  -0.4356
  N  N638  1  0.566700  0.284900  0.865900  1.0  -0.393
  N  N639  1  0.017000  0.612300  0.942200  1.0  -0.3323
  N  N640  1  0.082600  0.795200  0.350400  1.0  -0.3178
  N  N641  1  0.472500  0.176400  0.320100  1.0  -0.4646
  N  N642  1  0.917400  0.704800  0.850400  1.0  -0.3189
  N  N643  1  0.001200  0.052000  0.074800  1.0  -0.3316
  N  N644  1  0.582600  0.204800  0.149600  1.0  -0.3191
  N  N645  1  0.483000  0.112300  0.057800  1.0  -0.3342
  N  N646  1  0.419900  0.263300  0.718300  1.0  -0.3109
  N  N647  1  0.163800  0.622200  0.915200  1.0  -0.3388
  N  N648  1  0.433300  0.215100  0.365900  1.0  -0.3955
