# generated using pymatgen
data_NaH8C12(NO3)2
_symmetry_space_group_name_H-M   'P 1'
_cell_length_a   10.48210000
_cell_length_b   10.48210000
_cell_length_c   13.92830000
_cell_angle_alpha   90.00000000
_cell_angle_beta   90.00000000
_cell_angle_gamma   90.00000000
_symmetry_Int_Tables_number   1
_chemical_formula_structural   NaH8C12(NO3)2
_chemical_formula_sum   'Na4 H32 C48 N8 O24'
_cell_volume   1530.36388980
_cell_formula_units_Z   4
loop_
 _symmetry_equiv_pos_site_id
 _symmetry_equiv_pos_as_xyz
  1  'x, y, z'
loop_
 _atom_site_type_symbol
 _atom_site_label
 _atom_site_symmetry_multiplicity
 _atom_site_fract_x
 _atom_site_fract_y
 _atom_site_fract_z
 _atom_site_occupancy
 _atom_site_charge
  Na  Na1  1  0.597000  0.597000  0.000000  1.0  0.9326
  Na  Na2  1  0.403000  0.403000  0.500000  1.0  0.9328
  Na  Na3  1  0.903000  0.097000  0.750000  1.0  0.9333
  Na  Na4  1  0.097000  0.903000  0.250000  1.0  0.9324
  H  H5  1  0.552700  0.643800  0.768800  1.0  0.2914
  H  H6  1  0.693200  0.948900  0.641900  1.0  0.1114
  H  H7  1  0.585900  0.886700  0.499200  1.0  0.1023
  H  H8  1  0.472300  0.698700  0.493300  1.0  0.1373
  H  H9  1  0.447300  0.356200  0.268800  1.0  0.2915
  H  H10  1  0.306800  0.051100  0.141900  1.0  0.1121
  H  H11  1  0.414100  0.113300  0.999200  1.0  0.1027
  H  H12  1  0.527700  0.301300  0.993300  1.0  0.1367
  H  H13  1  0.856200  0.052700  0.518800  1.0  0.2916
  H  H14  1  0.551100  0.193200  0.391900  1.0  0.1119
  H  H15  1  0.613300  0.085900  0.249200  1.0  0.1023
  H  H16  1  0.801300  0.972300  0.243300  1.0  0.1376
  H  H17  1  0.143800  0.947300  0.018800  1.0  0.2917
  H  H18  1  0.448900  0.806800  0.891900  1.0  0.1109
  H  H19  1  0.386700  0.914100  0.749200  1.0  0.1027
  H  H20  1  0.198700  0.027700  0.743300  1.0  0.1372
  H  H21  1  0.947300  0.143800  0.981200  1.0  0.2918
  H  H22  1  0.806800  0.448900  0.108100  1.0  0.1122
  H  H23  1  0.914100  0.386700  0.250800  1.0  0.1026
  H  H24  1  0.027700  0.198700  0.256700  1.0  0.1367
  H  H25  1  0.052700  0.856200  0.481200  1.0  0.2918
  H  H26  1  0.193200  0.551100  0.608100  1.0  0.1118
  H  H27  1  0.085900  0.613300  0.750800  1.0  0.1027
  H  H28  1  0.972300  0.801300  0.756700  1.0  0.1369
  H  H29  1  0.643800  0.552700  0.231200  1.0  0.2925
  H  H30  1  0.948900  0.693200  0.358100  1.0  0.1105
  H  H31  1  0.886700  0.585900  0.500800  1.0  0.1024
  H  H32  1  0.698700  0.472300  0.506700  1.0  0.1372
  H  H33  1  0.356200  0.447300  0.731200  1.0  0.2918
  H  H34  1  0.051100  0.306800  0.858100  1.0  0.1119
  H  H35  1  0.113300  0.414100  0.000800  1.0  0.1027
  H  H36  1  0.301300  0.527700  0.006700  1.0  0.1368
  C  C37  1  0.699600  0.824900  0.814000  1.0  0.62
  C  C38  1  0.633600  0.797000  0.718900  1.0  0.0721
  C  C39  1  0.644700  0.872400  0.640000  1.0  -0.1472
  C  C40  1  0.581700  0.833800  0.554500  1.0  0.0201
  C  C41  1  0.515300  0.722000  0.550700  1.0  -0.2612
  C  C42  1  0.510000  0.638900  0.633100  1.0  0.5358
  C  C43  1  0.300400  0.175100  0.314000  1.0  0.6195
  C  C44  1  0.366400  0.203000  0.218900  1.0  0.0711
  C  C45  1  0.355300  0.127600  0.140000  1.0  -0.1481
  C  C46  1  0.418300  0.166200  0.054500  1.0  0.0144
  C  C47  1  0.484700  0.278000  0.050700  1.0  -0.2607
  C  C48  1  0.490000  0.361100  0.133100  1.0  0.5348
  C  C49  1  0.675100  0.199600  0.564000  1.0  0.6186
  C  C50  1  0.703000  0.133600  0.468900  1.0  0.073
  C  C51  1  0.627600  0.144700  0.390000  1.0  -0.1472
  C  C52  1  0.666200  0.081700  0.304500  1.0  0.0092
  C  C53  1  0.778000  0.015300  0.300700  1.0  -0.262
  C  C54  1  0.861100  0.010000  0.383100  1.0  0.5328
  C  C55  1  0.324900  0.800400  0.064000  1.0  0.6206
  C  C56  1  0.297000  0.866400  0.968900  1.0  0.0732
  C  C57  1  0.372400  0.855300  0.890000  1.0  -0.1454
  C  C58  1  0.333800  0.918300  0.804500  1.0  0.0211
  C  C59  1  0.222000  0.984700  0.800700  1.0  -0.2648
  C  C60  1  0.138900  0.990000  0.883100  1.0  0.5328
  C  C61  1  0.800400  0.324900  0.936000  1.0  0.6209
  C  C62  1  0.866400  0.297000  0.031100  1.0  0.0704
  C  C63  1  0.855300  0.372400  0.110000  1.0  -0.1468
  C  C64  1  0.918300  0.333800  0.195500  1.0  0.0229
  C  C65  1  0.984700  0.222000  0.199300  1.0  -0.2665
  C  C66  1  0.990000  0.138900  0.116900  1.0  0.5349
  C  C67  1  0.199600  0.675100  0.436000  1.0  0.6182
  C  C68  1  0.133600  0.703000  0.531100  1.0  0.0713
  C  C69  1  0.144700  0.627600  0.610000  1.0  -0.1478
  C  C70  1  0.081700  0.666200  0.695500  1.0  0.0231
  C  C71  1  0.015300  0.778000  0.699300  1.0  -0.2704
  C  C72  1  0.010000  0.861100  0.616900  1.0  0.5352
  C  C73  1  0.824900  0.699600  0.186000  1.0  0.6207
  C  C74  1  0.797000  0.633600  0.281100  1.0  0.0719
  C  C75  1  0.872400  0.644700  0.360000  1.0  -0.1459
  C  C76  1  0.833800  0.581700  0.445500  1.0  0.0228
  C  C77  1  0.722000  0.515300  0.449300  1.0  -0.2711
  C  C78  1  0.638900  0.510000  0.366900  1.0  0.5326
  C  C79  1  0.175100  0.300400  0.686000  1.0  0.6192
  C  C80  1  0.203000  0.366400  0.781100  1.0  0.0719
  C  C81  1  0.127600  0.355300  0.860000  1.0  -0.1467
  C  C82  1  0.166200  0.418300  0.945500  1.0  0.0218
  C  C83  1  0.278000  0.484700  0.949300  1.0  -0.2671
  C  C84  1  0.361100  0.490000  0.866900  1.0  0.5327
  N  N85  1  0.563800  0.686700  0.715100  1.0  -0.2627
  N  N86  1  0.436200  0.313300  0.215100  1.0  -0.2625
  N  N87  1  0.813300  0.063800  0.465100  1.0  -0.2639
  N  N88  1  0.186700  0.936200  0.965100  1.0  -0.2631
  N  N89  1  0.936200  0.186700  0.034900  1.0  -0.2631
  N  N90  1  0.063800  0.813300  0.534900  1.0  -0.264
  N  N91  1  0.686700  0.563800  0.284900  1.0  -0.2642
  N  N92  1  0.313300  0.436200  0.784900  1.0  -0.265
  O  O93  1  0.680400  0.747600  0.881800  1.0  -0.5632
  O  O94  1  0.772400  0.919800  0.815800  1.0  -0.5467
  O  O95  1  0.463400  0.528800  0.632400  1.0  -0.5734
  O  O96  1  0.319600  0.252400  0.381800  1.0  -0.5665
  O  O97  1  0.227600  0.080200  0.315800  1.0  -0.5435
  O  O98  1  0.536600  0.471200  0.132400  1.0  -0.5718
  O  O99  1  0.752400  0.180400  0.631800  1.0  -0.5629
  O  O100  1  0.580200  0.272400  0.565800  1.0  -0.5462
  O  O101  1  0.971200  0.963400  0.382400  1.0  -0.5692
  O  O102  1  0.247600  0.819600  0.131800  1.0  -0.5622
  O  O103  1  0.419800  0.727600  0.065800  1.0  -0.5453
  O  O104  1  0.028800  0.036600  0.882400  1.0  -0.5707
  O  O105  1  0.819600  0.247600  0.868200  1.0  -0.5615
  O  O106  1  0.727600  0.419800  0.934200  1.0  -0.5449
  O  O107  1  0.036600  0.028800  0.117600  1.0  -0.5726
  O  O108  1  0.180400  0.752400  0.368200  1.0  -0.5647
  O  O109  1  0.272400  0.580200  0.434200  1.0  -0.5399
  O  O110  1  0.963400  0.971200  0.617600  1.0  -0.5748
  O  O111  1  0.747600  0.680400  0.118200  1.0  -0.5581
  O  O112  1  0.919800  0.772400  0.184200  1.0  -0.5451
  O  O113  1  0.528800  0.463400  0.367600  1.0  -0.573
  O  O114  1  0.252400  0.319600  0.618200  1.0  -0.5649
  O  O115  1  0.080200  0.227600  0.684200  1.0  -0.5364
  O  O116  1  0.471200  0.536600  0.867600  1.0  -0.5695
