# generated using pymatgen
data_Ca2P3(C8O7)3
_symmetry_space_group_name_H-M   'P 1'
_cell_length_a   23.06520000
_cell_length_b   6.97310000
_cell_length_c   22.41650000
_cell_angle_alpha   90.00000000
_cell_angle_beta   91.54000000
_cell_angle_gamma   90.00000000
_symmetry_Int_Tables_number   1
_chemical_formula_structural   Ca2P3(C8O7)3
_chemical_formula_sum   'Ca8 P12 C96 O84'
_cell_volume   3604.07674642
_cell_formula_units_Z   4
loop_
 _symmetry_equiv_pos_site_id
 _symmetry_equiv_pos_as_xyz
  1  'x, y, z'
loop_
 _atom_site_type_symbol
 _atom_site_label
 _atom_site_symmetry_multiplicity
 _atom_site_fract_x
 _atom_site_fract_y
 _atom_site_fract_z
 _atom_site_occupancy
 _atom_site_charge
  Ca  Ca1  1  0.532500  0.952400  0.006900  1.0  1.6298
  Ca  Ca2  1  0.458600  0.466200  0.031400  1.0  1.6692
  Ca  Ca3  1  0.457070  0.080800  0.509100  1.0  1.642
  Ca  Ca4  1  0.535100  0.591200  0.528200  1.0  1.6207
  Ca  Ca5  1  0.032500  0.047600  0.006900  1.0  1.6289
  Ca  Ca6  1  0.958600  0.533800  0.031400  1.0  1.6691
  Ca  Ca7  1  0.957070  0.919200  0.509100  1.0  1.6424
  Ca  Ca8  1  0.035100  0.408800  0.528200  1.0  1.6207
  P  P9  1  0.408600  0.973800  0.042500  1.0  1.5084
  P  P10  1  0.581500  0.447800  0.986800  1.0  1.5132
  P  P11  1  0.537300  0.591900  0.363300  1.0  1.4721
  P  P12  1  0.582300  0.079300  0.554300  1.0  1.5423
  P  P13  1  0.399100  0.576000  0.493900  1.0  1.5231
  P  P14  1  0.478900  0.546200  0.850000  1.0  1.3271
  P  P15  1  0.908600  0.026200  0.042500  1.0  1.5083
  P  P16  1  0.081500  0.552200  0.986800  1.0  1.5132
  P  P17  1  0.037300  0.408100  0.363300  1.0  1.4699
  P  P18  1  0.082300  0.920700  0.554300  1.0  1.5422
  P  P19  1  0.899100  0.424000  0.493900  1.0  1.5218
  P  P20  1  0.978900  0.453800  0.850000  1.0  1.3261
  C  C21  1  0.339000  0.971000  0.003800  1.0  -0.0234
  C  C22  1  0.287300  0.978000  0.034200  1.0  0.1053
  C  C23  1  0.235100  0.996000  0.001800  1.0  -0.011
  C  C24  1  0.234700  0.994000  0.939000  1.0  0.0817
  C  C25  1  0.284200  0.925000  0.911200  1.0  -0.0627
  C  C26  1  0.337900  0.949000  0.941600  1.0  0.0708
  C  C27  1  0.177900  0.043000  0.030400  1.0  0.681
  C  C28  1  0.281400  0.867000  0.846000  1.0  0.6891
  C  C29  1  0.645700  0.407000  0.032200  1.0  -0.0197
  C  C30  1  0.696900  0.499000  0.017700  1.0  0.0926
  C  C31  1  0.746000  0.474000  0.055000  1.0  -0.0949
  C  C32  1  0.736900  0.432000  0.115400  1.0  0.0654
  C  C33  1  0.686500  0.330000  0.129300  1.0  -0.0509
  C  C34  1  0.637700  0.353000  0.091500  1.0  0.0625
  C  C35  1  0.805700  0.516000  0.031700  1.0  0.7216
  C  C36  1  0.676000  0.271000  0.193600  1.0  0.6662
  C  C37  1  0.583000  0.683000  0.305600  1.0  -0.0304
  C  C38  1  0.557900  0.789000  0.259500  1.0  0.119
  C  C39  1  0.589200  0.827000  0.208600  1.0  -0.0893
  C  C40  1  0.650200  0.812000  0.212600  1.0  0.0802
  C  C41  1  0.677100  0.729000  0.262900  1.0  -0.0604
  C  C42  1  0.642100  0.635000  0.304010  1.0  0.0475
  C  C43  1  0.558700  0.905000  0.153000  1.0  0.7742
  C  C44  1  0.742600  0.718000  0.268800  1.0  0.7335
  C  C45  1  0.646900  0.106000  0.511000  1.0  -0.0027
  C  C46  1  0.695900  0.005000  0.531400  1.0  0.0713
  C  C47  1  0.744300  0.001000  0.494800  1.0  -0.0473
  C  C48  1  0.733500  0.006000  0.432900  1.0  0.1029
  C  C49  1  0.681900  0.087000  0.410600  1.0  -0.0732
  C  C50  1  0.635600  0.105000  0.449200  1.0  0.077
  C  C51  1  0.803300  0.953000  0.521700  1.0  0.7444
  C  C52  1  0.672500  0.151000  0.346400  1.0  0.6919
  C  C53  1  0.333900  0.548000  0.536100  1.0  -0.0419
  C  C54  1  0.280700  0.514000  0.507000  1.0  0.1049
  C  C55  1  0.231100  0.498000  0.540300  1.0  -0.006
  C  C56  1  0.230600  0.593000  0.595600  1.0  0.1048
  C  C57  1  0.282200  0.655000  0.623100  1.0  -0.0136
  C  C58  1  0.334500  0.612000  0.596000  1.0  0.1025
  C  C59  1  0.170700  0.435000  0.519800  1.0  0.7025
  C  C60  1  0.276200  0.707000  0.688500  1.0  0.6684
  C  C61  1  0.424400  0.390000  0.816600  1.0  -0.0481
  C  C62  1  0.448400  0.247000  0.780500  1.0  0.0613
  C  C63  1  0.419900  0.213000  0.724800  1.0  0.0077
  C  C64  1  0.359200  0.222000  0.724700  1.0  0.0981
  C  C65  1  0.328900  0.298000  0.773600  1.0  0.0041
  C  C66  1  0.363700  0.399000  0.816600  1.0  0.1114
  C  C67  1  0.458700  0.145000  0.675000  1.0  0.753
  C  C68  1  0.263000  0.294000  0.771600  1.0  0.7323
  C  C69  1  0.839000  0.029000  0.003800  1.0  -0.0237
  C  C70  1  0.787300  0.022000  0.034200  1.0  0.1056
  C  C71  1  0.735100  0.004000  0.001800  1.0  -0.0112
  C  C72  1  0.734700  0.006000  0.939000  1.0  0.0799
  C  C73  1  0.784200  0.075000  0.911200  1.0  -0.0628
  C  C74  1  0.837900  0.051000  0.941600  1.0  0.0709
  C  C75  1  0.677900  0.957000  0.030400  1.0  0.6815
  C  C76  1  0.781400  0.133000  0.846000  1.0  0.6889
  C  C77  1  0.145700  0.593000  0.032200  1.0  -0.0193
  C  C78  1  0.196900  0.501000  0.017700  1.0  0.0926
  C  C79  1  0.246000  0.526000  0.055000  1.0  -0.0949
  C  C80  1  0.236900  0.568000  0.115400  1.0  0.0644
  C  C81  1  0.186500  0.670000  0.129300  1.0  -0.0511
  C  C82  1  0.137700  0.647000  0.091500  1.0  0.0625
  C  C83  1  0.305700  0.484000  0.031700  1.0  0.7216
  C  C84  1  0.176000  0.729000  0.193600  1.0  0.6669
  C  C85  1  0.083000  0.317000  0.305600  1.0  -0.0307
  C  C86  1  0.057900  0.211000  0.259500  1.0  0.1182
  C  C87  1  0.089200  0.173000  0.208600  1.0  -0.0894
  C  C88  1  0.150200  0.188000  0.212600  1.0  0.0799
  C  C89  1  0.177100  0.271000  0.262900  1.0  -0.0603
  C  C90  1  0.142100  0.365000  0.304010  1.0  0.0461
  C  C91  1  0.058700  0.095000  0.153000  1.0  0.7741
  C  C92  1  0.242600  0.282000  0.268800  1.0  0.7334
  C  C93  1  0.146900  0.894000  0.511000  1.0  -0.0029
  C  C94  1  0.195900  0.995000  0.531400  1.0  0.0719
  C  C95  1  0.244300  0.999000  0.494800  1.0  -0.0472
  C  C96  1  0.233500  0.994000  0.432900  1.0  0.1032
  C  C97  1  0.181900  0.913000  0.410600  1.0  -0.073
  C  C98  1  0.135600  0.895000  0.449200  1.0  0.0769
  C  C99  1  0.303300  0.047000  0.521700  1.0  0.7445
  C  C100  1  0.172500  0.849000  0.346400  1.0  0.6936
  C  C101  1  0.833900  0.452000  0.536100  1.0  -0.0418
  C  C102  1  0.780700  0.486000  0.507000  1.0  0.1058
  C  C103  1  0.731100  0.502000  0.540300  1.0  -0.0055
  C  C104  1  0.730600  0.407000  0.595600  1.0  0.1046
  C  C105  1  0.782200  0.345000  0.623100  1.0  -0.0134
  C  C106  1  0.834500  0.388000  0.596000  1.0  0.1026
  C  C107  1  0.670700  0.565000  0.519800  1.0  0.7043
  C  C108  1  0.776200  0.293000  0.688500  1.0  0.6684
  C  C109  1  0.924400  0.610000  0.816600  1.0  -0.0479
  C  C110  1  0.948400  0.753000  0.780500  1.0  0.0589
  C  C111  1  0.919900  0.787000  0.724800  1.0  0.0075
  C  C112  1  0.859200  0.778000  0.724700  1.0  0.0994
  C  C113  1  0.828900  0.702000  0.773600  1.0  0.004
  C  C114  1  0.863700  0.601000  0.816600  1.0  0.1123
  C  C115  1  0.958700  0.855000  0.675000  1.0  0.7531
  C  C116  1  0.763000  0.706000  0.771600  1.0  0.7324
  O  O117  1  0.441800  0.786800  0.030800  1.0  -0.9224
  O  O118  1  0.445900  0.141000  0.021300  1.0  -0.9457
  O  O119  1  0.399500  0.993000  0.110400  1.0  -0.5045
  O  O120  1  0.175800  0.070000  0.084700  1.0  -0.4245
  O  O121  1  0.133100  0.038000  0.998000  1.0  -0.6477
  O  O122  1  0.328500  0.865000  0.820000  1.0  -0.4484
  O  O123  1  0.236100  0.796000  0.824500  1.0  -0.4681
  O  O124  1  0.600300  0.476000  0.921600  1.0  -0.5608
  O  O125  1  0.541400  0.273300  0.993200  1.0  -0.9292
  O  O126  1  0.549400  0.627000  0.007200  1.0  -0.9407
  O  O127  1  0.811600  0.509000  0.976600  1.0  -0.4198
  O  O128  1  0.847100  0.573000  0.063500  1.0  -0.5582
  O  O129  1  0.717700  0.296000  0.229100  1.0  -0.5151
  O  O130  1  0.624100  0.277000  0.207900  1.0  -0.471
  O  O131  1  0.570100  0.602000  0.424000  1.0  -0.8575
  O  O132  1  0.521900  0.381000  0.348600  1.0  -0.4655
  O  O133  1  0.482800  0.721000  0.363300  1.0  -0.5138
  O  O134  1  0.505300  0.921000  0.156100  1.0  -0.441
  O  O135  1  0.584500  0.941000  0.107000  1.0  -0.5836
  O  O136  1  0.764300  0.663000  0.317000  1.0  -0.4148
  O  O137  1  0.773500  0.794000  0.230800  1.0  -0.4154
  O  O138  1  0.544800  0.258000  0.549400  1.0  -0.9353
  O  O139  1  0.546800  0.913000  0.527600  1.0  -0.8794
  O  O140  1  0.601300  0.039000  0.619900  1.0  -0.5373
  O  O141  1  0.805300  0.902000  0.575000  1.0  -0.4284
  O  O142  1  0.848000  0.961000  0.492000  1.0  -0.6597
  O  O143  1  0.622000  0.196000  0.331400  1.0  -0.4424
  O  O144  1  0.714000  0.202000  0.316400  1.0  -0.5161
  O  O145  1  0.383800  0.592000  0.426400  1.0  -0.5014
  O  O146  1  0.434300  0.752000  0.513900  1.0  -0.9386
  O  O147  1  0.440400  0.407000  0.504600  1.0  -0.9507
  O  O148  1  0.152600  0.491000  0.470600  1.0  -0.4672
  O  O149  1  0.137400  0.407000  0.561900  1.0  -0.591
  O  O150  1  0.227000  0.692000  0.709800  1.0  -0.456
  O  O151  1  0.321400  0.730000  0.718500  1.0  -0.445
  O  O152  1  0.466300  0.576000  0.916800  1.0  -0.743
  O  O153  1  0.485100  0.738000  0.816600  1.0  -0.5348
  O  O154  1  0.537200  0.433000  0.846000  1.0  -0.5226
  O  O155  1  0.510500  0.198000  0.682000  1.0  -0.4304
  O  O156  1  0.438900  0.076000  0.628100  1.0  -0.6217
  O  O157  1  0.233400  0.333000  0.815600  1.0  -0.4176
  O  O158  1  0.234100  0.234000  0.727200  1.0  -0.4308
  O  O159  1  0.941800  0.213200  0.030800  1.0  -0.926
  O  O160  1  0.945900  0.859000  0.021300  1.0  -0.944
  O  O161  1  0.899500  0.007000  0.110400  1.0  -0.5036
  O  O162  1  0.675800  0.930000  0.084700  1.0  -0.4246
  O  O163  1  0.633100  0.962000  0.998000  1.0  -0.6481
  O  O164  1  0.828500  0.135000  0.820000  1.0  -0.4486
  O  O165  1  0.736100  0.204000  0.824500  1.0  -0.4678
  O  O166  1  0.100300  0.524000  0.921600  1.0  -0.5609
  O  O167  1  0.041400  0.726700  0.993200  1.0  -0.9313
  O  O168  1  0.049400  0.373000  0.007200  1.0  -0.9404
  O  O169  1  0.311600  0.491000  0.976600  1.0  -0.4199
  O  O170  1  0.347100  0.427000  0.063500  1.0  -0.558
  O  O171  1  0.217700  0.704000  0.229100  1.0  -0.515
  O  O172  1  0.124100  0.723000  0.207900  1.0  -0.4709
  O  O173  1  0.070100  0.398000  0.424000  1.0  -0.8574
  O  O174  1  0.021900  0.619000  0.348600  1.0  -0.4683
  O  O175  1  0.982800  0.279000  0.363300  1.0  -0.514
  O  O176  1  0.005300  0.079000  0.156100  1.0  -0.4407
  O  O177  1  0.084500  0.059000  0.107000  1.0  -0.584
  O  O178  1  0.264300  0.337000  0.317000  1.0  -0.415
  O  O179  1  0.273500  0.206000  0.230800  1.0  -0.4163
  O  O180  1  0.044800  0.742000  0.549400  1.0  -0.9343
  O  O181  1  0.046800  0.087000  0.527600  1.0  -0.8806
  O  O182  1  0.101300  0.961000  0.619900  1.0  -0.5372
  O  O183  1  0.305300  0.098000  0.575000  1.0  -0.4286
  O  O184  1  0.348000  0.039000  0.492000  1.0  -0.66
  O  O185  1  0.122000  0.804000  0.331400  1.0  -0.4423
  O  O186  1  0.214000  0.798000  0.316400  1.0  -0.5158
  O  O187  1  0.883800  0.408000  0.426400  1.0  -0.5015
  O  O188  1  0.934300  0.248000  0.513900  1.0  -0.9384
  O  O189  1  0.940400  0.593000  0.504600  1.0  -0.9508
  O  O190  1  0.652600  0.509000  0.470600  1.0  -0.467
  O  O191  1  0.637400  0.593000  0.561900  1.0  -0.5906
  O  O192  1  0.727000  0.308000  0.709800  1.0  -0.4561
  O  O193  1  0.821400  0.270000  0.718500  1.0  -0.4455
  O  O194  1  0.966300  0.424000  0.916800  1.0  -0.7431
  O  O195  1  0.985100  0.262000  0.816600  1.0  -0.5337
  O  O196  1  0.037200  0.567000  0.846000  1.0  -0.5217
  O  O197  1  0.010500  0.802000  0.682000  1.0  -0.4309
  O  O198  1  0.938900  0.924000  0.628100  1.0  -0.6212
  O  O199  1  0.733400  0.667000  0.815600  1.0  -0.4176
  O  O200  1  0.734100  0.766000  0.727200  1.0  -0.4304
