# generated using pymatgen
data_Ca2P3H17(C8O7)3
_symmetry_space_group_name_H-M   'P 1'
_cell_length_a   23.11200000
_cell_length_b   6.95340000
_cell_length_c   22.63800000
_cell_angle_alpha   90.00000000
_cell_angle_beta   90.00000000
_cell_angle_gamma   90.00000000
_symmetry_Int_Tables_number   1
_chemical_formula_structural   Ca2P3H17(C8O7)3
_chemical_formula_sum   'Ca8 P12 H68 C96 O84'
_cell_volume   3638.08463135
_cell_formula_units_Z   4
loop_
 _symmetry_equiv_pos_site_id
 _symmetry_equiv_pos_as_xyz
  1  'x, y, z'
loop_
 _atom_site_type_symbol
 _atom_site_label
 _atom_site_symmetry_multiplicity
 _atom_site_fract_x
 _atom_site_fract_y
 _atom_site_fract_z
 _atom_site_occupancy
 _atom_site_charge
  Ca  Ca1  1  0.468470  0.935700  0.501130  1.0  1.585
  Ca  Ca2  1  0.457070  0.563200  0.990930  1.0  1.5938
  Ca  Ca3  1  0.531530  0.064300  0.001130  1.0  1.5864
  Ca  Ca4  1  0.542930  0.436800  0.490930  1.0  1.5958
  Ca  Ca5  1  0.968470  0.064300  0.501130  1.0  1.585
  Ca  Ca6  1  0.957070  0.436800  0.990930  1.0  1.5954
  Ca  Ca7  1  0.031530  0.935700  0.001130  1.0  1.5861
  Ca  Ca8  1  0.042930  0.563200  0.490930  1.0  1.595
  P  P9  1  0.414840  0.437500  0.525880  1.0  1.5273
  P  P10  1  0.465570  0.918400  0.342650  1.0  1.4983
  P  P11  1  0.404790  0.064000  0.962940  1.0  1.5245
  P  P12  1  0.585160  0.562500  0.025880  1.0  1.5246
  P  P13  1  0.534430  0.081600  0.842650  1.0  1.4994
  P  P14  1  0.595210  0.936000  0.462940  1.0  1.5256
  P  P15  1  0.914840  0.562500  0.525880  1.0  1.5277
  P  P16  1  0.965570  0.081600  0.342650  1.0  1.496
  P  P17  1  0.904790  0.936000  0.962940  1.0  1.5248
  P  P18  1  0.085160  0.437500  0.025880  1.0  1.5242
  P  P19  1  0.034430  0.918400  0.842650  1.0  1.5015
  P  P20  1  0.095210  0.064000  0.462940  1.0  1.5252
  H  H21  1  0.380300  0.332200  0.600800  1.0  0.3859
  H  H22  1  0.346600  0.261500  0.266900  1.0  0.4077
  H  H23  1  0.156900  0.594900  0.569400  1.0  0.4299
  H  H24  1  0.476300  0.151500  0.291900  1.0  0.4707
  H  H25  1  0.203100  0.811300  0.300600  1.0  0.3759
  H  H26  1  0.410000  0.120300  0.876000  1.0  0.444
  H  H27  1  0.249500  0.156000  0.226200  1.0  0.4194
  H  H28  1  0.141600  0.916000  0.921300  1.0  0.4133
  H  H29  1  0.387300  0.355000  0.403800  1.0  0.1211
  H  H30  1  0.214100  0.450900  0.390600  1.0  0.1138
  H  H31  1  0.296400  0.532600  0.546600  1.0  0.1073
  H  H32  1  0.485100  0.729500  0.232800  1.0  0.1159
  H  H33  1  0.327500  0.626500  0.163100  1.0  0.1182
  H  H34  1  0.342300  0.877400  0.324900  1.0  0.096
  H  H35  1  0.377600  0.127600  0.081800  1.0  0.1103
  H  H36  1  0.205400  0.046000  0.098700  1.0  0.1089
  H  H37  1  0.283400  0.979500  0.939300  1.0  0.1084
  H  H38  1  0.619700  0.667800  0.100800  1.0  0.3889
  H  H39  1  0.653400  0.738500  0.766900  1.0  0.4085
  H  H40  1  0.843100  0.405100  0.069400  1.0  0.4301
  H  H41  1  0.523700  0.848500  0.791900  1.0  0.4687
  H  H42  1  0.796900  0.188700  0.800600  1.0  0.3751
  H  H43  1  0.590000  0.879700  0.376000  1.0  0.4439
  H  H44  1  0.750500  0.844000  0.726200  1.0  0.421
  H  H45  1  0.858400  0.084000  0.421300  1.0  0.413
  H  H46  1  0.612700  0.645000  0.903800  1.0  0.1213
  H  H47  1  0.785900  0.549100  0.890600  1.0  0.1135
  H  H48  1  0.703600  0.467400  0.046600  1.0  0.1074
  H  H49  1  0.514900  0.270500  0.732800  1.0  0.1159
  H  H50  1  0.672500  0.373500  0.663100  1.0  0.118
  H  H51  1  0.657700  0.122600  0.824900  1.0  0.0968
  H  H52  1  0.622400  0.872400  0.581800  1.0  0.1108
  H  H53  1  0.794600  0.954000  0.598700  1.0  0.1087
  H  H54  1  0.716600  0.020500  0.439300  1.0  0.1079
  H  H55  1  0.880300  0.667800  0.600800  1.0  0.3898
  H  H56  1  0.846600  0.738500  0.266900  1.0  0.4077
  H  H57  1  0.656900  0.405100  0.569400  1.0  0.4301
  H  H58  1  0.976300  0.848500  0.291900  1.0  0.4692
  H  H59  1  0.703100  0.188700  0.300600  1.0  0.3756
  H  H60  1  0.910000  0.879700  0.876000  1.0  0.4452
  H  H61  1  0.749500  0.844000  0.226200  1.0  0.4193
  H  H62  1  0.641600  0.084000  0.921300  1.0  0.4132
  H  H63  1  0.887300  0.645000  0.403800  1.0  0.1212
  H  H64  1  0.714100  0.549100  0.390600  1.0  0.1137
  H  H65  1  0.796400  0.467400  0.546600  1.0  0.1074
  H  H66  1  0.985100  0.270500  0.232800  1.0  0.116
  H  H67  1  0.827500  0.373500  0.163100  1.0  0.1183
  H  H68  1  0.842300  0.122600  0.324900  1.0  0.0963
  H  H69  1  0.877600  0.872400  0.081800  1.0  0.1104
  H  H70  1  0.705400  0.954000  0.098700  1.0  0.1089
  H  H71  1  0.783400  0.020500  0.939300  1.0  0.1082
  H  H72  1  0.119700  0.332200  0.100800  1.0  0.3858
  H  H73  1  0.153400  0.261500  0.766900  1.0  0.4086
  H  H74  1  0.343100  0.594900  0.069400  1.0  0.4296
  H  H75  1  0.023700  0.151500  0.791900  1.0  0.4697
  H  H76  1  0.296900  0.811300  0.800600  1.0  0.3754
  H  H77  1  0.090000  0.120300  0.376000  1.0  0.4431
  H  H78  1  0.250500  0.156000  0.726200  1.0  0.4209
  H  H79  1  0.358400  0.916000  0.421300  1.0  0.4135
  H  H80  1  0.112700  0.355000  0.903800  1.0  0.1211
  H  H81  1  0.285900  0.450900  0.890600  1.0  0.1134
  H  H82  1  0.203600  0.532600  0.046600  1.0  0.1073
  H  H83  1  0.014900  0.729500  0.732800  1.0  0.1159
  H  H84  1  0.172500  0.626500  0.663100  1.0  0.1182
  H  H85  1  0.157700  0.877400  0.824900  1.0  0.0963
  H  H86  1  0.122400  0.127600  0.581800  1.0  0.1107
  H  H87  1  0.294600  0.046000  0.598700  1.0  0.109
  H  H88  1  0.216600  0.979500  0.439300  1.0  0.1082
  C  C89  1  0.349700  0.440200  0.481300  1.0  -0.2953
  C  C90  1  0.351800  0.392100  0.421400  1.0  -0.0049
  C  C91  1  0.301000  0.398700  0.387500  1.0  -0.1297
  C  C92  1  0.300500  0.338000  0.324200  1.0  0.636
  C  C93  1  0.248500  0.450000  0.413600  1.0  -0.0088
  C  C94  1  0.246200  0.499800  0.472900  1.0  -0.1367
  C  C95  1  0.189600  0.551700  0.498900  1.0  0.6405
  C  C96  1  0.297500  0.496000  0.506200  1.0  -0.0144
  C  C97  1  0.419300  0.819000  0.285800  1.0  -0.306
  C  C98  1  0.444100  0.736000  0.236000  1.0  -0.0247
  C  C99  1  0.410400  0.663000  0.191500  1.0  -0.0705
  C  C100  1  0.441600  0.569000  0.138400  1.0  0.671
  C  C101  1  0.350800  0.672900  0.194600  1.0  -0.0862
  C  C102  1  0.324500  0.756000  0.246800  1.0  -0.0914
  C  C103  1  0.259600  0.748000  0.249800  1.0  0.6229
  C  C104  1  0.359400  0.825000  0.290300  1.0  -0.0322
  C  C105  1  0.339300  0.054100  0.004700  1.0  -0.2344
  C  C106  1  0.341200  0.098100  0.064500  1.0  -0.0472
  C  C107  1  0.292000  0.101000  0.100100  1.0  -0.1586
  C  C108  1  0.295400  0.166000  0.163200  1.0  0.6494
  C  C109  1  0.239300  0.048900  0.074900  1.0  -0.0394
  C  C110  1  0.235600  0.000800  0.014800  1.0  -0.1522
  C  C111  1  0.177900  0.957300  0.991300  1.0  0.5886
  C  C112  1  0.285900  0.007500  0.980300  1.0  -0.0091
  C  C113  1  0.650300  0.559800  0.981300  1.0  -0.2961
  C  C114  1  0.648200  0.607900  0.921400  1.0  -0.0053
  C  C115  1  0.699000  0.601300  0.887500  1.0  -0.1309
  C  C116  1  0.699500  0.662000  0.824200  1.0  0.6358
  C  C117  1  0.751500  0.550000  0.913600  1.0  -0.0092
  C  C118  1  0.753800  0.500200  0.972900  1.0  -0.1371
  C  C119  1  0.810400  0.448300  0.998900  1.0  0.6392
  C  C120  1  0.702500  0.504000  0.006200  1.0  -0.0141
  C  C121  1  0.580700  0.181000  0.785800  1.0  -0.3111
  C  C122  1  0.555900  0.264000  0.736000  1.0  -0.0232
  C  C123  1  0.589600  0.337000  0.691500  1.0  -0.0718
  C  C124  1  0.558400  0.431000  0.638400  1.0  0.6724
  C  C125  1  0.649200  0.327100  0.694600  1.0  -0.0853
  C  C126  1  0.675500  0.244000  0.746800  1.0  -0.0916
  C  C127  1  0.740400  0.252000  0.749800  1.0  0.624
  C  C128  1  0.640600  0.175000  0.790300  1.0  -0.0314
  C  C129  1  0.660700  0.945900  0.504700  1.0  -0.2356
  C  C130  1  0.658800  0.901900  0.564500  1.0  -0.0477
  C  C131  1  0.708000  0.899000  0.600100  1.0  -0.1595
  C  C132  1  0.704600  0.834000  0.663200  1.0  0.6496
  C  C133  1  0.760700  0.951100  0.574900  1.0  -0.0398
  C  C134  1  0.764400  0.999200  0.514800  1.0  -0.1518
  C  C135  1  0.822100  0.042700  0.491300  1.0  0.5882
  C  C136  1  0.714100  0.992500  0.480300  1.0  -0.0087
  C  C137  1  0.849700  0.559800  0.481300  1.0  -0.2952
  C  C138  1  0.851800  0.607900  0.421400  1.0  -0.005
  C  C139  1  0.801000  0.601300  0.387500  1.0  -0.1301
  C  C140  1  0.800500  0.662000  0.324200  1.0  0.6359
  C  C141  1  0.748500  0.550000  0.413600  1.0  -0.0089
  C  C142  1  0.746200  0.500200  0.472900  1.0  -0.1373
  C  C143  1  0.689600  0.448300  0.498900  1.0  0.6403
  C  C144  1  0.797500  0.504000  0.506200  1.0  -0.0143
  C  C145  1  0.919300  0.181000  0.285800  1.0  -0.3055
  C  C146  1  0.944100  0.264000  0.236000  1.0  -0.025
  C  C147  1  0.910400  0.337000  0.191500  1.0  -0.0706
  C  C148  1  0.941600  0.431000  0.138400  1.0  0.6713
  C  C149  1  0.850800  0.327100  0.194600  1.0  -0.0867
  C  C150  1  0.824500  0.244000  0.246800  1.0  -0.0913
  C  C151  1  0.759600  0.252000  0.249800  1.0  0.6234
  C  C152  1  0.859400  0.175000  0.290300  1.0  -0.0321
  C  C153  1  0.839300  0.945900  0.004700  1.0  -0.2344
  C  C154  1  0.841200  0.901900  0.064500  1.0  -0.047
  C  C155  1  0.792000  0.899000  0.100100  1.0  -0.1587
  C  C156  1  0.795400  0.834000  0.163200  1.0  0.6491
  C  C157  1  0.739300  0.951100  0.074900  1.0  -0.0393
  C  C158  1  0.735600  0.999200  0.014800  1.0  -0.1516
  C  C159  1  0.677900  0.042700  0.991300  1.0  0.5885
  C  C160  1  0.785900  0.992500  0.980300  1.0  -0.0095
  C  C161  1  0.150300  0.440200  0.981300  1.0  -0.2961
  C  C162  1  0.148200  0.392100  0.921400  1.0  -0.0052
  C  C163  1  0.199000  0.398700  0.887500  1.0  -0.1307
  C  C164  1  0.199500  0.338000  0.824200  1.0  0.6358
  C  C165  1  0.251500  0.450000  0.913600  1.0  -0.009
  C  C166  1  0.253800  0.499800  0.972900  1.0  -0.1368
  C  C167  1  0.310400  0.551700  0.998900  1.0  0.6394
  C  C168  1  0.202500  0.496000  0.006200  1.0  -0.0141
  C  C169  1  0.080700  0.819000  0.785800  1.0  -0.3116
  C  C170  1  0.055900  0.736000  0.736000  1.0  -0.0231
  C  C171  1  0.089600  0.663000  0.691500  1.0  -0.0719
  C  C172  1  0.058400  0.569000  0.638400  1.0  0.6722
  C  C173  1  0.149200  0.672900  0.694600  1.0  -0.085
  C  C174  1  0.175500  0.756000  0.746800  1.0  -0.0917
  C  C175  1  0.240400  0.748000  0.749800  1.0  0.6239
  C  C176  1  0.140600  0.825000  0.790300  1.0  -0.0315
  C  C177  1  0.160700  0.054100  0.504700  1.0  -0.2355
  C  C178  1  0.158800  0.098100  0.564500  1.0  -0.048
  C  C179  1  0.208000  0.101000  0.600100  1.0  -0.1594
  C  C180  1  0.204600  0.166000  0.663200  1.0  0.6498
  C  C181  1  0.260700  0.048900  0.574900  1.0  -0.0399
  C  C182  1  0.264400  0.000800  0.514800  1.0  -0.152
  C  C183  1  0.322100  0.957300  0.491300  1.0  0.5883
  C  C184  1  0.214100  0.007500  0.480300  1.0  -0.0083
  O  O185  1  0.451300  0.611900  0.514800  1.0  -0.9872
  O  O186  1  0.450800  0.258600  0.513500  1.0  -1.0039
  O  O187  1  0.391100  0.442900  0.590800  1.0  -0.6393
  O  O188  1  0.350700  0.302700  0.301600  1.0  -0.498
  O  O189  1  0.253000  0.317900  0.296800  1.0  -0.5711
  O  O190  1  0.190800  0.581700  0.556800  1.0  -0.4972
  O  O191  1  0.145100  0.561500  0.469300  1.0  -0.5979
  O  O192  1  0.434100  0.913600  0.401600  1.0  -0.8739
  O  O193  1  0.523400  0.810900  0.339900  1.0  -0.7768
  O  O194  1  0.474000  0.136100  0.328700  1.0  -0.6419
  O  O195  1  0.416100  0.586600  0.087000  1.0  -0.6926
  O  O196  1  0.482300  0.462800  0.146600  1.0  -0.4721
  O  O197  1  0.239400  0.818900  0.300300  1.0  -0.5113
  O  O198  1  0.230100  0.685200  0.209100  1.0  -0.5306
  O  O199  1  0.440000  0.234600  0.980900  1.0  -0.923
  O  O200  1  0.441500  0.883900  0.973200  1.0  -0.9878
  O  O201  1  0.383200  0.077400  0.897400  1.0  -0.6667
  O  O202  1  0.245000  0.173200  0.189800  1.0  -0.5175
  O  O203  1  0.342100  0.205700  0.186400  1.0  -0.5539
  O  O204  1  0.176200  0.926100  0.932300  1.0  -0.4949
  O  O205  1  0.134600  0.950800  0.021400  1.0  -0.6053
  O  O206  1  0.548700  0.388100  0.014800  1.0  -0.9842
  O  O207  1  0.549200  0.741400  0.013500  1.0  -1.0061
  O  O208  1  0.608900  0.557100  0.090800  1.0  -0.6386
  O  O209  1  0.649300  0.697300  0.801600  1.0  -0.4988
  O  O210  1  0.747000  0.682100  0.796800  1.0  -0.5692
  O  O211  1  0.809200  0.418300  0.056800  1.0  -0.4979
  O  O212  1  0.854900  0.438500  0.969300  1.0  -0.5973
  O  O213  1  0.565900  0.086400  0.901600  1.0  -0.8748
  O  O214  1  0.476600  0.189100  0.839900  1.0  -0.7754
  O  O215  1  0.526000  0.863900  0.828700  1.0  -0.6409
  O  O216  1  0.583900  0.413400  0.587000  1.0  -0.6929
  O  O217  1  0.517700  0.537200  0.646600  1.0  -0.4733
  O  O218  1  0.760600  0.181100  0.800300  1.0  -0.5123
  O  O219  1  0.769900  0.314800  0.709100  1.0  -0.5285
  O  O220  1  0.560000  0.765400  0.480900  1.0  -0.9207
  O  O221  1  0.558500  0.116100  0.473200  1.0  -0.9889
  O  O222  1  0.616800  0.922600  0.397400  1.0  -0.6683
  O  O223  1  0.755000  0.826800  0.689800  1.0  -0.5179
  O  O224  1  0.657900  0.794300  0.686400  1.0  -0.5532
  O  O225  1  0.823800  0.073900  0.432300  1.0  -0.4959
  O  O226  1  0.865400  0.049200  0.521400  1.0  -0.6064
  O  O227  1  0.951300  0.388100  0.514800  1.0  -0.9845
  O  O228  1  0.950800  0.741400  0.513500  1.0  -1.006
  O  O229  1  0.891100  0.557100  0.590800  1.0  -0.6392
  O  O230  1  0.850700  0.697300  0.301600  1.0  -0.4977
  O  O231  1  0.753000  0.682100  0.296800  1.0  -0.571
  O  O232  1  0.690800  0.418300  0.556800  1.0  -0.4972
  O  O233  1  0.645100  0.438500  0.469300  1.0  -0.598
  O  O234  1  0.934100  0.086400  0.401600  1.0  -0.8741
  O  O235  1  0.023400  0.189100  0.339900  1.0  -0.7754
  O  O236  1  0.974000  0.863900  0.328700  1.0  -0.6408
  O  O237  1  0.916100  0.413400  0.087000  1.0  -0.6933
  O  O238  1  0.982300  0.537200  0.146600  1.0  -0.4721
  O  O239  1  0.739400  0.181100  0.300300  1.0  -0.5111
  O  O240  1  0.730100  0.314800  0.209100  1.0  -0.5296
  O  O241  1  0.940000  0.765400  0.980900  1.0  -0.9197
  O  O242  1  0.941500  0.116100  0.973200  1.0  -0.9893
  O  O243  1  0.883200  0.922600  0.897400  1.0  -0.6677
  O  O244  1  0.745000  0.826800  0.189800  1.0  -0.5174
  O  O245  1  0.842100  0.794300  0.186400  1.0  -0.5538
  O  O246  1  0.676200  0.073900  0.932300  1.0  -0.4945
  O  O247  1  0.634600  0.049200  0.021400  1.0  -0.6054
  O  O248  1  0.048700  0.611900  0.014800  1.0  -0.9868
  O  O249  1  0.049200  0.258600  0.013500  1.0  -1.0038
  O  O250  1  0.108900  0.442900  0.090800  1.0  -0.6383
  O  O251  1  0.149300  0.302700  0.801600  1.0  -0.4988
  O  O252  1  0.247000  0.317900  0.796800  1.0  -0.5693
  O  O253  1  0.309200  0.581700  0.056800  1.0  -0.4977
  O  O254  1  0.354900  0.561500  0.969300  1.0  -0.5973
  O  O255  1  0.065900  0.913600  0.901600  1.0  -0.8748
  O  O256  1  0.976600  0.810900  0.839900  1.0  -0.7767
  O  O257  1  0.026000  0.136100  0.828700  1.0  -0.6417
  O  O258  1  0.083900  0.586600  0.587000  1.0  -0.6923
  O  O259  1  0.017700  0.462800  0.646600  1.0  -0.4731
  O  O260  1  0.260600  0.818900  0.800300  1.0  -0.512
  O  O261  1  0.269900  0.685200  0.709100  1.0  -0.529
  O  O262  1  0.060000  0.234600  0.480900  1.0  -0.9246
  O  O263  1  0.058500  0.883900  0.473200  1.0  -0.9875
  O  O264  1  0.116800  0.077400  0.397400  1.0  -0.6673
  O  O265  1  0.255000  0.173200  0.689800  1.0  -0.5175
  O  O266  1  0.157900  0.205700  0.686400  1.0  -0.5532
  O  O267  1  0.323800  0.926100  0.432300  1.0  -0.4962
  O  O268  1  0.365400  0.950800  0.521400  1.0  -0.6064
