# generated using pymatgen
data_Ag3H24(C3N2)4
_symmetry_space_group_name_H-M   'P 1'
_cell_length_a   6.53300000
_cell_length_b   10.45300000
_cell_length_c   19.29300000
_cell_angle_alpha   90.00000000
_cell_angle_beta   90.00000000
_cell_angle_gamma   90.00000000
_symmetry_Int_Tables_number   1
_chemical_formula_structural   Ag3H24(C3N2)4
_chemical_formula_sum   'Ag6 H48 C24 N16'
_cell_volume   1317.50833956
_cell_formula_units_Z   2
loop_
 _symmetry_equiv_pos_site_id
 _symmetry_equiv_pos_as_xyz
  1  'x, y, z'
loop_
 _atom_site_type_symbol
 _atom_site_label
 _atom_site_symmetry_multiplicity
 _atom_site_fract_x
 _atom_site_fract_y
 _atom_site_fract_z
 _atom_site_occupancy
 _atom_site_charge
  Ag  Ag1  1  0.500000  0.177630  0.703430  1.0  -0.0691
  Ag  Ag2  1  0.500000  0.822370  0.296570  1.0  -0.069
  Ag  Ag3  1  0.000000  0.322370  0.203430  1.0  -0.0681
  Ag  Ag4  1  0.000000  0.677630  0.796570  1.0  -0.0689
  Ag  Ag5  1  0.500000  0.000000  0.000000  1.0  0.016
  Ag  Ag6  1  0.000000  0.500000  0.500000  1.0  0.016
  H  H7  1  0.620200  0.086200  0.852500  1.0  0.0515
  H  H8  1  0.314700  0.880500  0.711300  1.0  0.0382
  H  H9  1  0.194400  0.961300  0.766500  1.0  0.0466
  H  H10  1  0.193800  0.893700  0.888500  1.0  0.0513
  H  H11  1  0.316700  0.771300  0.910600  1.0  0.0412
  H  H12  1  0.620200  0.913800  0.147500  1.0  0.0517
  H  H13  1  0.314700  0.119500  0.288700  1.0  0.0391
  H  H14  1  0.194400  0.038700  0.233500  1.0  0.0467
  H  H15  1  0.193800  0.106300  0.111500  1.0  0.0525
  H  H16  1  0.316700  0.228700  0.089400  1.0  0.0392
  H  H17  1  0.879800  0.413800  0.352500  1.0  0.0535
  H  H18  1  0.185300  0.619500  0.211300  1.0  0.0384
  H  H19  1  0.305600  0.538700  0.266500  1.0  0.0483
  H  H20  1  0.306200  0.606300  0.388500  1.0  0.0541
  H  H21  1  0.183300  0.728700  0.410600  1.0  0.0401
  H  H22  1  0.879800  0.586200  0.647500  1.0  0.0523
  H  H23  1  0.185300  0.380500  0.788700  1.0  0.0392
  H  H24  1  0.305600  0.461300  0.733500  1.0  0.0472
  H  H25  1  0.306200  0.393700  0.611500  1.0  0.0556
  H  H26  1  0.183300  0.271300  0.589400  1.0  0.0384
  H  H27  1  0.379800  0.913800  0.147500  1.0  0.0526
  H  H28  1  0.685300  0.119500  0.288700  1.0  0.0393
  H  H29  1  0.805600  0.038700  0.233500  1.0  0.0478
  H  H30  1  0.806200  0.106300  0.111500  1.0  0.0556
  H  H31  1  0.683300  0.228700  0.089400  1.0  0.0393
  H  H32  1  0.379800  0.086200  0.852500  1.0  0.0523
  H  H33  1  0.685300  0.880500  0.711300  1.0  0.0387
  H  H34  1  0.805600  0.961300  0.766500  1.0  0.0481
  H  H35  1  0.806200  0.893700  0.888500  1.0  0.0529
  H  H36  1  0.683300  0.771300  0.910600  1.0  0.0408
  H  H37  1  0.120200  0.586200  0.647500  1.0  0.0521
  H  H38  1  0.814700  0.380500  0.788700  1.0  0.0391
  H  H39  1  0.694400  0.461300  0.733500  1.0  0.0457
  H  H40  1  0.693800  0.393700  0.611500  1.0  0.0524
  H  H41  1  0.816700  0.271300  0.589400  1.0  0.0384
  H  H42  1  0.120200  0.413800  0.352500  1.0  0.052
  H  H43  1  0.814700  0.619500  0.211300  1.0  0.0377
  H  H44  1  0.694400  0.538700  0.266500  1.0  0.0473
  H  H45  1  0.693800  0.606300  0.388500  1.0  0.0523
  H  H46  1  0.816700  0.728700  0.410600  1.0  0.0405
  H  H47  1  0.500000  0.689800  0.746700  1.0  0.0698
  H  H48  1  0.500000  0.647100  0.824700  1.0  0.0486
  H  H49  1  0.500000  0.310200  0.253300  1.0  0.069
  H  H50  1  0.500000  0.352900  0.175300  1.0  0.0494
  H  H51  1  0.000000  0.810200  0.246700  1.0  0.0698
  H  H52  1  0.000000  0.852900  0.324700  1.0  0.0492
  H  H53  1  0.000000  0.189800  0.753300  1.0  0.0696
  H  H54  1  0.000000  0.147100  0.675300  1.0  0.0463
  C  C55  1  0.316100  0.909900  0.759000  1.0  0.0808
  C  C56  1  0.316100  0.843900  0.879300  1.0  0.0703
  C  C57  1  0.316100  0.090100  0.241000  1.0  0.081
  C  C58  1  0.316100  0.156100  0.120700  1.0  0.0687
  C  C59  1  0.183900  0.590100  0.259000  1.0  0.0803
  C  C60  1  0.183900  0.656100  0.379300  1.0  0.0689
  C  C61  1  0.183900  0.409900  0.741000  1.0  0.0804
  C  C62  1  0.183900  0.343900  0.620700  1.0  0.0669
  C  C63  1  0.683900  0.090100  0.241000  1.0  0.0802
  C  C64  1  0.683900  0.156100  0.120700  1.0  0.0689
  C  C65  1  0.683900  0.909900  0.759000  1.0  0.0802
  C  C66  1  0.683900  0.843900  0.879300  1.0  0.0689
  C  C67  1  0.816100  0.409900  0.741000  1.0  0.0809
  C  C68  1  0.816100  0.343900  0.620700  1.0  0.0661
  C  C69  1  0.816100  0.590100  0.259000  1.0  0.0805
  C  C70  1  0.816100  0.656100  0.379300  1.0  0.0689
  C  C71  1  0.500000  0.033900  0.844100  1.0  0.0824
  C  C72  1  0.500000  0.720800  0.794100  1.0  0.0731
  C  C73  1  0.500000  0.966100  0.155900  1.0  0.0832
  C  C74  1  0.500000  0.279200  0.205900  1.0  0.0722
  C  C75  1  0.000000  0.466100  0.344100  1.0  0.0856
  C  C76  1  0.000000  0.779200  0.294100  1.0  0.0726
  C  C77  1  0.000000  0.533900  0.655900  1.0  0.0825
  C  C78  1  0.000000  0.220800  0.705900  1.0  0.0729
  N  N79  1  0.311600  0.797200  0.806400  1.0  -0.2591
  N  N80  1  0.311600  0.202800  0.193600  1.0  -0.2578
  N  N81  1  0.188400  0.702800  0.306400  1.0  -0.2588
  N  N82  1  0.188400  0.297200  0.693600  1.0  -0.2589
  N  N83  1  0.688400  0.202800  0.193600  1.0  -0.2586
  N  N84  1  0.688400  0.797200  0.806400  1.0  -0.2593
  N  N85  1  0.811600  0.297200  0.693600  1.0  -0.2584
  N  N86  1  0.811600  0.702800  0.306400  1.0  -0.2584
  N  N87  1  0.500000  0.989700  0.770700  1.0  -0.2435
  N  N88  1  0.500000  0.924100  0.892400  1.0  -0.2129
  N  N89  1  0.500000  0.010300  0.229300  1.0  -0.2443
  N  N90  1  0.500000  0.075900  0.107600  1.0  -0.2123
  N  N91  1  0.000000  0.510300  0.270700  1.0  -0.245
  N  N92  1  0.000000  0.575900  0.392400  1.0  -0.2128
  N  N93  1  0.000000  0.489700  0.729300  1.0  -0.2444
  N  N94  1  0.000000  0.424100  0.607600  1.0  -0.2108
