# generated using pymatgen
data_Cu3H32C48(N3O4)2
_symmetry_space_group_name_H-M   'P 1'
_cell_length_a   13.28310000
_cell_length_b   22.74390000
_cell_length_c   18.63540000
_cell_angle_alpha   90.00000000
_cell_angle_beta   109.05000000
_cell_angle_gamma   90.00000000
_symmetry_Int_Tables_number   1
_chemical_formula_structural   Cu3H32C48(N3O4)2
_chemical_formula_sum   'Cu12 H128 C192 N24 O32'
_cell_volume   5321.60310527
_cell_formula_units_Z   4
loop_
 _symmetry_equiv_pos_site_id
 _symmetry_equiv_pos_as_xyz
  1  'x, y, z'
loop_
 _atom_site_type_symbol
 _atom_site_label
 _atom_site_symmetry_multiplicity
 _atom_site_fract_x
 _atom_site_fract_y
 _atom_site_fract_z
 _atom_site_occupancy
 _atom_site_charge
  Cu  Cu1  1  0.447270  0.262610  0.512990  1.0  0.8083
  Cu  Cu2  1  0.253190  0.366680  0.508320  1.0  0.8769
  Cu  Cu3  1  0.065030  0.236620  0.015680  1.0  0.8215
  Cu  Cu4  1  0.552730  0.762610  0.987010  1.0  0.8088
  Cu  Cu5  1  0.746810  0.866680  0.991680  1.0  0.8768
  Cu  Cu6  1  0.934970  0.736620  0.484320  1.0  0.8206
  Cu  Cu7  1  0.552730  0.737390  0.487010  1.0  0.8092
  Cu  Cu8  1  0.746810  0.633320  0.491680  1.0  0.8751
  Cu  Cu9  1  0.934970  0.763380  0.984320  1.0  0.8211
  Cu  Cu10  1  0.447270  0.237390  0.012990  1.0  0.8085
  Cu  Cu11  1  0.253190  0.133320  0.008320  1.0  0.8752
  Cu  Cu12  1  0.065030  0.263380  0.515680  1.0  0.8212
  H  H13  1  0.532800  0.341100  0.407100  1.0  0.0599
  H  H14  1  0.598900  0.324000  0.308600  1.0  0.0949
  H  H15  1  0.606500  0.229300  0.265500  1.0  0.1184
  H  H16  1  0.410800  0.019200  0.431300  1.0  0.1086
  H  H17  1  0.348800  0.048300  0.528200  1.0  0.1041
  H  H18  1  0.360100  0.146700  0.563700  1.0  0.0703
  H  H19  1  0.561800  0.120000  0.273900  1.0  0.0968
  H  H20  1  0.495600  0.048200  0.330800  1.0  0.0941
  H  H21  1  0.202200  0.385500  0.333600  1.0  0.0685
  H  H22  1  0.186300  0.466600  0.254400  1.0  0.0897
  H  H23  1  0.201100  0.560000  0.303400  1.0  0.1064
  H  H24  1  0.297100  0.579400  0.677600  1.0  0.0956
  H  H25  1  0.315200  0.492500  0.742500  1.0  0.1005
  H  H26  1  0.301200  0.403600  0.678100  1.0  0.0741
  H  H27  1  0.230500  0.625400  0.421200  1.0  0.0953
  H  H28  1  0.262200  0.632600  0.548200  1.0  0.0893
  H  H29  1  0.130600  0.362600  0.977300  1.0  0.0691
  H  H30  1  0.111300  0.457600  0.016900  1.0  0.1032
  H  H31  1  0.039200  0.472200  0.112400  1.0  0.108
  H  H32  1  0.903100  0.232200  0.263700  1.0  0.1163
  H  H33  1  0.933700  0.143400  0.214900  1.0  0.0934
  H  H34  1  0.002400  0.141100  0.115600  1.0  0.0664
  H  H35  1  0.966700  0.426100  0.212400  1.0  0.0911
  H  H36  1  0.919100  0.345100  0.262600  1.0  0.0853
  H  H37  1  0.346900  0.208400  0.706400  1.0  0.0922
  H  H38  1  0.229300  0.306500  0.716100  1.0  0.0845
  H  H39  1  0.539900  0.463600  0.614700  1.0  0.0887
  H  H40  1  0.468400  0.446400  0.459400  1.0  0.0873
  H  H41  1  0.167600  0.304500  0.828200  1.0  0.0902
  H  H42  1  0.286000  0.207600  0.815600  1.0  0.0787
  H  H43  1  0.959000  0.454700  0.389800  1.0  0.0822
  H  H44  1  0.036900  0.449600  0.546500  1.0  0.0809
  H  H45  1  0.467200  0.841100  0.092900  1.0  0.06
  H  H46  1  0.401100  0.824000  0.191400  1.0  0.0952
  H  H47  1  0.393500  0.729300  0.234500  1.0  0.1182
  H  H48  1  0.589200  0.519200  0.068700  1.0  0.1084
  H  H49  1  0.651200  0.548300  0.971800  1.0  0.1037
  H  H50  1  0.639900  0.646700  0.936300  1.0  0.0709
  H  H51  1  0.438200  0.620000  0.226100  1.0  0.0965
  H  H52  1  0.504400  0.548200  0.169200  1.0  0.0938
  H  H53  1  0.797800  0.885500  0.166400  1.0  0.0682
  H  H54  1  0.813700  0.966600  0.245600  1.0  0.0899
  H  H55  1  0.798900  0.060000  0.196600  1.0  0.1068
  H  H56  1  0.702900  0.079400  0.822400  1.0  0.0958
  H  H57  1  0.684800  0.992500  0.757500  1.0  0.1002
  H  H58  1  0.698800  0.903600  0.821900  1.0  0.0738
  H  H59  1  0.769500  0.125400  0.078800  1.0  0.0951
  H  H60  1  0.737800  0.132600  0.951800  1.0  0.0895
  H  H61  1  0.869400  0.862600  0.522700  1.0  0.0673
  H  H62  1  0.888700  0.957600  0.483100  1.0  0.1034
  H  H63  1  0.960800  0.972200  0.387600  1.0  0.1081
  H  H64  1  0.096900  0.732200  0.236300  1.0  0.1163
  H  H65  1  0.066300  0.643400  0.285100  1.0  0.0929
  H  H66  1  0.997600  0.641100  0.384400  1.0  0.0666
  H  H67  1  0.033300  0.926100  0.287600  1.0  0.0908
  H  H68  1  0.080900  0.845100  0.237400  1.0  0.0857
  H  H69  1  0.653100  0.708400  0.793600  1.0  0.0925
  H  H70  1  0.770700  0.806500  0.783900  1.0  0.0847
  H  H71  1  0.460100  0.963600  0.885300  1.0  0.0902
  H  H72  1  0.531600  0.946400  0.040600  1.0  0.086
  H  H73  1  0.832400  0.804500  0.671800  1.0  0.09
  H  H74  1  0.714000  0.707600  0.684400  1.0  0.0794
  H  H75  1  0.041000  0.954700  0.110200  1.0  0.0807
  H  H76  1  0.963100  0.949600  0.953500  1.0  0.0804
  H  H77  1  0.467200  0.658900  0.592900  1.0  0.0602
  H  H78  1  0.401100  0.676000  0.691400  1.0  0.0952
  H  H79  1  0.393500  0.770700  0.734500  1.0  0.1181
  H  H80  1  0.589200  0.980800  0.568700  1.0  0.1085
  H  H81  1  0.651200  0.951700  0.471800  1.0  0.1036
  H  H82  1  0.639900  0.853300  0.436300  1.0  0.071
  H  H83  1  0.438200  0.880000  0.726100  1.0  0.0961
  H  H84  1  0.504400  0.951800  0.669200  1.0  0.0935
  H  H85  1  0.797800  0.614500  0.666400  1.0  0.0682
  H  H86  1  0.813700  0.533400  0.745600  1.0  0.09
  H  H87  1  0.798900  0.440000  0.696600  1.0  0.1069
  H  H88  1  0.702900  0.420600  0.322400  1.0  0.0954
  H  H89  1  0.684800  0.507500  0.257500  1.0  0.1
  H  H90  1  0.698800  0.596400  0.321900  1.0  0.074
  H  H91  1  0.769500  0.374600  0.578800  1.0  0.0949
  H  H92  1  0.737800  0.367400  0.451800  1.0  0.0893
  H  H93  1  0.869400  0.637400  0.022700  1.0  0.067
  H  H94  1  0.888700  0.542400  0.983100  1.0  0.1034
  H  H95  1  0.960800  0.527800  0.887600  1.0  0.1077
  H  H96  1  0.096900  0.767800  0.736300  1.0  0.1161
  H  H97  1  0.066300  0.856600  0.785100  1.0  0.0933
  H  H98  1  0.997600  0.858900  0.884400  1.0  0.0669
  H  H99  1  0.033300  0.573900  0.787600  1.0  0.0904
  H  H100  1  0.080900  0.654900  0.737400  1.0  0.086
  H  H101  1  0.653100  0.791600  0.293600  1.0  0.0929
  H  H102  1  0.770700  0.693500  0.283900  1.0  0.0846
  H  H103  1  0.460100  0.536400  0.385300  1.0  0.0903
  H  H104  1  0.531600  0.553600  0.540600  1.0  0.0861
  H  H105  1  0.832400  0.695500  0.171800  1.0  0.091
  H  H106  1  0.714000  0.792400  0.184400  1.0  0.079
  H  H107  1  0.041000  0.545300  0.610200  1.0  0.0808
  H  H108  1  0.963100  0.550400  0.453500  1.0  0.0817
  H  H109  1  0.532800  0.158900  0.907100  1.0  0.0601
  H  H110  1  0.598900  0.176000  0.808600  1.0  0.0946
  H  H111  1  0.606500  0.270700  0.765500  1.0  0.1184
  H  H112  1  0.410800  0.480800  0.931300  1.0  0.1086
  H  H113  1  0.348800  0.451700  0.028200  1.0  0.1035
  H  H114  1  0.360100  0.353300  0.063700  1.0  0.0704
  H  H115  1  0.561800  0.380000  0.773900  1.0  0.0969
  H  H116  1  0.495600  0.451800  0.830800  1.0  0.0937
  H  H117  1  0.202200  0.114500  0.833600  1.0  0.0686
  H  H118  1  0.186300  0.033400  0.754400  1.0  0.0897
  H  H119  1  0.201100  0.940000  0.803400  1.0  0.1064
  H  H120  1  0.297100  0.920600  0.177600  1.0  0.0959
  H  H121  1  0.315200  0.007500  0.242500  1.0  0.1005
  H  H122  1  0.301200  0.096400  0.178100  1.0  0.074
  H  H123  1  0.230500  0.874600  0.921200  1.0  0.0949
  H  H124  1  0.262200  0.867400  0.048200  1.0  0.0898
  H  H125  1  0.130600  0.137400  0.477300  1.0  0.069
  H  H126  1  0.111300  0.042400  0.516900  1.0  0.1032
  H  H127  1  0.039200  0.027800  0.612400  1.0  0.1078
  H  H128  1  0.903100  0.267800  0.763700  1.0  0.1162
  H  H129  1  0.933700  0.356600  0.714900  1.0  0.0931
  H  H130  1  0.002400  0.358900  0.615600  1.0  0.0671
  H  H131  1  0.966700  0.073900  0.712400  1.0  0.0908
  H  H132  1  0.919100  0.154900  0.762600  1.0  0.0856
  H  H133  1  0.346900  0.291600  0.206400  1.0  0.0926
  H  H134  1  0.229300  0.193500  0.216100  1.0  0.0844
  H  H135  1  0.539900  0.036400  0.114700  1.0  0.0886
  H  H136  1  0.468400  0.053600  0.959400  1.0  0.0876
  H  H137  1  0.167600  0.195500  0.328200  1.0  0.091
  H  H138  1  0.286000  0.292400  0.315600  1.0  0.0789
  H  H139  1  0.959000  0.045300  0.889800  1.0  0.0825
  H  H140  1  0.036900  0.050400  0.046500  1.0  0.0806
  C  C141  1  0.534300  0.302380  0.389900  1.0  0.1631
  C  C142  1  0.574400  0.292300  0.330700  1.0  -0.1536
  C  C143  1  0.578200  0.236400  0.304700  1.0  -0.0707
  C  C144  1  0.539100  0.189900  0.337600  1.0  -0.0464
  C  C145  1  0.499700  0.203930  0.396000  1.0  0.1496
  C  C146  1  0.458500  0.158960  0.432300  1.0  0.1356
  C  C147  1  0.456400  0.100460  0.408200  1.0  0.035
  C  C148  1  0.414200  0.058950  0.445600  1.0  -0.0466
  C  C149  1  0.377700  0.076000  0.503000  1.0  -0.1442
  C  C150  1  0.384100  0.135290  0.523500  1.0  0.1639
  C  C151  1  0.536000  0.129900  0.313700  1.0  -0.1072
  C  C152  1  0.496600  0.087300  0.347500  1.0  -0.1113
  C  C153  1  0.209800  0.423440  0.354700  1.0  0.1586
  C  C154  1  0.199400  0.472180  0.306700  1.0  -0.1379
  C  C155  1  0.208000  0.527260  0.335500  1.0  -0.0583
  C  C156  1  0.227500  0.535170  0.413600  1.0  -0.0177
  C  C157  1  0.238500  0.484440  0.457400  1.0  0.1249
  C  C158  1  0.261300  0.488410  0.537900  1.0  0.1328
  C  C159  1  0.270300  0.543680  0.572800  1.0  0.0066
  C  C160  1  0.290800  0.543600  0.651400  1.0  -0.0495
  C  C161  1  0.301700  0.492350  0.689800  1.0  -0.1479
  C  C162  1  0.292900  0.438970  0.650800  1.0  0.1554
  C  C163  1  0.237600  0.590930  0.450200  1.0  -0.1119
  C  C164  1  0.257100  0.595230  0.525800  1.0  -0.1364
  C  C165  1  0.102600  0.368090  0.017100  1.0  0.1455
  C  C166  1  0.090700  0.425320  0.040300  1.0  -0.1535
  C  C167  1  0.048800  0.433850  0.097000  1.0  -0.0586
  C  C168  1  0.020000  0.385520  0.132600  1.0  0.025
  C  C169  1  0.034400  0.329940  0.105400  1.0  0.1336
  C  C170  1  0.003000  0.278720  0.137000  1.0  0.1478
  C  C171  1  0.960500  0.283070  0.196200  1.0  -0.0445
  C  C172  1  0.933100  0.231200  0.224500  1.0  -0.0575
  C  C173  1  0.950100  0.178800  0.195000  1.0  -0.1319
  C  C174  1  0.991600  0.177650  0.135500  1.0  0.1524
  C  C175  1  0.976000  0.389000  0.193200  1.0  -0.1168
  C  C176  1  0.947900  0.341000  0.223000  1.0  -0.1234
  C  C177  1  0.326500  0.272250  0.621600  1.0  0.6524
  C  C178  1  0.315000  0.245190  0.690800  1.0  -0.1665
  C  C179  1  0.262100  0.270000  0.731900  1.0  -0.0882
  C  C180  1  0.519500  0.375990  0.578500  1.0  0.6744
  C  C181  1  0.520200  0.440740  0.570200  1.0  -0.1627
  C  C182  1  0.494800  0.468840  0.503900  1.0  -0.0831
  C  C183  1  0.187200  0.237980  0.908900  1.0  0.6716
  C  C184  1  0.199100  0.267390  0.841900  1.0  -0.1538
  C  C185  1  0.252200  0.243910  0.799900  1.0  -0.0739
  C  C186  1  0.984000  0.371050  0.438500  1.0  0.684
  C  C187  1  0.980700  0.435710  0.437200  1.0  -0.2007
  C  C188  1  0.007000  0.468650  0.499600  1.0  -0.0782
  C  C189  1  0.465700  0.802380  0.110100  1.0  0.1629
  C  C190  1  0.425600  0.792300  0.169300  1.0  -0.155
  C  C191  1  0.421800  0.736400  0.195300  1.0  -0.0706
  C  C192  1  0.460900  0.689900  0.162400  1.0  -0.0458
  C  C193  1  0.500300  0.703930  0.104000  1.0  0.1507
  C  C194  1  0.541500  0.658960  0.067700  1.0  0.136
  C  C195  1  0.543600  0.600460  0.091800  1.0  0.0352
  C  C196  1  0.585800  0.558950  0.054400  1.0  -0.047
  C  C197  1  0.622300  0.576000  0.997000  1.0  -0.1425
  C  C198  1  0.615900  0.635290  0.976500  1.0  0.164
  C  C199  1  0.464000  0.629900  0.186300  1.0  -0.1075
  C  C200  1  0.503400  0.587300  0.152500  1.0  -0.1111
  C  C201  1  0.790200  0.923440  0.145300  1.0  0.1569
  C  C202  1  0.800600  0.972180  0.193300  1.0  -0.1398
  C  C203  1  0.792000  0.027260  0.164500  1.0  -0.0612
  C  C204  1  0.772500  0.035170  0.086400  1.0  -0.0189
  C  C205  1  0.761500  0.984440  0.042600  1.0  0.126
  C  C206  1  0.738700  0.988410  0.962100  1.0  0.1326
  C  C207  1  0.729700  0.043680  0.927200  1.0  0.0066
  C  C208  1  0.709200  0.043600  0.848600  1.0  -0.0475
  C  C209  1  0.698300  0.992350  0.810200  1.0  -0.1479
  C  C210  1  0.707100  0.938970  0.849200  1.0  0.1553
  C  C211  1  0.762400  0.090930  0.049800  1.0  -0.1112
  C  C212  1  0.742900  0.095230  0.974200  1.0  -0.1374
  C  C213  1  0.897400  0.868090  0.482900  1.0  0.1452
  C  C214  1  0.909300  0.925320  0.459700  1.0  -0.1548
  C  C215  1  0.951200  0.933850  0.403000  1.0  -0.0568
  C  C216  1  0.980000  0.885520  0.367400  1.0  0.0239
  C  C217  1  0.965600  0.829940  0.394600  1.0  0.1353
  C  C218  1  0.997000  0.778720  0.363000  1.0  0.1461
  C  C219  1  0.039500  0.783070  0.303800  1.0  -0.0442
  C  C220  1  0.066900  0.731200  0.275500  1.0  -0.0595
  C  C221  1  0.049900  0.678800  0.305000  1.0  -0.1309
  C  C222  1  0.008400  0.677650  0.364500  1.0  0.1531
  C  C223  1  0.024000  0.889000  0.306800  1.0  -0.1168
  C  C224  1  0.052100  0.841000  0.277000  1.0  -0.1232
  C  C225  1  0.673500  0.772250  0.878400  1.0  0.6514
  C  C226  1  0.685000  0.745190  0.809200  1.0  -0.166
  C  C227  1  0.737900  0.770000  0.768100  1.0  -0.0845
  C  C228  1  0.480500  0.875990  0.921500  1.0  0.6736
  C  C229  1  0.479800  0.940740  0.929800  1.0  -0.1636
  C  C230  1  0.505200  0.968840  0.996100  1.0  -0.0787
  C  C231  1  0.812800  0.737980  0.591100  1.0  0.6725
  C  C232  1  0.800900  0.767390  0.658100  1.0  -0.1545
  C  C233  1  0.747800  0.743910  0.700100  1.0  -0.0784
  C  C234  1  0.016000  0.871050  0.061500  1.0  0.6843
  C  C235  1  0.019300  0.935710  0.062800  1.0  -0.1995
  C  C236  1  0.993000  0.968650  0.000400  1.0  -0.0826
  C  C237  1  0.465700  0.697620  0.610100  1.0  0.1623
  C  C238  1  0.425600  0.707700  0.669300  1.0  -0.1552
  C  C239  1  0.421800  0.763600  0.695300  1.0  -0.0704
  C  C240  1  0.460900  0.810100  0.662400  1.0  -0.0449
  C  C241  1  0.500300  0.796070  0.604000  1.0  0.1513
  C  C242  1  0.541500  0.841040  0.567700  1.0  0.1357
  C  C243  1  0.543600  0.899540  0.591800  1.0  0.0359
  C  C244  1  0.585800  0.941050  0.554400  1.0  -0.0459
  C  C245  1  0.622300  0.924000  0.497000  1.0  -0.1432
  C  C246  1  0.615900  0.864710  0.476500  1.0  0.1639
  C  C247  1  0.464000  0.870100  0.686300  1.0  -0.1072
  C  C248  1  0.503400  0.912700  0.652500  1.0  -0.1115
  C  C249  1  0.790200  0.576560  0.645300  1.0  0.1569
  C  C250  1  0.800600  0.527820  0.693300  1.0  -0.1389
  C  C251  1  0.792000  0.472740  0.664500  1.0  -0.0612
  C  C252  1  0.772500  0.464830  0.586400  1.0  -0.019
  C  C253  1  0.761500  0.515560  0.542600  1.0  0.1264
  C  C254  1  0.738700  0.511590  0.462100  1.0  0.1333
  C  C255  1  0.729700  0.456320  0.427200  1.0  0.0064
  C  C256  1  0.709200  0.456400  0.348600  1.0  -0.0484
  C  C257  1  0.698300  0.507650  0.310200  1.0  -0.1472
  C  C258  1  0.707100  0.561030  0.349200  1.0  0.1547
  C  C259  1  0.762400  0.409070  0.549800  1.0  -0.1108
  C  C260  1  0.742900  0.404770  0.474200  1.0  -0.1358
  C  C261  1  0.897400  0.631910  0.982900  1.0  0.1455
  C  C262  1  0.909300  0.574680  0.959700  1.0  -0.1539
  C  C263  1  0.951200  0.566150  0.903000  1.0  -0.0579
  C  C264  1  0.980000  0.614480  0.867400  1.0  0.024
  C  C265  1  0.965600  0.670060  0.894600  1.0  0.1347
  C  C266  1  0.997000  0.721280  0.863000  1.0  0.1462
  C  C267  1  0.039500  0.716930  0.803800  1.0  -0.0441
  C  C268  1  0.066900  0.768800  0.775500  1.0  -0.059
  C  C269  1  0.049900  0.821200  0.805000  1.0  -0.1302
  C  C270  1  0.008400  0.822350  0.864500  1.0  0.1528
  C  C271  1  0.024000  0.611000  0.806800  1.0  -0.118
  C  C272  1  0.052100  0.659000  0.777000  1.0  -0.1231
  C  C273  1  0.673500  0.727750  0.378400  1.0  0.6518
  C  C274  1  0.685000  0.754810  0.309200  1.0  -0.1655
  C  C275  1  0.737900  0.730000  0.268100  1.0  -0.0854
  C  C276  1  0.480500  0.624010  0.421500  1.0  0.6733
  C  C277  1  0.479800  0.559260  0.429800  1.0  -0.1631
  C  C278  1  0.505200  0.531160  0.496100  1.0  -0.0787
  C  C279  1  0.812800  0.762020  0.091100  1.0  0.6724
  C  C280  1  0.800900  0.732610  0.158100  1.0  -0.1548
  C  C281  1  0.747800  0.756090  0.200100  1.0  -0.0775
  C  C282  1  0.016000  0.628950  0.561500  1.0  0.6845
  C  C283  1  0.019300  0.564290  0.562800  1.0  -0.1926
  C  C284  1  0.993000  0.531350  0.500400  1.0  -0.0826
  C  C285  1  0.534300  0.197620  0.889900  1.0  0.1636
  C  C286  1  0.574400  0.207700  0.830700  1.0  -0.1536
  C  C287  1  0.578200  0.263600  0.804700  1.0  -0.0699
  C  C288  1  0.539100  0.310100  0.837600  1.0  -0.0458
  C  C289  1  0.499700  0.296070  0.896000  1.0  0.1497
  C  C290  1  0.458500  0.341040  0.932300  1.0  0.1359
  C  C291  1  0.456400  0.399540  0.908200  1.0  0.0356
  C  C292  1  0.414200  0.441050  0.945600  1.0  -0.0462
  C  C293  1  0.377700  0.424000  0.003000  1.0  -0.1456
  C  C294  1  0.384100  0.364710  0.023500  1.0  0.1637
  C  C295  1  0.536000  0.370100  0.813700  1.0  -0.1055
  C  C296  1  0.496600  0.412700  0.847500  1.0  -0.1109
  C  C297  1  0.209800  0.076560  0.854700  1.0  0.1582
  C  C298  1  0.199400  0.027820  0.806700  1.0  -0.1372
  C  C299  1  0.208000  0.972740  0.835500  1.0  -0.0591
  C  C300  1  0.227500  0.964830  0.913600  1.0  -0.0177
  C  C301  1  0.238500  0.015560  0.957400  1.0  0.1252
  C  C302  1  0.261300  0.011590  0.037900  1.0  0.1333
  C  C303  1  0.270300  0.956320  0.072800  1.0  0.0064
  C  C304  1  0.290800  0.956400  0.151400  1.0  -0.0489
  C  C305  1  0.301700  0.007650  0.189800  1.0  -0.148
  C  C306  1  0.292900  0.061030  0.150800  1.0  0.1557
  C  C307  1  0.237600  0.909070  0.950200  1.0  -0.1109
  C  C308  1  0.257100  0.904770  0.025800  1.0  -0.1361
  C  C309  1  0.102600  0.131910  0.517100  1.0  0.1461
  C  C310  1  0.090700  0.074680  0.540300  1.0  -0.1528
  C  C311  1  0.048800  0.066150  0.597000  1.0  -0.0594
  C  C312  1  0.020000  0.114480  0.632600  1.0  0.0246
  C  C313  1  0.034400  0.170060  0.605400  1.0  0.1334
  C  C314  1  0.003000  0.221280  0.637000  1.0  0.1475
  C  C315  1  0.960500  0.216930  0.696200  1.0  -0.0447
  C  C316  1  0.933100  0.268800  0.724500  1.0  -0.0576
  C  C317  1  0.950100  0.321200  0.695000  1.0  -0.1314
  C  C318  1  0.991600  0.322350  0.635500  1.0  0.1532
  C  C319  1  0.976000  0.111000  0.693200  1.0  -0.1165
  C  C320  1  0.947900  0.159000  0.723000  1.0  -0.1227
  C  C321  1  0.326500  0.227750  0.121600  1.0  0.6524
  C  C322  1  0.315000  0.254810  0.190800  1.0  -0.1667
  C  C323  1  0.262100  0.230000  0.231900  1.0  -0.0892
  C  C324  1  0.519500  0.124010  0.078500  1.0  0.6725
  C  C325  1  0.520200  0.059260  0.070200  1.0  -0.1624
  C  C326  1  0.494800  0.031160  0.003900  1.0  -0.0834
  C  C327  1  0.187200  0.262020  0.408900  1.0  0.6715
  C  C328  1  0.199100  0.232610  0.341900  1.0  -0.1546
  C  C329  1  0.252200  0.256090  0.299900  1.0  -0.073
  C  C330  1  0.984000  0.128950  0.938500  1.0  0.6854
  C  C331  1  0.980700  0.064290  0.937200  1.0  -0.1933
  C  C332  1  0.007000  0.031350  0.999600  1.0  -0.0779
  N  N333  1  0.498300  0.259500  0.422970  1.0  -0.2936
  N  N334  1  0.422500  0.176260  0.488860  1.0  -0.3302
  N  N335  1  0.230000  0.429150  0.428330  1.0  -0.3376
  N  N336  1  0.273100  0.437030  0.576290  1.0  -0.3295
  N  N337  1  0.076100  0.321230  0.049190  1.0  -0.3319
  N  N338  1  0.016700  0.226430  0.105810  1.0  -0.2833
  N  N339  1  0.501700  0.759500  0.077030  1.0  -0.2943
  N  N340  1  0.577500  0.676260  0.011140  1.0  -0.3287
  N  N341  1  0.770000  0.929150  0.071670  1.0  -0.3371
  N  N342  1  0.726900  0.937030  0.923710  1.0  -0.3314
  N  N343  1  0.923900  0.821230  0.450810  1.0  -0.3333
  N  N344  1  0.983300  0.726430  0.394190  1.0  -0.2833
  N  N345  1  0.501700  0.740500  0.577030  1.0  -0.2948
  N  N346  1  0.577500  0.823740  0.511140  1.0  -0.3292
  N  N347  1  0.770000  0.570850  0.571670  1.0  -0.3381
  N  N348  1  0.726900  0.562970  0.423710  1.0  -0.3323
  N  N349  1  0.923900  0.678770  0.950810  1.0  -0.3326
  N  N350  1  0.983300  0.773570  0.894190  1.0  -0.2831
  N  N351  1  0.498300  0.240500  0.922970  1.0  -0.2938
  N  N352  1  0.422500  0.323740  0.988860  1.0  -0.3311
  N  N353  1  0.230000  0.070850  0.928330  1.0  -0.3386
  N  N354  1  0.273100  0.062970  0.076290  1.0  -0.331
  N  N355  1  0.076100  0.178770  0.549190  1.0  -0.3315
  N  N356  1  0.016700  0.273570  0.605810  1.0  -0.2834
  O  O357  1  0.396400  0.250260  0.598730  1.0  -0.601
  O  O358  1  0.264700  0.314140  0.592410  1.0  -0.6258
  O  O359  1  0.455040  0.347910  0.522210  1.0  -0.6475
  O  O360  1  0.581600  0.353270  0.636280  1.0  -0.5817
  O  O361  1  0.247070  0.194550  0.934730  1.0  -0.63
  O  O362  1  0.118600  0.258600  0.934670  1.0  -0.6211
  O  O363  1  0.058340  0.347150  0.493350  1.0  -0.6547
  O  O364  1  0.913400  0.343650  0.389110  1.0  -0.6017
  O  O365  1  0.603600  0.750260  0.901270  1.0  -0.6037
  O  O366  1  0.735300  0.814140  0.907590  1.0  -0.6267
  O  O367  1  0.544960  0.847910  0.977790  1.0  -0.6458
  O  O368  1  0.418400  0.853270  0.863720  1.0  -0.5816
  O  O369  1  0.752930  0.694550  0.565270  1.0  -0.6297
  O  O370  1  0.881400  0.758600  0.565330  1.0  -0.6202
  O  O371  1  0.941660  0.847150  0.006650  1.0  -0.6557
  O  O372  1  0.086600  0.843650  0.110890  1.0  -0.6001
  O  O373  1  0.603600  0.749740  0.401270  1.0  -0.6041
  O  O374  1  0.735300  0.685860  0.407590  1.0  -0.6264
  O  O375  1  0.544960  0.652090  0.477790  1.0  -0.6458
  O  O376  1  0.418400  0.646730  0.363720  1.0  -0.5805
  O  O377  1  0.752930  0.805450  0.065270  1.0  -0.6297
  O  O378  1  0.881400  0.741400  0.065330  1.0  -0.6205
  O  O379  1  0.941660  0.652850  0.506650  1.0  -0.6552
  O  O380  1  0.086600  0.656350  0.610890  1.0  -0.6004
  O  O381  1  0.396400  0.249740  0.098730  1.0  -0.6012
  O  O382  1  0.264700  0.185860  0.092410  1.0  -0.6258
  O  O383  1  0.455040  0.152090  0.022210  1.0  -0.6468
  O  O384  1  0.581600  0.146730  0.136280  1.0  -0.5817
  O  O385  1  0.247070  0.305450  0.434730  1.0  -0.6301
  O  O386  1  0.118600  0.241400  0.434670  1.0  -0.6217
  O  O387  1  0.058340  0.152850  0.993350  1.0  -0.6546
  O  O388  1  0.913400  0.156350  0.889110  1.0  -0.6015
