# generated using pymatgen
data_Cu3H32C48(N3O4)2
_symmetry_space_group_name_H-M   'P 1'
_cell_length_a   19.09990000
_cell_length_b   22.87620000
_cell_length_c   13.38760000
_cell_angle_alpha   90.00000000
_cell_angle_beta   112.92800000
_cell_angle_gamma   90.00000000
_symmetry_Int_Tables_number   1
_chemical_formula_structural   Cu3H32C48(N3O4)2
_chemical_formula_sum   'Cu12 H128 C192 N24 O32'
_cell_volume   5387.34814368
_cell_formula_units_Z   4
loop_
 _symmetry_equiv_pos_site_id
 _symmetry_equiv_pos_as_xyz
  1  'x, y, z'
loop_
 _atom_site_type_symbol
 _atom_site_label
 _atom_site_symmetry_multiplicity
 _atom_site_fract_x
 _atom_site_fract_y
 _atom_site_fract_z
 _atom_site_occupancy
 _atom_site_charge
  Cu  Cu1  1  0.497540  0.764290  0.557790  1.0  0.8259
  Cu  Cu2  1  0.997540  0.264290  0.557790  1.0  0.8259
  Cu  Cu3  1  0.502460  0.764290  0.942210  1.0  0.8275
  Cu  Cu4  1  0.002460  0.264290  0.942210  1.0  0.8275
  Cu  Cu5  1  0.502460  0.235710  0.442210  1.0  0.828
  Cu  Cu6  1  0.002460  0.735710  0.442210  1.0  0.828
  Cu  Cu7  1  0.497540  0.235710  0.057790  1.0  0.8265
  Cu  Cu8  1  0.997540  0.735710  0.057790  1.0  0.8265
  Cu  Cu9  1  0.500000  0.867720  0.750000  1.0  0.904
  Cu  Cu10  1  0.000000  0.367720  0.750000  1.0  0.904
  Cu  Cu11  1  0.500000  0.132280  0.250000  1.0  0.9041
  Cu  Cu12  1  0.000000  0.632280  0.250000  1.0  0.9041
  H  H13  1  0.542100  0.644000  0.679100  1.0  0.0745
  H  H14  1  0.506100  0.547300  0.634300  1.0  0.1042
  H  H15  1  0.408700  0.525600  0.476100  1.0  0.1144
  H  H16  1  0.306500  0.563900  0.293000  1.0  0.0925
  H  H17  1  0.255200  0.638800  0.182900  1.0  0.09
  H  H18  1  0.249600  0.750700  0.148500  1.0  0.1144
  H  H19  1  0.295800  0.839700  0.212200  1.0  0.0835
  H  H20  1  0.392900  0.850700  0.378500  1.0  0.0667
  H  H21  1  0.672900  0.895900  0.874100  1.0  0.074
  H  H22  1  0.744100  0.980800  0.927500  1.0  0.0951
  H  H23  1  0.686600  0.069700  0.889000  1.0  0.1048
  H  H24  1  0.563400  0.128500  0.797500  1.0  0.0987
  H  H25  1  0.611600  0.958700  0.569300  1.0  0.085
  H  H26  1  0.456500  0.948600  0.493000  1.0  0.0834
  H  H27  1  0.689100  0.704100  0.849300  1.0  0.0895
  H  H28  1  0.700100  0.798800  0.979400  1.0  0.089
  H  H29  1  0.042100  0.144000  0.679100  1.0  0.0745
  H  H30  1  0.006100  0.047300  0.634300  1.0  0.1042
  H  H31  1  0.908700  0.025600  0.476100  1.0  0.1144
  H  H32  1  0.806500  0.063900  0.293000  1.0  0.0925
  H  H33  1  0.755200  0.138800  0.182900  1.0  0.09
  H  H34  1  0.749600  0.250700  0.148500  1.0  0.1144
  H  H35  1  0.795800  0.339700  0.212200  1.0  0.0835
  H  H36  1  0.892900  0.350700  0.378500  1.0  0.0667
  H  H37  1  0.172900  0.395900  0.874100  1.0  0.074
  H  H38  1  0.244100  0.480800  0.927500  1.0  0.0951
  H  H39  1  0.186600  0.569700  0.889000  1.0  0.1048
  H  H40  1  0.063400  0.628500  0.797500  1.0  0.0987
  H  H41  1  0.111600  0.458700  0.569300  1.0  0.085
  H  H42  1  0.956500  0.448600  0.493000  1.0  0.0834
  H  H43  1  0.189100  0.204100  0.849300  1.0  0.0895
  H  H44  1  0.200100  0.298800  0.979400  1.0  0.089
  H  H45  1  0.457900  0.644000  0.820900  1.0  0.0735
  H  H46  1  0.493900  0.547300  0.865700  1.0  0.104
  H  H47  1  0.591300  0.525600  0.023900  1.0  0.1145
  H  H48  1  0.693500  0.563900  0.207000  1.0  0.092
  H  H49  1  0.744800  0.638800  0.317100  1.0  0.0903
  H  H50  1  0.750400  0.750700  0.351500  1.0  0.1143
  H  H51  1  0.704200  0.839700  0.287800  1.0  0.0833
  H  H52  1  0.607100  0.850700  0.121500  1.0  0.0669
  H  H53  1  0.327100  0.895900  0.625900  1.0  0.0738
  H  H54  1  0.255900  0.980800  0.572500  1.0  0.0954
  H  H55  1  0.313400  0.069700  0.611000  1.0  0.1052
  H  H56  1  0.436600  0.128500  0.702500  1.0  0.0996
  H  H57  1  0.388400  0.958700  0.930700  1.0  0.0857
  H  H58  1  0.543500  0.948600  0.007000  1.0  0.0845
  H  H59  1  0.310900  0.704100  0.650700  1.0  0.0888
  H  H60  1  0.299900  0.798800  0.520600  1.0  0.0896
  H  H61  1  0.957900  0.144000  0.820900  1.0  0.0735
  H  H62  1  0.993900  0.047300  0.865700  1.0  0.104
  H  H63  1  0.091300  0.025600  0.023900  1.0  0.1145
  H  H64  1  0.193500  0.063900  0.207000  1.0  0.092
  H  H65  1  0.244800  0.138800  0.317100  1.0  0.0903
  H  H66  1  0.250400  0.250700  0.351500  1.0  0.1143
  H  H67  1  0.204200  0.339700  0.287800  1.0  0.0833
  H  H68  1  0.107100  0.350700  0.121500  1.0  0.0669
  H  H69  1  0.827100  0.395900  0.625900  1.0  0.0738
  H  H70  1  0.755900  0.480800  0.572500  1.0  0.0954
  H  H71  1  0.813400  0.569700  0.611000  1.0  0.1052
  H  H72  1  0.936600  0.628500  0.702500  1.0  0.0996
  H  H73  1  0.888400  0.458700  0.930700  1.0  0.0857
  H  H74  1  0.043500  0.448600  0.007000  1.0  0.0845
  H  H75  1  0.810900  0.204100  0.650700  1.0  0.0888
  H  H76  1  0.799900  0.298800  0.520600  1.0  0.0896
  H  H77  1  0.457900  0.356000  0.320900  1.0  0.0737
  H  H78  1  0.493900  0.452700  0.365700  1.0  0.1047
  H  H79  1  0.591300  0.474400  0.523900  1.0  0.115
  H  H80  1  0.693500  0.436100  0.707000  1.0  0.0922
  H  H81  1  0.744800  0.361200  0.817100  1.0  0.0899
  H  H82  1  0.750400  0.249300  0.851500  1.0  0.1142
  H  H83  1  0.704200  0.160300  0.787800  1.0  0.0835
  H  H84  1  0.607100  0.149300  0.621500  1.0  0.0673
  H  H85  1  0.327100  0.104100  0.125900  1.0  0.0741
  H  H86  1  0.255900  0.019200  0.072500  1.0  0.0951
  H  H87  1  0.313400  0.930300  0.111000  1.0  0.1042
  H  H88  1  0.436600  0.871500  0.202500  1.0  0.0991
  H  H89  1  0.388400  0.041300  0.430700  1.0  0.0852
  H  H90  1  0.543500  0.051400  0.507000  1.0  0.0843
  H  H91  1  0.310900  0.295900  0.150700  1.0  0.0882
  H  H92  1  0.299900  0.201200  0.020600  1.0  0.0894
  H  H93  1  0.957900  0.856000  0.320900  1.0  0.0737
  H  H94  1  0.993900  0.952700  0.365700  1.0  0.1047
  H  H95  1  0.091300  0.974400  0.523900  1.0  0.115
  H  H96  1  0.193500  0.936100  0.707000  1.0  0.0922
  H  H97  1  0.244800  0.861200  0.817100  1.0  0.0899
  H  H98  1  0.250400  0.749300  0.851500  1.0  0.1142
  H  H99  1  0.204200  0.660300  0.787800  1.0  0.0835
  H  H100  1  0.107100  0.649300  0.621500  1.0  0.0673
  H  H101  1  0.827100  0.604100  0.125900  1.0  0.0741
  H  H102  1  0.755900  0.519200  0.072500  1.0  0.0951
  H  H103  1  0.813400  0.430300  0.111000  1.0  0.1042
  H  H104  1  0.936600  0.371500  0.202500  1.0  0.0991
  H  H105  1  0.888400  0.541300  0.430700  1.0  0.0852
  H  H106  1  0.043500  0.551400  0.507000  1.0  0.0843
  H  H107  1  0.810900  0.795900  0.150700  1.0  0.0882
  H  H108  1  0.799900  0.701200  0.020600  1.0  0.0894
  H  H109  1  0.542100  0.356000  0.179100  1.0  0.074
  H  H110  1  0.506100  0.452700  0.134300  1.0  0.1039
  H  H111  1  0.408700  0.474400  0.976100  1.0  0.1147
  H  H112  1  0.306500  0.436100  0.793000  1.0  0.0924
  H  H113  1  0.255200  0.361200  0.682900  1.0  0.0902
  H  H114  1  0.249600  0.249300  0.648500  1.0  0.1142
  H  H115  1  0.295800  0.160300  0.712200  1.0  0.0828
  H  H116  1  0.392900  0.149300  0.878500  1.0  0.0672
  H  H117  1  0.672900  0.104100  0.374100  1.0  0.074
  H  H118  1  0.744100  0.019200  0.427500  1.0  0.0953
  H  H119  1  0.686600  0.930300  0.389000  1.0  0.1049
  H  H120  1  0.563400  0.871500  0.297500  1.0  0.0988
  H  H121  1  0.611600  0.041300  0.069300  1.0  0.0855
  H  H122  1  0.456500  0.051400  0.993000  1.0  0.0835
  H  H123  1  0.689100  0.295900  0.349300  1.0  0.0888
  H  H124  1  0.700100  0.201200  0.479400  1.0  0.0891
  H  H125  1  0.042100  0.856000  0.179100  1.0  0.074
  H  H126  1  0.006100  0.952700  0.134300  1.0  0.1039
  H  H127  1  0.908700  0.974400  0.976100  1.0  0.1147
  H  H128  1  0.806500  0.936100  0.793000  1.0  0.0924
  H  H129  1  0.755200  0.861200  0.682900  1.0  0.0902
  H  H130  1  0.749600  0.749300  0.648500  1.0  0.1142
  H  H131  1  0.795800  0.660300  0.712200  1.0  0.0828
  H  H132  1  0.892900  0.649300  0.878500  1.0  0.0672
  H  H133  1  0.172900  0.604100  0.374100  1.0  0.074
  H  H134  1  0.244100  0.519200  0.427500  1.0  0.0953
  H  H135  1  0.186600  0.430300  0.389000  1.0  0.1049
  H  H136  1  0.063400  0.371500  0.297500  1.0  0.0988
  H  H137  1  0.111600  0.541300  0.069300  1.0  0.0855
  H  H138  1  0.956500  0.551400  0.993000  1.0  0.0835
  H  H139  1  0.189100  0.795900  0.349300  1.0  0.0888
  H  H140  1  0.200100  0.701200  0.479400  1.0  0.0891
  C  C141  1  0.502900  0.635500  0.612900  1.0  0.1489
  C  C142  1  0.480900  0.577100  0.586400  1.0  -0.1444
  C  C143  1  0.424100  0.564200  0.492700  1.0  -0.0708
  C  C144  1  0.387200  0.609300  0.418900  1.0  -0.0448
  C  C145  1  0.325100  0.601300  0.314700  1.0  -0.0834
  C  C146  1  0.294200  0.645800  0.249800  1.0  -0.0652
  C  C147  1  0.318900  0.704400  0.279300  1.0  0.0296
  C  C148  1  0.288900  0.754300  0.216500  1.0  -0.1818
  C  C149  1  0.316500  0.806800  0.254000  1.0  -0.1274
  C  C150  1  0.375300  0.813400  0.354200  1.0  0.1131
  C  C151  1  0.378300  0.713600  0.380500  1.0  0.1725
  C  C152  1  0.412200  0.665900  0.450500  1.0  0.1471
  C  C153  1  0.648700  0.932000  0.857000  1.0  0.1598
  C  C154  1  0.691800  0.983200  0.889500  1.0  -0.1485
  C  C155  1  0.657900  0.035900  0.866100  1.0  -0.0395
  C  C156  1  0.580200  0.039600  0.807800  1.0  -0.0179
  C  C157  1  0.537900  0.093000  0.777900  1.0  -0.1433
  C  C158  1  0.539900  0.987300  0.778600  1.0  0.1657
  C  C159  1  0.568000  0.873300  0.552600  1.0  0.6896
  C  C160  1  0.565800  0.938500  0.546000  1.0  -0.174
  C  C161  1  0.501900  0.968800  0.508800  1.0  -0.1053
  C  C162  1  0.605500  0.768400  0.786300  1.0  0.6595
  C  C163  1  0.674400  0.740100  0.866700  1.0  -0.2062
  C  C164  1  0.715700  0.763300  0.961200  1.0  -0.096
  C  C165  1  0.002900  0.135500  0.612900  1.0  0.1489
  C  C166  1  0.980900  0.077100  0.586400  1.0  -0.1444
  C  C167  1  0.924100  0.064200  0.492700  1.0  -0.0708
  C  C168  1  0.887200  0.109300  0.418900  1.0  -0.0448
  C  C169  1  0.825100  0.101300  0.314700  1.0  -0.0834
  C  C170  1  0.794200  0.145800  0.249800  1.0  -0.0652
  C  C171  1  0.818900  0.204400  0.279300  1.0  0.0296
  C  C172  1  0.788900  0.254300  0.216500  1.0  -0.1818
  C  C173  1  0.816500  0.306800  0.254000  1.0  -0.1274
  C  C174  1  0.875300  0.313400  0.354200  1.0  0.1131
  C  C175  1  0.878300  0.213600  0.380500  1.0  0.1725
  C  C176  1  0.912200  0.165900  0.450500  1.0  0.1471
  C  C177  1  0.148700  0.432000  0.857000  1.0  0.1598
  C  C178  1  0.191800  0.483200  0.889500  1.0  -0.1485
  C  C179  1  0.157900  0.535900  0.866100  1.0  -0.0395
  C  C180  1  0.080200  0.539600  0.807800  1.0  -0.0179
  C  C181  1  0.037900  0.593000  0.777900  1.0  -0.1433
  C  C182  1  0.039900  0.487300  0.778600  1.0  0.1657
  C  C183  1  0.068000  0.373300  0.552600  1.0  0.6896
  C  C184  1  0.065800  0.438500  0.546000  1.0  -0.174
  C  C185  1  0.001900  0.468800  0.508800  1.0  -0.1053
  C  C186  1  0.105500  0.268400  0.786300  1.0  0.6595
  C  C187  1  0.174400  0.240100  0.866700  1.0  -0.2062
  C  C188  1  0.215700  0.263300  0.961200  1.0  -0.096
  C  C189  1  0.497100  0.635500  0.887100  1.0  0.1477
  C  C190  1  0.519100  0.577100  0.913600  1.0  -0.1441
  C  C191  1  0.575900  0.564200  0.007300  1.0  -0.0696
  C  C192  1  0.612800  0.609300  0.081100  1.0  -0.0445
  C  C193  1  0.674900  0.601300  0.185300  1.0  -0.0826
  C  C194  1  0.705800  0.645800  0.250200  1.0  -0.066
  C  C195  1  0.681100  0.704400  0.220700  1.0  0.0325
  C  C196  1  0.711100  0.754300  0.283500  1.0  -0.1812
  C  C197  1  0.683500  0.806800  0.246000  1.0  -0.127
  C  C198  1  0.624700  0.813400  0.145800  1.0  0.1124
  C  C199  1  0.621700  0.713600  0.119500  1.0  0.1738
  C  C200  1  0.587800  0.665900  0.049500  1.0  0.1464
  C  C201  1  0.351300  0.932000  0.643000  1.0  0.1607
  C  C202  1  0.308200  0.983200  0.610500  1.0  -0.152
  C  C203  1  0.342100  0.035900  0.633900  1.0  -0.0403
  C  C204  1  0.419800  0.039600  0.692200  1.0  -0.0167
  C  C205  1  0.462100  0.093000  0.722100  1.0  -0.1427
  C  C206  1  0.460100  0.987300  0.721400  1.0  0.165
  C  C207  1  0.432000  0.873300  0.947400  1.0  0.6898
  C  C208  1  0.434200  0.938500  0.954000  1.0  -0.1731
  C  C209  1  0.498100  0.968800  0.991200  1.0  -0.1014
  C  C210  1  0.394500  0.768400  0.713700  1.0  0.661
  C  C211  1  0.325600  0.740100  0.633300  1.0  -0.2053
  C  C212  1  0.284300  0.763300  0.538800  1.0  -0.091
  C  C213  1  0.997100  0.135500  0.887100  1.0  0.1477
  C  C214  1  0.019100  0.077100  0.913600  1.0  -0.1441
  C  C215  1  0.075900  0.064200  0.007300  1.0  -0.0696
  C  C216  1  0.112800  0.109300  0.081100  1.0  -0.0445
  C  C217  1  0.174900  0.101300  0.185300  1.0  -0.0826
  C  C218  1  0.205800  0.145800  0.250200  1.0  -0.066
  C  C219  1  0.181100  0.204400  0.220700  1.0  0.0325
  C  C220  1  0.211100  0.254300  0.283500  1.0  -0.1812
  C  C221  1  0.183500  0.306800  0.246000  1.0  -0.127
  C  C222  1  0.124700  0.313400  0.145800  1.0  0.1124
  C  C223  1  0.121700  0.213600  0.119500  1.0  0.1738
  C  C224  1  0.087800  0.165900  0.049500  1.0  0.1464
  C  C225  1  0.851300  0.432000  0.643000  1.0  0.1607
  C  C226  1  0.808200  0.483200  0.610500  1.0  -0.152
  C  C227  1  0.842100  0.535900  0.633900  1.0  -0.0403
  C  C228  1  0.919800  0.539600  0.692200  1.0  -0.0167
  C  C229  1  0.962100  0.593000  0.722100  1.0  -0.1427
  C  C230  1  0.960100  0.487300  0.721400  1.0  0.165
  C  C231  1  0.932000  0.373300  0.947400  1.0  0.6898
  C  C232  1  0.934200  0.438500  0.954000  1.0  -0.1731
  C  C233  1  0.998100  0.468800  0.991200  1.0  -0.1014
  C  C234  1  0.894500  0.268400  0.713700  1.0  0.661
  C  C235  1  0.825600  0.240100  0.633300  1.0  -0.2053
  C  C236  1  0.784300  0.263300  0.538800  1.0  -0.091
  C  C237  1  0.497100  0.364500  0.387100  1.0  0.1477
  C  C238  1  0.519100  0.422900  0.413600  1.0  -0.1442
  C  C239  1  0.575900  0.435800  0.507300  1.0  -0.0699
  C  C240  1  0.612800  0.390700  0.581100  1.0  -0.0435
  C  C241  1  0.674900  0.398700  0.685300  1.0  -0.0843
  C  C242  1  0.705800  0.354200  0.750200  1.0  -0.0659
  C  C243  1  0.681100  0.295600  0.720700  1.0  0.0321
  C  C244  1  0.711100  0.245700  0.783500  1.0  -0.1817
  C  C245  1  0.683500  0.193200  0.746000  1.0  -0.1271
  C  C246  1  0.624700  0.186600  0.645800  1.0  0.1129
  C  C247  1  0.621700  0.286400  0.619500  1.0  0.1742
  C  C248  1  0.587800  0.334100  0.549500  1.0  0.1474
  C  C249  1  0.351300  0.068000  0.143000  1.0  0.161
  C  C250  1  0.308200  0.016800  0.110500  1.0  -0.1519
  C  C251  1  0.342100  0.964100  0.133900  1.0  -0.0402
  C  C252  1  0.419800  0.960400  0.192200  1.0  -0.0171
  C  C253  1  0.462100  0.907000  0.222100  1.0  -0.1419
  C  C254  1  0.460100  0.012700  0.221400  1.0  0.1652
  C  C255  1  0.432000  0.126700  0.447400  1.0  0.6897
  C  C256  1  0.434200  0.061500  0.454000  1.0  -0.1717
  C  C257  1  0.498100  0.031200  0.491200  1.0  -0.1001
  C  C258  1  0.394500  0.231600  0.213700  1.0  0.6607
  C  C259  1  0.325600  0.259900  0.133300  1.0  -0.2025
  C  C260  1  0.284300  0.236700  0.038800  1.0  -0.0921
  C  C261  1  0.997100  0.864500  0.387100  1.0  0.1477
  C  C262  1  0.019100  0.922900  0.413600  1.0  -0.1442
  C  C263  1  0.075900  0.935800  0.507300  1.0  -0.0699
  C  C264  1  0.112800  0.890700  0.581100  1.0  -0.0435
  C  C265  1  0.174900  0.898700  0.685300  1.0  -0.0843
  C  C266  1  0.205800  0.854200  0.750200  1.0  -0.0659
  C  C267  1  0.181100  0.795600  0.720700  1.0  0.0321
  C  C268  1  0.211100  0.745700  0.783500  1.0  -0.1817
  C  C269  1  0.183500  0.693200  0.746000  1.0  -0.1271
  C  C270  1  0.124700  0.686600  0.645800  1.0  0.1129
  C  C271  1  0.121700  0.786400  0.619500  1.0  0.1742
  C  C272  1  0.087800  0.834100  0.549500  1.0  0.1474
  C  C273  1  0.851300  0.568000  0.143000  1.0  0.161
  C  C274  1  0.808200  0.516800  0.110500  1.0  -0.1519
  C  C275  1  0.842100  0.464100  0.133900  1.0  -0.0402
  C  C276  1  0.919800  0.460400  0.192200  1.0  -0.0171
  C  C277  1  0.962100  0.407000  0.222100  1.0  -0.1419
  C  C278  1  0.960100  0.512700  0.221400  1.0  0.1652
  C  C279  1  0.932000  0.626700  0.447400  1.0  0.6897
  C  C280  1  0.934200  0.561500  0.454000  1.0  -0.1717
  C  C281  1  0.998100  0.531200  0.491200  1.0  -0.1001
  C  C282  1  0.894500  0.731600  0.213700  1.0  0.6607
  C  C283  1  0.825600  0.759900  0.133300  1.0  -0.2025
  C  C284  1  0.784300  0.736700  0.038800  1.0  -0.0921
  C  C285  1  0.502900  0.364500  0.112900  1.0  0.1493
  C  C286  1  0.480900  0.422900  0.086400  1.0  -0.1449
  C  C287  1  0.424100  0.435800  0.992700  1.0  -0.0712
  C  C288  1  0.387200  0.390700  0.918900  1.0  -0.0438
  C  C289  1  0.325100  0.398700  0.814700  1.0  -0.0855
  C  C290  1  0.294200  0.354200  0.749800  1.0  -0.066
  C  C291  1  0.318900  0.295600  0.779300  1.0  0.0309
  C  C292  1  0.288900  0.245700  0.716500  1.0  -0.182
  C  C293  1  0.316500  0.193200  0.754000  1.0  -0.1266
  C  C294  1  0.375300  0.186600  0.854200  1.0  0.1139
  C  C295  1  0.378300  0.286400  0.880500  1.0  0.173
  C  C296  1  0.412200  0.334100  0.950500  1.0  0.1479
  C  C297  1  0.648700  0.068000  0.357000  1.0  0.1599
  C  C298  1  0.691800  0.016800  0.389500  1.0  -0.148
  C  C299  1  0.657900  0.964100  0.366100  1.0  -0.0391
  C  C300  1  0.580200  0.960400  0.307800  1.0  -0.0182
  C  C301  1  0.537900  0.907000  0.277900  1.0  -0.1418
  C  C302  1  0.539900  0.012700  0.278600  1.0  0.1659
  C  C303  1  0.568000  0.126700  0.052600  1.0  0.6899
  C  C304  1  0.565800  0.061500  0.046000  1.0  -0.1721
  C  C305  1  0.501900  0.031200  0.008800  1.0  -0.1043
  C  C306  1  0.605500  0.231600  0.286300  1.0  0.6596
  C  C307  1  0.674400  0.259900  0.366700  1.0  -0.2032
  C  C308  1  0.715700  0.236700  0.461200  1.0  -0.0974
  C  C309  1  0.002900  0.864500  0.112900  1.0  0.1493
  C  C310  1  0.980900  0.922900  0.086400  1.0  -0.1449
  C  C311  1  0.924100  0.935800  0.992700  1.0  -0.0712
  C  C312  1  0.887200  0.890700  0.918900  1.0  -0.0438
  C  C313  1  0.825100  0.898700  0.814700  1.0  -0.0855
  C  C314  1  0.794200  0.854200  0.749800  1.0  -0.066
  C  C315  1  0.818900  0.795600  0.779300  1.0  0.0309
  C  C316  1  0.788900  0.745700  0.716500  1.0  -0.182
  C  C317  1  0.816500  0.693200  0.754000  1.0  -0.1266
  C  C318  1  0.875300  0.686600  0.854200  1.0  0.1139
  C  C319  1  0.878300  0.786400  0.880500  1.0  0.173
  C  C320  1  0.912200  0.834100  0.950500  1.0  0.1479
  C  C321  1  0.148700  0.568000  0.357000  1.0  0.1599
  C  C322  1  0.191800  0.516800  0.389500  1.0  -0.148
  C  C323  1  0.157900  0.464100  0.366100  1.0  -0.0391
  C  C324  1  0.080200  0.460400  0.307800  1.0  -0.0182
  C  C325  1  0.037900  0.407000  0.277900  1.0  -0.1418
  C  C326  1  0.039900  0.512700  0.278600  1.0  0.1659
  C  C327  1  0.068000  0.626700  0.052600  1.0  0.6899
  C  C328  1  0.065800  0.561500  0.046000  1.0  -0.1721
  C  C329  1  0.001900  0.531200  0.008800  1.0  -0.1043
  C  C330  1  0.105500  0.731600  0.286300  1.0  0.6596
  C  C331  1  0.174400  0.759900  0.366700  1.0  -0.2032
  C  C332  1  0.215700  0.736700  0.461200  1.0  -0.0974
  N  N333  1  0.469200  0.678790  0.546200  1.0  -0.328
  N  N334  1  0.407500  0.767700  0.416700  1.0  -0.2578
  N  N335  1  0.574400  0.933850  0.802600  1.0  -0.3269
  N  N336  1  0.969200  0.178790  0.546200  1.0  -0.328
  N  N337  1  0.907500  0.267700  0.416700  1.0  -0.2578
  N  N338  1  0.074400  0.433850  0.802600  1.0  -0.3269
  N  N339  1  0.530800  0.678790  0.953800  1.0  -0.3276
  N  N340  1  0.592500  0.767700  0.083300  1.0  -0.2566
  N  N341  1  0.425600  0.933850  0.697400  1.0  -0.324
  N  N342  1  0.030800  0.178790  0.953800  1.0  -0.3276
  N  N343  1  0.092500  0.267700  0.083300  1.0  -0.2566
  N  N344  1  0.925600  0.433850  0.697400  1.0  -0.324
  N  N345  1  0.530800  0.321210  0.453800  1.0  -0.3284
  N  N346  1  0.592500  0.232300  0.583300  1.0  -0.2568
  N  N347  1  0.425600  0.066150  0.197400  1.0  -0.3267
  N  N348  1  0.030800  0.821210  0.453800  1.0  -0.3284
  N  N349  1  0.092500  0.732300  0.583300  1.0  -0.2568
  N  N350  1  0.925600  0.566150  0.197400  1.0  -0.3267
  N  N351  1  0.469200  0.321210  0.046200  1.0  -0.3298
  N  N352  1  0.407500  0.232300  0.916700  1.0  -0.2574
  N  N353  1  0.574400  0.066150  0.302600  1.0  -0.3276
  N  N354  1  0.969200  0.821210  0.046200  1.0  -0.3298
  N  N355  1  0.907500  0.732300  0.916700  1.0  -0.2574
  N  N356  1  0.074400  0.566150  0.302600  1.0  -0.3276
  O  O357  1  0.512900  0.848400  0.565900  1.0  -0.6453
  O  O358  1  0.621600  0.848110  0.541000  1.0  -0.5937
  O  O359  1  0.581000  0.747750  0.693900  1.0  -0.61
  O  O360  1  0.579000  0.810810  0.820000  1.0  -0.627
  O  O361  1  0.012900  0.348400  0.565900  1.0  -0.6453
  O  O362  1  0.121600  0.348110  0.541000  1.0  -0.5937
  O  O363  1  0.081000  0.247750  0.693900  1.0  -0.61
  O  O364  1  0.079000  0.310810  0.820000  1.0  -0.627
  O  O365  1  0.487100  0.848400  0.934100  1.0  -0.6436
  O  O366  1  0.378400  0.848110  0.959000  1.0  -0.5939
  O  O367  1  0.419000  0.747750  0.806100  1.0  -0.6093
  O  O368  1  0.421000  0.810810  0.680000  1.0  -0.6277
  O  O369  1  0.987100  0.348400  0.934100  1.0  -0.6436
  O  O370  1  0.878400  0.348110  0.959000  1.0  -0.5939
  O  O371  1  0.919000  0.247750  0.806100  1.0  -0.6093
  O  O372  1  0.921000  0.310810  0.680000  1.0  -0.6277
  O  O373  1  0.487100  0.151600  0.434100  1.0  -0.6438
  O  O374  1  0.378400  0.151890  0.459000  1.0  -0.5948
  O  O375  1  0.419000  0.252250  0.306100  1.0  -0.6094
  O  O376  1  0.421000  0.189190  0.180000  1.0  -0.6274
  O  O377  1  0.987100  0.651600  0.434100  1.0  -0.6438
  O  O378  1  0.878400  0.651890  0.459000  1.0  -0.5948
  O  O379  1  0.919000  0.752250  0.306100  1.0  -0.6094
  O  O380  1  0.921000  0.689190  0.180000  1.0  -0.6274
  O  O381  1  0.512900  0.151600  0.065900  1.0  -0.6451
  O  O382  1  0.621600  0.151890  0.041000  1.0  -0.5938
  O  O383  1  0.581000  0.252250  0.193900  1.0  -0.6095
  O  O384  1  0.579000  0.189190  0.320000  1.0  -0.6268
  O  O385  1  0.012900  0.651600  0.065900  1.0  -0.6451
  O  O386  1  0.121600  0.651890  0.041000  1.0  -0.5938
  O  O387  1  0.081000  0.752250  0.193900  1.0  -0.6095
  O  O388  1  0.079000  0.689190  0.320000  1.0  -0.6268
