# generated using pymatgen
data_Ag3H40C52(SN3)4
_symmetry_space_group_name_H-M   'P 1'
_cell_length_a   23.45800000
_cell_length_b   7.55460000
_cell_length_c   16.51800000
_cell_angle_alpha   90.00000000
_cell_angle_beta   90.00000000
_cell_angle_gamma   90.00000000
_symmetry_Int_Tables_number   1
_chemical_formula_structural   Ag3H40C52(SN3)4
_chemical_formula_sum   'Ag6 H80 C104 S8 N24'
_cell_volume   2927.25069672
_cell_formula_units_Z   2
loop_
 _symmetry_equiv_pos_site_id
 _symmetry_equiv_pos_as_xyz
  1  'x, y, z'
loop_
 _atom_site_type_symbol
 _atom_site_label
 _atom_site_symmetry_multiplicity
 _atom_site_fract_x
 _atom_site_fract_y
 _atom_site_fract_z
 _atom_site_occupancy
 _atom_site_charge
  Ag  Ag1  1  0.142630  0.119730  0.565120  1.0  0.2951
  Ag  Ag2  1  0.857370  0.880270  0.565120  1.0  0.2939
  Ag  Ag3  1  0.642630  0.380270  0.065120  1.0  0.2952
  Ag  Ag4  1  0.357370  0.619730  0.065120  1.0  0.2938
  Ag  Ag5  1  0.500000  0.000000  0.933410  1.0  0.2019
  Ag  Ag6  1  0.000000  0.500000  0.433410  1.0  0.2019
  H  H7  1  0.348600  0.832700  0.231800  1.0  0.058
  H  H8  1  0.283600  0.906400  0.328200  1.0  0.1065
  H  H9  1  0.102500  0.799100  0.245300  1.0  0.1099
  H  H10  1  0.031100  0.855600  0.334900  1.0  0.0988
  H  H11  1  0.049500  0.989800  0.452900  1.0  0.0752
  H  H12  1  0.211600  0.996800  0.404300  1.0  0.0399
  H  H13  1  0.130100  0.607000  0.079600  1.0  0.114
  H  H14  1  0.137500  0.809000  0.058600  1.0  0.1118
  H  H15  1  0.156700  0.865000  0.901700  1.0  0.081
  H  H16  1  0.065100  0.579600  0.750000  1.0  0.0913
  H  H17  1  0.054400  0.356200  0.848200  1.0  0.1067
  H  H18  1  0.089000  0.405700  0.975900  1.0  0.1005
  H  H19  1  0.149200  0.959900  0.773700  1.0  0.1654
  H  H20  1  0.087800  0.927500  0.739700  1.0  0.1645
  H  H21  1  0.335600  0.674500  0.584500  1.0  0.044
  H  H22  1  0.379100  0.776600  0.694500  1.0  0.1147
  H  H23  1  0.254400  0.960700  0.883200  1.0  0.1057
  H  H24  1  0.293300  0.040900  0.007100  1.0  0.0834
  H  H25  1  0.387900  0.078000  0.020600  1.0  0.0705
  H  H26  1  0.411800  0.894600  0.806400  1.0  0.0724
  H  H27  1  0.651400  0.167300  0.231800  1.0  0.0571
  H  H28  1  0.716400  0.093600  0.328200  1.0  0.1066
  H  H29  1  0.897500  0.200900  0.245300  1.0  0.1093
  H  H30  1  0.968900  0.144400  0.334900  1.0  0.0987
  H  H31  1  0.950500  0.010200  0.452900  1.0  0.0757
  H  H32  1  0.788400  0.003200  0.404300  1.0  0.0402
  H  H33  1  0.869900  0.393000  0.079600  1.0  0.113
  H  H34  1  0.862500  0.191000  0.058600  1.0  0.1117
  H  H35  1  0.843300  0.135000  0.901700  1.0  0.0802
  H  H36  1  0.934900  0.420400  0.750000  1.0  0.0914
  H  H37  1  0.945600  0.643800  0.848200  1.0  0.1063
  H  H38  1  0.911000  0.594300  0.975900  1.0  0.1004
  H  H39  1  0.850800  0.040100  0.773700  1.0  0.1651
  H  H40  1  0.912200  0.072500  0.739700  1.0  0.1671
  H  H41  1  0.664400  0.325500  0.584500  1.0  0.0445
  H  H42  1  0.620900  0.223400  0.694500  1.0  0.1129
  H  H43  1  0.745600  0.039300  0.883200  1.0  0.1056
  H  H44  1  0.706700  0.959100  0.007100  1.0  0.0832
  H  H45  1  0.612100  0.922000  0.020600  1.0  0.0712
  H  H46  1  0.588200  0.105400  0.806400  1.0  0.0718
  H  H47  1  0.848600  0.667300  0.731800  1.0  0.0576
  H  H48  1  0.783600  0.593600  0.828200  1.0  0.1065
  H  H49  1  0.602500  0.700900  0.745300  1.0  0.1097
  H  H50  1  0.531100  0.644400  0.834900  1.0  0.0988
  H  H51  1  0.549500  0.510200  0.952900  1.0  0.0751
  H  H52  1  0.711600  0.503200  0.904300  1.0  0.0401
  H  H53  1  0.630100  0.893000  0.579600  1.0  0.1132
  H  H54  1  0.637500  0.691000  0.558600  1.0  0.1117
  H  H55  1  0.656700  0.635000  0.401700  1.0  0.081
  H  H56  1  0.565100  0.920400  0.250000  1.0  0.0912
  H  H57  1  0.554400  0.143800  0.348200  1.0  0.1069
  H  H58  1  0.589000  0.094300  0.475900  1.0  0.1003
  H  H59  1  0.649200  0.540100  0.273700  1.0  0.1658
  H  H60  1  0.587800  0.572500  0.239700  1.0  0.1649
  H  H61  1  0.835600  0.825500  0.084500  1.0  0.0442
  H  H62  1  0.879100  0.723400  0.194500  1.0  0.1145
  H  H63  1  0.754400  0.539300  0.383200  1.0  0.1054
  H  H64  1  0.793300  0.459100  0.507100  1.0  0.0834
  H  H65  1  0.887900  0.422000  0.520600  1.0  0.0706
  H  H66  1  0.911800  0.605400  0.306400  1.0  0.0722
  H  H67  1  0.151400  0.332700  0.731800  1.0  0.0573
  H  H68  1  0.216400  0.406400  0.828200  1.0  0.1065
  H  H69  1  0.397500  0.299100  0.745300  1.0  0.1096
  H  H70  1  0.468900  0.355600  0.834900  1.0  0.0985
  H  H71  1  0.450500  0.489800  0.952900  1.0  0.0757
  H  H72  1  0.288400  0.496800  0.904300  1.0  0.0401
  H  H73  1  0.369900  0.107000  0.579600  1.0  0.1139
  H  H74  1  0.362500  0.309000  0.558600  1.0  0.111
  H  H75  1  0.343300  0.365000  0.401700  1.0  0.0805
  H  H76  1  0.434900  0.079600  0.250000  1.0  0.0915
  H  H77  1  0.445600  0.856200  0.348200  1.0  0.1069
  H  H78  1  0.411000  0.905700  0.475900  1.0  0.1005
  H  H79  1  0.350800  0.459900  0.273700  1.0  0.1652
  H  H80  1  0.412200  0.427500  0.239700  1.0  0.1667
  H  H81  1  0.164400  0.174500  0.084500  1.0  0.044
  H  H82  1  0.120900  0.276600  0.194500  1.0  0.1131
  H  H83  1  0.245600  0.460700  0.383200  1.0  0.1056
  H  H84  1  0.206700  0.540900  0.507100  1.0  0.0832
  H  H85  1  0.112100  0.578000  0.520600  1.0  0.0708
  H  H86  1  0.088200  0.394600  0.306400  1.0  0.0716
  C  C87  1  0.239900  0.747800  0.135800  1.0  0.3245
  C  C88  1  0.310100  0.817200  0.220400  1.0  0.1703
  C  C89  1  0.271800  0.865400  0.277800  1.0  -0.2346
  C  C90  1  0.215500  0.851600  0.259000  1.0  0.17
  C  C91  1  0.167400  0.896500  0.315900  1.0  -0.0019
  C  C92  1  0.110600  0.851700  0.294900  1.0  -0.1321
  C  C93  1  0.068400  0.886000  0.347800  1.0  -0.0892
  C  C94  1  0.079600  0.963700  0.418300  1.0  0.1625
  C  C95  1  0.174600  0.969200  0.388700  1.0  0.1832
  C  C96  1  0.147300  0.689700  0.041900  1.0  -0.2754
  C  C97  1  0.125400  0.654000  0.954300  1.0  0.0169
  C  C98  1  0.135200  0.763200  0.892800  1.0  -0.1031
  C  C99  1  0.114200  0.729000  0.815200  1.0  0.0625
  C  C100  1  0.082400  0.591600  0.800400  1.0  -0.0918
  C  C101  1  0.073800  0.460300  0.860200  1.0  -0.1607
  C  C102  1  0.094500  0.490000  0.935600  1.0  -0.1001
  C  C103  1  0.124000  0.870700  0.751400  1.0  -0.3023
  C  C104  1  0.228600  0.784400  0.676700  1.0  0.2892
  C  C105  1  0.313000  0.716000  0.626700  1.0  0.1768
  C  C106  1  0.339500  0.776300  0.691200  1.0  -0.2174
  C  C107  1  0.305300  0.841000  0.755500  1.0  0.1655
  C  C108  1  0.329000  0.912100  0.831900  1.0  -0.0219
  C  C109  1  0.293600  0.961900  0.890800  1.0  -0.1275
  C  C110  1  0.317200  0.015600  0.963600  1.0  -0.1251
  C  C111  1  0.373800  0.031600  0.972400  1.0  0.1646
  C  C112  1  0.387100  0.927600  0.847800  1.0  0.1839
  C  C113  1  0.760100  0.252200  0.135800  1.0  0.3248
  C  C114  1  0.689900  0.182800  0.220400  1.0  0.1695
  C  C115  1  0.728200  0.134600  0.277800  1.0  -0.2347
  C  C116  1  0.784500  0.148400  0.259000  1.0  0.1703
  C  C117  1  0.832600  0.103500  0.315900  1.0  -0.0024
  C  C118  1  0.889400  0.148300  0.294900  1.0  -0.1327
  C  C119  1  0.931600  0.114000  0.347800  1.0  -0.0892
  C  C120  1  0.920400  0.036300  0.418300  1.0  0.1635
  C  C121  1  0.825400  0.030800  0.388700  1.0  0.1835
  C  C122  1  0.852700  0.310300  0.041900  1.0  -0.2738
  C  C123  1  0.874600  0.346000  0.954300  1.0  0.0178
  C  C124  1  0.864800  0.236800  0.892800  1.0  -0.1031
  C  C125  1  0.885800  0.271000  0.815200  1.0  0.0607
  C  C126  1  0.917600  0.408400  0.800400  1.0  -0.0896
  C  C127  1  0.926200  0.539700  0.860200  1.0  -0.1608
  C  C128  1  0.905500  0.510000  0.935600  1.0  -0.1011
  C  C129  1  0.876000  0.129300  0.751400  1.0  -0.3025
  C  C130  1  0.771400  0.215600  0.676700  1.0  0.2886
  C  C131  1  0.687000  0.284000  0.626700  1.0  0.1773
  C  C132  1  0.660500  0.223700  0.691200  1.0  -0.2174
  C  C133  1  0.694700  0.159000  0.755500  1.0  0.1645
  C  C134  1  0.671000  0.087900  0.831900  1.0  -0.0219
  C  C135  1  0.706400  0.038100  0.890800  1.0  -0.1289
  C  C136  1  0.682800  0.984400  0.963600  1.0  -0.1241
  C  C137  1  0.626200  0.968400  0.972400  1.0  0.1629
  C  C138  1  0.612900  0.072400  0.847800  1.0  0.1847
  C  C139  1  0.739900  0.752200  0.635800  1.0  0.3255
  C  C140  1  0.810100  0.682800  0.720400  1.0  0.1705
  C  C141  1  0.771800  0.634600  0.777800  1.0  -0.2346
  C  C142  1  0.715500  0.648400  0.759000  1.0  0.1701
  C  C143  1  0.667400  0.603500  0.815900  1.0  -0.0018
  C  C144  1  0.610600  0.648300  0.794900  1.0  -0.1319
  C  C145  1  0.568400  0.614000  0.847800  1.0  -0.0891
  C  C146  1  0.579600  0.536300  0.918300  1.0  0.1633
  C  C147  1  0.674600  0.530800  0.888700  1.0  0.1837
  C  C148  1  0.647300  0.810300  0.541900  1.0  -0.2753
  C  C149  1  0.625400  0.846000  0.454300  1.0  0.0168
  C  C150  1  0.635200  0.736800  0.392800  1.0  -0.1021
  C  C151  1  0.614200  0.771000  0.315200  1.0  0.0627
  C  C152  1  0.582400  0.908400  0.300400  1.0  -0.0918
  C  C153  1  0.573800  0.039700  0.360200  1.0  -0.1614
  C  C154  1  0.594500  0.010000  0.435600  1.0  -0.1015
  C  C155  1  0.624000  0.629300  0.251400  1.0  -0.3031
  C  C156  1  0.728600  0.715600  0.176700  1.0  0.2893
  C  C157  1  0.813000  0.784000  0.126700  1.0  0.1775
  C  C158  1  0.839500  0.723700  0.191200  1.0  -0.2173
  C  C159  1  0.805300  0.659000  0.255500  1.0  0.1653
  C  C160  1  0.829000  0.587900  0.331900  1.0  -0.0218
  C  C161  1  0.793600  0.538100  0.390800  1.0  -0.1276
  C  C162  1  0.817200  0.484400  0.463600  1.0  -0.1249
  C  C163  1  0.873800  0.468400  0.472400  1.0  0.1646
  C  C164  1  0.887100  0.572400  0.347800  1.0  0.1842
  C  C165  1  0.260100  0.247800  0.635800  1.0  0.3239
  C  C166  1  0.189900  0.317200  0.720400  1.0  0.1692
  C  C167  1  0.228200  0.365400  0.777800  1.0  -0.2347
  C  C168  1  0.284500  0.351600  0.759000  1.0  0.1702
  C  C169  1  0.332600  0.396500  0.815900  1.0  -0.0022
  C  C170  1  0.389400  0.351700  0.794900  1.0  -0.1327
  C  C171  1  0.431600  0.386000  0.847800  1.0  -0.0895
  C  C172  1  0.420400  0.463700  0.918300  1.0  0.1629
  C  C173  1  0.325400  0.469200  0.888700  1.0  0.1826
  C  C174  1  0.352700  0.189700  0.541900  1.0  -0.2739
  C  C175  1  0.374600  0.154000  0.454300  1.0  0.0178
  C  C176  1  0.364800  0.263200  0.392800  1.0  -0.1041
  C  C177  1  0.385800  0.229000  0.315200  1.0  0.0606
  C  C178  1  0.417600  0.091600  0.300400  1.0  -0.0896
  C  C179  1  0.426200  0.960300  0.360200  1.0  -0.1608
  C  C180  1  0.405500  0.990000  0.435600  1.0  -0.1
  C  C181  1  0.376000  0.370700  0.251400  1.0  -0.302
  C  C182  1  0.271400  0.284400  0.176700  1.0  0.2885
  C  C183  1  0.187000  0.216000  0.126700  1.0  0.1776
  C  C184  1  0.160500  0.276300  0.191200  1.0  -0.2175
  C  C185  1  0.194700  0.341000  0.255500  1.0  0.1647
  C  C186  1  0.171000  0.412100  0.331900  1.0  -0.0221
  C  C187  1  0.206400  0.461900  0.390800  1.0  -0.1288
  C  C188  1  0.182800  0.515600  0.463600  1.0  -0.1244
  C  C189  1  0.126200  0.531600  0.472400  1.0  0.1628
  C  C190  1  0.112900  0.427600  0.347800  1.0  0.1843
  S  S191  1  0.222320  0.662300  0.040660  1.0  0.0065
  S  S192  1  0.153990  0.791100  0.657940  1.0  -0.0129
  S  S193  1  0.777680  0.337700  0.040660  1.0  0.0063
  S  S194  1  0.846010  0.208900  0.657940  1.0  -0.0121
  S  S195  1  0.722320  0.837700  0.540660  1.0  0.0064
  S  S196  1  0.653990  0.708900  0.157940  1.0  -0.0117
  S  S197  1  0.277680  0.162300  0.540660  1.0  0.0057
  S  S198  1  0.346010  0.291100  0.157940  1.0  -0.0132
  N  N199  1  0.296300  0.749800  0.149400  1.0  -0.3338
  N  N200  1  0.198900  0.786200  0.187000  1.0  -0.4835
  N  N201  1  0.132500  0.005400  0.441200  1.0  -0.3985
  N  N202  1  0.257400  0.708900  0.616100  1.0  -0.3559
  N  N203  1  0.249500  0.850700  0.747100  1.0  -0.4908
  N  N204  1  0.410600  0.984300  0.915400  1.0  -0.329
  N  N205  1  0.703700  0.250200  0.149400  1.0  -0.3322
  N  N206  1  0.801100  0.213800  0.187000  1.0  -0.4815
  N  N207  1  0.867500  0.994600  0.441200  1.0  -0.3961
  N  N208  1  0.742600  0.291100  0.616100  1.0  -0.3562
  N  N209  1  0.750500  0.149300  0.747100  1.0  -0.4893
  N  N210  1  0.589400  0.015700  0.915400  1.0  -0.3291
  N  N211  1  0.796300  0.750200  0.649400  1.0  -0.3328
  N  N212  1  0.698900  0.713800  0.687000  1.0  -0.483
  N  N213  1  0.632500  0.494600  0.941200  1.0  -0.3975
  N  N214  1  0.757400  0.791100  0.116100  1.0  -0.3559
  N  N215  1  0.749500  0.649300  0.247100  1.0  -0.4912
  N  N216  1  0.910600  0.515700  0.415400  1.0  -0.3295
  N  N217  1  0.203700  0.249800  0.649400  1.0  -0.334
  N  N218  1  0.301100  0.286200  0.687000  1.0  -0.4815
  N  N219  1  0.367500  0.505400  0.941200  1.0  -0.3971
  N  N220  1  0.242600  0.208900  0.116100  1.0  -0.3568
  N  N221  1  0.250500  0.350700  0.247100  1.0  -0.489
  N  N222  1  0.089400  0.484300  0.415400  1.0  -0.3292
