# generated using pymatgen
data_Cd3H16C24(N5O4)2
_symmetry_space_group_name_H-M   'P 1'
_cell_length_a   9.63800000
_cell_length_b   15.44300000
_cell_length_c   18.71700000
_cell_angle_alpha   90.00000000
_cell_angle_beta   90.00000000
_cell_angle_gamma   90.00000000
_symmetry_Int_Tables_number   1
_chemical_formula_structural   Cd3H16C24(N5O4)2
_chemical_formula_sum   'Cd6 H32 C48 N20 O16'
_cell_volume   2785.83142958
_cell_formula_units_Z   2
loop_
 _symmetry_equiv_pos_site_id
 _symmetry_equiv_pos_as_xyz
  1  'x, y, z'
loop_
 _atom_site_type_symbol
 _atom_site_label
 _atom_site_symmetry_multiplicity
 _atom_site_fract_x
 _atom_site_fract_y
 _atom_site_fract_z
 _atom_site_occupancy
 _atom_site_charge
  Cd  Cd1  1  0.116470  0.783100  0.939020  1.0  0.9469
  Cd  Cd2  1  0.883530  0.283100  0.560980  1.0  0.9484
  Cd  Cd3  1  0.883530  0.216900  0.060980  1.0  0.9485
  Cd  Cd4  1  0.116470  0.716900  0.439020  1.0  0.9473
  Cd  Cd5  1  0.000000  0.000000  0.000000  1.0  1.1245
  Cd  Cd6  1  0.000000  0.500000  0.500000  1.0  1.1245
  H  H7  1  0.357500  0.892700  0.006900  1.0  0.0774
  H  H8  1  0.588900  0.916200  0.018100  1.0  0.1221
  H  H9  1  0.651400  0.709500  0.895300  1.0  0.1113
  H  H10  1  0.418300  0.693700  0.885200  1.0  0.0894
  H  H11  1  0.993600  0.853400  0.333200  1.0  0.0876
  H  H12  1  0.990100  0.904400  0.218700  1.0  0.1244
  H  H13  1  0.263100  0.721300  0.167600  1.0  0.1227
  H  H14  1  0.269300  0.680800  0.285200  1.0  0.0865
  H  H15  1  0.642500  0.392700  0.493100  1.0  0.077
  H  H16  1  0.411100  0.416200  0.481900  1.0  0.1226
  H  H17  1  0.348600  0.209500  0.604700  1.0  0.1114
  H  H18  1  0.581700  0.193700  0.614800  1.0  0.0894
  H  H19  1  0.006400  0.353400  0.166800  1.0  0.0879
  H  H20  1  0.009900  0.404400  0.281300  1.0  0.1241
  H  H21  1  0.736900  0.221300  0.332400  1.0  0.1225
  H  H22  1  0.730700  0.180800  0.214800  1.0  0.0865
  H  H23  1  0.642500  0.107300  0.993100  1.0  0.0766
  H  H24  1  0.411100  0.083800  0.981900  1.0  0.1221
  H  H25  1  0.348600  0.290500  0.104700  1.0  0.1115
  H  H26  1  0.581700  0.306300  0.114800  1.0  0.0893
  H  H27  1  0.006400  0.146600  0.666800  1.0  0.0872
  H  H28  1  0.009900  0.095600  0.781300  1.0  0.1237
  H  H29  1  0.736900  0.278700  0.832400  1.0  0.1228
  H  H30  1  0.730700  0.319200  0.714800  1.0  0.0864
  H  H31  1  0.357500  0.607300  0.506900  1.0  0.0772
  H  H32  1  0.588900  0.583800  0.518100  1.0  0.1226
  H  H33  1  0.651400  0.790500  0.395300  1.0  0.1115
  H  H34  1  0.418300  0.806300  0.385200  1.0  0.0899
  H  H35  1  0.993600  0.646600  0.833200  1.0  0.0879
  H  H36  1  0.990100  0.595600  0.718700  1.0  0.1236
  H  H37  1  0.263100  0.778700  0.667600  1.0  0.1227
  H  H38  1  0.269300  0.819200  0.785200  1.0  0.0865
  C  C39  1  0.418100  0.855400  0.983400  1.0  0.1872
  C  C40  1  0.557000  0.869900  0.990900  1.0  -0.1574
  C  C41  1  0.648900  0.815300  0.957700  1.0  -0.0988
  C  C42  1  0.593000  0.748500  0.918300  1.0  -0.1465
  C  C43  1  0.452700  0.739000  0.912800  1.0  0.1642
  C  C44  1  0.801900  0.831100  0.963100  1.0  0.7433
  C  C45  1  0.050700  0.827300  0.299400  1.0  0.1678
  C  C46  1  0.046400  0.857700  0.230600  1.0  -0.1639
  C  C47  1  0.125700  0.818300  0.180000  1.0  -0.0755
  C  C48  1  0.208700  0.750300  0.200900  1.0  -0.1553
  C  C49  1  0.210500  0.725600  0.271500  1.0  0.1643
  C  C50  1  0.118900  0.847200  0.103100  1.0  0.7278
  C  C51  1  0.581900  0.355400  0.516600  1.0  0.1866
  C  C52  1  0.443000  0.369900  0.509100  1.0  -0.157
  C  C53  1  0.351100  0.315300  0.542300  1.0  -0.0999
  C  C54  1  0.407000  0.248500  0.581700  1.0  -0.1453
  C  C55  1  0.547300  0.239000  0.587200  1.0  0.1661
  C  C56  1  0.198100  0.331100  0.536900  1.0  0.7413
  C  C57  1  0.949300  0.327300  0.200600  1.0  0.1692
  C  C58  1  0.953600  0.357700  0.269400  1.0  -0.1647
  C  C59  1  0.874300  0.318300  0.320000  1.0  -0.0767
  C  C60  1  0.791300  0.250300  0.299100  1.0  -0.1547
  C  C61  1  0.789500  0.225600  0.228500  1.0  0.1659
  C  C62  1  0.881100  0.347200  0.396900  1.0  0.7284
  C  C63  1  0.581900  0.144600  0.016600  1.0  0.1868
  C  C64  1  0.443000  0.130100  0.009100  1.0  -0.1572
  C  C65  1  0.351100  0.184700  0.042300  1.0  -0.0988
  C  C66  1  0.407000  0.251500  0.081700  1.0  -0.1471
  C  C67  1  0.547300  0.261000  0.087200  1.0  0.1667
  C  C68  1  0.198100  0.168900  0.036900  1.0  0.7416
  C  C69  1  0.949300  0.172700  0.700600  1.0  0.1692
  C  C70  1  0.953600  0.142300  0.769400  1.0  -0.1638
  C  C71  1  0.874300  0.181700  0.820000  1.0  -0.0767
  C  C72  1  0.791300  0.249700  0.799100  1.0  -0.1546
  C  C73  1  0.789500  0.274400  0.728500  1.0  0.1661
  C  C74  1  0.881100  0.152800  0.896900  1.0  0.7278
  C  C75  1  0.418100  0.644600  0.483400  1.0  0.1871
  C  C76  1  0.557000  0.630100  0.490900  1.0  -0.1575
  C  C77  1  0.648900  0.684700  0.457700  1.0  -0.0979
  C  C78  1  0.593000  0.751500  0.418300  1.0  -0.1468
  C  C79  1  0.452700  0.761000  0.412800  1.0  0.1655
  C  C80  1  0.801900  0.668900  0.463100  1.0  0.7434
  C  C81  1  0.050700  0.672700  0.799400  1.0  0.1689
  C  C82  1  0.046400  0.642300  0.730600  1.0  -0.1631
  C  C83  1  0.125700  0.681700  0.680000  1.0  -0.0759
  C  C84  1  0.208700  0.749700  0.700900  1.0  -0.1549
  C  C85  1  0.210500  0.774400  0.771500  1.0  0.1649
  C  C86  1  0.118900  0.652800  0.603100  1.0  0.727
  N  N87  1  0.363500  0.791300  0.944800  1.0  -0.3522
  N  N88  1  0.132100  0.762700  0.320600  1.0  -0.351
  N  N89  1  0.121200  0.928500  0.914900  1.0  -0.5174
  N  N90  1  0.171000  0.963200  0.866700  1.0  0.538
  N  N91  1  0.215000  0.997600  0.818100  1.0  -0.3835
  N  N92  1  0.636500  0.291300  0.555200  1.0  -0.3571
  N  N93  1  0.867900  0.262700  0.179400  1.0  -0.3499
  N  N94  1  0.878800  0.428500  0.585100  1.0  -0.5192
  N  N95  1  0.829000  0.463200  0.633300  1.0  0.5369
  N  N96  1  0.785000  0.497600  0.681900  1.0  -0.3849
  N  N97  1  0.636500  0.208700  0.055200  1.0  -0.3564
  N  N98  1  0.867900  0.237300  0.679400  1.0  -0.3493
  N  N99  1  0.878800  0.071500  0.085100  1.0  -0.5186
  N  N100  1  0.829000  0.036800  0.133300  1.0  0.5376
  N  N101  1  0.785000  0.002400  0.181900  1.0  -0.3854
  N  N102  1  0.363500  0.708700  0.444800  1.0  -0.3508
  N  N103  1  0.132100  0.737300  0.820600  1.0  -0.3507
  N  N104  1  0.121200  0.571500  0.414900  1.0  -0.5172
  N  N105  1  0.171000  0.536800  0.366700  1.0  0.5385
  N  N106  1  0.215000  0.502400  0.318100  1.0  -0.3848
  O  O107  1  0.106600  0.925900  0.091890  1.0  -0.6823
  O  O108  1  0.128800  0.788300  0.057980  1.0  -0.6624
  O  O109  1  0.838800  0.892900  0.000700  1.0  -0.6553
  O  O110  1  0.879500  0.780400  0.929670  1.0  -0.621
  O  O111  1  0.893400  0.425900  0.408110  1.0  -0.6812
  O  O112  1  0.871200  0.288300  0.442020  1.0  -0.6639
  O  O113  1  0.161200  0.392900  0.499300  1.0  -0.656
  O  O114  1  0.120500  0.280400  0.570330  1.0  -0.6203
  O  O115  1  0.893400  0.074100  0.908110  1.0  -0.682
  O  O116  1  0.871200  0.211700  0.942020  1.0  -0.6634
  O  O117  1  0.161200  0.107100  0.999300  1.0  -0.6549
  O  O118  1  0.120500  0.219600  0.070330  1.0  -0.6201
  O  O119  1  0.106600  0.574100  0.591890  1.0  -0.6831
  O  O120  1  0.128800  0.711700  0.557980  1.0  -0.6623
  O  O121  1  0.838800  0.607100  0.500700  1.0  -0.655
  O  O122  1  0.879500  0.719600  0.429670  1.0  -0.6217
