# generated using pymatgen
data_Cd3H16(C12N13)2
_symmetry_space_group_name_H-M   'P 1'
_cell_length_a   10.97400000
_cell_length_b   22.66900000
_cell_length_c   14.10600000
_cell_angle_alpha   90.00000000
_cell_angle_beta   96.63700000
_cell_angle_gamma   90.00000000
_symmetry_Int_Tables_number   1
_chemical_formula_structural   Cd3H16(C12N13)2
_chemical_formula_sum   'Cd6 H32 C48 N52'
_cell_volume   3485.62695536
_cell_formula_units_Z   2
loop_
 _symmetry_equiv_pos_site_id
 _symmetry_equiv_pos_as_xyz
  1  'x, y, z'
loop_
 _atom_site_type_symbol
 _atom_site_label
 _atom_site_symmetry_multiplicity
 _atom_site_fract_x
 _atom_site_fract_y
 _atom_site_fract_z
 _atom_site_occupancy
 _atom_site_charge
  Cd  Cd1  1  0.868190  0.073230  0.778060  1.0  0.8921
  Cd  Cd2  1  0.131810  0.573230  0.721940  1.0  0.8938
  Cd  Cd3  1  0.131810  0.926770  0.221940  1.0  0.8943
  Cd  Cd4  1  0.868190  0.426770  0.278060  1.0  0.8922
  Cd  Cd5  1  0.000000  0.000000  0.000000  1.0  0.9233
  Cd  Cd6  1  0.000000  0.500000  0.500000  1.0  0.9233
  H  H7  1  0.677600  0.044400  0.916700  1.0  0.0614
  H  H8  1  0.478400  0.040500  0.942500  1.0  0.1019
  H  H9  1  0.386300  0.106400  0.682900  1.0  0.1228
  H  H10  1  0.589300  0.106800  0.662800  1.0  0.0736
  H  H11  1  0.950700  0.293700  0.298900  1.0  0.0718
  H  H12  1  0.956900  0.206900  0.220900  1.0  0.1225
  H  H13  1  0.799800  0.286500  0.985400  1.0  0.1224
  H  H14  1  0.802000  0.371600  0.071800  1.0  0.0738
  H  H15  1  0.322400  0.544400  0.583300  1.0  0.0601
  H  H16  1  0.521600  0.540500  0.557500  1.0  0.1017
  H  H17  1  0.613700  0.606400  0.817100  1.0  0.1233
  H  H18  1  0.410700  0.606800  0.837200  1.0  0.0742
  H  H19  1  0.049300  0.793700  0.201100  1.0  0.0718
  H  H20  1  0.043100  0.706900  0.279100  1.0  0.123
  H  H21  1  0.200200  0.786500  0.514600  1.0  0.1224
  H  H22  1  0.198000  0.871600  0.428200  1.0  0.0747
  H  H23  1  0.322400  0.955600  0.083300  1.0  0.0602
  H  H24  1  0.521600  0.959500  0.057500  1.0  0.1017
  H  H25  1  0.613700  0.893600  0.317100  1.0  0.1235
  H  H26  1  0.410700  0.893200  0.337200  1.0  0.074
  H  H27  1  0.049300  0.706300  0.701100  1.0  0.0715
  H  H28  1  0.043100  0.793100  0.779100  1.0  0.1232
  H  H29  1  0.200200  0.713500  0.014600  1.0  0.1226
  H  H30  1  0.198000  0.628400  0.928200  1.0  0.0742
  H  H31  1  0.677600  0.455600  0.416700  1.0  0.0611
  H  H32  1  0.478400  0.459500  0.442500  1.0  0.1021
  H  H33  1  0.386300  0.393600  0.182900  1.0  0.1227
  H  H34  1  0.589300  0.393200  0.162800  1.0  0.0736
  H  H35  1  0.950700  0.206300  0.798900  1.0  0.0716
  H  H36  1  0.956900  0.293100  0.720900  1.0  0.1228
  H  H37  1  0.799800  0.213500  0.485400  1.0  0.1227
  H  H38  1  0.802000  0.128400  0.571800  1.0  0.0739
  C  C39  1  0.618100  0.056500  0.868300  1.0  0.1708
  C  C40  1  0.498700  0.054200  0.884200  1.0  -0.1524
  C  C41  1  0.407700  0.071900  0.815600  1.0  -0.0486
  C  C42  1  0.444100  0.092800  0.731400  1.0  -0.1769
  C  C43  1  0.566400  0.093200  0.720300  1.0  0.1715
  C  C44  1  0.279700  0.066200  0.830700  1.0  0.3452
  C  C45  1  0.920300  0.292300  0.234600  1.0  0.1898
  C  C46  1  0.923900  0.240000  0.188700  1.0  -0.1541
  C  C47  1  0.878200  0.236400  0.093900  1.0  -0.0291
  C  C48  1  0.831600  0.286800  0.049500  1.0  -0.1811
  C  C49  1  0.833300  0.337600  0.102300  1.0  0.1665
  C  C50  1  0.882600  0.181400  0.040700  1.0  0.3657
  C  C51  1  0.381900  0.556500  0.631700  1.0  0.1713
  C  C52  1  0.501300  0.554200  0.615800  1.0  -0.153
  C  C53  1  0.592300  0.571900  0.684400  1.0  -0.0474
  C  C54  1  0.555900  0.592800  0.768600  1.0  -0.1775
  C  C55  1  0.433600  0.593200  0.779700  1.0  0.1707
  C  C56  1  0.720300  0.566200  0.669300  1.0  0.3445
  C  C57  1  0.079700  0.792300  0.265400  1.0  0.1898
  C  C58  1  0.076100  0.740000  0.311300  1.0  -0.1526
  C  C59  1  0.121800  0.736400  0.406100  1.0  -0.029
  C  C60  1  0.168400  0.786800  0.450500  1.0  -0.1815
  C  C61  1  0.166700  0.837600  0.397700  1.0  0.166
  C  C62  1  0.117400  0.681400  0.459300  1.0  0.3659
  C  C63  1  0.381900  0.943500  0.131700  1.0  0.1716
  C  C64  1  0.501300  0.945800  0.115800  1.0  -0.1527
  C  C65  1  0.592300  0.928100  0.184400  1.0  -0.0473
  C  C66  1  0.555900  0.907200  0.268600  1.0  -0.1767
  C  C67  1  0.433600  0.906800  0.279700  1.0  0.171
  C  C68  1  0.720300  0.933800  0.169300  1.0  0.3446
  C  C69  1  0.079700  0.707700  0.765400  1.0  0.1895
  C  C70  1  0.076100  0.760000  0.811300  1.0  -0.1524
  C  C71  1  0.121800  0.763600  0.906100  1.0  -0.0286
  C  C72  1  0.168400  0.713200  0.950500  1.0  -0.1813
  C  C73  1  0.166700  0.662400  0.897700  1.0  0.1655
  C  C74  1  0.117400  0.818600  0.959300  1.0  0.3666
  C  C75  1  0.618100  0.443500  0.368300  1.0  0.1708
  C  C76  1  0.498700  0.445800  0.384200  1.0  -0.1524
  C  C77  1  0.407700  0.428100  0.315600  1.0  -0.0484
  C  C78  1  0.444100  0.407200  0.231400  1.0  -0.1763
  C  C79  1  0.566400  0.406800  0.220300  1.0  0.1718
  C  C80  1  0.279700  0.433800  0.330700  1.0  0.3454
  C  C81  1  0.920300  0.207700  0.734600  1.0  0.1893
  C  C82  1  0.923900  0.260000  0.688700  1.0  -0.1536
  C  C83  1  0.878200  0.263600  0.593900  1.0  -0.0286
  C  C84  1  0.831600  0.213200  0.549500  1.0  -0.181
  C  C85  1  0.833300  0.162400  0.602300  1.0  0.1658
  C  C86  1  0.882600  0.318600  0.540700  1.0  0.3657
  N  N87  1  0.654000  0.075300  0.786400  1.0  -0.3563
  N  N88  1  0.246800  0.039800  0.909000  1.0  -0.3262
  N  N89  1  0.125500  0.043000  0.897600  1.0  -0.0053
  N  N90  1  0.087200  0.069300  0.815300  1.0  -0.1178
  N  N91  1  0.182900  0.084800  0.772300  1.0  -0.3495
  N  N92  1  0.876200  0.341600  0.193700  1.0  -0.3169
  N  N93  1  0.921000  0.130800  0.081100  1.0  -0.3207
  N  N94  1  0.916200  0.093200  0.008600  1.0  -0.0218
  N  N95  1  0.878100  0.121200  0.928500  1.0  -0.0707
  N  N96  1  0.855700  0.177300  0.946900  1.0  -0.3006
  N  N97  1  0.871200  0.987200  0.861500  1.0  -0.5012
  N  N98  1  0.814000  0.945000  0.837400  1.0  0.3334
  N  N99  1  0.759900  0.905000  0.812300  1.0  -0.4177
  N  N100  1  0.346000  0.575300  0.713600  1.0  -0.352
  N  N101  1  0.753200  0.539800  0.591000  1.0  -0.3252
  N  N102  1  0.874500  0.543000  0.602400  1.0  -0.0049
  N  N103  1  0.912800  0.569300  0.684700  1.0  -0.1204
  N  N104  1  0.817100  0.584800  0.727700  1.0  -0.3475
  N  N105  1  0.123800  0.841600  0.306300  1.0  -0.3176
  N  N106  1  0.079000  0.630800  0.418900  1.0  -0.3212
  N  N107  1  0.083800  0.593200  0.491400  1.0  -0.0228
  N  N108  1  0.121900  0.621200  0.571500  1.0  -0.0704
  N  N109  1  0.144300  0.677300  0.553100  1.0  -0.3013
  N  N110  1  0.128800  0.487200  0.638500  1.0  -0.502
  N  N111  1  0.186000  0.445000  0.662600  1.0  0.33
  N  N112  1  0.240100  0.405000  0.687700  1.0  -0.417
  N  N113  1  0.346000  0.924700  0.213600  1.0  -0.3518
  N  N114  1  0.753200  0.960200  0.091000  1.0  -0.3255
  N  N115  1  0.874500  0.957000  0.102400  1.0  -0.0048
  N  N116  1  0.912800  0.930700  0.184700  1.0  -0.1202
  N  N117  1  0.817100  0.915200  0.227700  1.0  -0.3465
  N  N118  1  0.123800  0.658400  0.806300  1.0  -0.3171
  N  N119  1  0.079000  0.869200  0.918900  1.0  -0.3221
  N  N120  1  0.083800  0.906800  0.991400  1.0  -0.0202
  N  N121  1  0.121900  0.878800  0.071500  1.0  -0.0702
  N  N122  1  0.144300  0.822700  0.053100  1.0  -0.302
  N  N123  1  0.128800  0.012800  0.138500  1.0  -0.5029
  N  N124  1  0.186000  0.055000  0.162600  1.0  0.3259
  N  N125  1  0.240100  0.095000  0.187700  1.0  -0.4192
  N  N126  1  0.654000  0.424700  0.286400  1.0  -0.3563
  N  N127  1  0.246800  0.460200  0.409000  1.0  -0.3271
  N  N128  1  0.125500  0.457000  0.397600  1.0  -0.0054
  N  N129  1  0.087200  0.430700  0.315300  1.0  -0.1183
  N  N130  1  0.182900  0.415200  0.272300  1.0  -0.349
  N  N131  1  0.876200  0.158400  0.693700  1.0  -0.3161
  N  N132  1  0.921000  0.369200  0.581100  1.0  -0.3214
  N  N133  1  0.916200  0.406800  0.508600  1.0  -0.0194
  N  N134  1  0.878100  0.378800  0.428500  1.0  -0.0706
  N  N135  1  0.855700  0.322700  0.446900  1.0  -0.3014
  N  N136  1  0.871200  0.512800  0.361500  1.0  -0.5019
  N  N137  1  0.814000  0.555000  0.337400  1.0  0.3299
  N  N138  1  0.759900  0.595000  0.312300  1.0  -0.418
