# generated using pymatgen
data_Cd3H16C24(N5O4)2
_symmetry_space_group_name_H-M   'P 1'
_cell_length_a   9.61500000
_cell_length_b   21.12200000
_cell_length_c   13.15200000
_cell_angle_alpha   90.00000000
_cell_angle_beta   91.12600000
_cell_angle_gamma   90.00000000
_symmetry_Int_Tables_number   1
_chemical_formula_structural   Cd3H16C24(N5O4)2
_chemical_formula_sum   'Cd6 H32 C48 N20 O16'
_cell_volume   2670.49799154
_cell_formula_units_Z   2
loop_
 _symmetry_equiv_pos_site_id
 _symmetry_equiv_pos_as_xyz
  1  'x, y, z'
loop_
 _atom_site_type_symbol
 _atom_site_label
 _atom_site_symmetry_multiplicity
 _atom_site_fract_x
 _atom_site_fract_y
 _atom_site_fract_z
 _atom_site_occupancy
 _atom_site_charge
  Cd  Cd1  1  0.897410  0.089690  0.227560  1.0  0.976
  Cd  Cd2  1  0.102590  0.589690  0.272440  1.0  0.9768
  Cd  Cd3  1  0.102590  0.910310  0.772440  1.0  0.9749
  Cd  Cd4  1  0.897410  0.410310  0.727560  1.0  0.9751
  Cd  Cd5  1  0.000000  0.000000  0.000000  1.0  1.1134
  Cd  Cd6  1  0.000000  0.500000  0.500000  1.0  1.1134
  H  H7  1  0.997700  0.267600  0.725100  1.0  0.0717
  H  H8  1  0.997400  0.173700  0.814000  1.0  0.1119
  H  H9  1  0.820900  0.263400  0.042800  1.0  0.1034
  H  H10  1  0.811100  0.353600  0.944600  1.0  0.0812
  H  H11  1  0.653700  0.073900  0.066900  1.0  0.0705
  H  H12  1  0.421500  0.059500  0.040000  1.0  0.1033
  H  H13  1  0.360800  0.109100  0.328300  1.0  0.11
  H  H14  1  0.595400  0.117600  0.350000  1.0  0.0799
  H  H15  1  0.002300  0.767600  0.774900  1.0  0.0719
  H  H16  1  0.002600  0.673700  0.686000  1.0  0.112
  H  H17  1  0.179100  0.763400  0.457200  1.0  0.1029
  H  H18  1  0.188900  0.853600  0.555400  1.0  0.0804
  H  H19  1  0.346300  0.573900  0.433100  1.0  0.0707
  H  H20  1  0.578500  0.559500  0.460000  1.0  0.1035
  H  H21  1  0.639200  0.609100  0.171700  1.0  0.1099
  H  H22  1  0.404600  0.617600  0.150000  1.0  0.0803
  H  H23  1  0.002300  0.732400  0.274900  1.0  0.0719
  H  H24  1  0.002600  0.826300  0.186000  1.0  0.1121
  H  H25  1  0.179100  0.736600  0.957200  1.0  0.1032
  H  H26  1  0.188900  0.646400  0.055400  1.0  0.0804
  H  H27  1  0.346300  0.926100  0.933100  1.0  0.0706
  H  H28  1  0.578500  0.940500  0.960000  1.0  0.1039
  H  H29  1  0.639200  0.890900  0.671700  1.0  0.1099
  H  H30  1  0.404600  0.882400  0.650000  1.0  0.0804
  H  H31  1  0.997700  0.232400  0.225100  1.0  0.0716
  H  H32  1  0.997400  0.326300  0.314000  1.0  0.1122
  H  H33  1  0.820900  0.236600  0.542800  1.0  0.1034
  H  H34  1  0.811100  0.146400  0.444600  1.0  0.0811
  H  H35  1  0.653700  0.426100  0.566900  1.0  0.0703
  H  H36  1  0.421500  0.440500  0.540000  1.0  0.1033
  H  H37  1  0.360800  0.390900  0.828300  1.0  0.1099
  H  H38  1  0.595400  0.382400  0.850000  1.0  0.0801
  C  C39  1  0.958600  0.266600  0.789200  1.0  0.1603
  C  C40  1  0.960600  0.210000  0.842900  1.0  -0.1263
  C  C41  1  0.907900  0.208300  0.938500  1.0  -0.0998
  C  C42  1  0.854800  0.262700  0.977100  1.0  -0.1007
  C  C43  1  0.851300  0.317300  0.918100  1.0  0.1356
  C  C44  1  0.908500  0.147800  0.999000  1.0  0.7485
  C  C45  1  0.593800  0.079800  0.120800  1.0  0.1711
  C  C46  1  0.454500  0.072200  0.103700  1.0  -0.1566
  C  C47  1  0.362100  0.083400  0.181000  1.0  -0.1216
  C  C48  1  0.418700  0.100900  0.274000  1.0  -0.1544
  C  C49  1  0.559400  0.106100  0.286500  1.0  0.1563
  C  C50  1  0.207500  0.073300  0.165600  1.0  0.7585
  C  C51  1  0.041400  0.766600  0.710800  1.0  0.1605
  C  C52  1  0.039400  0.710000  0.657100  1.0  -0.1262
  C  C53  1  0.092100  0.708300  0.561500  1.0  -0.0996
  C  C54  1  0.145200  0.762700  0.522900  1.0  -0.1017
  C  C55  1  0.148700  0.817300  0.581900  1.0  0.136
  C  C56  1  0.091500  0.647800  0.501000  1.0  0.7475
  C  C57  1  0.406200  0.579800  0.379200  1.0  0.1716
  C  C58  1  0.545500  0.572200  0.396300  1.0  -0.1588
  C  C59  1  0.637900  0.583400  0.319000  1.0  -0.1206
  C  C60  1  0.581300  0.600900  0.226000  1.0  -0.1547
  C  C61  1  0.440600  0.606100  0.213500  1.0  0.1562
  C  C62  1  0.792500  0.573300  0.334400  1.0  0.7561
  C  C63  1  0.041400  0.733400  0.210800  1.0  0.1603
  C  C64  1  0.039400  0.790000  0.157100  1.0  -0.1285
  C  C65  1  0.092100  0.791700  0.061500  1.0  -0.0999
  C  C66  1  0.145200  0.737300  0.022900  1.0  -0.1012
  C  C67  1  0.148700  0.682700  0.081900  1.0  0.1344
  C  C68  1  0.091500  0.852200  0.001000  1.0  0.7488
  C  C69  1  0.406200  0.920200  0.879200  1.0  0.1718
  C  C70  1  0.545500  0.927800  0.896300  1.0  -0.1584
  C  C71  1  0.637900  0.916600  0.819000  1.0  -0.1204
  C  C72  1  0.581300  0.899100  0.726000  1.0  -0.1546
  C  C73  1  0.440600  0.893900  0.713500  1.0  0.1559
  C  C74  1  0.792500  0.926700  0.834400  1.0  0.7563
  C  C75  1  0.958600  0.233400  0.289200  1.0  0.1604
  C  C76  1  0.960600  0.290000  0.342900  1.0  -0.1279
  C  C77  1  0.907900  0.291700  0.438500  1.0  -0.1001
  C  C78  1  0.854800  0.237300  0.477100  1.0  -0.0997
  C  C79  1  0.851300  0.182700  0.418100  1.0  0.1346
  C  C80  1  0.908500  0.352200  0.499000  1.0  0.7496
  C  C81  1  0.593800  0.420200  0.620800  1.0  0.1712
  C  C82  1  0.454500  0.427800  0.603700  1.0  -0.1566
  C  C83  1  0.362100  0.416600  0.681000  1.0  -0.1214
  C  C84  1  0.418700  0.399100  0.774000  1.0  -0.1541
  C  C85  1  0.559400  0.393900  0.786500  1.0  0.1566
  C  C86  1  0.207500  0.426700  0.665600  1.0  0.7587
  N  N87  1  0.903000  0.319700  0.825800  1.0  -0.3482
  N  N88  1  0.647700  0.095200  0.211200  1.0  -0.3581
  N  N89  1  0.875400  0.996300  0.143100  1.0  -0.5011
  N  N90  1  0.801800  0.954100  0.163700  1.0  0.5068
  N  N91  1  0.736300  0.911900  0.186000  1.0  -0.3811
  N  N92  1  0.097000  0.819700  0.674200  1.0  -0.3487
  N  N93  1  0.352300  0.595200  0.288800  1.0  -0.3524
  N  N94  1  0.124600  0.496300  0.356900  1.0  -0.5012
  N  N95  1  0.198200  0.454100  0.336300  1.0  0.5074
  N  N96  1  0.263700  0.411900  0.314000  1.0  -0.3835
  N  N97  1  0.097000  0.680300  0.174200  1.0  -0.3487
  N  N98  1  0.352300  0.904800  0.788800  1.0  -0.3526
  N  N99  1  0.124600  0.003700  0.856900  1.0  -0.5013
  N  N100  1  0.198200  0.045900  0.836300  1.0  0.5071
  N  N101  1  0.263700  0.088100  0.814000  1.0  -0.3852
  N  N102  1  0.903000  0.180300  0.325800  1.0  -0.3488
  N  N103  1  0.647700  0.404800  0.711200  1.0  -0.3579
  N  N104  1  0.875400  0.503700  0.643100  1.0  -0.5008
  N  N105  1  0.801800  0.545900  0.663700  1.0  0.5061
  N  N106  1  0.736300  0.588100  0.686000  1.0  -0.3832
  O  O107  1  0.912000  0.096900  0.950300  1.0  -0.6539
  O  O108  1  0.897300  0.154500  0.092700  1.0  -0.6402
  O  O109  1  0.173300  0.051200  0.082900  1.0  -0.6555
  O  O110  1  0.132200  0.088400  0.236200  1.0  -0.6009
  O  O111  1  0.088000  0.596900  0.549700  1.0  -0.6547
  O  O112  1  0.102700  0.654500  0.407300  1.0  -0.6406
  O  O113  1  0.826700  0.551200  0.417100  1.0  -0.6554
  O  O114  1  0.867800  0.588400  0.263800  1.0  -0.6021
  O  O115  1  0.088000  0.903100  0.049700  1.0  -0.6537
  O  O116  1  0.102700  0.845500  0.907300  1.0  -0.6404
  O  O117  1  0.826700  0.948800  0.917100  1.0  -0.6551
  O  O118  1  0.867800  0.911600  0.763800  1.0  -0.6021
  O  O119  1  0.912000  0.403100  0.450300  1.0  -0.6542
  O  O120  1  0.897300  0.345500  0.592700  1.0  -0.6398
  O  O121  1  0.173300  0.448800  0.582900  1.0  -0.6554
  O  O122  1  0.132200  0.411600  0.736200  1.0  -0.6011
