# generated using pymatgen
data_Cd3H16C24(N5O4)2
_symmetry_space_group_name_H-M   'P 1'
_cell_length_a   9.62800000
_cell_length_b   21.33700000
_cell_length_c   13.20800000
_cell_angle_alpha   90.00000000
_cell_angle_beta   91.95300000
_cell_angle_gamma   90.00000000
_symmetry_Int_Tables_number   1
_chemical_formula_structural   Cd3H16C24(N5O4)2
_chemical_formula_sum   'Cd6 H32 C48 N20 O16'
_cell_volume   2711.77812034
_cell_formula_units_Z   2
loop_
 _symmetry_equiv_pos_site_id
 _symmetry_equiv_pos_as_xyz
  1  'x, y, z'
loop_
 _atom_site_type_symbol
 _atom_site_label
 _atom_site_symmetry_multiplicity
 _atom_site_fract_x
 _atom_site_fract_y
 _atom_site_fract_z
 _atom_site_occupancy
 _atom_site_charge
  Cd  Cd1  1  0.405540  0.908410  0.725770  1.0  0.9765
  Cd  Cd2  1  0.594460  0.408410  0.774230  1.0  0.9766
  Cd  Cd3  1  0.594460  0.091590  0.274230  1.0  0.9778
  Cd  Cd4  1  0.405540  0.591590  0.225770  1.0  0.9774
  Cd  Cd5  1  0.500000  0.000000  0.500000  1.0  1.1179
  Cd  Cd6  1  0.500000  0.500000  0.000000  1.0  1.1179
  H  H7  1  0.515600  0.731600  0.227600  1.0  0.0821
  H  H8  1  0.524700  0.823200  0.319000  1.0  0.1196
  H  H9  1  0.317800  0.738000  0.535100  1.0  0.1103
  H  H10  1  0.311400  0.649200  0.438400  1.0  0.0868
  H  H11  1  0.157200  0.921700  0.564800  1.0  0.0757
  H  H12  1  0.923900  0.936500  0.537200  1.0  0.116
  H  H13  1  0.871600  0.896300  0.827500  1.0  0.114
  H  H14  1  0.107100  0.887400  0.848800  1.0  0.075
  H  H15  1  0.484400  0.231600  0.272400  1.0  0.0818
  H  H16  1  0.475300  0.323200  0.181000  1.0  0.1194
  H  H17  1  0.682200  0.238000  0.964900  1.0  0.1096
  H  H18  1  0.688600  0.149200  0.061600  1.0  0.0865
  H  H19  1  0.842800  0.421700  0.935200  1.0  0.0758
  H  H20  1  0.076100  0.436500  0.962800  1.0  0.1166
  H  H21  1  0.128400  0.396300  0.672500  1.0  0.1142
  H  H22  1  0.892900  0.387400  0.651200  1.0  0.0748
  H  H23  1  0.484400  0.268400  0.772400  1.0  0.0819
  H  H24  1  0.475300  0.176800  0.681000  1.0  0.1194
  H  H25  1  0.682200  0.262000  0.464900  1.0  0.1096
  H  H26  1  0.688600  0.350800  0.561600  1.0  0.0873
  H  H27  1  0.842800  0.078300  0.435200  1.0  0.0759
  H  H28  1  0.076100  0.063500  0.462800  1.0  0.1164
  H  H29  1  0.128400  0.103700  0.172500  1.0  0.1141
  H  H30  1  0.892900  0.112600  0.151200  1.0  0.0749
  H  H31  1  0.515600  0.768400  0.727600  1.0  0.0821
  H  H32  1  0.524700  0.676800  0.819000  1.0  0.1197
  H  H33  1  0.317800  0.762000  0.035100  1.0  0.1104
  H  H34  1  0.311400  0.850800  0.938400  1.0  0.0876
  H  H35  1  0.157200  0.578300  0.064800  1.0  0.0759
  H  H36  1  0.923900  0.563500  0.037200  1.0  0.116
  H  H37  1  0.871600  0.603700  0.327500  1.0  0.114
  H  H38  1  0.107100  0.612600  0.348800  1.0  0.0751
  C  C39  1  0.475100  0.732950  0.290500  1.0  0.1713
  C  C40  1  0.480400  0.788230  0.344900  1.0  -0.1403
  C  C41  1  0.419700  0.791230  0.437700  1.0  -0.0804
  C  C42  1  0.358200  0.738030  0.472100  1.0  -0.1119
  C  C43  1  0.355700  0.684620  0.414200  1.0  0.1618
  C  C44  1  0.420000  0.850980  0.499200  1.0  0.7471
  C  C45  1  0.098800  0.917790  0.619000  1.0  0.1709
  C  C46  1  0.958500  0.925950  0.601500  1.0  -0.1753
  C  C47  1  0.870000  0.918470  0.679900  1.0  -0.1051
  C  C48  1  0.928100  0.902900  0.772800  1.0  -0.1524
  C  C49  1  0.069800  0.897000  0.784900  1.0  0.1855
  C  C50  1  0.716100  0.929100  0.664000  1.0  0.7569
  C  C51  1  0.524900  0.232950  0.209500  1.0  0.1726
  C  C52  1  0.519600  0.288230  0.155100  1.0  -0.1402
  C  C53  1  0.580300  0.291230  0.062300  1.0  -0.0804
  C  C54  1  0.641800  0.238030  0.027900  1.0  -0.1149
  C  C55  1  0.644300  0.184620  0.085800  1.0  0.1615
  C  C56  1  0.580000  0.350980  0.000800  1.0  0.7472
  C  C57  1  0.901200  0.417790  0.881000  1.0  0.1709
  C  C58  1  0.041500  0.425950  0.898500  1.0  -0.175
  C  C59  1  0.130000  0.418470  0.820100  1.0  -0.1033
  C  C60  1  0.071900  0.402900  0.727200  1.0  -0.1529
  C  C61  1  0.930200  0.397000  0.715100  1.0  0.1836
  C  C62  1  0.283900  0.429100  0.836000  1.0  0.7565
  C  C63  1  0.524900  0.267050  0.709500  1.0  0.1728
  C  C64  1  0.519600  0.211770  0.655100  1.0  -0.1386
  C  C65  1  0.580300  0.208770  0.562300  1.0  -0.0798
  C  C66  1  0.641800  0.261970  0.527900  1.0  -0.115
  C  C67  1  0.644300  0.315380  0.585800  1.0  0.1616
  C  C68  1  0.580000  0.149020  0.500800  1.0  0.7468
  C  C69  1  0.901200  0.082210  0.381000  1.0  0.1703
  C  C70  1  0.041500  0.074050  0.398500  1.0  -0.1753
  C  C71  1  0.130000  0.081530  0.320100  1.0  -0.1032
  C  C72  1  0.071900  0.097100  0.227200  1.0  -0.1533
  C  C73  1  0.930200  0.103000  0.215100  1.0  0.1838
  C  C74  1  0.283900  0.070900  0.336000  1.0  0.7562
  C  C75  1  0.475100  0.767050  0.790500  1.0  0.1714
  C  C76  1  0.480400  0.711770  0.844900  1.0  -0.139
  C  C77  1  0.419700  0.708770  0.937700  1.0  -0.0798
  C  C78  1  0.358200  0.761970  0.972100  1.0  -0.1128
  C  C79  1  0.355700  0.815380  0.914200  1.0  0.161
  C  C80  1  0.420000  0.649020  0.999200  1.0  0.7469
  C  C81  1  0.098800  0.582210  0.119000  1.0  0.171
  C  C82  1  0.958500  0.574050  0.101500  1.0  -0.1751
  C  C83  1  0.870000  0.581530  0.179900  1.0  -0.1048
  C  C84  1  0.928100  0.597100  0.272800  1.0  -0.1529
  C  C85  1  0.069800  0.603000  0.284900  1.0  0.1853
  C  C86  1  0.716100  0.570900  0.164000  1.0  0.7562
  N  N87  1  0.414400  0.681740  0.324500  1.0  -0.3644
  N  N88  1  0.155300  0.904530  0.710000  1.0  -0.3564
  N  N89  1  0.377400  0.000250  0.641900  1.0  -0.5575
  N  N90  1  0.298900  0.041010  0.658700  1.0  0.4933
  N  N91  1  0.223400  0.080600  0.675400  1.0  -0.3857
  N  N92  1  0.585600  0.181740  0.175500  1.0  -0.3641
  N  N93  1  0.844700  0.404530  0.790000  1.0  -0.3486
  N  N94  1  0.622600  0.500250  0.858100  1.0  -0.5582
  N  N95  1  0.701100  0.541010  0.841300  1.0  0.4961
  N  N96  1  0.776600  0.580600  0.824600  1.0  -0.3867
  N  N97  1  0.585600  0.318260  0.675500  1.0  -0.3645
  N  N98  1  0.844700  0.095470  0.290000  1.0  -0.3481
  N  N99  1  0.622600  0.999750  0.358100  1.0  -0.5575
  N  N100  1  0.701100  0.958990  0.341300  1.0  0.4977
  N  N101  1  0.776600  0.919400  0.324600  1.0  -0.3853
  N  N102  1  0.414400  0.818260  0.824500  1.0  -0.3644
  N  N103  1  0.155300  0.595470  0.210000  1.0  -0.3565
  N  N104  1  0.377400  0.499750  0.141900  1.0  -0.5568
  N  N105  1  0.298900  0.458990  0.158700  1.0  0.4958
  N  N106  1  0.223400  0.419400  0.175400  1.0  -0.3837
  O  O107  1  0.430300  0.900740  0.451500  1.0  -0.6919
  O  O108  1  0.405800  0.844110  0.591440  1.0  -0.6347
  O  O109  1  0.680100  0.953620  0.583000  1.0  -0.6428
  O  O110  1  0.640200  0.912370  0.733900  1.0  -0.61
  O  O111  1  0.569700  0.400740  0.048500  1.0  -0.6905
  O  O112  1  0.594200  0.344110  0.908560  1.0  -0.6349
  O  O113  1  0.319900  0.453620  0.917000  1.0  -0.6422
  O  O114  1  0.359800  0.412370  0.766100  1.0  -0.6107
  O  O115  1  0.569700  0.099260  0.548500  1.0  -0.6913
  O  O116  1  0.594200  0.155890  0.408560  1.0  -0.6341
  O  O117  1  0.319900  0.046380  0.417000  1.0  -0.6425
  O  O118  1  0.359800  0.087630  0.266100  1.0  -0.6106
  O  O119  1  0.430300  0.599260  0.951500  1.0  -0.6913
  O  O120  1  0.405800  0.655890  0.091440  1.0  -0.6341
  O  O121  1  0.680100  0.546380  0.083000  1.0  -0.6428
  O  O122  1  0.640200  0.587630  0.233900  1.0  -0.6101
