# generated using pymatgen
data_Cd3H16(C12N13)2
_symmetry_space_group_name_H-M   'P 1'
_cell_length_a   11.02900000
_cell_length_b   22.76200000
_cell_length_c   14.48000000
_cell_angle_alpha   90.00000000
_cell_angle_beta   97.14700000
_cell_angle_gamma   90.00000000
_symmetry_Int_Tables_number   1
_chemical_formula_structural   Cd3H16(C12N13)2
_chemical_formula_sum   'Cd6 H32 C48 N52'
_cell_volume   3606.84570783
_cell_formula_units_Z   2
loop_
 _symmetry_equiv_pos_site_id
 _symmetry_equiv_pos_as_xyz
  1  'x, y, z'
loop_
 _atom_site_type_symbol
 _atom_site_label
 _atom_site_symmetry_multiplicity
 _atom_site_fract_x
 _atom_site_fract_y
 _atom_site_fract_z
 _atom_site_occupancy
 _atom_site_charge
  Cd  Cd1  1  0.635830  0.925550  0.216340  1.0  0.8824
  Cd  Cd2  1  0.364170  0.425550  0.283660  1.0  0.883
  Cd  Cd3  1  0.364170  0.074450  0.783660  1.0  0.8843
  Cd  Cd4  1  0.635830  0.574450  0.716340  1.0  0.8829
  Cd  Cd5  1  0.500000  0.000000  0.000000  1.0  0.9012
  Cd  Cd6  1  0.500000  0.500000  0.500000  1.0  0.9012
  H  H7  1  0.914600  0.891600  0.330500  1.0  0.0847
  H  H8  1  0.117200  0.895800  0.314800  1.0  0.1176
  H  H9  1  0.025700  0.956400  0.056400  1.0  0.1129
  H  H10  1  0.826800  0.949700  0.079400  1.0  0.0599
  H  H11  1  0.552200  0.708300  0.699700  1.0  0.0717
  H  H12  1  0.546200  0.794400  0.778100  1.0  0.1207
  H  H13  1  0.695400  0.711600  0.008300  1.0  0.1177
  H  H14  1  0.699400  0.627500  0.921700  1.0  0.081
  H  H15  1  0.085400  0.391600  0.169500  1.0  0.0847
  H  H16  1  0.882800  0.395800  0.185200  1.0  0.1175
  H  H17  1  0.974300  0.456400  0.443600  1.0  0.1132
  H  H18  1  0.173200  0.449700  0.420600  1.0  0.0602
  H  H19  1  0.447800  0.208300  0.800300  1.0  0.0719
  H  H20  1  0.453800  0.294400  0.721900  1.0  0.1204
  H  H21  1  0.304600  0.211600  0.491700  1.0  0.1176
  H  H22  1  0.300600  0.127500  0.578300  1.0  0.0814
  H  H23  1  0.085400  0.108400  0.669500  1.0  0.0835
  H  H24  1  0.882800  0.104200  0.685200  1.0  0.1176
  H  H25  1  0.974300  0.043600  0.943600  1.0  0.113
  H  H26  1  0.173200  0.050300  0.920600  1.0  0.0607
  H  H27  1  0.447800  0.291700  0.300300  1.0  0.0721
  H  H28  1  0.453800  0.205600  0.221900  1.0  0.12
  H  H29  1  0.304600  0.288400  0.991700  1.0  0.1174
  H  H30  1  0.300600  0.372500  0.078300  1.0  0.0813
  H  H31  1  0.914600  0.608400  0.830500  1.0  0.0847
  H  H32  1  0.117200  0.604200  0.814800  1.0  0.1175
  H  H33  1  0.025700  0.543600  0.556400  1.0  0.1127
  H  H34  1  0.826800  0.550300  0.579400  1.0  0.0601
  H  H35  1  0.552200  0.791700  0.199700  1.0  0.072
  H  H36  1  0.546200  0.705600  0.278100  1.0  0.1204
  H  H37  1  0.695400  0.788400  0.508300  1.0  0.1174
  H  H38  1  0.699400  0.872500  0.421700  1.0  0.0814
  C  C39  1  0.937500  0.905200  0.274700  1.0  0.1527
  C  C40  1  0.059600  0.907700  0.266000  1.0  -0.1641
  C  C41  1  0.096600  0.928120  0.184000  1.0  -0.0469
  C  C42  1  0.005500  0.943400  0.113400  1.0  -0.1575
  C  C43  1  0.886200  0.939300  0.128000  1.0  0.1833
  C  C44  1  0.225000  0.935700  0.169300  1.0  0.332
  C  C45  1  0.582100  0.709100  0.762600  1.0  0.1709
  C  C46  1  0.577300  0.760900  0.809200  1.0  -0.1416
  C  C47  1  0.619200  0.763150  0.903200  1.0  -0.0293
  C  C48  1  0.665800  0.712050  0.945300  1.0  -0.1531
  C  C49  1  0.667800  0.661630  0.892500  1.0  0.145
  C  C50  1  0.612300  0.817170  0.956600  1.0  0.3492
  C  C51  1  0.062500  0.405200  0.225300  1.0  0.1532
  C  C52  1  0.940400  0.407700  0.234000  1.0  -0.1618
  C  C53  1  0.903400  0.428120  0.316000  1.0  -0.0481
  C  C54  1  0.994500  0.443400  0.386600  1.0  -0.1652
  C  C55  1  0.113800  0.439300  0.372000  1.0  0.1828
  C  C56  1  0.775000  0.435700  0.330700  1.0  0.3325
  C  C57  1  0.417900  0.209100  0.737400  1.0  0.1713
  C  C58  1  0.422700  0.260900  0.690800  1.0  -0.1432
  C  C59  1  0.380800  0.263150  0.596800  1.0  -0.0288
  C  C60  1  0.334200  0.212050  0.554700  1.0  -0.1522
  C  C61  1  0.332200  0.161630  0.607500  1.0  0.1453
  C  C62  1  0.387700  0.317170  0.543400  1.0  0.349
  C  C63  1  0.062500  0.094800  0.725300  1.0  0.1531
  C  C64  1  0.940400  0.092300  0.734000  1.0  -0.1623
  C  C65  1  0.903400  0.071880  0.816000  1.0  -0.0484
  C  C66  1  0.994500  0.056600  0.886600  1.0  -0.1621
  C  C67  1  0.113800  0.060700  0.872000  1.0  0.1828
  C  C68  1  0.775000  0.064300  0.830700  1.0  0.3327
  C  C69  1  0.417900  0.290900  0.237400  1.0  0.1721
  C  C70  1  0.422700  0.239100  0.190800  1.0  -0.1417
  C  C71  1  0.380800  0.236850  0.096800  1.0  -0.0302
  C  C72  1  0.334200  0.287950  0.054700  1.0  -0.1558
  C  C73  1  0.332200  0.338370  0.107500  1.0  0.1455
  C  C74  1  0.387700  0.182830  0.043400  1.0  0.3493
  C  C75  1  0.937500  0.594800  0.774700  1.0  0.1522
  C  C76  1  0.059600  0.592300  0.766000  1.0  -0.1645
  C  C77  1  0.096600  0.571880  0.684000  1.0  -0.047
  C  C78  1  0.005500  0.556600  0.613400  1.0  -0.1572
  C  C79  1  0.886200  0.560700  0.628000  1.0  0.1831
  C  C80  1  0.225000  0.564300  0.669300  1.0  0.3322
  C  C81  1  0.582100  0.790900  0.262600  1.0  0.1713
  C  C82  1  0.577300  0.739100  0.309200  1.0  -0.1407
  C  C83  1  0.619200  0.736850  0.403200  1.0  -0.0301
  C  C84  1  0.665800  0.787950  0.445300  1.0  -0.1531
  C  C85  1  0.667800  0.838370  0.392500  1.0  0.1451
  C  C86  1  0.612300  0.682830  0.456600  1.0  0.3491
  N  N87  1  0.849300  0.921220  0.207600  1.0  -0.3382
  N  N88  1  0.256700  0.960940  0.092600  1.0  -0.3042
  N  N89  1  0.376900  0.960080  0.104700  1.0  -0.029
  N  N90  1  0.417600  0.934780  0.186000  1.0  -0.1615
  N  N91  1  0.322000  0.918960  0.228400  1.0  -0.3532
  N  N92  1  0.627100  0.659220  0.802100  1.0  -0.3177
  N  N93  1  0.573300  0.868700  0.919100  1.0  -0.3289
  N  N94  1  0.577700  0.905110  0.991100  1.0  0.0103
  N  N95  1  0.616700  0.876610  0.069100  1.0  -0.0244
  N  N96  1  0.639500  0.820860  0.048900  1.0  -0.3295
  N  N97  1  0.636100  0.011830  0.131900  1.0  -0.4923
  N  N98  1  0.697800  0.052540  0.152200  1.0  0.3439
  N  N99  1  0.757200  0.092800  0.173100  1.0  -0.4184
  N  N100  1  0.150700  0.421220  0.292400  1.0  -0.343
  N  N101  1  0.743300  0.460940  0.407400  1.0  -0.305
  N  N102  1  0.623100  0.460080  0.395300  1.0  -0.0286
  N  N103  1  0.582400  0.434780  0.314000  1.0  -0.1604
  N  N104  1  0.678000  0.418960  0.271600  1.0  -0.3578
  N  N105  1  0.372900  0.159220  0.697900  1.0  -0.3179
  N  N106  1  0.426700  0.368700  0.580900  1.0  -0.32
  N  N107  1  0.422300  0.405110  0.508900  1.0  0.0112
  N  N108  1  0.383300  0.376610  0.430900  1.0  -0.0223
  N  N109  1  0.360500  0.320860  0.451100  1.0  -0.3344
  N  N110  1  0.363900  0.511830  0.368100  1.0  -0.4911
  N  N111  1  0.302200  0.552540  0.347800  1.0  0.347
  N  N112  1  0.242800  0.592800  0.326900  1.0  -0.418
  N  N113  1  0.150700  0.078780  0.792400  1.0  -0.3431
  N  N114  1  0.743300  0.039060  0.907400  1.0  -0.3042
  N  N115  1  0.623100  0.039920  0.895300  1.0  -0.0288
  N  N116  1  0.582400  0.065220  0.814000  1.0  -0.1597
  N  N117  1  0.678000  0.081040  0.771600  1.0  -0.3554
  N  N118  1  0.372900  0.340780  0.197900  1.0  -0.3175
  N  N119  1  0.426700  0.131300  0.080900  1.0  -0.3195
  N  N120  1  0.422300  0.094890  0.008900  1.0  0.0098
  N  N121  1  0.383300  0.123390  0.930900  1.0  -0.0217
  N  N122  1  0.360500  0.179140  0.951100  1.0  -0.3339
  N  N123  1  0.363900  0.988170  0.868100  1.0  -0.4916
  N  N124  1  0.302200  0.947460  0.847800  1.0  0.35
  N  N125  1  0.242800  0.907200  0.826900  1.0  -0.4168
  N  N126  1  0.849300  0.578780  0.707600  1.0  -0.3382
  N  N127  1  0.256700  0.539060  0.592600  1.0  -0.3039
  N  N128  1  0.376900  0.539920  0.604700  1.0  -0.0286
  N  N129  1  0.417600  0.565220  0.686000  1.0  -0.1618
  N  N130  1  0.322000  0.581040  0.728400  1.0  -0.3484
  N  N131  1  0.627100  0.840780  0.302100  1.0  -0.3172
  N  N132  1  0.573300  0.631300  0.419100  1.0  -0.3313
  N  N133  1  0.577700  0.594890  0.491100  1.0  0.009
  N  N134  1  0.616700  0.623390  0.569100  1.0  -0.0245
  N  N135  1  0.639500  0.679140  0.548900  1.0  -0.3298
  N  N136  1  0.636100  0.488170  0.631900  1.0  -0.4921
  N  N137  1  0.697800  0.447460  0.652200  1.0  0.3482
  N  N138  1  0.757200  0.407200  0.673100  1.0  -0.4162
