# generated using pymatgen
data_Cd3H16(C12N13)2
_symmetry_space_group_name_H-M   'P 1'
_cell_length_a   11.05400000
_cell_length_b   22.72300000
_cell_length_c   14.66600000
_cell_angle_alpha   90.00000000
_cell_angle_beta   96.80000000
_cell_angle_gamma   90.00000000
_symmetry_Int_Tables_number   1
_chemical_formula_structural   Cd3H16(C12N13)2
_chemical_formula_sum   'Cd6 H32 C48 N52'
_cell_volume   3657.89278904
_cell_formula_units_Z   2
loop_
 _symmetry_equiv_pos_site_id
 _symmetry_equiv_pos_as_xyz
  1  'x, y, z'
loop_
 _atom_site_type_symbol
 _atom_site_label
 _atom_site_symmetry_multiplicity
 _atom_site_fract_x
 _atom_site_fract_y
 _atom_site_fract_z
 _atom_site_occupancy
 _atom_site_charge
  Cd  Cd1  1  0.139250  0.924550  0.211060  1.0  0.8839
  Cd  Cd2  1  0.860750  0.424550  0.288940  1.0  0.8824
  Cd  Cd3  1  0.860750  0.075450  0.788940  1.0  0.8858
  Cd  Cd4  1  0.139250  0.575450  0.711060  1.0  0.8846
  Cd  Cd5  1  0.000000  0.000000  0.000000  1.0  0.9615
  Cd  Cd6  1  0.000000  0.500000  0.500000  1.0  0.9615
  H  H7  1  0.090800  0.712500  0.693600  1.0  0.0745
  H  H8  1  0.076700  0.798000  0.774300  1.0  0.1168
  H  H9  1  0.166600  0.706900  0.005600  1.0  0.1125
  H  H10  1  0.179200  0.624300  0.918200  1.0  0.0793
  H  H11  1  0.331900  0.940300  0.070900  1.0  0.073
  H  H12  1  0.531700  0.946300  0.049900  1.0  0.0997
  H  H13  1  0.618700  0.896900  0.311100  1.0  0.1114
  H  H14  1  0.414600  0.895000  0.326800  1.0  0.0786
  H  H15  1  0.909200  0.212500  0.806400  1.0  0.0736
  H  H16  1  0.923300  0.298000  0.725700  1.0  0.1167
  H  H17  1  0.833400  0.206900  0.494400  1.0  0.1124
  H  H18  1  0.820800  0.124300  0.581800  1.0  0.0789
  H  H19  1  0.668100  0.440300  0.429100  1.0  0.0742
  H  H20  1  0.468300  0.446300  0.450100  1.0  0.1003
  H  H21  1  0.381300  0.396900  0.188900  1.0  0.1116
  H  H22  1  0.585400  0.395000  0.173200  1.0  0.0781
  H  H23  1  0.909200  0.287500  0.306400  1.0  0.0736
  H  H24  1  0.923300  0.202000  0.225700  1.0  0.1165
  H  H25  1  0.833400  0.293100  0.994400  1.0  0.1122
  H  H26  1  0.820800  0.375700  0.081800  1.0  0.0782
  H  H27  1  0.668100  0.059700  0.929100  1.0  0.0742
  H  H28  1  0.468300  0.053700  0.950100  1.0  0.1002
  H  H29  1  0.381300  0.103100  0.688900  1.0  0.1117
  H  H30  1  0.585400  0.105000  0.673200  1.0  0.0781
  H  H31  1  0.090800  0.787500  0.193600  1.0  0.0742
  H  H32  1  0.076700  0.702000  0.274300  1.0  0.1165
  H  H33  1  0.166600  0.793100  0.505600  1.0  0.1124
  H  H34  1  0.179200  0.875700  0.418200  1.0  0.0786
  H  H35  1  0.331900  0.559700  0.570900  1.0  0.0731
  H  H36  1  0.531700  0.553700  0.549900  1.0  0.0999
  H  H37  1  0.618700  0.603100  0.811100  1.0  0.1113
  H  H38  1  0.414600  0.605000  0.826800  1.0  0.0787
  C  C39  1  0.105700  0.711430  0.757300  1.0  0.1555
  C  C40  1  0.096700  0.763000  0.805300  1.0  -0.1499
  C  C41  1  0.117600  0.762100  0.900130  1.0  -0.0417
  C  C42  1  0.150000  0.709110  0.942100  1.0  -0.142
  C  C43  1  0.157400  0.659680  0.889000  1.0  0.1385
  C  C44  1  0.107200  0.815980  0.953160  1.0  0.3606
  C  C45  1  0.390300  0.932550  0.120400  1.0  0.1652
  C  C46  1  0.510100  0.935960  0.107200  1.0  -0.1633
  C  C47  1  0.600200  0.923980  0.179600  1.0  -0.0485
  C  C48  1  0.562000  0.907160  0.261700  1.0  -0.179
  C  C49  1  0.438500  0.905600  0.270400  1.0  0.1467
  C  C50  1  0.728400  0.931670  0.165360  1.0  0.329
  C  C51  1  0.894300  0.211430  0.742700  1.0  0.1572
  C  C52  1  0.903300  0.263000  0.694700  1.0  -0.1491
  C  C53  1  0.882400  0.262100  0.599870  1.0  -0.0411
  C  C54  1  0.850000  0.209110  0.557900  1.0  -0.1423
  C  C55  1  0.842600  0.159680  0.611000  1.0  0.1391
  C  C56  1  0.892800  0.315980  0.546840  1.0  0.3607
  C  C57  1  0.609700  0.432550  0.379600  1.0  0.1649
  C  C58  1  0.489900  0.435960  0.392800  1.0  -0.1647
  C  C59  1  0.399800  0.423980  0.320400  1.0  -0.049
  C  C60  1  0.438000  0.407160  0.238300  1.0  -0.1768
  C  C61  1  0.561500  0.405600  0.229600  1.0  0.1464
  C  C62  1  0.271600  0.431670  0.334640  1.0  0.3312
  C  C63  1  0.894300  0.288570  0.242700  1.0  0.1572
  C  C64  1  0.903300  0.237000  0.194700  1.0  -0.1501
  C  C65  1  0.882400  0.237900  0.099870  1.0  -0.0423
  C  C66  1  0.850000  0.290890  0.057900  1.0  -0.1434
  C  C67  1  0.842600  0.340320  0.111000  1.0  0.1401
  C  C68  1  0.892800  0.184020  0.046840  1.0  0.3604
  C  C69  1  0.609700  0.067450  0.879600  1.0  0.165
  C  C70  1  0.489900  0.064040  0.892800  1.0  -0.1645
  C  C71  1  0.399800  0.076020  0.820400  1.0  -0.0485
  C  C72  1  0.438000  0.092840  0.738300  1.0  -0.1773
  C  C73  1  0.561500  0.094400  0.729600  1.0  0.1457
  C  C74  1  0.271600  0.068330  0.834640  1.0  0.3308
  C  C75  1  0.105700  0.788570  0.257300  1.0  0.1557
  C  C76  1  0.096700  0.737000  0.305300  1.0  -0.1498
  C  C77  1  0.117600  0.737900  0.400130  1.0  -0.0422
  C  C78  1  0.150000  0.790890  0.442100  1.0  -0.1419
  C  C79  1  0.157400  0.840320  0.389000  1.0  0.1394
  C  C80  1  0.107200  0.684020  0.453160  1.0  0.3599
  C  C81  1  0.390300  0.567450  0.620400  1.0  0.1655
  C  C82  1  0.510100  0.564040  0.607200  1.0  -0.1631
  C  C83  1  0.600200  0.576020  0.679600  1.0  -0.0489
  C  C84  1  0.562000  0.592840  0.761700  1.0  -0.1793
  C  C85  1  0.438500  0.594400  0.770400  1.0  0.1461
  C  C86  1  0.728400  0.568330  0.665360  1.0  0.3291
  N  N87  1  0.134800  0.659960  0.797920  1.0  -0.3258
  N  N88  1  0.069600  0.867420  0.916890  1.0  -0.3138
  N  N89  1  0.073400  0.903210  0.987990  1.0  -0.0076
  N  N90  1  0.112900  0.874530  0.064170  1.0  -0.0632
  N  N91  1  0.134200  0.819010  0.043780  1.0  -0.3076
  N  N92  1  0.352100  0.918560  0.201820  1.0  -0.3545
  N  N93  1  0.761200  0.959160  0.092300  1.0  -0.3192
  N  N94  1  0.881200  0.958990  0.104830  1.0  0.0041
  N  N95  1  0.920200  0.931920  0.182430  1.0  -0.119
  N  N96  1  0.824600  0.914040  0.222940  1.0  -0.3502
  N  N97  1  0.142700  0.008620  0.125260  1.0  -0.4863
  N  N98  1  0.219000  0.045150  0.134700  1.0  0.3573
  N  N99  1  0.293100  0.080100  0.143400  1.0  -0.4011
  N  N100  1  0.865200  0.159960  0.702080  1.0  -0.3239
  N  N101  1  0.930400  0.367420  0.583110  1.0  -0.3114
  N  N102  1  0.926600  0.403210  0.512010  1.0  -0.0069
  N  N103  1  0.887100  0.374530  0.435830  1.0  -0.0618
  N  N104  1  0.865800  0.319010  0.456220  1.0  -0.3085
  N  N105  1  0.647900  0.418560  0.298180  1.0  -0.3596
  N  N106  1  0.238800  0.459160  0.407700  1.0  -0.3201
  N  N107  1  0.118800  0.458990  0.395170  1.0  0.0037
  N  N108  1  0.079800  0.431920  0.317570  1.0  -0.1188
  N  N109  1  0.175400  0.414040  0.277060  1.0  -0.3588
  N  N110  1  0.857300  0.508620  0.374740  1.0  -0.4849
  N  N111  1  0.781000  0.545150  0.365300  1.0  0.3619
  N  N112  1  0.706900  0.580100  0.356600  1.0  -0.401
  N  N113  1  0.865200  0.340040  0.202080  1.0  -0.3234
  N  N114  1  0.930400  0.132580  0.083110  1.0  -0.3099
  N  N115  1  0.926600  0.096790  0.012010  1.0  -0.0067
  N  N116  1  0.887100  0.125470  0.935830  1.0  -0.0617
  N  N117  1  0.865800  0.180990  0.956220  1.0  -0.3085
  N  N118  1  0.647900  0.081440  0.798180  1.0  -0.3591
  N  N119  1  0.238800  0.040840  0.907700  1.0  -0.3199
  N  N120  1  0.118800  0.041010  0.895170  1.0  0.004
  N  N121  1  0.079800  0.068080  0.817570  1.0  -0.1181
  N  N122  1  0.175400  0.085960  0.777060  1.0  -0.3594
  N  N123  1  0.857300  0.991380  0.874740  1.0  -0.4849
  N  N124  1  0.781000  0.954850  0.865300  1.0  0.3656
  N  N125  1  0.706900  0.919900  0.856600  1.0  -0.3975
  N  N126  1  0.134800  0.840040  0.297920  1.0  -0.3247
  N  N127  1  0.069600  0.632580  0.416890  1.0  -0.3123
  N  N128  1  0.073400  0.596790  0.487990  1.0  -0.0076
  N  N129  1  0.112900  0.625470  0.564170  1.0  -0.0637
  N  N130  1  0.134200  0.680990  0.543780  1.0  -0.3075
  N  N131  1  0.352100  0.581440  0.701820  1.0  -0.3541
  N  N132  1  0.761200  0.540840  0.592300  1.0  -0.3195
  N  N133  1  0.881200  0.541010  0.604830  1.0  0.0049
  N  N134  1  0.920200  0.568080  0.682430  1.0  -0.119
  N  N135  1  0.824600  0.585960  0.722940  1.0  -0.3521
  N  N136  1  0.142700  0.491380  0.625260  1.0  -0.4858
  N  N137  1  0.219000  0.454850  0.634700  1.0  0.3614
  N  N138  1  0.293100  0.419900  0.643400  1.0  -0.3951
