# generated using pymatgen
data_NiH6C9(NO)3
_symmetry_space_group_name_H-M   'P 1'
_cell_length_a   7.49330000
_cell_length_b   14.06050000
_cell_length_c   14.06050000
_cell_angle_alpha   97.71360000
_cell_angle_beta   101.34100000
_cell_angle_gamma   101.34100000
_symmetry_Int_Tables_number   1
_chemical_formula_structural   NiH6C9(NO)3
_chemical_formula_sum   'Ni4 H24 C36 N12 O12'
_cell_volume   1400.90055871
_cell_formula_units_Z   4
loop_
 _symmetry_equiv_pos_site_id
 _symmetry_equiv_pos_as_xyz
  1  'x, y, z'
loop_
 _atom_site_type_symbol
 _atom_site_label
 _atom_site_symmetry_multiplicity
 _atom_site_fract_x
 _atom_site_fract_y
 _atom_site_fract_z
 _atom_site_occupancy
 _atom_site_charge
  Ni  Ni1  1  0.750000  0.411230  0.588770  1.0  0.7154
  Ni  Ni2  1  0.250000  0.588770  0.411230  1.0  0.7026
  Ni  Ni3  1  0.500000  0.000000  0.000000  1.0  0.8414
  Ni  Ni4  1  0.000000  0.000000  0.000000  1.0  0.8414
  H  H5  1  0.631000  0.135300  0.368300  1.0  0.1278
  H  H6  1  0.582300  0.019400  0.228600  1.0  0.0764
  H  H7  1  0.599300  0.339500  0.197100  1.0  0.1274
  H  H8  1  0.545200  0.217100  0.062100  1.0  0.0828
  H  H9  1  0.884000  0.236900  0.619100  1.0  0.0906
  H  H10  1  0.897600  0.122900  0.728700  1.0  0.1206
  H  H11  1  0.869000  0.631700  0.864700  1.0  0.1285
  H  H12  1  0.917700  0.771400  0.980600  1.0  0.0754
  H  H13  1  0.900700  0.802900  0.660500  1.0  0.1296
  H  H14  1  0.954800  0.937900  0.782900  1.0  0.0834
  H  H15  1  0.616000  0.380900  0.763100  1.0  0.091
  H  H16  1  0.602400  0.271300  0.877100  1.0  0.1203
  H  H17  1  0.369000  0.864700  0.631700  1.0  0.1283
  H  H18  1  0.417700  0.980600  0.771400  1.0  0.0762
  H  H19  1  0.400700  0.660500  0.802900  1.0  0.127
  H  H20  1  0.454800  0.782900  0.937900  1.0  0.0825
  H  H21  1  0.116000  0.763100  0.380900  1.0  0.0912
  H  H22  1  0.102400  0.877100  0.271300  1.0  0.1201
  H  H23  1  0.131000  0.368300  0.135300  1.0  0.1289
  H  H24  1  0.082300  0.228600  0.019400  1.0  0.0756
  H  H25  1  0.099300  0.197100  0.339500  1.0  0.1287
  H  H26  1  0.045200  0.062100  0.217100  1.0  0.0842
  H  H27  1  0.384000  0.619100  0.236900  1.0  0.0906
  H  H28  1  0.397600  0.728700  0.122900  1.0  0.1202
  C  C29  1  0.615200  0.153980  0.306740  1.0  -0.148
  C  C30  1  0.621800  0.251920  0.298580  1.0  0.0002
  C  C31  1  0.584700  0.084590  0.222050  1.0  0.1599
  C  C32  1  0.658700  0.331080  0.388180  1.0  0.6423
  C  C33  1  0.595700  0.274680  0.205620  1.0  -0.1441
  C  C34  1  0.563800  0.200390  0.124470  1.0  0.154
  C  C35  1  0.832100  0.240020  0.673980  1.0  0.1388
  C  C36  1  0.836800  0.173940  0.737860  1.0  -0.1215
  C  C37  1  0.884800  0.693260  0.846020  1.0  -0.1498
  C  C38  1  0.878200  0.701420  0.748080  1.0  0.0023
  C  C39  1  0.915300  0.777950  0.915410  1.0  0.1529
  C  C40  1  0.841300  0.611820  0.668920  1.0  0.6421
  C  C41  1  0.904300  0.794380  0.725320  1.0  -0.1391
  C  C42  1  0.936200  0.875530  0.799610  1.0  0.1565
  C  C43  1  0.667900  0.326020  0.759980  1.0  0.1417
  C  C44  1  0.663200  0.262140  0.826060  1.0  -0.1204
  C  C45  1  0.384800  0.846020  0.693260  1.0  -0.1493
  C  C46  1  0.378200  0.748080  0.701420  1.0  -0.0016
  C  C47  1  0.415300  0.915410  0.777950  1.0  0.1546
  C  C48  1  0.341300  0.668920  0.611820  1.0  0.6417
  C  C49  1  0.404300  0.725320  0.794380  1.0  -0.1437
  C  C50  1  0.436200  0.799610  0.875530  1.0  0.1523
  C  C51  1  0.167900  0.759980  0.326020  1.0  0.1397
  C  C52  1  0.163200  0.826060  0.262140  1.0  -0.1219
  C  C53  1  0.115200  0.306740  0.153980  1.0  -0.1483
  C  C54  1  0.121800  0.298580  0.251920  1.0  0.0046
  C  C55  1  0.084700  0.222050  0.084590  1.0  0.1554
  C  C56  1  0.158700  0.388180  0.331080  1.0  0.6403
  C  C57  1  0.095700  0.205620  0.274680  1.0  -0.1398
  C  C58  1  0.063800  0.124470  0.200390  1.0  0.1573
  C  C59  1  0.332100  0.673980  0.240020  1.0  0.1416
  C  C60  1  0.336800  0.737860  0.173940  1.0  -0.1209
  C  C61  1  0.750000  0.113140  0.886860  1.0  0.6337
  C  C62  1  0.750000  0.184260  0.815740  1.0  -0.0354
  C  C63  1  0.250000  0.886860  0.113140  1.0  0.636
  C  C64  1  0.250000  0.815740  0.184260  1.0  -0.0341
  N  N65  1  0.558700  0.106170  0.131450  1.0  -0.29
  N  N66  1  0.941300  0.868550  0.893830  1.0  -0.2883
  N  N67  1  0.441300  0.893830  0.868550  1.0  -0.2894
  N  N68  1  0.058700  0.131450  0.106170  1.0  -0.29
  N  N69  1  0.750000  0.315820  0.684180  1.0  -0.2914
  N  N70  1  0.250000  0.684180  0.315820  1.0  -0.2908
  N  N71  1  0.250000  0.046450  0.953550  1.0  -0.6408
  N  N72  1  0.250000  0.102340  0.897660  1.0  0.5414
  N  N73  1  0.250000  0.156300  0.843700  1.0  -0.4275
  N  N74  1  0.750000  0.953550  0.046450  1.0  -0.6425
  N  N75  1  0.750000  0.897660  0.102340  1.0  0.5331
  N  N76  1  0.750000  0.843700  0.156300  1.0  -0.4273
  O  O77  1  0.626400  0.109430  0.935730  1.0  -0.5572
  O  O78  1  0.670700  0.418790  0.376530  1.0  -0.5484
  O  O79  1  0.676100  0.303130  0.470750  1.0  -0.5753
  O  O80  1  0.873600  0.064270  0.890570  1.0  -0.5572
  O  O81  1  0.829300  0.623470  0.581210  1.0  -0.5518
  O  O82  1  0.823900  0.529250  0.696870  1.0  -0.5767
  O  O83  1  0.373600  0.890570  0.064270  1.0  -0.5567
  O  O84  1  0.329300  0.581210  0.623470  1.0  -0.5486
  O  O85  1  0.323900  0.696870  0.529250  1.0  -0.5765
  O  O86  1  0.126400  0.935730  0.109430  1.0  -0.5559
  O  O87  1  0.170700  0.376530  0.418790  1.0  -0.5529
  O  O88  1  0.176100  0.470750  0.303130  1.0  -0.5772
