# generated using pymatgen
data_Ni2H8C11NO7
_symmetry_space_group_name_H-M   'P 1'
_cell_length_a   11.07700000
_cell_length_b   14.81560000
_cell_length_c   13.43360000
_cell_angle_alpha   99.04600000
_cell_angle_beta   90.00000000
_cell_angle_gamma   90.00000000
_symmetry_Int_Tables_number   1
_chemical_formula_structural   Ni2H8C11NO7
_chemical_formula_sum   'Ni8 H32 C44 N4 O28'
_cell_volume   2177.20022983
_cell_formula_units_Z   4
loop_
 _symmetry_equiv_pos_site_id
 _symmetry_equiv_pos_as_xyz
  1  'x, y, z'
loop_
 _atom_site_type_symbol
 _atom_site_label
 _atom_site_symmetry_multiplicity
 _atom_site_fract_x
 _atom_site_fract_y
 _atom_site_fract_z
 _atom_site_occupancy
 _atom_site_charge
  Ni  Ni1  1  0.998630  0.956530  0.888250  1.0  1.0384
  Ni  Ni2  1  0.148190  0.864880  0.092480  1.0  0.9426
  Ni  Ni3  1  0.498630  0.043470  0.611750  1.0  1.0384
  Ni  Ni4  1  0.648190  0.135120  0.407520  1.0  0.9515
  Ni  Ni5  1  0.001370  0.043470  0.111750  1.0  1.0388
  Ni  Ni6  1  0.851810  0.135120  0.907520  1.0  0.9529
  Ni  Ni7  1  0.501370  0.956530  0.388250  1.0  1.0381
  Ni  Ni8  1  0.351810  0.864880  0.592480  1.0  0.9449
  H  H9  1  0.062100  0.114300  0.962500  1.0  0.4645
  H  H10  1  0.366000  0.047100  0.927400  1.0  0.1123
  H  H11  1  0.397500  0.946900  0.090000  1.0  0.1006
  H  H12  1  0.497300  0.878100  0.911800  1.0  0.1092
  H  H13  1  0.104300  0.700500  0.193100  1.0  0.0845
  H  H14  1  0.055500  0.551000  0.157400  1.0  0.1287
  H  H15  1  0.008700  0.582000  0.876300  1.0  0.1236
  H  H16  1  0.071700  0.729200  0.918400  1.0  0.0735
  H  H17  1  0.562100  0.885700  0.537500  1.0  0.4647
  H  H18  1  0.866000  0.952900  0.572600  1.0  0.1125
  H  H19  1  0.897500  0.053100  0.410000  1.0  0.0999
  H  H20  1  0.997300  0.121900  0.588200  1.0  0.1122
  H  H21  1  0.604300  0.299500  0.306900  1.0  0.0838
  H  H22  1  0.555500  0.449000  0.342600  1.0  0.1288
  H  H23  1  0.508700  0.418000  0.623700  1.0  0.1241
  H  H24  1  0.571700  0.270800  0.581600  1.0  0.0741
  H  H25  1  0.937900  0.885700  0.037500  1.0  0.465
  H  H26  1  0.634000  0.952900  0.072600  1.0  0.1128
  H  H27  1  0.602500  0.053100  0.910000  1.0  0.1004
  H  H28  1  0.502700  0.121900  0.088200  1.0  0.1118
  H  H29  1  0.895700  0.299500  0.806900  1.0  0.0837
  H  H30  1  0.944500  0.449000  0.842600  1.0  0.1288
  H  H31  1  0.991300  0.418000  0.123700  1.0  0.1239
  H  H32  1  0.928300  0.270800  0.081600  1.0  0.0739
  H  H33  1  0.437900  0.114300  0.462500  1.0  0.4646
  H  H34  1  0.134000  0.047100  0.427400  1.0  0.1126
  H  H35  1  0.102500  0.946900  0.590000  1.0  0.1016
  H  H36  1  0.002700  0.878100  0.411800  1.0  0.1088
  H  H37  1  0.395700  0.700500  0.693100  1.0  0.0843
  H  H38  1  0.444500  0.551000  0.657400  1.0  0.1285
  H  H39  1  0.491300  0.582000  0.376300  1.0  0.1235
  H  H40  1  0.428300  0.729200  0.418400  1.0  0.0737
  C  C41  1  0.378200  0.988500  0.951000  1.0  -0.1541
  C  C42  1  0.393800  0.006300  0.066700  1.0  -0.1642
  C  C43  1  0.491500  0.941000  0.898100  1.0  -0.1546
  C  C44  1  0.264400  0.929000  0.926100  1.0  0.7057
  C  C45  1  0.280800  0.055600  0.111300  1.0  0.6962
  C  C46  1  0.475500  0.940900  0.785000  1.0  0.7146
  C  C47  1  0.087600  0.676000  0.126400  1.0  0.1877
  C  C48  1  0.054600  0.586400  0.106100  1.0  -0.1926
  C  C49  1  0.020500  0.548300  0.011800  1.0  0.0959
  C  C50  1  0.028900  0.603700  0.942900  1.0  -0.1882
  C  C51  1  0.067300  0.693200  0.969100  1.0  0.2019
  C  C52  1  0.878200  0.011500  0.549000  1.0  -0.1542
  C  C53  1  0.893800  0.993700  0.433300  1.0  -0.1639
  C  C54  1  0.991500  0.059000  0.601900  1.0  -0.1538
  C  C55  1  0.764400  0.071000  0.573900  1.0  0.7039
  C  C56  1  0.780800  0.944400  0.388700  1.0  0.6987
  C  C57  1  0.975500  0.059100  0.715000  1.0  0.7127
  C  C58  1  0.587600  0.324000  0.373600  1.0  0.1868
  C  C59  1  0.554600  0.413600  0.393900  1.0  -0.193
  C  C60  1  0.520500  0.451700  0.488200  1.0  0.0957
  C  C61  1  0.528900  0.396300  0.557100  1.0  -0.1897
  C  C62  1  0.567300  0.306800  0.530900  1.0  0.2025
  C  C63  1  0.621800  0.011500  0.049000  1.0  -0.1547
  C  C64  1  0.606200  0.993700  0.933300  1.0  -0.1649
  C  C65  1  0.508500  0.059000  0.101900  1.0  -0.1538
  C  C66  1  0.735600  0.071000  0.073900  1.0  0.7052
  C  C67  1  0.719200  0.944400  0.888700  1.0  0.6994
  C  C68  1  0.524500  0.059100  0.215000  1.0  0.712
  C  C69  1  0.912400  0.324000  0.873600  1.0  0.1873
  C  C70  1  0.945400  0.413600  0.893900  1.0  -0.193
  C  C71  1  0.979500  0.451700  0.988200  1.0  0.0959
  C  C72  1  0.971100  0.396300  0.057100  1.0  -0.1893
  C  C73  1  0.932700  0.306800  0.030900  1.0  0.2027
  C  C74  1  0.121800  0.988500  0.451000  1.0  -0.1548
  C  C75  1  0.106200  0.006300  0.566700  1.0  -0.1651
  C  C76  1  0.008500  0.941000  0.398100  1.0  -0.1542
  C  C77  1  0.235600  0.929000  0.426100  1.0  0.7068
  C  C78  1  0.219200  0.055600  0.611300  1.0  0.6975
  C  C79  1  0.024500  0.940900  0.285000  1.0  0.7142
  C  C80  1  0.412400  0.676000  0.626400  1.0  0.1873
  C  C81  1  0.445400  0.586400  0.606100  1.0  -0.1926
  C  C82  1  0.479500  0.548300  0.511800  1.0  0.096
  C  C83  1  0.471100  0.603700  0.442900  1.0  -0.188
  C  C84  1  0.432700  0.693200  0.469100  1.0  0.2022
  N  N85  1  0.097200  0.729700  0.058600  1.0  -0.3297
  N  N86  1  0.597200  0.270300  0.441400  1.0  -0.3283
  N  N87  1  0.902800  0.270300  0.941400  1.0  -0.3278
  N  N88  1  0.402800  0.729700  0.558600  1.0  -0.3281
  O  O89  1  0.185700  0.958900  0.873200  1.0  -0.5925
  O  O90  1  0.256000  0.855400  0.962200  1.0  -0.6375
  O  O91  1  0.186500  0.006500  0.113000  1.0  -0.6733
  O  O92  1  0.282000  0.138800  0.141000  1.0  -0.5662
  O  O93  1  0.425900  0.872800  0.734500  1.0  -0.6092
  O  O94  1  0.509400  0.010500  0.751700  1.0  -0.5858
  O  O95  1  0.998400  0.085000  0.972500  1.0  -0.9416
  O  O96  1  0.685700  0.041100  0.626800  1.0  -0.5929
  O  O97  1  0.756000  0.144600  0.537800  1.0  -0.6369
  O  O98  1  0.686500  0.993500  0.387000  1.0  -0.6723
  O  O99  1  0.782000  0.861200  0.359000  1.0  -0.5652
  O  O100  1  0.925900  0.127200  0.765500  1.0  -0.6086
  O  O101  1  0.009400  0.989500  0.748300  1.0  -0.5849
  O  O102  1  0.498400  0.915000  0.527500  1.0  -0.9423
  O  O103  1  0.814300  0.041100  0.126800  1.0  -0.5929
  O  O104  1  0.744000  0.144600  0.037800  1.0  -0.6366
  O  O105  1  0.813500  0.993500  0.887000  1.0  -0.6725
  O  O106  1  0.718000  0.861200  0.859000  1.0  -0.565
  O  O107  1  0.574100  0.127200  0.265500  1.0  -0.6086
  O  O108  1  0.490600  0.989500  0.248300  1.0  -0.5848
  O  O109  1  0.001600  0.915000  0.027500  1.0  -0.9427
  O  O110  1  0.314300  0.958900  0.373200  1.0  -0.5923
  O  O111  1  0.244000  0.855400  0.462200  1.0  -0.6372
  O  O112  1  0.313500  0.006500  0.613000  1.0  -0.6734
  O  O113  1  0.218000  0.138800  0.641000  1.0  -0.5659
  O  O114  1  0.074100  0.872800  0.234500  1.0  -0.6088
  O  O115  1  0.990600  0.010500  0.251700  1.0  -0.5852
  O  O116  1  0.501600  0.085000  0.472500  1.0  -0.9418
