# generated using pymatgen
data_VHC4O5
_symmetry_space_group_name_H-M   'P 1'
_cell_length_a   7.11300000
_cell_length_b   9.95900000
_cell_length_c   9.95900000
_cell_angle_alpha   90.00000000
_cell_angle_beta   90.00000000
_cell_angle_gamma   90.00000000
_symmetry_Int_Tables_number   1
_chemical_formula_structural   VHC4O5
_chemical_formula_sum   'V4 H4 C16 O20'
_cell_volume   705.47929695
_cell_formula_units_Z   4
loop_
 _symmetry_equiv_pos_site_id
 _symmetry_equiv_pos_as_xyz
  1  'x, y, z'
loop_
 _atom_site_type_symbol
 _atom_site_label
 _atom_site_symmetry_multiplicity
 _atom_site_fract_x
 _atom_site_fract_y
 _atom_site_fract_z
 _atom_site_occupancy
 _atom_site_charge
  V  V1  1  0.500000  0.609100  0.890900  1.0  1.5509
  V  V2  1  0.500000  0.390900  0.109100  1.0  1.556
  V  V3  1  0.500000  0.109100  0.609100  1.0  1.5519
  V  V4  1  0.500000  0.890900  0.390900  1.0  1.5538
  H  H5  1  0.500000  0.356300  0.856300  1.0  0.4606
  H  H6  1  0.500000  0.643700  0.143700  1.0  0.4601
  H  H7  1  0.500000  0.143700  0.356300  1.0  0.4611
  H  H8  1  0.500000  0.856300  0.643700  1.0  0.4602
  C  C9  1  0.500000  0.442200  0.414400  1.0  0.2184
  C  C10  1  0.500000  0.557800  0.585600  1.0  0.2185
  C  C11  1  0.500000  0.585600  0.442200  1.0  0.2181
  C  C12  1  0.500000  0.414400  0.557800  1.0  0.2181
  C  C13  1  0.500000  0.057800  0.914400  1.0  0.2186
  C  C14  1  0.500000  0.942200  0.085600  1.0  0.2188
  C  C15  1  0.500000  0.914400  0.942200  1.0  0.218
  C  C16  1  0.500000  0.085600  0.057800  1.0  0.2187
  C  C17  1  0.101000  0.551600  0.948400  1.0  0.2309
  C  C18  1  0.101000  0.448400  0.051600  1.0  0.231
  C  C19  1  0.101000  0.051600  0.551600  1.0  0.2298
  C  C20  1  0.101000  0.948400  0.448400  1.0  0.2316
  C  C21  1  0.899000  0.948400  0.448400  1.0  0.2309
  C  C22  1  0.899000  0.051600  0.551600  1.0  0.2294
  C  C23  1  0.899000  0.448400  0.051600  1.0  0.2302
  C  C24  1  0.899000  0.551600  0.948400  1.0  0.2307
  O  O25  1  0.500000  0.629900  0.687900  1.0  -0.4735
  O  O26  1  0.500000  0.370100  0.312100  1.0  -0.4745
  O  O27  1  0.500000  0.312100  0.629900  1.0  -0.4736
  O  O28  1  0.500000  0.687900  0.370100  1.0  -0.4728
  O  O29  1  0.500000  0.870100  0.187900  1.0  -0.474
  O  O30  1  0.500000  0.129900  0.812100  1.0  -0.4736
  O  O31  1  0.500000  0.187900  0.129900  1.0  -0.4732
  O  O32  1  0.500000  0.812100  0.870100  1.0  -0.4728
  O  O33  1  0.220300  0.617500  0.882500  1.0  -0.4864
  O  O34  1  0.220300  0.382500  0.117500  1.0  -0.4872
  O  O35  1  0.220300  0.117500  0.617500  1.0  -0.4855
  O  O36  1  0.220300  0.882500  0.382500  1.0  -0.488
  O  O37  1  0.779700  0.882500  0.382500  1.0  -0.4893
  O  O38  1  0.779700  0.117500  0.617500  1.0  -0.4856
  O  O39  1  0.779700  0.382500  0.117500  1.0  -0.4878
  O  O40  1  0.779700  0.617500  0.882500  1.0  -0.487
  O  O41  1  0.500000  0.586200  0.086200  1.0  -0.9902
  O  O42  1  0.500000  0.413800  0.913800  1.0  -0.9904
  O  O43  1  0.500000  0.913800  0.586200  1.0  -0.9909
  O  O44  1  0.500000  0.086200  0.413800  1.0  -0.9902
