# generated using pymatgen
data_CuH3(CO2)3
_symmetry_space_group_name_H-M   'P 1'
_cell_length_a   7.31920000
_cell_length_b   7.31920000
_cell_length_c   24.38100000
_cell_angle_alpha   90.00000000
_cell_angle_beta   90.00000000
_cell_angle_gamma   120.00000000
_symmetry_Int_Tables_number   1
_chemical_formula_structural   CuH3(CO2)3
_chemical_formula_sum   'Cu6 H18 C18 O36'
_cell_volume   1131.12180719
_cell_formula_units_Z   6
loop_
 _symmetry_equiv_pos_site_id
 _symmetry_equiv_pos_as_xyz
  1  'x, y, z'
loop_
 _atom_site_type_symbol
 _atom_site_label
 _atom_site_symmetry_multiplicity
 _atom_site_fract_x
 _atom_site_fract_y
 _atom_site_fract_z
 _atom_site_occupancy
 _atom_site_charge
  Cu  Cu1  1  0.364590  0.682300  0.083330  1.0  0.8458
  Cu  Cu2  1  0.317700  0.682290  0.416670  1.0  0.8461
  Cu  Cu3  1  0.317710  0.635410  0.750000  1.0  0.8458
  Cu  Cu4  1  0.635410  0.317700  0.583330  1.0  0.846
  Cu  Cu5  1  0.682300  0.317700  0.916670  1.0  0.8457
  Cu  Cu6  1  0.682290  0.364590  0.250000  1.0  0.846
  H  H7  1  0.029600  0.557200  0.997800  1.0  0.0778
  H  H8  1  0.442800  0.472400  0.331130  1.0  0.078
  H  H9  1  0.527600  0.970400  0.664470  1.0  0.0785
  H  H10  1  0.970400  0.442800  0.497800  1.0  0.0785
  H  H11  1  0.557200  0.527600  0.831130  1.0  0.0782
  H  H12  1  0.472400  0.029600  0.164470  1.0  0.0779
  H  H13  1  0.557200  0.029600  0.335530  1.0  0.0785
  H  H14  1  0.472400  0.442800  0.002200  1.0  0.0778
  H  H15  1  0.970400  0.527600  0.668870  1.0  0.0777
  H  H16  1  0.442800  0.970400  0.835530  1.0  0.0778
  H  H17  1  0.527600  0.557200  0.502200  1.0  0.0781
  H  H18  1  0.029600  0.472400  0.168870  1.0  0.0787
  H  H19  1  0.599700  0.599700  0.166670  1.0  0.0855
  H  H20  1  0.400300  0.000000  0.500000  1.0  0.0861
  H  H21  1  0.000000  0.400300  0.833330  1.0  0.0857
  H  H22  1  0.400300  0.400300  0.666667  1.0  0.0845
  H  H23  1  0.599700  0.000000  0.000000  1.0  0.0851
  H  H24  1  0.000000  0.599700  0.333333  1.0  0.0848
  C  C25  1  0.031400  0.431100  0.999000  1.0  0.7623
  C  C26  1  0.568900  0.600300  0.332330  1.0  0.7627
  C  C27  1  0.399700  0.968600  0.665670  1.0  0.7633
  C  C28  1  0.968600  0.568900  0.499000  1.0  0.7631
  C  C29  1  0.431100  0.399700  0.832330  1.0  0.7613
  C  C30  1  0.600300  0.031400  0.165670  1.0  0.7636
  C  C31  1  0.431100  0.031400  0.334330  1.0  0.7634
  C  C32  1  0.600300  0.568900  0.001000  1.0  0.7632
  C  C33  1  0.968600  0.399700  0.667670  1.0  0.7618
  C  C34  1  0.568900  0.968600  0.834330  1.0  0.7637
  C  C35  1  0.399700  0.431100  0.501000  1.0  0.762
  C  C36  1  0.031400  0.600300  0.167670  1.0  0.7631
  C  C37  1  0.472700  0.472700  0.166670  1.0  0.765
  C  C38  1  0.527300  0.000000  0.500000  1.0  0.7683
  C  C39  1  0.000000  0.527300  0.833330  1.0  0.7666
  C  C40  1  0.527300  0.527300  0.666667  1.0  0.7664
  C  C41  1  0.472700  0.000000  0.000000  1.0  0.7683
  C  C42  1  0.000000  0.472700  0.333333  1.0  0.7652
  O  O43  1  0.338100  0.451400  0.132460  1.0  -0.5628
  O  O44  1  0.921200  0.297900  0.964400  1.0  -0.5638
  O  O45  1  0.140900  0.419500  0.034230  1.0  -0.5628
  O  O46  1  0.548600  0.886700  0.465790  1.0  -0.5622
  O  O47  1  0.702100  0.623300  0.297730  1.0  -0.5649
  O  O48  1  0.580500  0.721400  0.367560  1.0  -0.5637
  O  O49  1  0.113300  0.661900  0.799130  1.0  -0.5626
  O  O50  1  0.376700  0.078800  0.631070  1.0  -0.5637
  O  O51  1  0.278600  0.859100  0.700900  1.0  -0.5618
  O  O52  1  0.661900  0.548600  0.632460  1.0  -0.5616
  O  O53  1  0.078800  0.702100  0.464400  1.0  -0.5659
  O  O54  1  0.859100  0.580500  0.534230  1.0  -0.5634
  O  O55  1  0.451400  0.113300  0.965790  1.0  -0.5614
  O  O56  1  0.297900  0.376700  0.797730  1.0  -0.5654
  O  O57  1  0.419500  0.278600  0.867560  1.0  -0.5626
  O  O58  1  0.886700  0.338100  0.299130  1.0  -0.5622
  O  O59  1  0.623300  0.921200  0.131070  1.0  -0.5635
  O  O60  1  0.721400  0.140900  0.200900  1.0  -0.5624
  O  O61  1  0.451400  0.338100  0.200870  1.0  -0.5627
  O  O62  1  0.297900  0.921200  0.368930  1.0  -0.5627
  O  O63  1  0.419500  0.140900  0.299100  1.0  -0.5632
  O  O64  1  0.886700  0.548600  0.867540  1.0  -0.5623
  O  O65  1  0.623300  0.702100  0.035600  1.0  -0.5655
  O  O66  1  0.721400  0.580500  0.965770  1.0  -0.5637
  O  O67  1  0.661900  0.113300  0.534210  1.0  -0.5623
  O  O68  1  0.078800  0.376700  0.702270  1.0  -0.5641
  O  O69  1  0.859100  0.278600  0.632440  1.0  -0.5638
  O  O70  1  0.548600  0.661900  0.700870  1.0  -0.5624
  O  O71  1  0.702100  0.078800  0.868930  1.0  -0.5638
  O  O72  1  0.580500  0.859100  0.799100  1.0  -0.5636
  O  O73  1  0.113300  0.451400  0.367540  1.0  -0.5621
  O  O74  1  0.376700  0.297900  0.535600  1.0  -0.5636
  O  O75  1  0.278600  0.419500  0.465770  1.0  -0.5644
  O  O76  1  0.338100  0.886700  0.034210  1.0  -0.5619
  O  O77  1  0.921200  0.623300  0.202270  1.0  -0.5644
  O  O78  1  0.140900  0.721400  0.132440  1.0  -0.5649
