# generated using pymatgen
data_CuH3(CO2)3
_symmetry_space_group_name_H-M   'P 1'
_cell_length_a   7.33380000
_cell_length_b   7.33380000
_cell_length_c   24.41000000
_cell_angle_alpha   90.00000000
_cell_angle_beta   90.00000000
_cell_angle_gamma   120.00000000
_symmetry_Int_Tables_number   1
_chemical_formula_structural   CuH3(CO2)3
_chemical_formula_sum   'Cu6 H18 C18 O36'
_cell_volume   1136.98971302
_cell_formula_units_Z   6
loop_
 _symmetry_equiv_pos_site_id
 _symmetry_equiv_pos_as_xyz
  1  'x, y, z'
loop_
 _atom_site_type_symbol
 _atom_site_label
 _atom_site_symmetry_multiplicity
 _atom_site_fract_x
 _atom_site_fract_y
 _atom_site_fract_z
 _atom_site_occupancy
 _atom_site_charge
  Cu  Cu1  1  0.363980  0.681990  0.083330  1.0  0.8438
  Cu  Cu2  1  0.318010  0.681990  0.416670  1.0  0.8438
  Cu  Cu3  1  0.318010  0.636020  0.750000  1.0  0.8438
  Cu  Cu4  1  0.636020  0.318010  0.583330  1.0  0.8437
  Cu  Cu5  1  0.681990  0.318010  0.916670  1.0  0.8437
  Cu  Cu6  1  0.681990  0.363980  0.250000  1.0  0.8439
  H  H7  1  0.029900  0.559300  0.998500  1.0  0.0769
  H  H8  1  0.440700  0.470600  0.331830  1.0  0.0769
  H  H9  1  0.529400  0.970100  0.665170  1.0  0.0778
  H  H10  1  0.970100  0.440700  0.498500  1.0  0.0776
  H  H11  1  0.559300  0.529400  0.831830  1.0  0.0774
  H  H12  1  0.470600  0.029900  0.165170  1.0  0.0772
  H  H13  1  0.559300  0.029900  0.334830  1.0  0.0777
  H  H14  1  0.470600  0.440700  0.001500  1.0  0.0767
  H  H15  1  0.970100  0.529400  0.668170  1.0  0.0768
  H  H16  1  0.440700  0.970100  0.834830  1.0  0.0771
  H  H17  1  0.529400  0.559300  0.501500  1.0  0.0772
  H  H18  1  0.029900  0.470600  0.168170  1.0  0.0776
  H  H19  1  0.600800  0.600800  0.166670  1.0  0.1008
  H  H20  1  0.399200  0.000000  0.500000  1.0  0.1011
  H  H21  1  0.000000  0.399200  0.833330  1.0  0.1014
  H  H22  1  0.399200  0.399200  0.666667  1.0  0.1013
  H  H23  1  0.600800  0.000000  0.000000  1.0  0.1008
  H  H24  1  0.000000  0.600800  0.333333  1.0  0.101
  C  C25  1  0.031700  0.433500  0.999300  1.0  0.7914
  C  C26  1  0.566500  0.598200  0.332630  1.0  0.7915
  C  C27  1  0.401800  0.968300  0.665970  1.0  0.7929
  C  C28  1  0.968300  0.566500  0.499300  1.0  0.792
  C  C29  1  0.433500  0.401800  0.832630  1.0  0.7909
  C  C30  1  0.598200  0.031700  0.165970  1.0  0.7931
  C  C31  1  0.433500  0.031700  0.334030  1.0  0.793
  C  C32  1  0.598200  0.566500  0.000700  1.0  0.7919
  C  C33  1  0.968300  0.401800  0.667370  1.0  0.791
  C  C34  1  0.566500  0.968300  0.834030  1.0  0.7932
  C  C35  1  0.401800  0.433500  0.500700  1.0  0.7914
  C  C36  1  0.031700  0.598200  0.167370  1.0  0.7917
  C  C37  1  0.474000  0.474000  0.166670  1.0  0.719
  C  C38  1  0.526000  0.000000  0.500000  1.0  0.7211
  C  C39  1  0.000000  0.526000  0.833330  1.0  0.7205
  C  C40  1  0.526000  0.526000  0.666667  1.0  0.7199
  C  C41  1  0.474000  0.000000  0.000000  1.0  0.7225
  C  C42  1  0.000000  0.474000  0.333333  1.0  0.7188
  O  O43  1  0.337200  0.451000  0.132300  1.0  -0.5716
  O  O44  1  0.920000  0.299500  0.964600  1.0  -0.5605
  O  O45  1  0.142600  0.420100  0.033900  1.0  -0.5693
  O  O46  1  0.549000  0.886200  0.465630  1.0  -0.5702
  O  O47  1  0.700500  0.620500  0.297930  1.0  -0.5621
  O  O48  1  0.579900  0.722500  0.367230  1.0  -0.5699
  O  O49  1  0.113800  0.662800  0.798970  1.0  -0.5724
  O  O50  1  0.379500  0.080000  0.631270  1.0  -0.5607
  O  O51  1  0.277500  0.857400  0.700570  1.0  -0.5683
  O  O52  1  0.662800  0.549000  0.632300  1.0  -0.571
  O  O53  1  0.080000  0.700500  0.464600  1.0  -0.5634
  O  O54  1  0.857400  0.579900  0.533900  1.0  -0.57
  O  O55  1  0.451000  0.113800  0.965630  1.0  -0.571
  O  O56  1  0.299500  0.379500  0.797930  1.0  -0.5613
  O  O57  1  0.420100  0.277500  0.867230  1.0  -0.5684
  O  O58  1  0.886200  0.337200  0.298970  1.0  -0.571
  O  O59  1  0.620500  0.920000  0.131270  1.0  -0.5609
  O  O60  1  0.722500  0.142600  0.200570  1.0  -0.5691
  O  O61  1  0.451000  0.337200  0.201030  1.0  -0.5711
  O  O62  1  0.299500  0.920000  0.368730  1.0  -0.5603
  O  O63  1  0.420100  0.142600  0.299430  1.0  -0.5691
  O  O64  1  0.886200  0.549000  0.867700  1.0  -0.5712
  O  O65  1  0.620500  0.700500  0.035400  1.0  -0.5627
  O  O66  1  0.722500  0.579900  0.966100  1.0  -0.5698
  O  O67  1  0.662800  0.113800  0.534370  1.0  -0.5703
  O  O68  1  0.080000  0.379500  0.702070  1.0  -0.5614
  O  O69  1  0.857400  0.277500  0.632770  1.0  -0.5689
  O  O70  1  0.549000  0.662800  0.701030  1.0  -0.5713
  O  O71  1  0.700500  0.080000  0.868730  1.0  -0.5615
  O  O72  1  0.579900  0.857400  0.799430  1.0  -0.5687
  O  O73  1  0.113800  0.451000  0.367700  1.0  -0.5705
  O  O74  1  0.379500  0.299500  0.535400  1.0  -0.5618
  O  O75  1  0.277500  0.420100  0.466100  1.0  -0.57
  O  O76  1  0.337200  0.886200  0.034370  1.0  -0.57
  O  O77  1  0.920000  0.620500  0.202070  1.0  -0.5616
  O  O78  1  0.142600  0.722500  0.132770  1.0  -0.57
