# generated using pymatgen
data_CuH3(CO2)3
_symmetry_space_group_name_H-M   'P 1'
_cell_length_a   7.31790000
_cell_length_b   7.31790000
_cell_length_c   24.41900000
_cell_angle_alpha   90.00000000
_cell_angle_beta   90.00000000
_cell_angle_gamma   120.00000000
_symmetry_Int_Tables_number   1
_chemical_formula_structural   CuH3(CO2)3
_chemical_formula_sum   'Cu6 H18 C18 O36'
_cell_volume   1132.48236412
_cell_formula_units_Z   6
loop_
 _symmetry_equiv_pos_site_id
 _symmetry_equiv_pos_as_xyz
  1  'x, y, z'
loop_
 _atom_site_type_symbol
 _atom_site_label
 _atom_site_symmetry_multiplicity
 _atom_site_fract_x
 _atom_site_fract_y
 _atom_site_fract_z
 _atom_site_occupancy
 _atom_site_charge
  Cu  Cu1  1  0.364800  0.682400  0.083330  1.0  0.8617
  Cu  Cu2  1  0.317600  0.682400  0.416670  1.0  0.8621
  Cu  Cu3  1  0.317600  0.635200  0.750000  1.0  0.862
  Cu  Cu4  1  0.635200  0.317600  0.583330  1.0  0.8616
  Cu  Cu5  1  0.682400  0.317600  0.916670  1.0  0.8619
  Cu  Cu6  1  0.682400  0.364800  0.250000  1.0  0.8618
  H  H7  1  0.033400  0.558500  0.997100  1.0  0.0727
  H  H8  1  0.441500  0.474900  0.330430  1.0  0.0725
  H  H9  1  0.525100  0.966600  0.663770  1.0  0.0726
  H  H10  1  0.966600  0.441500  0.497100  1.0  0.0729
  H  H11  1  0.558500  0.525100  0.830430  1.0  0.0728
  H  H12  1  0.474900  0.033400  0.163770  1.0  0.0724
  H  H13  1  0.558500  0.033400  0.336230  1.0  0.0726
  H  H14  1  0.474900  0.441500  0.002900  1.0  0.0723
  H  H15  1  0.966600  0.525100  0.669570  1.0  0.0724
  H  H16  1  0.441500  0.966600  0.836230  1.0  0.0723
  H  H17  1  0.525100  0.558500  0.502900  1.0  0.0726
  H  H18  1  0.033400  0.474900  0.169570  1.0  0.0731
  H  H19  1  0.600100  0.600100  0.166670  1.0  0.084
  H  H20  1  0.399900  0.000000  0.500000  1.0  0.0835
  H  H21  1  0.000000  0.399900  0.833330  1.0  0.0838
  H  H22  1  0.399900  0.399900  0.666667  1.0  0.0831
  H  H23  1  0.600100  0.000000  0.000000  1.0  0.0831
  H  H24  1  0.000000  0.600100  0.333333  1.0  0.0837
  C  C25  1  0.032800  0.431300  0.998900  1.0  0.7732
  C  C26  1  0.568700  0.601500  0.332230  1.0  0.7735
  C  C27  1  0.398500  0.967200  0.665570  1.0  0.7734
  C  C28  1  0.967200  0.568700  0.498900  1.0  0.773
  C  C29  1  0.431300  0.398500  0.832230  1.0  0.7724
  C  C30  1  0.601500  0.032800  0.165570  1.0  0.7737
  C  C31  1  0.431300  0.032800  0.334430  1.0  0.7733
  C  C32  1  0.601500  0.568700  0.001100  1.0  0.7733
  C  C33  1  0.967200  0.398500  0.667770  1.0  0.773
  C  C34  1  0.568700  0.967200  0.834430  1.0  0.7735
  C  C35  1  0.398500  0.431300  0.501100  1.0  0.7727
  C  C36  1  0.032800  0.601500  0.167770  1.0  0.773
  C  C37  1  0.473000  0.473000  0.166670  1.0  0.7307
  C  C38  1  0.527000  0.000000  0.500000  1.0  0.7323
  C  C39  1  0.000000  0.527000  0.833330  1.0  0.7313
  C  C40  1  0.527000  0.527000  0.666667  1.0  0.7311
  C  C41  1  0.473000  0.000000  0.000000  1.0  0.7329
  C  C42  1  0.000000  0.473000  0.333333  1.0  0.7307
  O  O43  1  0.338400  0.450800  0.132150  1.0  -0.5654
  O  O44  1  0.922000  0.297500  0.965000  1.0  -0.5578
  O  O45  1  0.140500  0.418300  0.034000  1.0  -0.5606
  O  O46  1  0.549200  0.887600  0.465480  1.0  -0.5652
  O  O47  1  0.702500  0.624500  0.298330  1.0  -0.5587
  O  O48  1  0.581700  0.722200  0.367330  1.0  -0.5614
  O  O49  1  0.112400  0.661600  0.798820  1.0  -0.5661
  O  O50  1  0.375500  0.078000  0.631670  1.0  -0.5566
  O  O51  1  0.277800  0.859500  0.700670  1.0  -0.5594
  O  O52  1  0.661600  0.549200  0.632150  1.0  -0.5654
  O  O53  1  0.078000  0.702500  0.465000  1.0  -0.5592
  O  O54  1  0.859500  0.581700  0.534000  1.0  -0.5609
  O  O55  1  0.450800  0.112400  0.965480  1.0  -0.5653
  O  O56  1  0.297500  0.375500  0.798330  1.0  -0.5589
  O  O57  1  0.418300  0.277800  0.867330  1.0  -0.5596
  O  O58  1  0.887600  0.338400  0.298820  1.0  -0.5656
  O  O59  1  0.624500  0.922000  0.131670  1.0  -0.5574
  O  O60  1  0.722200  0.140500  0.200670  1.0  -0.5601
  O  O61  1  0.450800  0.338400  0.201180  1.0  -0.5659
  O  O62  1  0.297500  0.922000  0.368330  1.0  -0.5556
  O  O63  1  0.418300  0.140500  0.299330  1.0  -0.5606
  O  O64  1  0.887600  0.549200  0.867850  1.0  -0.565
  O  O65  1  0.624500  0.702500  0.035000  1.0  -0.5592
  O  O66  1  0.722200  0.581700  0.966000  1.0  -0.5617
  O  O67  1  0.661600  0.112400  0.534520  1.0  -0.5653
  O  O68  1  0.078000  0.375500  0.701670  1.0  -0.5579
  O  O69  1  0.859500  0.277800  0.632670  1.0  -0.5617
  O  O70  1  0.549200  0.661600  0.701180  1.0  -0.5655
  O  O71  1  0.702500  0.078000  0.868330  1.0  -0.5571
  O  O72  1  0.581700  0.859500  0.799330  1.0  -0.5618
  O  O73  1  0.112400  0.450800  0.367850  1.0  -0.5649
  O  O74  1  0.375500  0.297500  0.535000  1.0  -0.5573
  O  O75  1  0.277800  0.418300  0.466000  1.0  -0.5619
  O  O76  1  0.338400  0.887600  0.034520  1.0  -0.5649
  O  O77  1  0.922000  0.624500  0.201670  1.0  -0.5577
  O  O78  1  0.140500  0.722200  0.132670  1.0  -0.5624
