# generated using pymatgen
data_CuH3(CO2)3
_symmetry_space_group_name_H-M   'P 1'
_cell_length_a   7.32560000
_cell_length_b   7.32560000
_cell_length_c   24.39440000
_cell_angle_alpha   90.00000000
_cell_angle_beta   90.00000000
_cell_angle_gamma   120.00000000
_symmetry_Int_Tables_number   1
_chemical_formula_structural   CuH3(CO2)3
_chemical_formula_sum   'Cu6 H18 C18 O36'
_cell_volume   1133.72356775
_cell_formula_units_Z   6
loop_
 _symmetry_equiv_pos_site_id
 _symmetry_equiv_pos_as_xyz
  1  'x, y, z'
loop_
 _atom_site_type_symbol
 _atom_site_label
 _atom_site_symmetry_multiplicity
 _atom_site_fract_x
 _atom_site_fract_y
 _atom_site_fract_z
 _atom_site_occupancy
 _atom_site_charge
  Cu  Cu1  1  0.364730  0.682370  0.083330  1.0  0.8576
  Cu  Cu2  1  0.317640  0.682360  0.416670  1.0  0.8583
  Cu  Cu3  1  0.317640  0.635270  0.750000  1.0  0.8577
  Cu  Cu4  1  0.635270  0.317640  0.583330  1.0  0.8578
  Cu  Cu5  1  0.682370  0.317640  0.916670  1.0  0.8579
  Cu  Cu6  1  0.682360  0.364730  0.250000  1.0  0.8578
  H  H7  1  0.035000  0.558900  0.996800  1.0  0.0667
  H  H8  1  0.441100  0.476100  0.330130  1.0  0.0664
  H  H9  1  0.523900  0.965000  0.663470  1.0  0.0667
  H  H10  1  0.965000  0.441100  0.496800  1.0  0.0667
  H  H11  1  0.558900  0.523900  0.830130  1.0  0.0668
  H  H12  1  0.476100  0.035000  0.163470  1.0  0.0668
  H  H13  1  0.558900  0.035000  0.336530  1.0  0.0666
  H  H14  1  0.476100  0.441100  0.003200  1.0  0.0662
  H  H15  1  0.965000  0.523900  0.669870  1.0  0.0663
  H  H16  1  0.441100  0.965000  0.836530  1.0  0.0667
  H  H17  1  0.523900  0.558900  0.503200  1.0  0.0667
  H  H18  1  0.035000  0.476100  0.169870  1.0  0.067
  H  H19  1  0.601100  0.601100  0.166670  1.0  0.0981
  H  H20  1  0.398900  0.000000  0.500000  1.0  0.0986
  H  H21  1  0.000000  0.398900  0.833330  1.0  0.0986
  H  H22  1  0.398900  0.398900  0.666667  1.0  0.0978
  H  H23  1  0.601100  0.000000  0.000000  1.0  0.0976
  H  H24  1  0.000000  0.601100  0.333333  1.0  0.0977
  C  C25  1  0.033400  0.431300  0.998700  1.0  0.7824
  C  C26  1  0.568700  0.602100  0.332030  1.0  0.7831
  C  C27  1  0.397900  0.966600  0.665370  1.0  0.7836
  C  C28  1  0.966600  0.568700  0.498700  1.0  0.783
  C  C29  1  0.431300  0.397900  0.832030  1.0  0.7819
  C  C30  1  0.602100  0.033400  0.165370  1.0  0.7837
  C  C31  1  0.431300  0.033400  0.334630  1.0  0.7835
  C  C32  1  0.602100  0.568700  0.001300  1.0  0.7826
  C  C33  1  0.966600  0.397900  0.667970  1.0  0.7823
  C  C34  1  0.568700  0.966600  0.834630  1.0  0.7836
  C  C35  1  0.397900  0.431300  0.501300  1.0  0.7823
  C  C36  1  0.033400  0.602100  0.167970  1.0  0.7828
  C  C37  1  0.474200  0.474200  0.166670  1.0  0.73
  C  C38  1  0.525800  0.000000  0.500000  1.0  0.7317
  C  C39  1  0.000000  0.525800  0.833330  1.0  0.7306
  C  C40  1  0.525800  0.525800  0.666667  1.0  0.7311
  C  C41  1  0.474200  0.000000  0.000000  1.0  0.7317
  C  C42  1  0.000000  0.474200  0.333333  1.0  0.7308
  O  O43  1  0.338300  0.451300  0.132330  1.0  -0.568
  O  O44  1  0.921100  0.297900  0.964600  1.0  -0.5675
  O  O45  1  0.141600  0.419200  0.034320  1.0  -0.5563
  O  O46  1  0.548700  0.887000  0.465660  1.0  -0.5675
  O  O47  1  0.702100  0.623200  0.297930  1.0  -0.5694
  O  O48  1  0.580800  0.722400  0.367650  1.0  -0.5566
  O  O49  1  0.113000  0.661700  0.799000  1.0  -0.5688
  O  O50  1  0.376800  0.078900  0.631270  1.0  -0.5671
  O  O51  1  0.277600  0.858400  0.700990  1.0  -0.5553
  O  O52  1  0.661700  0.548700  0.632330  1.0  -0.5679
  O  O53  1  0.078900  0.702100  0.464600  1.0  -0.5703
  O  O54  1  0.858400  0.580800  0.534320  1.0  -0.5563
  O  O55  1  0.451300  0.113000  0.965660  1.0  -0.5674
  O  O56  1  0.297900  0.376800  0.797930  1.0  -0.5696
  O  O57  1  0.419200  0.277600  0.867650  1.0  -0.5553
  O  O58  1  0.887000  0.338300  0.299000  1.0  -0.5675
  O  O59  1  0.623200  0.921100  0.131270  1.0  -0.5686
  O  O60  1  0.722400  0.141600  0.200990  1.0  -0.5559
  O  O61  1  0.451300  0.338300  0.201000  1.0  -0.5679
  O  O62  1  0.297900  0.921100  0.368730  1.0  -0.567
  O  O63  1  0.419200  0.141600  0.299010  1.0  -0.5563
  O  O64  1  0.887000  0.548700  0.867670  1.0  -0.5678
  O  O65  1  0.623200  0.702100  0.035400  1.0  -0.57
  O  O66  1  0.722400  0.580800  0.965680  1.0  -0.5571
  O  O67  1  0.661700  0.113000  0.534340  1.0  -0.5677
  O  O68  1  0.078900  0.376800  0.702070  1.0  -0.5688
  O  O69  1  0.858400  0.277600  0.632350  1.0  -0.5572
  O  O70  1  0.548700  0.661700  0.701000  1.0  -0.568
  O  O71  1  0.702100  0.078900  0.868730  1.0  -0.5682
  O  O72  1  0.580800  0.858400  0.799010  1.0  -0.5576
  O  O73  1  0.113000  0.451300  0.367670  1.0  -0.5675
  O  O74  1  0.376800  0.297900  0.535400  1.0  -0.5678
  O  O75  1  0.277600  0.419200  0.465680  1.0  -0.5575
  O  O76  1  0.338300  0.887000  0.034340  1.0  -0.5674
  O  O77  1  0.921100  0.623200  0.202070  1.0  -0.5691
  O  O78  1  0.141600  0.722400  0.132350  1.0  -0.5576
