# generated using pymatgen
data_CuH3(CO2)3
_symmetry_space_group_name_H-M   'P 1'
_cell_length_a   7.32850000
_cell_length_b   7.32850000
_cell_length_c   24.43100000
_cell_angle_alpha   90.00000000
_cell_angle_beta   90.00000000
_cell_angle_gamma   120.00000000
_symmetry_Int_Tables_number   1
_chemical_formula_structural   CuH3(CO2)3
_chemical_formula_sum   'Cu6 H18 C18 O36'
_cell_volume   1136.32368702
_cell_formula_units_Z   6
loop_
 _symmetry_equiv_pos_site_id
 _symmetry_equiv_pos_as_xyz
  1  'x, y, z'
loop_
 _atom_site_type_symbol
 _atom_site_label
 _atom_site_symmetry_multiplicity
 _atom_site_fract_x
 _atom_site_fract_y
 _atom_site_fract_z
 _atom_site_occupancy
 _atom_site_charge
  Cu  Cu1  1  0.364510  0.682260  0.083330  1.0  0.8547
  Cu  Cu2  1  0.317740  0.682260  0.416670  1.0  0.8554
  Cu  Cu3  1  0.317740  0.635490  0.750000  1.0  0.8555
  Cu  Cu4  1  0.635490  0.317740  0.583330  1.0  0.8545
  Cu  Cu5  1  0.682260  0.317740  0.916670  1.0  0.8555
  Cu  Cu6  1  0.682250  0.364510  0.250000  1.0  0.8558
  H  H7  1  0.033100  0.557100  0.996900  1.0  0.073
  H  H8  1  0.442900  0.476000  0.330230  1.0  0.0731
  H  H9  1  0.524000  0.966900  0.663570  1.0  0.0733
  H  H10  1  0.966900  0.442900  0.496900  1.0  0.0733
  H  H11  1  0.557100  0.524000  0.830230  1.0  0.073
  H  H12  1  0.476000  0.033100  0.163570  1.0  0.0727
  H  H13  1  0.557100  0.033100  0.336430  1.0  0.0731
  H  H14  1  0.476000  0.442900  0.003100  1.0  0.0727
  H  H15  1  0.966900  0.524000  0.669770  1.0  0.0726
  H  H16  1  0.442900  0.966900  0.836430  1.0  0.0724
  H  H17  1  0.524000  0.557100  0.503100  1.0  0.0728
  H  H18  1  0.033100  0.476000  0.169770  1.0  0.0735
  H  H19  1  0.603900  0.603900  0.166670  1.0  0.1249
  H  H20  1  0.396100  0.000000  0.500000  1.0  0.126
  H  H21  1  0.000000  0.396100  0.833330  1.0  0.1252
  H  H22  1  0.396100  0.396100  0.666667  1.0  0.1244
  H  H23  1  0.603900  0.000000  0.000000  1.0  0.1238
  H  H24  1  0.000000  0.603900  0.333333  1.0  0.1245
  C  C25  1  0.032400  0.429900  0.998600  1.0  0.7763
  C  C26  1  0.570100  0.602500  0.331930  1.0  0.7775
  C  C27  1  0.397500  0.967600  0.665270  1.0  0.7775
  C  C28  1  0.967600  0.570100  0.498600  1.0  0.776
  C  C29  1  0.429900  0.397500  0.831930  1.0  0.7754
  C  C30  1  0.602500  0.032400  0.165270  1.0  0.7784
  C  C31  1  0.429900  0.032400  0.334730  1.0  0.7775
  C  C32  1  0.602500  0.570100  0.001400  1.0  0.7772
  C  C33  1  0.967600  0.397500  0.668070  1.0  0.7765
  C  C34  1  0.570100  0.967600  0.834730  1.0  0.7783
  C  C35  1  0.397500  0.429900  0.501400  1.0  0.7749
  C  C36  1  0.032400  0.602500  0.168070  1.0  0.7769
  C  C37  1  0.477000  0.477000  0.166670  1.0  0.6789
  C  C38  1  0.523000  0.000000  0.500000  1.0  0.6953
  C  C39  1  0.000000  0.523000  0.833330  1.0  0.6808
  C  C40  1  0.523000  0.523000  0.666667  1.0  0.6805
  C  C41  1  0.477000  0.000000  0.000000  1.0  0.6963
  C  C42  1  0.000000  0.477000  0.333333  1.0  0.679
  O  O43  1  0.337500  0.450600  0.132200  1.0  -0.5706
  O  O44  1  0.922000  0.298200  0.964900  1.0  -0.5558
  O  O45  1  0.141100  0.417300  0.033800  1.0  -0.5559
  O  O46  1  0.549400  0.886900  0.465530  1.0  -0.5696
  O  O47  1  0.701800  0.623800  0.298230  1.0  -0.5553
  O  O48  1  0.582700  0.723800  0.367130  1.0  -0.5579
  O  O49  1  0.113100  0.662500  0.798870  1.0  -0.5717
  O  O50  1  0.376200  0.078000  0.631570  1.0  -0.5541
  O  O51  1  0.276200  0.858900  0.700470  1.0  -0.5552
  O  O52  1  0.662500  0.549400  0.632200  1.0  -0.5708
  O  O53  1  0.078000  0.701800  0.464900  1.0  -0.5572
  O  O54  1  0.858900  0.582700  0.533800  1.0  -0.5561
  O  O55  1  0.450600  0.113100  0.965530  1.0  -0.5699
  O  O56  1  0.298200  0.376200  0.798230  1.0  -0.5554
  O  O57  1  0.417300  0.276200  0.867130  1.0  -0.5563
  O  O58  1  0.886900  0.337500  0.298870  1.0  -0.5704
  O  O59  1  0.623800  0.922000  0.131570  1.0  -0.5542
  O  O60  1  0.723800  0.141100  0.200470  1.0  -0.5561
  O  O61  1  0.450600  0.337500  0.201130  1.0  -0.5701
  O  O62  1  0.298200  0.922000  0.368430  1.0  -0.5545
  O  O63  1  0.417300  0.141100  0.299530  1.0  -0.5564
  O  O64  1  0.886900  0.549400  0.867800  1.0  -0.57
  O  O65  1  0.623800  0.701800  0.035100  1.0  -0.5581
  O  O66  1  0.723800  0.582700  0.966200  1.0  -0.5574
  O  O67  1  0.662500  0.113100  0.534470  1.0  -0.5699
  O  O68  1  0.078000  0.376200  0.701770  1.0  -0.5547
  O  O69  1  0.858900  0.276200  0.632870  1.0  -0.5572
  O  O70  1  0.549400  0.662500  0.701130  1.0  -0.5713
  O  O71  1  0.701800  0.078000  0.868430  1.0  -0.5547
  O  O72  1  0.582700  0.858900  0.799530  1.0  -0.5565
  O  O73  1  0.113100  0.450600  0.367800  1.0  -0.5699
  O  O74  1  0.376200  0.298200  0.535100  1.0  -0.5553
  O  O75  1  0.276200  0.417300  0.466200  1.0  -0.5567
  O  O76  1  0.337500  0.886900  0.034470  1.0  -0.5688
  O  O77  1  0.922000  0.623800  0.201770  1.0  -0.5564
  O  O78  1  0.141100  0.723800  0.132870  1.0  -0.5585
