# generated using pymatgen
data_CuH3(CO2)3
_symmetry_space_group_name_H-M   'P 1'
_cell_length_a   7.32630000
_cell_length_b   7.32630000
_cell_length_c   24.36530000
_cell_angle_alpha   90.00000000
_cell_angle_beta   90.00000000
_cell_angle_gamma   120.00000000
_symmetry_Int_Tables_number   1
_chemical_formula_structural   CuH3(CO2)3
_chemical_formula_sum   'Cu6 H18 C18 O36'
_cell_volume   1132.58757112
_cell_formula_units_Z   6
loop_
 _symmetry_equiv_pos_site_id
 _symmetry_equiv_pos_as_xyz
  1  'x, y, z'
loop_
 _atom_site_type_symbol
 _atom_site_label
 _atom_site_symmetry_multiplicity
 _atom_site_fract_x
 _atom_site_fract_y
 _atom_site_fract_z
 _atom_site_occupancy
 _atom_site_charge
  Cu  Cu1  1  0.364590  0.682290  0.083330  1.0  0.8453
  Cu  Cu2  1  0.317710  0.682290  0.416670  1.0  0.8457
  Cu  Cu3  1  0.317710  0.635410  0.750000  1.0  0.845
  Cu  Cu4  1  0.635410  0.317710  0.583330  1.0  0.8454
  Cu  Cu5  1  0.682290  0.317710  0.916670  1.0  0.8453
  Cu  Cu6  1  0.682290  0.364590  0.250000  1.0  0.8452
  H  H7  1  0.034800  0.559700  0.996600  1.0  0.0782
  H  H8  1  0.440300  0.475100  0.329930  1.0  0.0784
  H  H9  1  0.524900  0.965200  0.663270  1.0  0.0794
  H  H10  1  0.965200  0.440300  0.496600  1.0  0.079
  H  H11  1  0.559700  0.524900  0.829930  1.0  0.0786
  H  H12  1  0.475100  0.034800  0.163270  1.0  0.079
  H  H13  1  0.559700  0.034800  0.336730  1.0  0.0794
  H  H14  1  0.475100  0.440300  0.003400  1.0  0.0781
  H  H15  1  0.965200  0.524900  0.670070  1.0  0.0778
  H  H16  1  0.440300  0.965200  0.836730  1.0  0.0788
  H  H17  1  0.524900  0.559700  0.503400  1.0  0.0784
  H  H18  1  0.034800  0.475100  0.170070  1.0  0.0792
  H  H19  1  0.600500  0.600500  0.166670  1.0  0.084
  H  H20  1  0.399500  0.000000  0.500000  1.0  0.0845
  H  H21  1  0.000000  0.399500  0.833330  1.0  0.0844
  H  H22  1  0.399500  0.399500  0.666667  1.0  0.0835
  H  H23  1  0.600500  0.000000  0.000000  1.0  0.0836
  H  H24  1  0.000000  0.600500  0.333333  1.0  0.0834
  C  C25  1  0.033000  0.432100  0.998600  1.0  0.7886
  C  C26  1  0.567900  0.600900  0.331930  1.0  0.7899
  C  C27  1  0.399100  0.967000  0.665270  1.0  0.7905
  C  C28  1  0.967000  0.567900  0.498600  1.0  0.7899
  C  C29  1  0.432100  0.399100  0.831930  1.0  0.7892
  C  C30  1  0.600900  0.033000  0.165270  1.0  0.7899
  C  C31  1  0.432100  0.033000  0.334730  1.0  0.7905
  C  C32  1  0.600900  0.567900  0.001400  1.0  0.7896
  C  C33  1  0.967000  0.399100  0.668070  1.0  0.7897
  C  C34  1  0.567900  0.967000  0.834730  1.0  0.7898
  C  C35  1  0.399100  0.432100  0.501400  1.0  0.7891
  C  C36  1  0.033000  0.600900  0.168070  1.0  0.7903
  C  C37  1  0.473600  0.473600  0.166670  1.0  0.7307
  C  C38  1  0.526400  0.000000  0.500000  1.0  0.7322
  C  C39  1  0.000000  0.526400  0.833330  1.0  0.7315
  C  C40  1  0.526400  0.526400  0.666667  1.0  0.7319
  C  C41  1  0.473600  0.000000  0.000000  1.0  0.7321
  C  C42  1  0.000000  0.473600  0.333333  1.0  0.7315
  O  O43  1  0.338300  0.451100  0.132200  1.0  -0.5704
  O  O44  1  0.921000  0.298100  0.964700  1.0  -0.5679
  O  O45  1  0.141700  0.418900  0.034210  1.0  -0.5597
  O  O46  1  0.548900  0.887200  0.465530  1.0  -0.5701
  O  O47  1  0.701900  0.622900  0.298030  1.0  -0.5697
  O  O48  1  0.581100  0.722800  0.367540  1.0  -0.56
  O  O49  1  0.112800  0.661700  0.798870  1.0  -0.5711
  O  O50  1  0.377100  0.079000  0.631370  1.0  -0.5674
  O  O51  1  0.277200  0.858300  0.700880  1.0  -0.5588
  O  O52  1  0.661700  0.548900  0.632200  1.0  -0.5703
  O  O53  1  0.079000  0.701900  0.464700  1.0  -0.5704
  O  O54  1  0.858300  0.581100  0.534210  1.0  -0.5596
  O  O55  1  0.451100  0.112800  0.965530  1.0  -0.5702
  O  O56  1  0.298100  0.377100  0.798030  1.0  -0.5695
  O  O57  1  0.418900  0.277200  0.867540  1.0  -0.5585
  O  O58  1  0.887200  0.338300  0.298870  1.0  -0.5698
  O  O59  1  0.622900  0.921000  0.131370  1.0  -0.5682
  O  O60  1  0.722800  0.141700  0.200880  1.0  -0.5595
  O  O61  1  0.451100  0.338300  0.201130  1.0  -0.5701
  O  O62  1  0.298100  0.921000  0.368630  1.0  -0.5669
  O  O63  1  0.418900  0.141700  0.299120  1.0  -0.5599
  O  O64  1  0.887200  0.548900  0.867800  1.0  -0.5702
  O  O65  1  0.622900  0.701900  0.035300  1.0  -0.5698
  O  O66  1  0.722800  0.581100  0.965790  1.0  -0.5605
  O  O67  1  0.661700  0.112800  0.534470  1.0  -0.57
  O  O68  1  0.079000  0.377100  0.701970  1.0  -0.569
  O  O69  1  0.858300  0.277200  0.632460  1.0  -0.5606
  O  O70  1  0.548900  0.661700  0.701130  1.0  -0.5701
  O  O71  1  0.701900  0.079000  0.868630  1.0  -0.5683
  O  O72  1  0.581100  0.858300  0.799120  1.0  -0.5611
  O  O73  1  0.112800  0.451100  0.367800  1.0  -0.5696
  O  O74  1  0.377100  0.298100  0.535300  1.0  -0.5684
  O  O75  1  0.277200  0.418900  0.465790  1.0  -0.5609
  O  O76  1  0.338300  0.887200  0.034470  1.0  -0.5699
  O  O77  1  0.921000  0.622900  0.201970  1.0  -0.5692
  O  O78  1  0.141700  0.722800  0.132460  1.0  -0.5611
