# generated using pymatgen
data_EuH29C30N3O8
_symmetry_space_group_name_H-M   'P 1'
_cell_length_a   9.57820000
_cell_length_b   12.77800000
_cell_length_c   18.94500000
_cell_angle_alpha   107.49000000
_cell_angle_beta   99.21000000
_cell_angle_gamma   97.89000000
_symmetry_Int_Tables_number   1
_chemical_formula_structural   EuH29C30N3O8
_chemical_formula_sum   'Eu2 H58 C60 N6 O16'
_cell_volume   2140.24534605
_cell_formula_units_Z   2
loop_
 _symmetry_equiv_pos_site_id
 _symmetry_equiv_pos_as_xyz
  1  'x, y, z'
loop_
 _atom_site_type_symbol
 _atom_site_label
 _atom_site_symmetry_multiplicity
 _atom_site_fract_x
 _atom_site_fract_y
 _atom_site_fract_z
 _atom_site_occupancy
 _atom_site_charge
  Eu  Eu1  1  0.235690  0.012760  0.502490  1.0  2.0964
  Eu  Eu2  1  0.764310  0.987240  0.497510  1.0  2.1034
  H  H3  1  0.666200  0.408100  0.936200  1.0  0.1181
  H  H4  1  0.729600  0.509700  0.010700  1.0  0.1149
  H  H5  1  0.584000  0.430000  0.002800  1.0  0.108
  H  H6  1  0.101900  0.373000  0.209200  1.0  0.124
  H  H7  1  0.142500  0.458800  0.167900  1.0  0.1018
  H  H8  1  0.185500  0.341100  0.143500  1.0  0.114
  H  H9  1  0.786300  0.015200  0.030600  1.0  0.1087
  H  H10  1  0.705300  0.018000  0.952600  1.0  0.105
  H  H11  1  0.629100  0.038600  0.021600  1.0  0.1054
  H  H12  1  0.920300  0.553700  0.058800  1.0  0.1045
  H  H13  1  0.065300  0.528700  0.095100  1.0  0.0812
  H  H14  1  0.159000  0.659200  0.211100  1.0  0.1094
  H  H15  1  0.143100  0.782300  0.325500  1.0  0.1107
  H  H16  1  0.716000  0.668900  0.271200  1.0  0.0997
  H  H17  1  0.739300  0.541300  0.157700  1.0  0.126
  H  H18  1  0.507000  0.137800  0.962300  1.0  0.0946
  H  H19  1  0.498200  0.257800  0.959000  1.0  0.0815
  H  H20  1  0.354900  0.154100  0.832400  1.0  0.1291
  H  H21  1  0.353900  0.094300  0.706200  1.0  0.0893
  H  H22  1  0.773000  0.090200  0.754800  1.0  0.0899
  H  H23  1  0.771800  0.154200  0.881500  1.0  0.1108
  H  H24  1  0.100700  0.169500  0.103900  1.0  0.0833
  H  H25  1  0.968900  0.069300  0.069600  1.0  0.1065
  H  H26  1  0.788800  0.146700  0.176400  1.0  0.1063
  H  H27  1  0.771000  0.121600  0.289600  1.0  0.1172
  H  H28  1  0.192600  0.116500  0.327500  1.0  0.099
  H  H29  1  0.198700  0.129600  0.209600  1.0  0.1135
  H  H30  1  0.462000  0.247800  0.508400  1.0  0.3583
  H  H31  1  0.317000  0.756100  0.471300  1.0  0.3182
  H  H32  1  0.333800  0.591900  0.063800  1.0  0.117
  H  H33  1  0.270400  0.490300  0.989300  1.0  0.1164
  H  H34  1  0.416000  0.570000  0.997200  1.0  0.1076
  H  H35  1  0.898100  0.627000  0.790800  1.0  0.1247
  H  H36  1  0.857500  0.541200  0.832100  1.0  0.103
  H  H37  1  0.814500  0.658900  0.856500  1.0  0.116
  H  H38  1  0.213700  0.984800  0.969400  1.0  0.1081
  H  H39  1  0.294700  0.982000  0.047400  1.0  0.1047
  H  H40  1  0.370900  0.961400  0.978400  1.0  0.1066
  H  H41  1  0.079700  0.446300  0.941200  1.0  0.1045
  H  H42  1  0.934700  0.471300  0.904900  1.0  0.0793
  H  H43  1  0.841000  0.340800  0.788900  1.0  0.1084
  H  H44  1  0.856900  0.217700  0.674500  1.0  0.1104
  H  H45  1  0.284000  0.331100  0.728800  1.0  0.0986
  H  H46  1  0.260700  0.458700  0.842300  1.0  0.1261
  H  H47  1  0.493000  0.862200  0.037700  1.0  0.094
  H  H48  1  0.501800  0.742200  0.041000  1.0  0.0813
  H  H49  1  0.645100  0.845900  0.167600  1.0  0.1283
  H  H50  1  0.646100  0.905700  0.293800  1.0  0.0896
  H  H51  1  0.227000  0.909800  0.245200  1.0  0.0897
  H  H52  1  0.228200  0.845800  0.118500  1.0  0.11
  H  H53  1  0.899300  0.830500  0.896100  1.0  0.0827
  H  H54  1  0.031100  0.930700  0.930400  1.0  0.1059
  H  H55  1  0.211200  0.853300  0.823600  1.0  0.1062
  H  H56  1  0.229000  0.878400  0.710400  1.0  0.1171
  H  H57  1  0.807400  0.883500  0.672500  1.0  0.0986
  H  H58  1  0.801300  0.870400  0.790400  1.0  0.1128
  H  H59  1  0.538000  0.752200  0.491600  1.0  0.3549
  H  H60  1  0.683000  0.243900  0.528700  1.0  0.321
  C  C61  1  0.894900  0.403700  0.075200  1.0  -0.0548
  C  C62  1  0.969200  0.332900  0.103600  1.0  0.0593
  C  C63  1  0.912700  0.218800  0.080000  1.0  -0.0258
  C  C64  1  0.779800  0.174300  0.030500  1.0  0.0211
  C  C65  1  0.702100  0.245600  0.003200  1.0  -0.0699
  C  C66  1  0.760900  0.359400  0.023900  1.0  0.0326
  C  C67  1  0.677400  0.433800  0.990200  1.0  -0.3625
  C  C68  1  0.113300  0.381000  0.161500  1.0  -0.3686
  C  C69  1  0.719600  0.050200  0.006600  1.0  -0.358
  C  C70  1  0.963800  0.523700  0.096400  1.0  -0.0456
  C  C71  1  0.069200  0.662600  0.223400  1.0  0.0679
  C  C72  1  0.060500  0.736100  0.291800  1.0  -0.1126
  C  C73  1  0.925700  0.739600  0.309500  1.0  -0.1345
  C  C74  1  0.806400  0.667600  0.259400  1.0  -0.0216
  C  C75  1  0.819200  0.592100  0.190600  1.0  -0.0074
  C  C76  1  0.911800  0.823600  0.380800  1.0  0.7405
  C  C77  1  0.555600  0.200000  0.950400  1.0  -0.0933
  C  C78  1  0.440100  0.142300  0.816500  1.0  0.0188
  C  C79  1  0.439400  0.106200  0.741200  1.0  -0.0762
  C  C80  1  0.564800  0.086900  0.716100  1.0  -0.1077
  C  C81  1  0.687800  0.104200  0.770000  1.0  -0.0775
  C  C82  1  0.687300  0.141900  0.845700  1.0  0.034
  C  C83  1  0.568900  0.047700  0.633000  1.0  0.6966
  C  C84  1  0.001200  0.144700  0.105300  1.0  -0.0723
  C  C85  1  0.869800  0.138500  0.207100  1.0  0.0407
  C  C86  1  0.858900  0.124200  0.274600  1.0  -0.1018
  C  C87  1  0.980100  0.113500  0.320700  1.0  -0.1217
  C  C88  1  0.108700  0.119600  0.296500  1.0  -0.0665
  C  C89  1  0.113100  0.130100  0.226800  1.0  0.0
  C  C90  1  0.977500  0.095700  0.395900  1.0  0.7443
  C  C91  1  0.105100  0.596300  0.924800  1.0  -0.055
  C  C92  1  0.030800  0.667100  0.896400  1.0  0.0609
  C  C93  1  0.087300  0.781200  0.920000  1.0  -0.0256
  C  C94  1  0.220200  0.825700  0.969500  1.0  0.0213
  C  C95  1  0.297900  0.754400  0.996800  1.0  -0.0688
  C  C96  1  0.239100  0.640600  0.976100  1.0  0.0328
  C  C97  1  0.322600  0.566200  0.009800  1.0  -0.3647
  C  C98  1  0.886700  0.619000  0.838500  1.0  -0.3662
  C  C99  1  0.280400  0.949800  0.993400  1.0  -0.3577
  C  C100  1  0.036200  0.476300  0.903600  1.0  -0.046
  C  C101  1  0.930800  0.337400  0.776600  1.0  0.0694
  C  C102  1  0.939500  0.263900  0.708200  1.0  -0.1125
  C  C103  1  0.074300  0.260400  0.690500  1.0  -0.1336
  C  C104  1  0.193600  0.332400  0.740600  1.0  -0.0205
  C  C105  1  0.180800  0.407900  0.809400  1.0  -0.0041
  C  C106  1  0.088200  0.176400  0.619200  1.0  0.7585
  C  C107  1  0.444400  0.800000  0.049600  1.0  -0.0911
  C  C108  1  0.559900  0.857700  0.183500  1.0  0.0175
  C  C109  1  0.560600  0.893800  0.258800  1.0  -0.0682
  C  C110  1  0.435200  0.913100  0.283900  1.0  -0.1085
  C  C111  1  0.312200  0.895800  0.230000  1.0  -0.0665
  C  C112  1  0.312700  0.858100  0.154300  1.0  0.0329
  C  C113  1  0.431100  0.952300  0.367000  1.0  0.6981
  C  C114  1  0.998800  0.855300  0.894700  1.0  -0.0724
  C  C115  1  0.130200  0.861500  0.792900  1.0  0.0425
  C  C116  1  0.141100  0.875800  0.725400  1.0  -0.1018
  C  C117  1  0.019900  0.886500  0.679300  1.0  -0.1221
  C  C118  1  0.891300  0.880400  0.703500  1.0  -0.0646
  C  C119  1  0.886900  0.869900  0.773200  1.0  -0.0032
  C  C120  1  0.022500  0.904300  0.604100  1.0  0.7368
  N  N121  1  0.950600  0.595600  0.173900  1.0  -0.0944
  N  N122  1  0.563100  0.161100  0.868100  1.0  0.0068
  N  N123  1  0.995600  0.141100  0.184000  1.0  0.0744
  N  N124  1  0.049400  0.404400  0.826100  1.0  -0.0953
  N  N125  1  0.436900  0.838900  0.131900  1.0  0.0056
  N  N126  1  0.004400  0.858900  0.816000  1.0  0.0753
  O  O127  1  0.789000  0.829900  0.392400  1.0  -0.7124
  O  O128  1  0.026400  0.885300  0.423800  1.0  -0.7731
  O  O129  1  0.453200  0.034500  0.587000  1.0  -0.7375
  O  O130  1  0.685600  0.030700  0.615700  1.0  -0.6802
  O  O131  1  0.855800  0.064600  0.406900  1.0  -0.7293
  O  O132  1  0.096400  0.109700  0.438000  1.0  -0.7109
  O  O133  1  0.400200  0.183900  0.506700  1.0  -0.7252
  O  O134  1  0.294600  0.826800  0.479900  1.0  -0.745
  O  O135  1  0.211000  0.170100  0.607600  1.0  -0.7098
  O  O136  1  0.973600  0.114700  0.576200  1.0  -0.7716
  O  O137  1  0.546800  0.965500  0.413000  1.0  -0.7374
  O  O138  1  0.314400  0.969300  0.384300  1.0  -0.6776
  O  O139  1  0.144200  0.935400  0.593100  1.0  -0.7283
  O  O140  1  0.903600  0.890300  0.562000  1.0  -0.7116
  O  O141  1  0.599800  0.816100  0.493300  1.0  -0.7269
  O  O142  1  0.705400  0.173200  0.520100  1.0  -0.7429
