# generated using pymatgen
data_Zn5H32C42O23
_symmetry_space_group_name_H-M   'P 1'
_cell_length_a   15.51900000
_cell_length_b   16.10200000
_cell_length_c   22.98200000
_cell_angle_alpha   90.00000000
_cell_angle_beta   90.00000000
_cell_angle_gamma   100.20000000
_symmetry_Int_Tables_number   1
_chemical_formula_structural   Zn5H32C42O23
_chemical_formula_sum   'Zn20 H128 C168 O92'
_cell_volume   5652.13854069
_cell_formula_units_Z   4
loop_
 _symmetry_equiv_pos_site_id
 _symmetry_equiv_pos_as_xyz
  1  'x, y, z'
loop_
 _atom_site_type_symbol
 _atom_site_label
 _atom_site_symmetry_multiplicity
 _atom_site_fract_x
 _atom_site_fract_y
 _atom_site_fract_z
 _atom_site_occupancy
 _atom_site_charge
  Zn  Zn1  1  0.156640  0.353940  0.877500  1.0  0.969
  Zn  Zn2  1  0.825420  0.246680  0.248980  1.0  1.0512
  Zn  Zn3  1  0.825420  0.746680  0.251020  1.0  1.0511
  Zn  Zn4  1  0.168140  0.689420  0.876510  1.0  1.0752
  Zn  Zn5  1  0.174580  0.753320  0.751020  1.0  1.0507
  Zn  Zn6  1  0.843360  0.146060  0.377500  1.0  0.9756
  Zn  Zn7  1  0.831860  0.810580  0.376510  1.0  1.076
  Zn  Zn8  1  0.352400  0.383020  0.837170  1.0  1.0342
  Zn  Zn9  1  0.663750  0.151010  0.471930  1.0  1.0147
  Zn  Zn10  1  0.663750  0.651010  0.028070  1.0  1.0153
  Zn  Zn11  1  0.336250  0.348990  0.971930  1.0  1.0141
  Zn  Zn12  1  0.831860  0.310580  0.123480  1.0  1.0755
  Zn  Zn13  1  0.843360  0.646060  0.122500  1.0  0.976
  Zn  Zn14  1  0.174580  0.253320  0.748980  1.0  1.0508
  Zn  Zn15  1  0.647600  0.116980  0.337170  1.0  1.0345
  Zn  Zn16  1  0.647600  0.616980  0.162830  1.0  1.0343
  Zn  Zn17  1  0.352400  0.883020  0.662830  1.0  1.0343
  Zn  Zn18  1  0.156640  0.853940  0.622500  1.0  0.9693
  Zn  Zn19  1  0.336250  0.848990  0.528070  1.0  1.0147
  Zn  Zn20  1  0.168140  0.189420  0.623490  1.0  1.075
  H  H21  1  0.399000  0.581300  0.984100  1.0  0.1201
  H  H22  1  0.058600  0.099800  0.162200  1.0  0.0986
  H  H23  1  0.170100  0.515000  0.666500  1.0  0.1208
  H  H24  1  0.613200  0.150800  0.770900  1.0  0.0799
  H  H25  1  0.788800  0.896400  0.825900  1.0  0.0855
  H  H26  1  0.344200  0.246300  0.370600  1.0  0.0931
  H  H27  1  0.417900  0.919600  0.129800  1.0  0.0863
  H  H28  1  0.108400  0.291400  0.271000  1.0  0.1448
  H  H29  1  0.562500  0.155700  0.958400  1.0  0.0853
  H  H30  1  0.170100  0.015000  0.833500  1.0  0.1204
  H  H31  1  0.426000  0.989900  0.032200  1.0  0.0762
  H  H32  1  0.676000  0.536700  0.523700  1.0  0.0733
  H  H33  1  0.631100  0.455500  0.843700  1.0  0.1335
  H  H34  1  0.839200  0.935400  0.557000  1.0  0.1273
  H  H35  1  0.048700  0.003700  0.147800  1.0  0.1007
  H  H36  1  0.558200  0.215800  0.855500  1.0  0.0928
  H  H37  1  0.107200  0.989700  0.250200  1.0  0.0998
  H  H38  1  0.625000  0.749900  0.732700  1.0  0.0858
  H  H39  1  0.117400  0.087800  0.256400  1.0  0.0901
  H  H40  1  0.601000  0.418700  0.015900  1.0  0.1204
  H  H41  1  0.193900  0.505200  0.333100  1.0  0.087
  H  H42  1  0.128300  0.639000  0.521700  1.0  0.126
  H  H43  1  0.128300  0.139000  0.978300  1.0  0.1256
  H  H44  1  0.655800  0.253700  0.870600  1.0  0.092
  H  H45  1  0.806100  0.994800  0.833100  1.0  0.0859
  H  H46  1  0.160800  0.064600  0.443000  1.0  0.129
  H  H47  1  0.368900  0.544500  0.156300  1.0  0.1333
  H  H48  1  0.633800  0.367900  0.295700  1.0  0.1129
  H  H49  1  0.335300  0.819700  0.035800  1.0  0.0889
  H  H50  1  0.941400  0.400200  0.662200  1.0  0.0989
  H  H51  1  0.437500  0.344300  0.458400  1.0  0.0832
  H  H52  1  0.441800  0.784200  0.144500  1.0  0.0925
  H  H53  1  0.324000  0.463300  0.476300  1.0  0.0743
  H  H54  1  0.806100  0.494800  0.666900  1.0  0.0859
  H  H55  1  0.731400  0.905100  0.723700  1.0  0.0737
  H  H56  1  0.324000  0.963300  0.023700  1.0  0.0746
  H  H57  1  0.254300  0.995600  0.273700  1.0  0.0748
  H  H58  1  0.668800  0.184600  0.679000  1.0  0.1329
  H  H59  1  0.655800  0.753700  0.629400  1.0  0.0928
  H  H60  1  0.574000  0.510100  0.532200  1.0  0.0782
  H  H61  1  0.601000  0.918700  0.484100  1.0  0.1194
  H  H62  1  0.839200  0.435400  0.943000  1.0  0.1276
  H  H63  1  0.335300  0.319700  0.464200  1.0  0.0892
  H  H64  1  0.107200  0.489700  0.249800  1.0  0.0991
  H  H65  1  0.683600  0.611500  0.624700  1.0  0.0834
  H  H66  1  0.562500  0.655700  0.541600  1.0  0.0849
  H  H67  1  0.375300  0.090700  0.965700  1.0  0.1237
  H  H68  1  0.193900  0.005200  0.166900  1.0  0.086
  H  H69  1  0.268600  0.594900  0.223700  1.0  0.073
  H  H70  1  0.951300  0.996300  0.852200  1.0  0.1011
  H  H71  1  0.395500  0.904900  0.853100  1.0  0.1409
  H  H72  1  0.613200  0.650800  0.729100  1.0  0.0812
  H  H73  1  0.582100  0.580400  0.629800  1.0  0.0887
  H  H74  1  0.829900  0.485000  0.333500  1.0  0.1213
  H  H75  1  0.331200  0.315400  0.179000  1.0  0.1321
  H  H76  1  0.941400  0.900200  0.837800  1.0  0.0988
  H  H77  1  0.895100  0.676400  0.901600  1.0  0.1198
  H  H78  1  0.891600  0.208600  0.771000  1.0  0.1436
  H  H79  1  0.951300  0.496300  0.647800  1.0  0.101
  H  H80  1  0.664700  0.180300  0.964200  1.0  0.0871
  H  H81  1  0.664700  0.680300  0.535800  1.0  0.0888
  H  H82  1  0.745700  0.504400  0.773700  1.0  0.0751
  H  H83  1  0.108400  0.791400  0.229000  1.0  0.1439
  H  H84  1  0.211200  0.603600  0.325900  1.0  0.0838
  H  H85  1  0.375000  0.750100  0.232700  1.0  0.0857
  H  H86  1  0.254300  0.495600  0.226300  1.0  0.075
  H  H87  1  0.853100  0.871900  0.921900  1.0  0.0853
  H  H88  1  0.951600  0.409800  0.565300  1.0  0.0721
  H  H89  1  0.829900  0.985000  0.166500  1.0  0.1208
  H  H90  1  0.395500  0.404900  0.646900  1.0  0.1412
  H  H91  1  0.624700  0.909300  0.034300  1.0  0.125
  H  H92  1  0.891600  0.708600  0.729000  1.0  0.1444
  H  H93  1  0.386800  0.349200  0.270900  1.0  0.0799
  H  H94  1  0.604500  0.595100  0.353100  1.0  0.1406
  H  H95  1  0.268600  0.094900  0.276300  1.0  0.0731
  H  H96  1  0.631100  0.955500  0.656300  1.0  0.1332
  H  H97  1  0.048400  0.590200  0.434700  1.0  0.0752
  H  H98  1  0.160800  0.564600  0.057000  1.0  0.1287
  H  H99  1  0.624700  0.409300  0.465700  1.0  0.1242
  H  H100  1  0.048700  0.503700  0.352200  1.0  0.1004
  H  H101  1  0.316400  0.888500  0.124700  1.0  0.0829
  H  H102  1  0.331200  0.815400  0.321000  1.0  0.1322
  H  H103  1  0.399000  0.081300  0.515900  1.0  0.1202
  H  H104  1  0.104900  0.823600  0.401600  1.0  0.12
  H  H105  1  0.788800  0.396400  0.674100  1.0  0.0847
  H  H106  1  0.426000  0.489900  0.467800  1.0  0.0764
  H  H107  1  0.683600  0.111500  0.875300  1.0  0.0834
  H  H108  1  0.892800  0.510300  0.750200  1.0  0.099
  H  H109  1  0.871700  0.861000  0.021700  1.0  0.1252
  H  H110  1  0.417900  0.419600  0.370200  1.0  0.0873
  H  H111  1  0.574000  0.010100  0.967800  1.0  0.0777
  H  H112  1  0.146900  0.628100  0.421900  1.0  0.0839
  H  H113  1  0.951600  0.909800  0.934700  1.0  0.072
  H  H114  1  0.117400  0.587800  0.243600  1.0  0.0909
  H  H115  1  0.441800  0.284200  0.355500  1.0  0.0915
  H  H116  1  0.211200  0.103600  0.174100  1.0  0.0844
  H  H117  1  0.437500  0.844300  0.041600  1.0  0.083
  H  H118  1  0.344200  0.746300  0.129400  1.0  0.0924
  H  H119  1  0.668800  0.684600  0.821000  1.0  0.1331
  H  H120  1  0.366200  0.632100  0.704300  1.0  0.1117
  H  H121  1  0.604500  0.095100  0.146900  1.0  0.1409
  H  H122  1  0.153400  0.395900  0.513000  1.0  0.1298
  H  H123  1  0.731400  0.405100  0.776300  1.0  0.0731
  H  H124  1  0.366200  0.132100  0.795700  1.0  0.1131
  H  H125  1  0.871700  0.361000  0.478300  1.0  0.1253
  H  H126  1  0.882600  0.912200  0.743600  1.0  0.0909
  H  H127  1  0.316400  0.388500  0.375300  1.0  0.0831
  H  H128  1  0.146900  0.128100  0.078100  1.0  0.0846
  H  H129  1  0.676000  0.036700  0.976300  1.0  0.073
  H  H130  1  0.582100  0.080400  0.870200  1.0  0.0881
  H  H131  1  0.375000  0.250100  0.267300  1.0  0.0849
  H  H132  1  0.104900  0.323600  0.098400  1.0  0.1191
  H  H133  1  0.368900  0.044500  0.343700  1.0  0.1335
  H  H134  1  0.153400  0.895900  0.987000  1.0  0.1301
  H  H135  1  0.846600  0.104100  0.013000  1.0  0.1295
  H  H136  1  0.882600  0.412200  0.756400  1.0  0.0916
  H  H137  1  0.386800  0.849200  0.229100  1.0  0.0795
  H  H138  1  0.058600  0.599800  0.337800  1.0  0.0992
  H  H139  1  0.853100  0.371900  0.578100  1.0  0.085
  H  H140  1  0.846600  0.604100  0.487000  1.0  0.1297
  H  H141  1  0.558200  0.715800  0.644500  1.0  0.0934
  H  H142  1  0.895100  0.176400  0.598400  1.0  0.1196
  H  H143  1  0.625000  0.249900  0.767300  1.0  0.0855
  H  H144  1  0.745700  0.004400  0.726300  1.0  0.0749
  H  H145  1  0.048400  0.090200  0.065300  1.0  0.076
  H  H146  1  0.375300  0.590700  0.534300  1.0  0.1252
  H  H147  1  0.633800  0.867900  0.204300  1.0  0.1121
  H  H148  1  0.892800  0.010300  0.749800  1.0  0.0996
  C  C149  1  0.628500  0.375400  0.382280  1.0  -0.1189
  C  C150  1  0.838100  0.057100  0.094540  1.0  -0.1333
  C  C151  1  0.618100  0.706500  0.647720  1.0  -0.1013
  C  C152  1  0.776200  0.182300  0.629910  1.0  -0.151
  C  C153  1  0.848500  0.055700  0.034740  1.0  -0.1225
  C  C154  1  0.161900  0.942900  0.905460  1.0  -0.1338
  C  C155  1  0.863500  0.410500  0.459960  1.0  -0.1713
  C  C156  1  0.362900  0.575100  0.016670  1.0  0.0372
  C  C157  1  0.088000  0.057500  0.144800  1.0  -0.0882
  C  C158  1  0.779600  0.436300  0.939840  1.0  -0.1223
  C  C159  1  0.379400  0.514100  0.685680  1.0  -0.1549
  C  C160  1  0.161000  0.515100  0.626500  1.0  0.0045
  C  C161  1  0.005600  0.198100  0.687470  1.0  0.7106
  C  C162  1  0.237800  0.093000  0.547700  1.0  0.6897
  C  C163  1  0.612800  0.011800  0.083030  1.0  0.288
  C  C164  1  0.176100  0.863100  0.875690  1.0  0.7085
  C  C165  1  0.617400  0.137300  0.950220  1.0  -0.1128
  C  C166  1  0.897800  0.422000  0.582060  1.0  0.09
  C  C167  1  0.005600  0.698100  0.812530  1.0  0.7104
  C  C168  1  0.994400  0.301900  0.187470  1.0  0.7101
  C  C169  1  0.642300  0.203200  0.788240  1.0  0.0967
  C  C170  1  0.255600  0.550900  0.113650  1.0  0.2694
  C  C171  1  0.379400  0.014100  0.814320  1.0  -0.159
  C  C172  1  0.779600  0.936300  0.560160  1.0  -0.1233
  C  C173  1  0.727200  0.924700  0.510830  1.0  -0.1128
  C  C174  1  0.161900  0.442900  0.594540  1.0  -0.1335
  C  C175  1  0.602500  0.434400  0.928850  1.0  -0.1063
  C  C176  1  0.147200  0.042600  0.244340  1.0  -0.0952
  C  C177  1  0.226500  0.543500  0.217440  1.0  0.1083
  C  C178  1  0.387200  0.488200  0.583030  1.0  0.287
  C  C179  1  0.138400  0.517200  0.507220  1.0  0.2812
  C  C180  1  0.226500  0.043500  0.282560  1.0  0.1114
  C  C181  1  0.377600  0.071500  0.927630  1.0  -0.2029
  C  C182  1  0.373600  0.979700  0.753140  1.0  0.6473
  C  C183  1  0.744400  0.449100  0.886350  1.0  0.2696
  C  C184  1  0.852800  0.457400  0.744340  1.0  -0.0803
  C  C185  1  0.495700  0.577800  0.077470  1.0  0.7032
  C  C186  1  0.626900  0.626100  0.616220  1.0  -0.1064
  C  C187  1  0.151500  0.944300  0.965260  1.0  -0.1206
  C  C188  1  0.908000  0.195800  0.685080  1.0  -0.14
  C  C189  1  0.373600  0.479700  0.746860  1.0  0.6463
  C  C190  1  0.381900  0.293500  0.352280  1.0  -0.1019
  C  C191  1  0.371500  0.624600  0.617720  1.0  -0.1192
  C  C192  1  0.382600  0.862700  0.049780  1.0  -0.1026
  C  C193  1  0.618100  0.206500  0.852280  1.0  -0.1022
  C  C194  1  0.168400  0.052700  0.180050  1.0  -0.0947
  C  C195  1  0.831600  0.947300  0.819950  1.0  -0.1006
  C  C196  1  0.654900  0.947700  0.620060  1.0  -0.1484
  C  C197  1  0.852800  0.957400  0.755660  1.0  -0.0814
  C  C198  1  0.223800  0.817700  0.370090  1.0  -0.1511
  C  C199  1  0.994400  0.801900  0.312530  1.0  0.7105
  C  C200  1  0.620600  0.985900  0.185680  1.0  -0.1521
  C  C201  1  0.377600  0.571500  0.572370  1.0  -0.2023
  C  C202  1  0.602500  0.934400  0.571150  1.0  -0.1061
  C  C203  1  0.637100  0.424900  0.983330  1.0  0.0372
  C  C204  1  0.226800  0.799100  0.266810  1.0  0.2868
  C  C205  1  0.387200  0.988200  0.916970  1.0  0.2871
  C  C206  1  0.388500  0.960100  0.860540  1.0  -0.0642
  C  C207  1  0.270700  0.311400  0.180430  1.0  -0.1331
  C  C208  1  0.773200  0.700900  0.766810  1.0  0.2865
  C  C209  1  0.773500  0.956500  0.717440  1.0  0.1069
  C  C210  1  0.272000  0.328700  0.072880  1.0  0.6695
  C  C211  1  0.762200  0.907000  0.452300  1.0  0.6914
  C  C212  1  0.137500  0.297300  0.235490  1.0  -0.1446
  C  C213  1  0.345100  0.552300  0.120060  1.0  -0.1477
  C  C214  1  0.852200  0.333200  0.366520  1.0  0.7188
  C  C215  1  0.626400  0.520300  0.253140  1.0  0.6455
  C  C216  1  0.237800  0.593000  0.952300  1.0  0.6921
  C  C217  1  0.135700  0.316300  0.132250  1.0  -0.0156
  C  C218  1  0.823900  0.636900  0.375690  1.0  0.7085
  C  C219  1  0.863500  0.910500  0.040040  1.0  -0.1713
  C  C220  1  0.628400  0.404400  0.326270  1.0  -0.018
  C  C221  1  0.138400  0.017200  0.992780  1.0  0.2818
  C  C222  1  0.504300  0.922200  0.577470  1.0  0.7041
  C  C223  1  0.220400  0.563700  0.060160  1.0  -0.1232
  C  C224  1  0.176100  0.363100  0.624310  1.0  0.7089
  C  C225  1  0.272800  0.575300  0.010830  1.0  -0.1121
  C  C226  1  0.612800  0.511800  0.416970  1.0  0.2837
  C  C227  1  0.371600  0.095600  0.826270  1.0  -0.0181
  C  C228  1  0.161000  0.015100  0.873500  1.0  0.0065
  C  C229  1  0.853500  0.912000  0.098900  1.0  -0.1532
  C  C230  1  0.397500  0.065600  0.428850  1.0  -0.1049
  C  C231  1  0.151500  0.444300  0.534740  1.0  -0.1223
  C  C232  1  0.495700  0.077800  0.422530  1.0  0.7199
  C  C233  1  0.744400  0.949100  0.613650  1.0  0.2691
  C  C234  1  0.147800  0.666800  0.633480  1.0  0.7177
  C  C235  1  0.146500  0.588000  0.598900  1.0  -0.1538
  C  C236  1  0.102200  0.578000  0.417940  1.0  0.0903
  C  C237  1  0.622400  0.428500  0.427630  1.0  -0.2023
  C  C238  1  0.388500  0.460100  0.639460  1.0  -0.0642
  C  C239  1  0.773500  0.456500  0.782560  1.0  0.1083
  C  C240  1  0.362900  0.075100  0.483330  1.0  0.0381
  C  C241  1  0.622400  0.928500  0.072370  1.0  -0.2012
  C  C242  1  0.626400  0.020300  0.246860  1.0  0.6455
  C  C243  1  0.727200  0.424700  0.989170  1.0  -0.1143
  C  C244  1  0.359900  0.714000  0.607020  1.0  0.7008
  C  C245  1  0.773200  0.200900  0.733190  1.0  0.2855
  C  C246  1  0.373100  0.873900  0.116220  1.0  -0.1054
  C  C247  1  0.728000  0.671300  0.927120  1.0  0.6693
  C  C248  1  0.626900  0.126100  0.883780  1.0  -0.1097
  C  C249  1  0.380100  0.945700  0.017990  1.0  0.1092
  C  C250  1  0.168400  0.552700  0.319950  1.0  -0.0951
  C  C251  1  0.823900  0.136900  0.124310  1.0  0.7082
  C  C252  1  0.838100  0.557100  0.405460  1.0  -0.1331
  C  C253  1  0.897800  0.922000  0.917940  1.0  0.09
  C  C254  1  0.729300  0.188600  0.680430  1.0  -0.1347
  C  C255  1  0.371600  0.595600  0.673730  1.0  -0.0184
  C  C256  1  0.147200  0.542600  0.255660  1.0  -0.0848
  C  C257  1  0.852200  0.833200  0.133480  1.0  0.7201
  C  C258  1  0.504300  0.422200  0.922530  1.0  0.7045
  C  C259  1  0.381900  0.793500  0.147720  1.0  -0.1014
  C  C260  1  0.223800  0.317700  0.129910  1.0  -0.1516
  C  C261  1  0.861600  0.482800  0.492780  1.0  0.2812
  C  C262  1  0.642300  0.703200  0.711760  1.0  0.096
  C  C263  1  0.637100  0.924900  0.516670  1.0  0.0377
  C  C264  1  0.092000  0.304200  0.185080  1.0  -0.1417
  C  C265  1  0.373100  0.373900  0.383780  1.0  -0.1073
  C  C266  1  0.397500  0.565600  0.071150  1.0  -0.1048
  C  C267  1  0.640100  0.786000  0.107020  1.0  0.6966
  C  C268  1  0.620600  0.485900  0.314320  1.0  -0.1561
  C  C269  1  0.908000  0.695800  0.814920  1.0  -0.1401
  C  C270  1  0.853500  0.412000  0.401100  1.0  -0.1532
  C  C271  1  0.619900  0.054300  0.982010  1.0  0.1079
  C  C272  1  0.226800  0.299100  0.233190  1.0  0.286
  C  C273  1  0.147800  0.166800  0.866520  1.0  0.7183
  C  C274  1  0.839000  0.984900  0.126500  1.0  0.0043
  C  C275  1  0.272800  0.075300  0.489170  1.0  -0.1133
  C  C276  1  0.861600  0.982800  0.007220  1.0  0.2816
  C  C277  1  0.371500  0.124600  0.882280  1.0  -0.1191
  C  C278  1  0.654900  0.447700  0.879940  1.0  -0.1481
  C  C279  1  0.088000  0.557500  0.355200  1.0  -0.0867
  C  C280  1  0.136500  0.089500  0.959960  1.0  -0.1727
  C  C281  1  0.619900  0.554300  0.517990  1.0  0.1084
  C  C282  1  0.380100  0.445700  0.482010  1.0  0.1069
  C  C283  1  0.776200  0.682300  0.870090  1.0  -0.1498
  C  C284  1  0.628400  0.904400  0.173730  1.0  -0.0173
  C  C285  1  0.357700  0.796800  0.211760  1.0  0.0957
  C  C286  1  0.092000  0.804200  0.314920  1.0  -0.1419
  C  C287  1  0.220400  0.063700  0.439840  1.0  -0.1245
  C  C288  1  0.382600  0.362700  0.450220  1.0  -0.1128
  C  C289  1  0.762200  0.407000  0.047700  1.0  0.6905
  C  C290  1  0.102200  0.078000  0.082060  1.0  0.0898
  C  C291  1  0.864300  0.683700  0.867750  1.0  -0.0149
  C  C292  1  0.839000  0.484900  0.373500  1.0  0.0048
  C  C293  1  0.728000  0.171300  0.572880  1.0  0.6689
  C  C294  1  0.848500  0.555700  0.465260  1.0  -0.1199
  C  C295  1  0.359900  0.214000  0.892980  1.0  0.699
  C  C296  1  0.864300  0.183700  0.632250  1.0  -0.0147
  C  C297  1  0.270700  0.811400  0.319570  1.0  -0.1322
  C  C298  1  0.137500  0.797300  0.264510  1.0  -0.1421
  C  C299  1  0.255600  0.050900  0.386350  1.0  0.2698
  C  C300  1  0.640100  0.286000  0.392980  1.0  0.6985
  C  C301  1  0.729300  0.688600  0.819570  1.0  -0.1348
  C  C302  1  0.136500  0.589500  0.540040  1.0  -0.1725
  C  C303  1  0.611500  0.039900  0.139460  1.0  -0.0648
  C  C304  1  0.611500  0.539900  0.360540  1.0  -0.0636
  C  C305  1  0.617400  0.637300  0.549780  1.0  -0.1019
  C  C306  1  0.831600  0.447300  0.680050  1.0  -0.0941
  C  C307  1  0.146500  0.088000  0.901100  1.0  -0.1536
  C  C308  1  0.862500  0.702700  0.764510  1.0  -0.1437
  C  C309  1  0.135700  0.816300  0.367750  1.0  -0.0179
  C  C310  1  0.272000  0.828700  0.427120  1.0  0.67
  C  C311  1  0.357700  0.296800  0.288240  1.0  0.0952
  C  C312  1  0.345100  0.052300  0.379940  1.0  -0.1475
  C  C313  1  0.628500  0.875400  0.117720  1.0  -0.119
  C  C314  1  0.912000  0.442500  0.644800  1.0  -0.0858
  C  C315  1  0.912000  0.942500  0.855200  1.0  -0.0858
  C  C316  1  0.862500  0.202700  0.735490  1.0  -0.1441
  O  O317  1  0.216690  0.350450  0.798400  1.0  -0.7451
  O  O318  1  0.656570  0.478840  0.213770  1.0  -0.5985
  O  O319  1  0.769040  0.660900  0.972480  1.0  -0.578
  O  O320  1  0.045340  0.229900  0.731830  1.0  -0.5929
  O  O321  1  0.279950  0.403660  0.906680  1.0  -0.7532
  O  O322  1  0.734730  0.208600  0.785830  1.0  -0.2596
  O  O323  1  0.196580  0.539300  0.158690  1.0  -0.2661
  O  O324  1  0.343430  0.521160  0.786230  1.0  -0.5968
  O  O325  1  0.350880  0.825700  0.429790  1.0  -0.5673
  O  O326  1  0.459590  0.902810  0.532200  1.0  -0.585
  O  O327  1  0.345640  0.734670  0.555170  1.0  -0.5925
  O  O328  1  0.041190  0.171130  0.643060  1.0  -0.607
  O  O329  1  0.160190  0.663970  0.687630  1.0  -0.6109
  O  O330  1  0.232020  0.685310  0.804830  1.0  -0.6544
  O  O331  1  0.605300  0.091770  0.255700  1.0  -0.5803
  O  O332  1  0.822700  0.140190  0.178680  1.0  -0.6915
  O  O333  1  0.656570  0.978840  0.286230  1.0  -0.5975
  O  O334  1  0.279950  0.903660  0.593320  1.0  -0.7529
  O  O335  1  0.230960  0.839100  0.472480  1.0  -0.5767
  O  O336  1  0.041190  0.671130  0.856940  1.0  -0.6075
  O  O337  1  0.171560  0.628630  0.950910  1.0  -0.5788
  O  O338  1  0.954660  0.270100  0.231830  1.0  -0.5929
  O  O339  1  0.045340  0.729900  0.768170  1.0  -0.5915
  O  O340  1  0.364330  0.762750  0.650060  1.0  -0.6073
  O  O341  1  0.393100  0.429190  0.541110  1.0  -0.2559
  O  O342  1  0.364330  0.262750  0.849940  1.0  -0.6077
  O  O343  1  0.839810  0.336030  0.312370  1.0  -0.6108
  O  O344  1  0.160190  0.163970  0.812370  1.0  -0.6105
  O  O345  1  0.459590  0.402810  0.967800  1.0  -0.5852
  O  O346  1  0.954660  0.770100  0.268170  1.0  -0.5909
  O  O347  1  0.189400  0.302260  0.591440  1.0  -0.6019
  O  O348  1  0.171560  0.128630  0.549090  1.0  -0.5795
  O  O349  1  0.265270  0.291400  0.285830  1.0  -0.26
  O  O350  1  0.393100  0.929190  0.958890  1.0  -0.2573
  O  O351  1  0.767980  0.814690  0.304830  1.0  -0.653
  O  O352  1  0.540410  0.097190  0.467800  1.0  -0.5851
  O  O353  1  0.864400  0.268300  0.393280  1.0  -0.6331
  O  O354  1  0.839810  0.836030  0.187630  1.0  -0.6096
  O  O355  1  0.649120  0.674300  0.929790  1.0  -0.572
  O  O356  1  0.526820  0.066960  0.373540  1.0  -0.5901
  O  O357  1  0.649120  0.174300  0.570210  1.0  -0.5708
  O  O358  1  0.177300  0.859810  0.821320  1.0  -0.6905
  O  O359  1  0.345640  0.234670  0.944830  1.0  -0.5918
  O  O360  1  0.473180  0.933040  0.626460  1.0  -0.5893
  O  O361  1  0.135600  0.731700  0.606720  1.0  -0.633
  O  O362  1  0.828440  0.371370  0.049090  1.0  -0.5792
  O  O363  1  0.343430  0.021160  0.713770  1.0  -0.596
  O  O364  1  0.350880  0.325700  0.070210  1.0  -0.568
  O  O365  1  0.177300  0.359810  0.678680  1.0  -0.69
  O  O366  1  0.216690  0.850450  0.701600  1.0  -0.7448
  O  O367  1  0.828440  0.871370  0.450910  1.0  -0.5786
  O  O368  1  0.135600  0.231700  0.893280  1.0  -0.6345
  O  O369  1  0.783310  0.149550  0.298400  1.0  -0.7446
  O  O370  1  0.872200  0.488300  0.552140  1.0  -0.2624
  O  O371  1  0.783310  0.649550  0.201600  1.0  -0.7445
  O  O372  1  0.127800  0.011700  0.052140  1.0  -0.264
  O  O373  1  0.635670  0.737250  0.150060  1.0  -0.6083
  O  O374  1  0.230960  0.339100  0.027520  1.0  -0.5776
  O  O375  1  0.473180  0.433040  0.873540  1.0  -0.5898
  O  O376  1  0.958810  0.328870  0.143060  1.0  -0.6082
  O  O377  1  0.605300  0.591770  0.244300  1.0  -0.5802
  O  O378  1  0.810600  0.197740  0.091440  1.0  -0.6021
  O  O379  1  0.810600  0.697740  0.408560  1.0  -0.6023
  O  O380  1  0.864400  0.768300  0.106720  1.0  -0.6321
  O  O381  1  0.275460  0.073420  0.592920  1.0  -0.5039
  O  O382  1  0.606900  0.570810  0.458890  1.0  -0.2554
  O  O383  1  0.189400  0.802260  0.908560  1.0  -0.6021
  O  O384  1  0.196580  0.039300  0.341310  1.0  -0.2657
  O  O385  1  0.635670  0.237250  0.349940  1.0  -0.6081
  O  O386  1  0.724540  0.426580  0.092920  1.0  -0.5014
  O  O387  1  0.767980  0.314690  0.195170  1.0  -0.6532
  O  O388  1  0.734730  0.708600  0.714170  1.0  -0.2597
  O  O389  1  0.606900  0.070810  0.041110  1.0  -0.255
  O  O390  1  0.769040  0.160900  0.527520  1.0  -0.5774
  O  O391  1  0.822700  0.640190  0.321320  1.0  -0.691
  O  O392  1  0.127800  0.511700  0.447860  1.0  -0.2642
  O  O393  1  0.394700  0.908230  0.744300  1.0  -0.5781
  O  O394  1  0.724540  0.926580  0.407080  1.0  -0.5021
  O  O395  1  0.265270  0.791400  0.214170  1.0  -0.2597
  O  O396  1  0.526820  0.566960  0.126460  1.0  -0.5894
  O  O397  1  0.540410  0.597190  0.032200  1.0  -0.5847
  O  O398  1  0.654360  0.765330  0.055170  1.0  -0.5929
  O  O399  1  0.803420  0.460700  0.841310  1.0  -0.2667
  O  O400  1  0.872200  0.988300  0.947860  1.0  -0.2626
  O  O401  1  0.958810  0.828870  0.356940  1.0  -0.6083
  O  O402  1  0.803420  0.960700  0.658690  1.0  -0.2674
  O  O403  1  0.654360  0.265330  0.444830  1.0  -0.5916
  O  O404  1  0.394700  0.408230  0.755700  1.0  -0.5786
  O  O405  1  0.720050  0.096340  0.406680  1.0  -0.7534
  O  O406  1  0.232020  0.185310  0.695170  1.0  -0.6543
  O  O407  1  0.275460  0.573420  0.907080  1.0  -0.5044
  O  O408  1  0.720050  0.596340  0.093320  1.0  -0.753
