# generated using pymatgen
data_Zn2H16C21O10
_symmetry_space_group_name_H-M   'P 1'
_cell_length_a   7.80800000
_cell_length_b   17.45600000
_cell_length_c   18.31250000
_cell_angle_alpha   90.00000000
_cell_angle_beta   97.72120000
_cell_angle_gamma   90.00000000
_symmetry_Int_Tables_number   1
_chemical_formula_structural   Zn2H16C21O10
_chemical_formula_sum   'Zn8 H64 C84 O40'
_cell_volume   2473.29950537
_cell_formula_units_Z   4
loop_
 _symmetry_equiv_pos_site_id
 _symmetry_equiv_pos_as_xyz
  1  'x, y, z'
loop_
 _atom_site_type_symbol
 _atom_site_label
 _atom_site_symmetry_multiplicity
 _atom_site_fract_x
 _atom_site_fract_y
 _atom_site_fract_z
 _atom_site_occupancy
 _atom_site_charge
  Zn  Zn1  1  0.845720  0.379960  0.386470  1.0  1.0871
  Zn  Zn2  1  0.345720  0.120040  0.886470  1.0  1.0876
  Zn  Zn3  1  0.989330  0.201990  0.780170  1.0  1.0444
  Zn  Zn4  1  0.154280  0.620040  0.613530  1.0  1.0874
  Zn  Zn5  1  0.010670  0.798010  0.219830  1.0  1.0439
  Zn  Zn6  1  0.510670  0.701990  0.719830  1.0  1.0443
  Zn  Zn7  1  0.489330  0.298010  0.280170  1.0  1.0439
  Zn  Zn8  1  0.654280  0.879960  0.113530  1.0  1.0842
  H  H9  1  0.593600  0.540000  0.972500  1.0  0.0717
  H  H10  1  0.455200  0.964900  0.528600  1.0  0.1134
  H  H11  1  0.266000  0.398600  0.724300  1.0  0.1236
  H  H12  1  0.955200  0.535100  0.028600  1.0  0.1133
  H  H13  1  0.173100  0.510000  0.929500  1.0  0.0706
  H  H14  1  0.948300  0.194800  0.486500  1.0  0.0654
  H  H15  1  0.903000  0.507400  0.870200  1.0  0.0893
  H  H16  1  0.694200  0.607600  0.939800  1.0  0.0806
  H  H17  1  0.766000  0.101400  0.224300  1.0  0.1233
  H  H18  1  0.714000  0.595500  0.100300  1.0  0.0776
  H  H19  1  0.276000  0.739400  0.035500  1.0  0.1067
  H  H20  1  0.296200  0.722600  0.430600  1.0  0.1079
  H  H21  1  0.724000  0.260600  0.964500  1.0  0.1071
  H  H22  1  0.539400  0.024500  0.322700  1.0  0.0922
  H  H23  1  0.211000  0.987100  0.282500  1.0  0.1179
  H  H24  1  0.829300  0.793100  0.659500  1.0  0.1034
  H  H25  1  0.224000  0.239400  0.464500  1.0  0.1071
  H  H26  1  0.403000  0.992600  0.370200  1.0  0.089
  H  H27  1  0.194200  0.892400  0.439800  1.0  0.0807
  H  H28  1  0.865300  0.343500  0.168000  1.0  0.1119
  H  H29  1  0.156100  0.358600  0.940700  1.0  0.0755
  H  H30  1  0.711000  0.512900  0.782500  1.0  0.1183
  H  H31  1  0.406400  0.460000  0.027500  1.0  0.0702
  H  H32  1  0.365300  0.156500  0.668000  1.0  0.1124
  H  H33  1  0.551700  0.694800  0.013500  1.0  0.0659
  H  H34  1  0.305800  0.392400  0.060200  1.0  0.08
  H  H35  1  0.960600  0.524500  0.177300  1.0  0.0937
  H  H36  1  0.796200  0.777400  0.930600  1.0  0.1082
  H  H37  1  0.670700  0.293100  0.840500  1.0  0.1022
  H  H38  1  0.786000  0.095500  0.399700  1.0  0.0774
  H  H39  1  0.289000  0.487100  0.217500  1.0  0.1183
  H  H40  1  0.826900  0.490000  0.070500  1.0  0.0708
  H  H41  1  0.329300  0.706900  0.159500  1.0  0.1027
  H  H42  1  0.789000  0.012900  0.717500  1.0  0.1186
  H  H43  1  0.597000  0.007400  0.629800  1.0  0.0887
  H  H44  1  0.170700  0.206900  0.340500  1.0  0.1013
  H  H45  1  0.673100  0.990000  0.429500  1.0  0.0687
  H  H46  1  0.776000  0.760600  0.535500  1.0  0.1078
  H  H47  1  0.938200  0.874200  0.534600  1.0  0.0528
  H  H48  1  0.343900  0.858600  0.559300  1.0  0.075
  H  H49  1  0.448300  0.305200  0.986500  1.0  0.0659
  H  H50  1  0.734000  0.601400  0.275700  1.0  0.1223
  H  H51  1  0.460600  0.975500  0.677300  1.0  0.0935
  H  H52  1  0.544800  0.035100  0.471400  1.0  0.1133
  H  H53  1  0.634700  0.843500  0.332000  1.0  0.1128
  H  H54  1  0.093600  0.960000  0.472500  1.0  0.0707
  H  H55  1  0.703800  0.277400  0.569400  1.0  0.11
  H  H56  1  0.039400  0.475500  0.822700  1.0  0.0915
  H  H57  1  0.134700  0.656500  0.832000  1.0  0.1132
  H  H58  1  0.044800  0.464900  0.971400  1.0  0.1135
  H  H59  1  0.326900  0.010000  0.570500  1.0  0.0723
  H  H60  1  0.097000  0.492600  0.129800  1.0  0.0892
  H  H61  1  0.906400  0.040000  0.527500  1.0  0.0717
  H  H62  1  0.203800  0.222600  0.069400  1.0  0.1091
  H  H63  1  0.561800  0.374200  0.965400  1.0  0.0524
  H  H64  1  0.656100  0.141400  0.440700  1.0  0.076
  H  H65  1  0.438200  0.625800  0.034600  1.0  0.0531
  H  H66  1  0.805800  0.107600  0.560200  1.0  0.0799
  H  H67  1  0.286000  0.404500  0.899700  1.0  0.0777
  H  H68  1  0.061800  0.125800  0.465400  1.0  0.0533
  H  H69  1  0.214000  0.904500  0.600300  1.0  0.0778
  H  H70  1  0.234000  0.898600  0.775700  1.0  0.1224
  H  H71  1  0.843900  0.641400  0.059300  1.0  0.0754
  H  H72  1  0.051700  0.805200  0.513500  1.0  0.0656
  C  C73  1  0.449400  0.335700  0.786400  1.0  -0.1661
  C  C74  1  0.499100  0.353900  0.003400  1.0  0.0932
  C  C75  1  0.146800  0.032100  0.282200  1.0  -0.1714
  C  C76  1  0.905100  0.755600  0.931600  1.0  -0.0061
  C  C77  1  0.018800  0.534800  0.134800  1.0  0.0903
  C  C78  1  0.807300  0.267200  0.005300  1.0  -0.189
  C  C79  1  0.472400  0.699600  0.561400  1.0  0.6972
  C  C80  1  0.000900  0.853900  0.496600  1.0  0.0953
  C  C81  1  0.999100  0.146100  0.503400  1.0  0.0923
  C  C82  1  0.620500  0.337000  0.818000  1.0  -0.1307
  C  C83  1  0.055100  0.285200  0.129300  1.0  -0.1602
  C  C84  1  0.878700  0.100100  0.248500  1.0  -0.0252
  C  C85  1  0.162600  0.768300  0.701400  1.0  0.6695
  C  C86  1  0.879500  0.837000  0.682000  1.0  -0.131
  C  C87  1  0.769300  0.307900  0.066100  1.0  0.2526
  C  C88  1  0.607300  0.816300  0.372600  1.0  -0.1073
  C  C89  1  0.898900  0.962700  0.212800  1.0  0.7092
  C  C90  1  0.107300  0.683700  0.872600  1.0  -0.1072
  C  C91  1  0.639900  0.591200  0.981800  1.0  -0.1045
  C  C92  1  0.692700  0.767200  0.494700  1.0  -0.1864
  C  C93  1  0.027200  0.763900  0.993800  1.0  -0.1371
  C  C94  1  0.398900  0.537300  0.712800  1.0  0.708
  C  C95  1  0.500900  0.646100  0.996600  1.0  0.0949
  C  C96  1  0.379500  0.663000  0.182000  1.0  -0.1319
  C  C97  1  0.405100  0.744400  0.431600  1.0  -0.0057
  C  C98  1  0.607100  0.037100  0.429100  1.0  -0.1502
  C  C99  1  0.646800  0.467900  0.782200  1.0  -0.1714
  C  C100  1  0.662600  0.731700  0.201400  1.0  0.6701
  C  C101  1  0.477000  0.465200  0.746900  1.0  -0.1009
  C  C102  1  0.527600  0.300400  0.438600  1.0  0.6978
  C  C103  1  0.230700  0.692100  0.933900  1.0  0.2525
  C  C104  1  0.555100  0.214800  0.629300  1.0  -0.1606
  C  C105  1  0.027600  0.199600  0.938600  1.0  0.6979
  C  C106  1  0.972800  0.236100  0.006200  1.0  -0.1381
  C  C107  1  0.337400  0.268300  0.798600  1.0  0.6689
  C  C108  1  0.717500  0.403100  0.816500  1.0  0.2778
  C  C109  1  0.730700  0.807900  0.433900  1.0  0.2532
  C  C110  1  0.693500  0.201000  0.693100  1.0  0.6614
  C  C111  1  0.050600  0.835700  0.713600  1.0  -0.1659
  C  C112  1  0.121300  0.899900  0.751500  1.0  -0.0263
  C  C113  1  0.193500  0.299000  0.193100  1.0  0.6615
  C  C114  1  0.837400  0.231700  0.298600  1.0  0.6709
  C  C115  1  0.972400  0.800400  0.061400  1.0  0.6982
  C  C116  1  0.523000  0.534800  0.253100  1.0  -0.0978
  C  C117  1  0.481200  0.034800  0.365200  1.0  0.0917
  C  C118  1  0.472800  0.263900  0.506200  1.0  -0.1372
  C  C119  1  0.780000  0.593800  0.059000  1.0  -0.1482
  C  C120  1  0.101100  0.037300  0.787200  1.0  0.7104
  C  C121  1  0.120500  0.163000  0.318000  1.0  -0.1318
  C  C122  1  0.853200  0.967900  0.717800  1.0  -0.1734
  C  C123  1  0.360100  0.408800  0.018200  1.0  -0.1051
  C  C124  1  0.550600  0.664300  0.213600  1.0  -0.1671
  C  C125  1  0.518800  0.965200  0.634800  1.0  0.0922
  C  C126  1  0.720000  0.093800  0.441000  1.0  -0.1482
  C  C127  1  0.892900  0.537100  0.070900  1.0  -0.1502
  C  C128  1  0.944900  0.714800  0.870700  1.0  -0.1616
  C  C129  1  0.621300  0.600100  0.251500  1.0  -0.0261
  C  C130  1  0.023000  0.965200  0.753100  1.0  -0.099
  C  C131  1  0.139900  0.908800  0.481800  1.0  -0.1046
  C  C132  1  0.094900  0.244400  0.068400  1.0  -0.0077
  C  C133  1  0.977000  0.034800  0.246900  1.0  -0.1031
  C  C134  1  0.601100  0.462700  0.287200  1.0  0.7103
  C  C135  1  0.782500  0.903100  0.683500  1.0  0.2804
  C  C136  1  0.806500  0.701000  0.806900  1.0  0.662
  C  C137  1  0.107100  0.462900  0.929100  1.0  -0.1502
  C  C138  1  0.220000  0.406200  0.941000  1.0  -0.1484
  C  C139  1  0.892700  0.316300  0.127400  1.0  -0.1063
  C  C140  1  0.444900  0.785200  0.370700  1.0  -0.1627
  C  C141  1  0.594900  0.255600  0.568400  1.0  -0.0063
  C  C142  1  0.392700  0.183700  0.627400  1.0  -0.1064
  C  C143  1  0.307300  0.232800  0.505300  1.0  -0.1891
  C  C144  1  0.192700  0.732800  0.994700  1.0  -0.185
  C  C145  1  0.392900  0.962900  0.570900  1.0  -0.1507
  C  C146  1  0.269300  0.192100  0.566100  1.0  0.2514
  C  C147  1  0.353200  0.532100  0.217800  1.0  -0.1729
  C  C148  1  0.282500  0.596900  0.183500  1.0  0.2799
  C  C149  1  0.217500  0.096900  0.316500  1.0  0.2786
  C  C150  1  0.860100  0.091200  0.518200  1.0  -0.1071
  C  C151  1  0.981200  0.465200  0.865200  1.0  0.0915
  C  C152  1  0.280000  0.906200  0.559000  1.0  -0.1466
  C  C153  1  0.527200  0.736100  0.493800  1.0  -0.1386
  C  C154  1  0.378700  0.399900  0.748500  1.0  -0.0256
  C  C155  1  0.306500  0.799000  0.306900  1.0  0.6618
  C  C156  1  0.949400  0.164300  0.286400  1.0  -0.1647
  O  O157  1  0.438700  0.598800  0.743000  1.0  -0.6152
  O  O158  1  0.938700  0.901200  0.243000  1.0  -0.6148
  O  O159  1  0.327200  0.255900  0.199100  1.0  -0.6023
  O  O160  1  0.791700  0.969400  0.153900  1.0  -0.6276
  O  O161  1  0.818400  0.729400  0.231000  1.0  -0.5968
  O  O162  1  0.169400  0.166800  0.945700  1.0  -0.648
  O  O163  1  0.323300  0.851500  0.263000  1.0  -0.5891
  O  O164  1  0.887000  0.843400  0.430300  1.0  -0.2647
  O  O165  1  0.681600  0.229400  0.269000  1.0  -0.5968
  O  O166  1  0.593400  0.784700  0.160000  1.0  -0.6305
  O  O167  1  0.883600  0.397800  0.851900  1.0  -0.2722
  O  O168  1  0.075100  0.794000  0.120700  1.0  -0.6004
  O  O169  1  0.113000  0.156600  0.569700  1.0  -0.2637
  O  O170  1  0.406600  0.215300  0.840000  1.0  -0.6265
  O  O171  1  0.387000  0.656600  0.930300  1.0  -0.266
  O  O172  1  0.830600  0.833200  0.054300  1.0  -0.651
  O  O173  1  0.061300  0.098800  0.757000  1.0  -0.6158
  O  O174  1  0.176700  0.351500  0.237000  1.0  -0.5887
  O  O175  1  0.116400  0.602200  0.148100  1.0  -0.2712
  O  O176  1  0.093400  0.715300  0.660000  1.0  -0.6275
  O  O177  1  0.424900  0.294000  0.379300  1.0  -0.6014
  O  O178  1  0.383600  0.102200  0.351900  1.0  -0.2718
  O  O179  1  0.291700  0.530600  0.653900  1.0  -0.6247
  O  O180  1  0.823300  0.648500  0.763000  1.0  -0.5894
  O  O181  1  0.172800  0.755900  0.300900  1.0  -0.6023
  O  O182  1  0.672800  0.744100  0.800900  1.0  -0.6028
  O  O183  1  0.924900  0.206000  0.879300  1.0  -0.6019
  O  O184  1  0.561300  0.401200  0.257000  1.0  -0.6152
  O  O185  1  0.827200  0.244100  0.699100  1.0  -0.6029
  O  O186  1  0.318400  0.770600  0.731000  1.0  -0.5967
  O  O187  1  0.575100  0.706000  0.620700  1.0  -0.6014
  O  O188  1  0.613000  0.343400  0.069700  1.0  -0.2644
  O  O189  1  0.676700  0.148500  0.737000  1.0  -0.5878
  O  O190  1  0.330600  0.666800  0.554300  1.0  -0.648
  O  O191  1  0.708300  0.469400  0.346100  1.0  -0.6323
  O  O192  1  0.181600  0.270600  0.769000  1.0  -0.5965
  O  O193  1  0.669400  0.333200  0.445700  1.0  -0.6525
  O  O194  1  0.906600  0.284700  0.340000  1.0  -0.6295
  O  O195  1  0.616400  0.897800  0.648100  1.0  -0.2717
  O  O196  1  0.208300  0.030600  0.846100  1.0  -0.6327
