# generated using pymatgen
data_Gd2Cu3(C4O5)6
_symmetry_space_group_name_H-M   'P 1'
_cell_length_a   14.69000000
_cell_length_b   15.12600000
_cell_length_c   15.12600000
_cell_angle_alpha   120.00000000
_cell_angle_beta   90.00000000
_cell_angle_gamma   90.00000000
_symmetry_Int_Tables_number   1
_chemical_formula_structural   Gd2Cu3(C4O5)6
_chemical_formula_sum   'Gd4 Cu6 C48 O60'
_cell_volume   2910.72127078
_cell_formula_units_Z   2
loop_
 _symmetry_equiv_pos_site_id
 _symmetry_equiv_pos_as_xyz
  1  'x, y, z'
loop_
 _atom_site_type_symbol
 _atom_site_label
 _atom_site_symmetry_multiplicity
 _atom_site_fract_x
 _atom_site_fract_y
 _atom_site_fract_z
 _atom_site_occupancy
 _atom_site_charge
  Gd  Gd1  1  0.750000  0.333333  0.666667  1.0  1.8097
  Gd  Gd2  1  0.750000  0.666667  0.333333  1.0  1.8097
  Gd  Gd3  1  0.250000  0.666667  0.333333  1.0  1.8097
  Gd  Gd4  1  0.250000  0.333333  0.666667  1.0  1.8097
  Cu  Cu5  1  0.500000  0.500000  0.500000  1.0  1.0268
  Cu  Cu6  1  0.500000  0.000000  0.500000  1.0  1.0268
  Cu  Cu7  1  0.500000  0.500000  0.000000  1.0  1.0268
  Cu  Cu8  1  0.000000  0.000000  0.500000  1.0  1.0268
  Cu  Cu9  1  0.000000  0.500000  0.500000  1.0  1.0268
  Cu  Cu10  1  0.000000  0.500000  0.000000  1.0  1.0268
  C  C11  1  0.700500  0.268400  0.414700  1.0  -0.2169
  C  C12  1  0.639600  0.356600  0.486300  1.0  0.7499
  C  C13  1  0.700500  0.146300  0.731600  1.0  -0.2145
  C  C14  1  0.639600  0.129700  0.643400  1.0  0.7492
  C  C15  1  0.700500  0.585300  0.853700  1.0  -0.2097
  C  C16  1  0.639600  0.513700  0.870300  1.0  0.7495
  C  C17  1  0.700500  0.731600  0.585300  1.0  -0.2184
  C  C18  1  0.639600  0.643400  0.513700  1.0  0.7496
  C  C19  1  0.700500  0.853700  0.268400  1.0  -0.2142
  C  C20  1  0.639600  0.870300  0.356600  1.0  0.7504
  C  C21  1  0.700500  0.414700  0.146300  1.0  -0.2088
  C  C22  1  0.639600  0.486300  0.129700  1.0  0.7489
  C  C23  1  0.799500  0.853700  0.585300  1.0  -0.2153
  C  C24  1  0.860400  0.870300  0.513700  1.0  0.7495
  C  C25  1  0.799500  0.414700  0.268400  1.0  -0.2098
  C  C26  1  0.860400  0.486300  0.356600  1.0  0.7496
  C  C27  1  0.799500  0.731600  0.146300  1.0  -0.2187
  C  C28  1  0.860400  0.643400  0.129700  1.0  0.75
  C  C29  1  0.799500  0.146300  0.414700  1.0  -0.2143
  C  C30  1  0.860400  0.129700  0.486300  1.0  0.7503
  C  C31  1  0.799500  0.585300  0.731600  1.0  -0.2106
  C  C32  1  0.860400  0.513700  0.643400  1.0  0.7489
  C  C33  1  0.799500  0.268400  0.853700  1.0  -0.2197
  C  C34  1  0.860400  0.356600  0.870300  1.0  0.7494
  C  C35  1  0.299500  0.731600  0.585300  1.0  -0.2185
  C  C36  1  0.360400  0.643400  0.513700  1.0  0.7497
  C  C37  1  0.299500  0.853700  0.268400  1.0  -0.2147
  C  C38  1  0.360400  0.870300  0.356600  1.0  0.7504
  C  C39  1  0.299500  0.414700  0.146300  1.0  -0.2092
  C  C40  1  0.360400  0.486300  0.129700  1.0  0.749
  C  C41  1  0.299500  0.268400  0.414700  1.0  -0.2174
  C  C42  1  0.360400  0.356600  0.486300  1.0  0.7527
  C  C43  1  0.299500  0.146300  0.731600  1.0  -0.2146
  C  C44  1  0.360400  0.129700  0.643400  1.0  0.7522
  C  C45  1  0.299500  0.585300  0.853700  1.0  -0.2096
  C  C46  1  0.360400  0.513700  0.870300  1.0  0.7525
  C  C47  1  0.200500  0.146300  0.414700  1.0  -0.2138
  C  C48  1  0.139600  0.129700  0.486300  1.0  0.7501
  C  C49  1  0.200500  0.585300  0.731600  1.0  -0.2106
  C  C50  1  0.139600  0.513700  0.643400  1.0  0.7489
  C  C51  1  0.200500  0.268400  0.853700  1.0  -0.2195
  C  C52  1  0.139600  0.356600  0.870300  1.0  0.7494
  C  C53  1  0.200500  0.853700  0.585300  1.0  -0.215
  C  C54  1  0.139600  0.870300  0.513700  1.0  0.7525
  C  C55  1  0.200500  0.414700  0.268400  1.0  -0.2094
  C  C56  1  0.139600  0.486300  0.356600  1.0  0.7525
  C  C57  1  0.200500  0.731600  0.146300  1.0  -0.2182
  C  C58  1  0.139600  0.643400  0.129700  1.0  0.7529
  O  O59  1  0.641600  0.385400  0.578400  1.0  -0.6144
  O  O60  1  0.593300  0.393600  0.442900  1.0  -0.5257
  O  O61  1  0.641600  0.193000  0.614600  1.0  -0.6139
  O  O62  1  0.593300  0.049300  0.606400  1.0  -0.5255
  O  O63  1  0.641600  0.421600  0.807000  1.0  -0.6125
  O  O64  1  0.593300  0.557100  0.950700  1.0  -0.5265
  O  O65  1  0.641600  0.614600  0.421600  1.0  -0.6145
  O  O66  1  0.593300  0.606400  0.557100  1.0  -0.5276
  O  O67  1  0.641600  0.807000  0.385400  1.0  -0.6139
  O  O68  1  0.593300  0.950700  0.393600  1.0  -0.5264
  O  O69  1  0.641600  0.578400  0.193000  1.0  -0.6135
  O  O70  1  0.593300  0.442900  0.049300  1.0  -0.5281
  O  O71  1  0.858400  0.807000  0.421600  1.0  -0.6139
  O  O72  1  0.906700  0.950700  0.557100  1.0  -0.5254
  O  O73  1  0.858400  0.578400  0.385400  1.0  -0.6126
  O  O74  1  0.906700  0.442900  0.393600  1.0  -0.5272
  O  O75  1  0.858400  0.614600  0.193000  1.0  -0.6138
  O  O76  1  0.906700  0.606400  0.049300  1.0  -0.5252
  O  O77  1  0.858400  0.193000  0.578400  1.0  -0.6139
  O  O78  1  0.906700  0.049300  0.442900  1.0  -0.526
  O  O79  1  0.858400  0.421600  0.614600  1.0  -0.6123
  O  O80  1  0.906700  0.557100  0.606400  1.0  -0.5274
  O  O81  1  0.858400  0.385400  0.807000  1.0  -0.6145
  O  O82  1  0.906700  0.393600  0.950700  1.0  -0.5265
  O  O83  1  0.358400  0.614600  0.421600  1.0  -0.6145
  O  O84  1  0.406700  0.606400  0.557100  1.0  -0.5251
  O  O85  1  0.358400  0.807000  0.385400  1.0  -0.6137
  O  O86  1  0.406700  0.950700  0.393600  1.0  -0.5245
  O  O87  1  0.358400  0.578400  0.193000  1.0  -0.6129
  O  O88  1  0.406700  0.442900  0.049300  1.0  -0.5256
  O  O89  1  0.358400  0.385400  0.578400  1.0  -0.6139
  O  O90  1  0.406700  0.393600  0.442900  1.0  -0.5266
  O  O91  1  0.358400  0.193000  0.614600  1.0  -0.6137
  O  O92  1  0.406700  0.049300  0.606400  1.0  -0.5254
  O  O93  1  0.358400  0.421600  0.807000  1.0  -0.6123
  O  O94  1  0.406700  0.557100  0.950700  1.0  -0.5274
  O  O95  1  0.141600  0.193000  0.578400  1.0  -0.6144
  O  O96  1  0.093300  0.049300  0.442900  1.0  -0.5244
  O  O97  1  0.141600  0.421600  0.614600  1.0  -0.6126
  O  O98  1  0.093300  0.557100  0.606400  1.0  -0.5264
  O  O99  1  0.141600  0.385400  0.807000  1.0  -0.6146
  O  O100  1  0.093300  0.393600  0.950700  1.0  -0.5251
  O  O101  1  0.141600  0.807000  0.421600  1.0  -0.6138
  O  O102  1  0.093300  0.950700  0.557100  1.0  -0.524
  O  O103  1  0.141600  0.578400  0.385400  1.0  -0.6132
  O  O104  1  0.093300  0.442900  0.393600  1.0  -0.5264
  O  O105  1  0.141600  0.614600  0.193000  1.0  -0.6141
  O  O106  1  0.093300  0.606400  0.049300  1.0  -0.5273
  O  O107  1  0.750000  0.237050  0.474100  1.0  0.0904
  O  O108  1  0.750000  0.237050  0.762950  1.0  0.0915
  O  O109  1  0.750000  0.525900  0.762950  1.0  0.0898
  O  O110  1  0.750000  0.762950  0.525900  1.0  0.091
  O  O111  1  0.750000  0.762950  0.237050  1.0  0.0903
  O  O112  1  0.750000  0.474100  0.237050  1.0  0.0908
  O  O113  1  0.250000  0.762950  0.525900  1.0  0.091
  O  O114  1  0.250000  0.762950  0.237050  1.0  0.0903
  O  O115  1  0.250000  0.474100  0.237050  1.0  0.0908
  O  O116  1  0.250000  0.237050  0.474100  1.0  0.0904
  O  O117  1  0.250000  0.237050  0.762950  1.0  0.0915
  O  O118  1  0.250000  0.525900  0.762950  1.0  0.0898
