# generated using pymatgen
data_Fe4P5O23
_symmetry_space_group_name_H-M   'P 1'
_cell_length_a   15.40170000
_cell_length_b   15.40170000
_cell_length_c   28.94210000
_cell_angle_alpha   90.00000000
_cell_angle_beta   90.00000000
_cell_angle_gamma   90.00000000
_symmetry_Int_Tables_number   1
_chemical_formula_structural   Fe4P5O23
_chemical_formula_sum   'Fe32 P40 O184'
_cell_volume   6865.42392800
_cell_formula_units_Z   8
loop_
 _symmetry_equiv_pos_site_id
 _symmetry_equiv_pos_as_xyz
  1  'x, y, z'
loop_
 _atom_site_type_symbol
 _atom_site_label
 _atom_site_symmetry_multiplicity
 _atom_site_fract_x
 _atom_site_fract_y
 _atom_site_fract_z
 _atom_site_occupancy
 _atom_site_charge
  Fe  Fe1  1  0.402300  0.818720  0.050540  1.0  1.4349
  Fe  Fe2  1  0.492060  0.049380  0.046890  1.0  1.2907
  Fe  Fe3  1  0.902300  0.318720  0.550540  1.0  1.4349
  Fe  Fe4  1  0.992060  0.549380  0.546890  1.0  1.2907
  Fe  Fe5  1  0.097700  0.181280  0.550540  1.0  1.4335
  Fe  Fe6  1  0.007940  0.950620  0.546890  1.0  1.291
  Fe  Fe7  1  0.597700  0.681280  0.050540  1.0  1.4335
  Fe  Fe8  1  0.507940  0.450620  0.046890  1.0  1.291
  Fe  Fe9  1  0.931280  0.652300  0.300540  1.0  1.435
  Fe  Fe10  1  0.700620  0.742060  0.296890  1.0  1.2915
  Fe  Fe11  1  0.431280  0.152300  0.800540  1.0  1.435
  Fe  Fe12  1  0.200620  0.242060  0.796890  1.0  1.2915
  Fe  Fe13  1  0.568720  0.347700  0.800540  1.0  1.4311
  Fe  Fe14  1  0.799380  0.257940  0.796890  1.0  1.2909
  Fe  Fe15  1  0.068720  0.847700  0.300540  1.0  1.4311
  Fe  Fe16  1  0.299380  0.757940  0.296890  1.0  1.2909
  Fe  Fe17  1  0.597700  0.181280  0.949460  1.0  1.4336
  Fe  Fe18  1  0.507940  0.950620  0.953110  1.0  1.2899
  Fe  Fe19  1  0.097700  0.681280  0.449460  1.0  1.4336
  Fe  Fe20  1  0.007940  0.450620  0.453110  1.0  1.2899
  Fe  Fe21  1  0.902300  0.818720  0.449460  1.0  1.4347
  Fe  Fe22  1  0.992060  0.049380  0.453110  1.0  1.2901
  Fe  Fe23  1  0.402300  0.318720  0.949460  1.0  1.4347
  Fe  Fe24  1  0.492060  0.549380  0.953110  1.0  1.2901
  Fe  Fe25  1  0.068720  0.347700  0.699460  1.0  1.431
  Fe  Fe26  1  0.299380  0.257940  0.703110  1.0  1.2903
  Fe  Fe27  1  0.568720  0.847700  0.199460  1.0  1.431
  Fe  Fe28  1  0.799380  0.757940  0.203110  1.0  1.2903
  Fe  Fe29  1  0.431280  0.652300  0.199460  1.0  1.4352
  Fe  Fe30  1  0.200620  0.742060  0.203110  1.0  1.2913
  Fe  Fe31  1  0.931280  0.152300  0.699460  1.0  1.4352
  Fe  Fe32  1  0.700620  0.242060  0.703110  1.0  1.2913
  P  P33  1  0.322260  0.980110  0.998370  1.0  1.8832
  P  P34  1  0.294200  0.676860  0.110510  1.0  1.8722
  P  P35  1  0.822260  0.480110  0.498370  1.0  1.8832
  P  P36  1  0.794200  0.176860  0.610510  1.0  1.8722
  P  P37  1  0.177740  0.019890  0.498370  1.0  1.8851
  P  P38  1  0.205800  0.323140  0.610510  1.0  1.8741
  P  P39  1  0.677740  0.519890  0.998370  1.0  1.8851
  P  P40  1  0.705800  0.823140  0.110510  1.0  1.8741
  P  P41  1  0.769890  0.572260  0.248370  1.0  1.8924
  P  P42  1  0.073140  0.544200  0.360510  1.0  1.8748
  P  P43  1  0.269890  0.072260  0.748370  1.0  1.8924
  P  P44  1  0.573140  0.044200  0.860510  1.0  1.8748
  P  P45  1  0.730110  0.427740  0.748370  1.0  1.8937
  P  P46  1  0.426860  0.455800  0.860510  1.0  1.8737
  P  P47  1  0.230110  0.927740  0.248370  1.0  1.8937
  P  P48  1  0.926860  0.955800  0.360510  1.0  1.8737
  P  P49  1  0.677740  0.019890  0.001630  1.0  1.885
  P  P50  1  0.705800  0.323140  0.889490  1.0  1.8744
  P  P51  1  0.177740  0.519890  0.501630  1.0  1.885
  P  P52  1  0.205800  0.823140  0.389490  1.0  1.8744
  P  P53  1  0.822260  0.980110  0.501630  1.0  1.8833
  P  P54  1  0.794200  0.676860  0.389490  1.0  1.8725
  P  P55  1  0.322260  0.480110  0.001630  1.0  1.8833
  P  P56  1  0.294200  0.176860  0.889490  1.0  1.8725
  P  P57  1  0.230110  0.427740  0.751630  1.0  1.8933
  P  P58  1  0.926860  0.455800  0.639490  1.0  1.8741
  P  P59  1  0.730110  0.927740  0.251630  1.0  1.8933
  P  P60  1  0.426860  0.955800  0.139490  1.0  1.8741
  P  P61  1  0.269890  0.572260  0.251630  1.0  1.8925
  P  P62  1  0.573140  0.544200  0.139490  1.0  1.8747
  P  P63  1  0.769890  0.072260  0.751630  1.0  1.8925
  P  P64  1  0.073140  0.044200  0.639490  1.0  1.8747
  P  P65  1  0.500000  0.750000  0.961190  1.0  1.9324
  P  P66  1  0.000000  0.250000  0.461190  1.0  1.9324
  P  P67  1  0.000000  0.750000  0.211190  1.0  1.9324
  P  P68  1  0.500000  0.250000  0.711190  1.0  1.9324
  P  P69  1  0.500000  0.250000  0.038810  1.0  1.9356
  P  P70  1  0.000000  0.750000  0.538810  1.0  1.9356
  P  P71  1  0.000000  0.250000  0.788810  1.0  1.9356
  P  P72  1  0.500000  0.750000  0.288810  1.0  1.9356
  O  O73  1  0.367650  0.044050  0.031930  1.0  -0.6832
  O  O74  1  0.380530  0.965670  0.955880  1.0  -0.6687
  O  O75  1  0.306860  0.893480  0.023910  1.0  -0.6218
  O  O76  1  0.235690  0.018780  0.982570  1.0  -0.4441
  O  O77  1  0.320340  0.724770  0.066820  1.0  -0.6718
  O  O78  1  0.235780  0.735780  0.139180  1.0  -0.6701
  O  O79  1  0.238110  0.596340  0.096290  1.0  -0.4297
  O  O80  1  0.371410  0.643970  0.138170  1.0  -0.7548
  O  O81  1  0.510730  0.830230  0.930270  1.0  -0.6364
  O  O82  1  0.417940  0.759120  0.990630  1.0  -0.6705
  O  O83  1  0.492050  0.915360  0.024390  1.0  -0.8536
  O  O84  1  0.867650  0.544050  0.531930  1.0  -0.6832
  O  O85  1  0.880530  0.465670  0.455880  1.0  -0.6687
  O  O86  1  0.806860  0.393480  0.523910  1.0  -0.6218
  O  O87  1  0.735690  0.518780  0.482570  1.0  -0.4426
  O  O88  1  0.820340  0.224770  0.566820  1.0  -0.6718
  O  O89  1  0.735780  0.235780  0.639180  1.0  -0.6701
  O  O90  1  0.738110  0.096340  0.596290  1.0  -0.4297
  O  O91  1  0.871410  0.143970  0.638170  1.0  -0.7548
  O  O92  1  0.010730  0.330230  0.430270  1.0  -0.6364
  O  O93  1  0.917940  0.259120  0.490630  1.0  -0.6705
  O  O94  1  0.992050  0.415360  0.524390  1.0  -0.8536
  O  O95  1  0.132350  0.955950  0.531930  1.0  -0.6834
  O  O96  1  0.119470  0.034330  0.455880  1.0  -0.6677
  O  O97  1  0.193140  0.106520  0.523910  1.0  -0.6193
  O  O98  1  0.264310  0.981220  0.482570  1.0  -0.4436
  O  O99  1  0.179660  0.275230  0.566820  1.0  -0.6691
  O  O100  1  0.264220  0.264220  0.639180  1.0  -0.6682
  O  O101  1  0.261890  0.403660  0.596290  1.0  -0.4283
  O  O102  1  0.128590  0.356030  0.638170  1.0  -0.7555
  O  O103  1  0.989270  0.169770  0.430270  1.0  -0.6367
  O  O104  1  0.082060  0.240880  0.490630  1.0  -0.6709
  O  O105  1  0.007950  0.084640  0.524390  1.0  -0.8523
  O  O106  1  0.632350  0.455950  0.031930  1.0  -0.6834
  O  O107  1  0.619470  0.534330  0.955880  1.0  -0.6677
  O  O108  1  0.693140  0.606520  0.023910  1.0  -0.6193
  O  O109  1  0.764310  0.481220  0.982570  1.0  -0.4436
  O  O110  1  0.679660  0.775230  0.066820  1.0  -0.6691
  O  O111  1  0.764220  0.764220  0.139180  1.0  -0.6682
  O  O112  1  0.761890  0.903660  0.096290  1.0  -0.4283
  O  O113  1  0.628590  0.856030  0.138170  1.0  -0.7555
  O  O114  1  0.489270  0.669770  0.930270  1.0  -0.6367
  O  O115  1  0.582060  0.740880  0.990630  1.0  -0.6709
  O  O116  1  0.507950  0.584640  0.024390  1.0  -0.8523
  O  O117  1  0.705950  0.617650  0.281930  1.0  -0.686
  O  O118  1  0.784330  0.630530  0.205880  1.0  -0.6671
  O  O119  1  0.856520  0.556860  0.273910  1.0  -0.6256
  O  O120  1  0.731220  0.485690  0.232570  1.0  -0.4477
  O  O121  1  0.025230  0.570340  0.316820  1.0  -0.6752
  O  O122  1  0.014220  0.485780  0.389180  1.0  -0.6738
  O  O123  1  0.153660  0.488110  0.346290  1.0  -0.428
  O  O124  1  0.106030  0.621410  0.388170  1.0  -0.7515
  O  O125  1  0.919770  0.760730  0.180270  1.0  -0.6371
  O  O126  1  0.990880  0.667940  0.240630  1.0  -0.6739
  O  O127  1  0.834640  0.742050  0.274390  1.0  -0.8527
  O  O128  1  0.205950  0.117650  0.781930  1.0  -0.686
  O  O129  1  0.284330  0.130530  0.705880  1.0  -0.6671
  O  O130  1  0.356520  0.056860  0.773910  1.0  -0.6256
  O  O131  1  0.231220  0.985690  0.732570  1.0  -0.4477
  O  O132  1  0.525230  0.070340  0.816820  1.0  -0.6752
  O  O133  1  0.514220  0.985780  0.889180  1.0  -0.6738
  O  O134  1  0.653660  0.988110  0.846290  1.0  -0.428
  O  O135  1  0.606030  0.121410  0.888170  1.0  -0.7515
  O  O136  1  0.419770  0.260730  0.680270  1.0  -0.6371
  O  O137  1  0.490880  0.167940  0.740630  1.0  -0.6739
  O  O138  1  0.334640  0.242050  0.774390  1.0  -0.8527
  O  O139  1  0.794050  0.382350  0.781930  1.0  -0.6857
  O  O140  1  0.715670  0.369470  0.705880  1.0  -0.6688
  O  O141  1  0.643480  0.443140  0.773910  1.0  -0.6248
  O  O142  1  0.768780  0.514310  0.732570  1.0  -0.4468
  O  O143  1  0.474770  0.429660  0.816820  1.0  -0.6739
  O  O144  1  0.485780  0.514220  0.889180  1.0  -0.6703
  O  O145  1  0.346340  0.511890  0.846290  1.0  -0.4298
  O  O146  1  0.393970  0.378590  0.888170  1.0  -0.7535
  O  O147  1  0.580230  0.239270  0.680270  1.0  -0.6371
  O  O148  1  0.509120  0.332060  0.740630  1.0  -0.6742
  O  O149  1  0.665360  0.257950  0.774390  1.0  -0.8529
  O  O150  1  0.294050  0.882350  0.281930  1.0  -0.6857
  O  O151  1  0.215670  0.869470  0.205880  1.0  -0.6688
  O  O152  1  0.143480  0.943140  0.273910  1.0  -0.6248
  O  O153  1  0.268780  0.014310  0.232570  1.0  -0.4468
  O  O154  1  0.974770  0.929660  0.316820  1.0  -0.6739
  O  O155  1  0.985780  0.014220  0.389180  1.0  -0.6703
  O  O156  1  0.846340  0.011890  0.346290  1.0  -0.4298
  O  O157  1  0.893970  0.878590  0.388170  1.0  -0.7535
  O  O158  1  0.080230  0.739270  0.180270  1.0  -0.6371
  O  O159  1  0.009120  0.832060  0.240630  1.0  -0.6742
  O  O160  1  0.165360  0.757950  0.274390  1.0  -0.8529
  O  O161  1  0.632350  0.955950  0.968070  1.0  -0.6831
  O  O162  1  0.619470  0.034330  0.044120  1.0  -0.6692
  O  O163  1  0.693140  0.106520  0.976090  1.0  -0.6193
  O  O164  1  0.764310  0.981220  0.017430  1.0  -0.4455
  O  O165  1  0.679660  0.275230  0.933180  1.0  -0.6698
  O  O166  1  0.764220  0.264220  0.860820  1.0  -0.6701
  O  O167  1  0.761890  0.403660  0.903710  1.0  -0.4291
  O  O168  1  0.628590  0.356030  0.861830  1.0  -0.7566
  O  O169  1  0.489270  0.169770  0.069730  1.0  -0.635
  O  O170  1  0.582060  0.240880  0.009370  1.0  -0.671
  O  O171  1  0.507950  0.084640  0.975610  1.0  -0.8525
  O  O172  1  0.132350  0.455950  0.468070  1.0  -0.6831
  O  O173  1  0.119470  0.534330  0.544120  1.0  -0.6692
  O  O174  1  0.193140  0.606520  0.476090  1.0  -0.6193
  O  O175  1  0.264310  0.481220  0.517430  1.0  -0.4441
  O  O176  1  0.179660  0.775230  0.433180  1.0  -0.6698
  O  O177  1  0.264220  0.764220  0.360820  1.0  -0.6701
  O  O178  1  0.261890  0.903660  0.403710  1.0  -0.4291
  O  O179  1  0.128590  0.856030  0.361830  1.0  -0.7566
  O  O180  1  0.989270  0.669770  0.569730  1.0  -0.635
  O  O181  1  0.082060  0.740880  0.509370  1.0  -0.671
  O  O182  1  0.007950  0.584640  0.475610  1.0  -0.8525
  O  O183  1  0.867650  0.044050  0.468070  1.0  -0.6836
  O  O184  1  0.880530  0.965670  0.544120  1.0  -0.6671
  O  O185  1  0.806860  0.893480  0.476090  1.0  -0.622
  O  O186  1  0.735690  0.018780  0.517430  1.0  -0.4426
  O  O187  1  0.820340  0.724770  0.433180  1.0  -0.6704
  O  O188  1  0.735780  0.735780  0.360820  1.0  -0.6711
  O  O189  1  0.738110  0.596340  0.403710  1.0  -0.4305
  O  O190  1  0.871410  0.643970  0.361830  1.0  -0.7555
  O  O191  1  0.010730  0.830230  0.569730  1.0  -0.6348
  O  O192  1  0.917940  0.759120  0.509370  1.0  -0.6707
  O  O193  1  0.992050  0.915360  0.475610  1.0  -0.8537
  O  O194  1  0.367650  0.544050  0.968070  1.0  -0.6836
  O  O195  1  0.380530  0.465670  0.044120  1.0  -0.6671
  O  O196  1  0.306860  0.393480  0.976090  1.0  -0.622
  O  O197  1  0.235690  0.518780  0.017430  1.0  -0.4426
  O  O198  1  0.320340  0.224770  0.933180  1.0  -0.6704
  O  O199  1  0.235780  0.235780  0.860820  1.0  -0.6711
  O  O200  1  0.238110  0.096340  0.903710  1.0  -0.4305
  O  O201  1  0.371410  0.143970  0.861830  1.0  -0.7555
  O  O202  1  0.510730  0.330230  0.069730  1.0  -0.6348
  O  O203  1  0.417940  0.259120  0.009370  1.0  -0.6707
  O  O204  1  0.492050  0.415360  0.975610  1.0  -0.8537
  O  O205  1  0.294050  0.382350  0.718070  1.0  -0.6853
  O  O206  1  0.215670  0.369470  0.794120  1.0  -0.6682
  O  O207  1  0.143480  0.443140  0.726090  1.0  -0.6248
  O  O208  1  0.268780  0.514310  0.767430  1.0  -0.4474
  O  O209  1  0.974770  0.429660  0.683180  1.0  -0.6737
  O  O210  1  0.985780  0.514220  0.610820  1.0  -0.6715
  O  O211  1  0.846340  0.511890  0.653710  1.0  -0.4316
  O  O212  1  0.893970  0.378590  0.611830  1.0  -0.754
  O  O213  1  0.080230  0.239270  0.819730  1.0  -0.6367
  O  O214  1  0.009120  0.332060  0.759370  1.0  -0.6742
  O  O215  1  0.165360  0.257950  0.725610  1.0  -0.853
  O  O216  1  0.794050  0.882350  0.218070  1.0  -0.6853
  O  O217  1  0.715670  0.869470  0.294120  1.0  -0.6682
  O  O218  1  0.643480  0.943140  0.226090  1.0  -0.6248
  O  O219  1  0.768780  0.014310  0.267430  1.0  -0.4474
  O  O220  1  0.474770  0.929660  0.183180  1.0  -0.6737
  O  O221  1  0.485780  0.014220  0.110820  1.0  -0.6715
  O  O222  1  0.346340  0.011890  0.153710  1.0  -0.4316
  O  O223  1  0.393970  0.878590  0.111830  1.0  -0.754
  O  O224  1  0.580230  0.739270  0.319730  1.0  -0.6367
  O  O225  1  0.509120  0.832060  0.259370  1.0  -0.6742
  O  O226  1  0.665360  0.757950  0.225610  1.0  -0.853
  O  O227  1  0.205950  0.617650  0.218070  1.0  -0.6859
  O  O228  1  0.284330  0.630530  0.294120  1.0  -0.667
  O  O229  1  0.356520  0.556860  0.226090  1.0  -0.6256
  O  O230  1  0.231220  0.485690  0.267430  1.0  -0.4482
  O  O231  1  0.525230  0.570340  0.183180  1.0  -0.6747
  O  O232  1  0.514220  0.485780  0.110820  1.0  -0.6757
  O  O233  1  0.653660  0.488110  0.153710  1.0  -0.4302
  O  O234  1  0.606030  0.621410  0.111830  1.0  -0.7523
  O  O235  1  0.419770  0.760730  0.319730  1.0  -0.6349
  O  O236  1  0.490880  0.667940  0.259370  1.0  -0.6743
  O  O237  1  0.334640  0.742050  0.225610  1.0  -0.8529
  O  O238  1  0.705950  0.117650  0.718070  1.0  -0.6859
  O  O239  1  0.784330  0.130530  0.794120  1.0  -0.667
  O  O240  1  0.856520  0.056860  0.726090  1.0  -0.6256
  O  O241  1  0.731220  0.985690  0.767430  1.0  -0.4482
  O  O242  1  0.025230  0.070340  0.683180  1.0  -0.6747
  O  O243  1  0.014220  0.985780  0.610820  1.0  -0.6757
  O  O244  1  0.153660  0.988110  0.653710  1.0  -0.4302
  O  O245  1  0.106030  0.121410  0.611830  1.0  -0.7523
  O  O246  1  0.919770  0.260730  0.819730  1.0  -0.6349
  O  O247  1  0.990880  0.167940  0.759370  1.0  -0.6743
  O  O248  1  0.834640  0.242050  0.725610  1.0  -0.8529
  O  O249  1  0.500000  0.750000  0.075450  1.0  -0.6864
  O  O250  1  0.000000  0.250000  0.575450  1.0  -0.6864
  O  O251  1  0.000000  0.750000  0.325450  1.0  -0.6864
  O  O252  1  0.500000  0.250000  0.825450  1.0  -0.6864
  O  O253  1  0.500000  0.250000  0.924550  1.0  -0.6886
  O  O254  1  0.000000  0.750000  0.424550  1.0  -0.6886
  O  O255  1  0.000000  0.250000  0.674550  1.0  -0.6886
  O  O256  1  0.500000  0.750000  0.174550  1.0  -0.6886
