# generated using pymatgen
data_CuH18C25(NO2)2
_symmetry_space_group_name_H-M   'P 1'
_cell_length_a   10.84450000
_cell_length_b   13.78940000
_cell_length_c   17.48390000
_cell_angle_alpha   90.00000000
_cell_angle_beta   90.00000000
_cell_angle_gamma   100.42900000
_symmetry_Int_Tables_number   1
_chemical_formula_structural   CuH18C25(NO2)2
_chemical_formula_sum   'Cu4 H72 C100 N8 O16'
_cell_volume   2571.33545735
_cell_formula_units_Z   4
loop_
 _symmetry_equiv_pos_site_id
 _symmetry_equiv_pos_as_xyz
  1  'x, y, z'
loop_
 _atom_site_type_symbol
 _atom_site_label
 _atom_site_symmetry_multiplicity
 _atom_site_fract_x
 _atom_site_fract_y
 _atom_site_fract_z
 _atom_site_occupancy
 _atom_site_charge
  Cu  Cu1  1  0.460230  0.747340  0.252040  1.0  0.8019
  Cu  Cu2  1  0.539770  0.252660  0.747960  1.0  0.8012
  Cu  Cu3  1  0.039770  0.252660  0.752040  1.0  0.8013
  Cu  Cu4  1  0.960230  0.747340  0.247960  1.0  0.8018
  H  H5  1  0.872600  0.267500  0.883500  1.0  0.0733
  H  H6  1  0.651900  0.240300  0.899700  1.0  0.0705
  H  H7  1  0.898400  0.070200  0.079500  1.0  0.0933
  H  H8  1  0.790800  0.025600  0.858900  1.0  0.0928
  H  H9  1  0.398400  0.070200  0.420500  1.0  0.093
  H  H10  1  0.289100  0.736100  0.447400  1.0  0.1159
  H  H11  1  0.747300  0.498100  0.861000  1.0  0.1015
  H  H12  1  0.516600  0.192700  0.491900  1.0  0.0926
  H  H13  1  0.171700  0.786200  0.459100  1.0  0.1121
  H  H14  1  0.789100  0.736100  0.052600  1.0  0.1157
  H  H15  1  0.252700  0.501900  0.139000  1.0  0.1019
  H  H16  1  0.118900  0.939400  0.302100  1.0  0.0774
  H  H17  1  0.826900  0.100000  0.427900  1.0  0.1056
  H  H18  1  0.663200  0.544600  0.579000  1.0  0.1179
  H  H19  1  0.497500  0.686100  0.981700  1.0  0.0966
  H  H20  1  0.645200  0.139500  0.003700  1.0  0.1249
  H  H21  1  0.627400  0.732500  0.383500  1.0  0.0734
  H  H22  1  0.151900  0.240300  0.600300  1.0  0.0704
  H  H23  1  0.091800  0.448600  0.411000  1.0  0.0884
  H  H24  1  0.634600  0.044800  0.096600  1.0  0.1226
  H  H25  1  0.336800  0.455400  0.421000  1.0  0.1172
  H  H26  1  0.145200  0.139500  0.496300  1.0  0.1255
  H  H27  1  0.881100  0.060600  0.697900  1.0  0.0776
  H  H28  1  0.502500  0.313900  0.018300  1.0  0.097
  H  H29  1  0.834900  0.632600  0.931700  1.0  0.0943
  H  H30  1  0.851000  0.364600  0.986200  1.0  0.1157
  H  H31  1  0.675600  0.442100  0.680600  1.0  0.0727
  H  H32  1  0.673100  0.900000  0.927900  1.0  0.1063
  H  H33  1  0.671700  0.786200  0.040900  1.0  0.1115
  H  H34  1  0.002500  0.313900  0.481700  1.0  0.0972
  H  H35  1  0.290800  0.025600  0.641100  1.0  0.0927
  H  H36  1  0.908200  0.551400  0.589000  1.0  0.089
  H  H37  1  0.324400  0.557900  0.319400  1.0  0.0726
  H  H38  1  0.836800  0.455400  0.079000  1.0  0.117
  H  H39  1  0.351000  0.364600  0.513800  1.0  0.116
  H  H40  1  0.365400  0.955200  0.903400  1.0  0.1228
  H  H41  1  0.828300  0.213800  0.540900  1.0  0.1119
  H  H42  1  0.348100  0.759700  0.100300  1.0  0.0706
  H  H43  1  0.149000  0.635400  0.013800  1.0  0.1162
  H  H44  1  0.334900  0.632600  0.568300  1.0  0.0939
  H  H45  1  0.173100  0.900000  0.572100  1.0  0.1065
  H  H46  1  0.381100  0.060600  0.802100  1.0  0.077
  H  H47  1  0.209200  0.974400  0.141100  1.0  0.0936
  H  H48  1  0.210900  0.263900  0.947400  1.0  0.1161
  H  H49  1  0.591800  0.448600  0.089000  1.0  0.0886
  H  H50  1  0.665100  0.367400  0.431700  1.0  0.0938
  H  H51  1  0.710900  0.263900  0.552600  1.0  0.1158
  H  H52  1  0.372600  0.267500  0.616500  1.0  0.0735
  H  H53  1  0.865400  0.955200  0.596600  1.0  0.1217
  H  H54  1  0.328300  0.213800  0.959100  1.0  0.1121
  H  H55  1  0.752700  0.501900  0.361000  1.0  0.1013
  H  H56  1  0.649000  0.635400  0.486200  1.0  0.1163
  H  H57  1  0.709200  0.974400  0.358900  1.0  0.0934
  H  H58  1  0.601600  0.929800  0.579500  1.0  0.0934
  H  H59  1  0.247300  0.498100  0.639000  1.0  0.102
  H  H60  1  0.983400  0.807300  0.991900  1.0  0.0928
  H  H61  1  0.848100  0.759700  0.399700  1.0  0.0707
  H  H62  1  0.997500  0.686100  0.518300  1.0  0.0967
  H  H63  1  0.408200  0.551400  0.911000  1.0  0.0891
  H  H64  1  0.854800  0.860500  0.503700  1.0  0.1242
  H  H65  1  0.354800  0.860500  0.996300  1.0  0.125
  H  H66  1  0.134600  0.044800  0.403400  1.0  0.1227
  H  H67  1  0.163200  0.544600  0.921000  1.0  0.1181
  H  H68  1  0.127400  0.732500  0.116500  1.0  0.0733
  H  H69  1  0.326900  0.100000  0.072100  1.0  0.1057
  H  H70  1  0.016600  0.192700  0.008100  1.0  0.0929
  H  H71  1  0.483400  0.807300  0.508100  1.0  0.0929
  H  H72  1  0.101600  0.929800  0.920500  1.0  0.0924
  H  H73  1  0.175600  0.442100  0.819400  1.0  0.0726
  H  H74  1  0.824400  0.557900  0.180600  1.0  0.0729
  H  H75  1  0.618900  0.939400  0.197900  1.0  0.0778
  H  H76  1  0.165100  0.367400  0.068300  1.0  0.0939
  C  C77  1  0.236500  0.759360  0.485640  1.0  -0.2317
  C  C78  1  0.748100  0.616100  0.928180  1.0  -0.0969
  C  C79  1  0.435300  0.076540  0.843230  1.0  0.1753
  C  C80  1  0.574700  0.987240  0.095870  1.0  -0.1959
  C  C81  1  0.548900  0.648000  0.957900  1.0  -0.1377
  C  C82  1  0.995000  0.567000  0.584800  1.0  -0.045
  C  C83  1  0.505000  0.433000  0.084800  1.0  -0.0444
  C  C84  1  0.406100  0.818310  0.099690  1.0  0.1783
  C  C85  1  0.962500  0.925500  0.160450  1.0  0.6588
  C  C86  1  0.541000  0.008290  0.382240  1.0  -0.1569
  C  C87  1  0.495000  0.567000  0.915200  1.0  -0.0431
  C  C88  1  0.567700  0.675800  0.391170  1.0  0.1789
  C  C89  1  0.425300  0.012760  0.904130  1.0  -0.1976
  C  C90  1  0.567300  0.509260  0.879050  1.0  -0.1457
  C  C91  1  0.409900  0.878490  0.036710  1.0  -0.1879
  C  C92  1  0.184900  0.159810  0.032070  1.0  0.0879
  C  C93  1  0.515000  0.924920  0.577770  1.0  -0.05
  C  C94  1  0.509100  0.419100  0.836430  1.0  0.6793
  C  C95  1  0.397900  0.511590  0.414730  1.0  -0.1983
  C  C96  1  0.496000  0.966310  0.033490  1.0  0.0922
  C  C97  1  0.602100  0.488410  0.585270  1.0  -0.1969
  C  C98  1  0.763500  0.240640  0.514360  1.0  -0.2353
  C  C99  1  0.056300  0.149120  0.035200  1.0  -0.1342
  C  C100  1  0.736500  0.759360  0.014360  1.0  -0.2293
  C  C101  1  0.995000  0.532120  0.033520  1.0  0.092
  C  C102  1  0.005000  0.433000  0.415200  1.0  -0.0437
  C  C103  1  0.804200  0.464640  0.385570  1.0  -0.0492
  C  C104  1  0.074700  0.987240  0.404130  1.0  -0.1988
  C  C105  1  0.176000  0.673370  0.534310  1.0  0.0536
  C  C106  1  0.830600  0.981460  0.885280  1.0  -0.0274
  C  C107  1  0.067300  0.509260  0.620950  1.0  -0.1409
  C  C108  1  0.102100  0.488410  0.914730  1.0  -0.1966
  C  C109  1  0.248100  0.616100  0.571820  1.0  -0.0957
  C  C110  1  0.048900  0.648000  0.542100  1.0  -0.1262
  C  C111  1  0.067700  0.675800  0.108830  1.0  0.1788
  C  C112  1  0.759900  0.906160  0.927220  1.0  -0.0924
  C  C113  1  0.951100  0.352000  0.457900  1.0  -0.1312
  C  C114  1  0.918400  0.382470  0.953120  1.0  -0.2029
  C  C115  1  0.537500  0.074500  0.660450  1.0  0.6591
  C  C116  1  0.451100  0.352000  0.042100  1.0  -0.1371
  C  C117  1  0.935300  0.076540  0.656770  1.0  0.1751
  C  C118  1  0.418400  0.382470  0.546880  1.0  -0.2033
  C  C119  1  0.330600  0.981460  0.614720  1.0  -0.0286
  C  C120  1  0.169400  0.018540  0.114720  1.0  -0.0296
  C  C121  1  0.432700  0.490740  0.120950  1.0  -0.1431
  C  C122  1  0.485000  0.075080  0.422230  1.0  -0.0487
  C  C123  1  0.324000  0.326630  0.034310  1.0  0.0546
  C  C124  1  0.932700  0.490740  0.379050  1.0  -0.1449
  C  C125  1  0.041000  0.008290  0.117760  1.0  -0.1547
  C  C126  1  0.443700  0.850880  0.535200  1.0  -0.126
  C  C127  1  0.959000  0.991710  0.882240  1.0  -0.1562
  C  C128  1  0.081600  0.617530  0.046880  1.0  -0.2049
  C  C129  1  0.684900  0.159810  0.467930  1.0  0.0878
  C  C130  1  0.251900  0.383900  0.071820  1.0  -0.094
  C  C131  1  0.590100  0.121510  0.963290  1.0  -0.1907
  C  C132  1  0.990900  0.580900  0.336430  1.0  0.6779
  C  C133  1  0.890600  0.573890  0.146360  1.0  0.1755
  C  C134  1  0.064700  0.923460  0.343230  1.0  0.1753
  C  C135  1  0.740100  0.093840  0.427220  1.0  -0.0981
  C  C136  1  0.009100  0.419100  0.663570  1.0  0.6787
  C  C137  1  0.015000  0.924920  0.922230  1.0  -0.0496
  C  C138  1  0.490900  0.580900  0.163570  1.0  0.6786
  C  C139  1  0.581600  0.617530  0.453120  1.0  -0.2047
  C  C140  1  0.462500  0.925500  0.339550  1.0  0.6592
  C  C141  1  0.304200  0.464640  0.114430  1.0  -0.0502
  C  C142  1  0.593900  0.181690  0.900310  1.0  0.1786
  C  C143  1  0.556300  0.149120  0.464800  1.0  -0.1353
  C  C144  1  0.109400  0.426110  0.853640  1.0  0.1751
  C  C145  1  0.669400  0.018540  0.385280  1.0  -0.0289
  C  C146  1  0.315100  0.840190  0.532070  1.0  0.0878
  C  C147  1  0.090100  0.121510  0.536710  1.0  -0.1903
  C  C148  1  0.985000  0.075080  0.077770  1.0  -0.0491
  C  C149  1  0.495000  0.532120  0.466480  1.0  0.0916
  C  C150  1  0.925300  0.012760  0.595870  1.0  -0.1959
  C  C151  1  0.504000  0.033690  0.966510  1.0  0.0918
  C  C152  1  0.824000  0.326630  0.465690  1.0  0.0511
  C  C153  1  0.695800  0.535360  0.885570  1.0  -0.0507
  C  C154  1  0.004000  0.033690  0.533490  1.0  0.092
  C  C155  1  0.751900  0.383900  0.428180  1.0  -0.0952
  C  C156  1  0.195800  0.535360  0.614430  1.0  -0.0501
  C  C157  1  0.037500  0.074500  0.839550  1.0  0.6591
  C  C158  1  0.932300  0.324200  0.891170  1.0  0.1795
  C  C159  1  0.564700  0.923460  0.156770  1.0  0.1749
  C  C160  1  0.005000  0.467880  0.966480  1.0  0.0921
  C  C161  1  0.390600  0.573890  0.353640  1.0  0.1754
  C  C162  1  0.943700  0.850880  0.964800  1.0  -0.1374
  C  C163  1  0.432300  0.324200  0.608830  1.0  0.1791
  C  C164  1  0.259900  0.906160  0.572780  1.0  -0.0897
  C  C165  1  0.263500  0.240640  0.985640  1.0  -0.235
  C  C166  1  0.815100  0.840190  0.967930  1.0  0.0882
  C  C167  1  0.996000  0.966310  0.466510  1.0  0.0922
  C  C168  1  0.906100  0.818310  0.400310  1.0  0.1792
  C  C169  1  0.609400  0.426110  0.646360  1.0  0.175
  C  C170  1  0.240100  0.093840  0.072780  1.0  -0.0912
  C  C171  1  0.505000  0.467880  0.533520  1.0  0.0922
  C  C172  1  0.093900  0.181690  0.599690  1.0  0.1784
  C  C173  1  0.909900  0.878490  0.463290  1.0  -0.1883
  C  C174  1  0.897900  0.511590  0.085270  1.0  -0.1977
  C  C175  1  0.459000  0.991710  0.617760  1.0  -0.1565
  C  C176  1  0.676000  0.673370  0.965690  1.0  0.0505
  N  N177  1  0.474150  0.655590  0.341800  1.0  -0.3419
  N  N178  1  0.018740  0.160120  0.659730  1.0  -0.3396
  N  N179  1  0.481260  0.839880  0.159730  1.0  -0.3393
  N  N180  1  0.518740  0.160120  0.840270  1.0  -0.3458
  N  N181  1  0.981260  0.839880  0.340270  1.0  -0.3478
  N  N182  1  0.525850  0.344410  0.658200  1.0  -0.3382
  N  N183  1  0.974150  0.655590  0.158200  1.0  -0.339
  N  N184  1  0.025850  0.344410  0.841800  1.0  -0.3423
  O  O185  1  0.351680  0.926950  0.327210  1.0  -0.5546
  O  O186  1  0.604100  0.598550  0.174760  1.0  -0.5612
  O  O187  1  0.851680  0.926950  0.172790  1.0  -0.5552
  O  O188  1  0.020300  0.857700  0.181830  1.0  -0.5951
  O  O189  1  0.479700  0.142300  0.681830  1.0  -0.594
  O  O190  1  0.520300  0.857700  0.318170  1.0  -0.5956
  O  O191  1  0.648320  0.073050  0.672790  1.0  -0.5556
  O  O192  1  0.104100  0.598550  0.325240  1.0  -0.5622
  O  O193  1  0.085400  0.365220  0.686120  1.0  -0.5998
  O  O194  1  0.585400  0.365220  0.813880  1.0  -0.6
  O  O195  1  0.414600  0.634780  0.186120  1.0  -0.5997
  O  O196  1  0.148320  0.073050  0.827210  1.0  -0.5548
  O  O197  1  0.395900  0.401450  0.825240  1.0  -0.5611
  O  O198  1  0.979700  0.142300  0.818170  1.0  -0.5947
  O  O199  1  0.895900  0.401450  0.674760  1.0  -0.5577
  O  O200  1  0.914600  0.634780  0.313880  1.0  -0.6
