# generated using pymatgen
data_Cu2C6N
_symmetry_space_group_name_H-M   'P 1'
_cell_length_a   12.38290000
_cell_length_b   8.59700000
_cell_length_c   12.66330000
_cell_angle_alpha   90.00000000
_cell_angle_beta   109.98400000
_cell_angle_gamma   90.00000000
_symmetry_Int_Tables_number   1
_chemical_formula_structural   Cu2C6N
_chemical_formula_sum   'Cu8 C24 N4'
_cell_volume   1266.91105832
_cell_formula_units_Z   4
loop_
 _symmetry_equiv_pos_site_id
 _symmetry_equiv_pos_as_xyz
  1  'x, y, z'
loop_
 _atom_site_type_symbol
 _atom_site_label
 _atom_site_symmetry_multiplicity
 _atom_site_fract_x
 _atom_site_fract_y
 _atom_site_fract_z
 _atom_site_occupancy
 _atom_site_charge
  Cu  Cu1  1  0.148000  0.204910  0.259650  1.0  0.4641
  Cu  Cu2  1  0.406270  0.295670  0.662080  1.0  0.3107
  Cu  Cu3  1  0.352000  0.204910  0.240350  1.0  0.4638
  Cu  Cu4  1  0.093730  0.295670  0.837920  1.0  0.3111
  Cu  Cu5  1  0.852000  0.795090  0.740350  1.0  0.4697
  Cu  Cu6  1  0.593730  0.704330  0.337920  1.0  0.3119
  Cu  Cu7  1  0.648000  0.795090  0.759650  1.0  0.469
  Cu  Cu8  1  0.906270  0.704330  0.162080  1.0  0.3114
  C  C9  1  0.282400  0.232300  0.399600  1.0  -0.0144
  C  C10  1  0.071900  0.002000  0.235500  1.0  -0.0072
  C  C11  1  0.522700  0.114300  0.716600  1.0  -0.1561
  C  C12  1  0.499900  0.491400  0.688400  1.0  -0.0783
  C  C13  1  0.052900  0.396400  0.214100  1.0  0.0266
  C  C14  1  0.285300  0.291600  0.729800  1.0  -0.042
  C  C15  1  0.217600  0.232300  0.100400  1.0  -0.0147
  C  C16  1  0.428100  0.002000  0.264500  1.0  -0.0062
  C  C17  1  0.977300  0.114300  0.783400  1.0  -0.1565
  C  C18  1  0.000100  0.491400  0.811600  1.0  -0.0796
  C  C19  1  0.447100  0.396400  0.285900  1.0  0.0288
  C  C20  1  0.214700  0.291600  0.770200  1.0  -0.0414
  C  C21  1  0.717600  0.767700  0.600400  1.0  -0.0148
  C  C22  1  0.928100  0.998000  0.764500  1.0  -0.0056
  C  C23  1  0.477300  0.885700  0.283400  1.0  -0.1565
  C  C24  1  0.500100  0.508600  0.311600  1.0  -0.0807
  C  C25  1  0.947100  0.603600  0.785900  1.0  0.0271
  C  C26  1  0.714700  0.708400  0.270200  1.0  -0.0414
  C  C27  1  0.782400  0.767700  0.899600  1.0  -0.0143
  C  C28  1  0.571900  0.998000  0.735500  1.0  -0.0063
  C  C29  1  0.022700  0.885700  0.216600  1.0  -0.1558
  C  C30  1  0.999900  0.508600  0.188400  1.0  -0.0795
  C  C31  1  0.552900  0.603600  0.714100  1.0  0.0248
  C  C32  1  0.785300  0.708400  0.229800  1.0  -0.0421
  N  N33  1  0.335300  0.252300  0.492900  1.0  -0.5058
  N  N34  1  0.164700  0.252300  0.007100  1.0  -0.5072
  N  N35  1  0.664700  0.747700  0.507100  1.0  -0.5073
  N  N36  1  0.835300  0.747700  0.992900  1.0  -0.5054
