# generated using pymatgen
data_CdAg2(C7N3)2
_symmetry_space_group_name_H-M   'P 1'
_cell_length_a   12.78160000
_cell_length_b   12.78160000
_cell_length_c   13.06200000
_cell_angle_alpha   90.00000000
_cell_angle_beta   90.00000000
_cell_angle_gamma   90.00000000
_symmetry_Int_Tables_number   1
_chemical_formula_structural   CdAg2(C7N3)2
_chemical_formula_sum   'Cd4 Ag8 C56 N24'
_cell_volume   2133.92977779
_cell_formula_units_Z   4
loop_
 _symmetry_equiv_pos_site_id
 _symmetry_equiv_pos_as_xyz
  1  'x, y, z'
loop_
 _atom_site_type_symbol
 _atom_site_label
 _atom_site_symmetry_multiplicity
 _atom_site_fract_x
 _atom_site_fract_y
 _atom_site_fract_z
 _atom_site_occupancy
 _atom_site_charge
  Cd  Cd1  1  0.000000  0.500000  0.250000  1.0  0.9176
  Cd  Cd2  1  0.500000  0.000000  0.750000  1.0  0.9176
  Cd  Cd3  1  0.500000  0.500000  0.500000  1.0  0.9176
  Cd  Cd4  1  0.000000  0.000000  0.000000  1.0  0.9176
  Ag  Ag5  1  0.258550  0.741450  0.000000  1.0  0.3629
  Ag  Ag6  1  0.758550  0.241450  0.500000  1.0  0.3629
  Ag  Ag7  1  0.241450  0.758550  0.500000  1.0  0.3618
  Ag  Ag8  1  0.741450  0.258550  0.000000  1.0  0.3618
  Ag  Ag9  1  0.258550  0.758550  0.250000  1.0  0.361
  Ag  Ag10  1  0.758550  0.258550  0.750000  1.0  0.361
  Ag  Ag11  1  0.241450  0.741450  0.750000  1.0  0.3628
  Ag  Ag12  1  0.741450  0.241450  0.250000  1.0  0.3628
  C  C13  1  0.157400  0.635500  0.071600  1.0  -0.0793
  C  C14  1  0.229100  0.400500  0.252500  1.0  0.1437
  C  C15  1  0.307700  0.325200  0.251700  1.0  0.0377
  C  C16  1  0.657400  0.135500  0.571600  1.0  -0.0793
  C  C17  1  0.729100  0.900500  0.752500  1.0  0.1437
  C  C18  1  0.807700  0.825200  0.751700  1.0  0.0377
  C  C19  1  0.342600  0.864500  0.571600  1.0  -0.0797
  C  C20  1  0.270900  0.099500  0.752500  1.0  0.1447
  C  C21  1  0.192300  0.174800  0.751700  1.0  0.0388
  C  C22  1  0.842600  0.364500  0.071600  1.0  -0.0797
  C  C23  1  0.770900  0.599500  0.252500  1.0  0.1447
  C  C24  1  0.692300  0.674800  0.251700  1.0  0.0388
  C  C25  1  0.135500  0.657400  0.428400  1.0  -0.0802
  C  C26  1  0.900500  0.729100  0.247500  1.0  0.1429
  C  C27  1  0.825200  0.807700  0.248300  1.0  0.0418
  C  C28  1  0.635500  0.157400  0.928400  1.0  -0.0802
  C  C29  1  0.400500  0.229100  0.747500  1.0  0.1429
  C  C30  1  0.325200  0.307700  0.748300  1.0  0.0418
  C  C31  1  0.364500  0.842600  0.928400  1.0  -0.0793
  C  C32  1  0.599500  0.770900  0.747500  1.0  0.1436
  C  C33  1  0.674800  0.692300  0.748300  1.0  0.0422
  C  C34  1  0.864500  0.342600  0.428400  1.0  -0.0793
  C  C35  1  0.099500  0.270900  0.247500  1.0  0.1436
  C  C36  1  0.174800  0.192300  0.248300  1.0  0.0422
  C  C37  1  0.279600  0.220400  0.250000  1.0  0.0683
  C  C38  1  0.220400  0.279600  0.750000  1.0  0.0719
  C  C39  1  0.720400  0.779600  0.250000  1.0  0.0719
  C  C40  1  0.779600  0.720400  0.750000  1.0  0.0683
  C  C41  1  0.364500  0.657400  0.321600  1.0  -0.0795
  C  C42  1  0.599500  0.729100  0.502500  1.0  0.1427
  C  C43  1  0.674800  0.807700  0.501700  1.0  0.0368
  C  C44  1  0.864500  0.157400  0.821600  1.0  -0.0795
  C  C45  1  0.099500  0.229100  0.002500  1.0  0.1427
  C  C46  1  0.174800  0.307700  0.001700  1.0  0.0368
  C  C47  1  0.135500  0.842600  0.821600  1.0  -0.0793
  C  C48  1  0.900500  0.770900  0.002500  1.0  0.1445
  C  C49  1  0.825200  0.692300  0.001700  1.0  0.038
  C  C50  1  0.635500  0.342600  0.321600  1.0  -0.0793
  C  C51  1  0.400500  0.270900  0.502500  1.0  0.1445
  C  C52  1  0.325200  0.192300  0.501700  1.0  0.038
  C  C53  1  0.342600  0.635500  0.678400  1.0  -0.0795
  C  C54  1  0.270900  0.400500  0.497500  1.0  0.1443
  C  C55  1  0.192300  0.325200  0.498300  1.0  0.0366
  C  C56  1  0.842600  0.135500  0.178400  1.0  -0.0795
  C  C57  1  0.770900  0.900500  0.997500  1.0  0.1443
  C  C58  1  0.692300  0.825200  0.998300  1.0  0.0366
  C  C59  1  0.157400  0.864500  0.178400  1.0  -0.0801
  C  C60  1  0.229100  0.099500  0.997500  1.0  0.1453
  C  C61  1  0.307700  0.174800  0.998300  1.0  0.0376
  C  C62  1  0.657400  0.364500  0.678400  1.0  -0.0801
  C  C63  1  0.729100  0.599500  0.497500  1.0  0.1453
  C  C64  1  0.807700  0.674800  0.498300  1.0  0.0376
  C  C65  1  0.779600  0.779600  0.500000  1.0  0.0693
  C  C66  1  0.720400  0.720400  0.000000  1.0  0.0695
  C  C67  1  0.220400  0.220400  0.500000  1.0  0.0695
  C  C68  1  0.279600  0.279600  0.000000  1.0  0.0693
  N  N69  1  0.101900  0.585100  0.120400  1.0  -0.4257
  N  N70  1  0.601900  0.085100  0.620400  1.0  -0.4257
  N  N71  1  0.398100  0.914900  0.620400  1.0  -0.4261
  N  N72  1  0.898100  0.414900  0.120400  1.0  -0.4261
  N  N73  1  0.085100  0.601900  0.379600  1.0  -0.425
  N  N74  1  0.585100  0.101900  0.879600  1.0  -0.425
  N  N75  1  0.414900  0.898100  0.879600  1.0  -0.4232
  N  N76  1  0.914900  0.398100  0.379600  1.0  -0.4232
  N  N77  1  0.126700  0.373300  0.250000  1.0  -0.2474
  N  N78  1  0.373300  0.126700  0.750000  1.0  -0.2465
  N  N79  1  0.873300  0.626700  0.250000  1.0  -0.2465
  N  N80  1  0.626700  0.873300  0.750000  1.0  -0.2474
  N  N81  1  0.414900  0.601900  0.370400  1.0  -0.4249
  N  N82  1  0.914900  0.101900  0.870400  1.0  -0.4249
  N  N83  1  0.085100  0.898100  0.870400  1.0  -0.4246
  N  N84  1  0.585100  0.398100  0.370400  1.0  -0.4246
  N  N85  1  0.398100  0.585100  0.629600  1.0  -0.4243
  N  N86  1  0.898100  0.085100  0.129600  1.0  -0.4243
  N  N87  1  0.101900  0.914900  0.129600  1.0  -0.4251
  N  N88  1  0.601900  0.414900  0.629600  1.0  -0.4251
  N  N89  1  0.626700  0.626700  0.500000  1.0  -0.2458
  N  N90  1  0.873300  0.873300  0.000000  1.0  -0.2483
  N  N91  1  0.373300  0.373300  0.500000  1.0  -0.2483
  N  N92  1  0.126700  0.126700  0.000000  1.0  -0.2458
