# generated using pymatgen
data_CdAg2H10(C7N3)2
_symmetry_space_group_name_H-M   'P 1'
_cell_length_a   11.08880000
_cell_length_b   11.08880000
_cell_length_c   11.08880000
_cell_angle_alpha   107.55700000
_cell_angle_beta   109.11200000
_cell_angle_gamma   111.77300000
_symmetry_Int_Tables_number   1
_chemical_formula_structural   CdAg2H10(C7N3)2
_chemical_formula_sum   'Cd2 Ag4 H20 C28 N12'
_cell_volume   1048.15754570
_cell_formula_units_Z   2
loop_
 _symmetry_equiv_pos_site_id
 _symmetry_equiv_pos_as_xyz
  1  'x, y, z'
loop_
 _atom_site_type_symbol
 _atom_site_label
 _atom_site_symmetry_multiplicity
 _atom_site_fract_x
 _atom_site_fract_y
 _atom_site_fract_z
 _atom_site_occupancy
 _atom_site_charge
  Cd  Cd1  1  0.250000  0.127720  0.877720  1.0  0.8908
  Cd  Cd2  1  0.750000  0.372280  0.622280  1.0  0.8923
  Ag  Ag3  1  0.280250  0.641570  0.885480  1.0  0.1798
  Ag  Ag4  1  0.219750  0.105230  0.361320  1.0  0.1798
  Ag  Ag5  1  0.256090  0.394770  0.614520  1.0  0.1782
  Ag  Ag6  1  0.243910  0.858430  0.138680  1.0  0.1815
  H  H7  1  0.975320  0.108990  0.632880  1.0  0.0945
  H  H8  1  0.692640  0.952100  0.487600  1.0  0.1281
  H  H9  1  0.555660  0.750690  0.544290  1.0  0.1087
  H  H10  1  0.711290  0.717050  0.745900  1.0  0.1182
  H  H11  1  0.993950  0.872370  0.868880  1.0  0.088
  H  H12  1  0.524680  0.157560  0.133660  1.0  0.0945
  H  H13  1  0.807360  0.294960  0.259460  1.0  0.1284
  H  H14  1  0.944340  0.488630  0.195030  1.0  0.1082
  H  H15  1  0.788710  0.534610  0.005750  1.0  0.1202
  H  H16  1  0.506050  0.374920  0.878420  1.0  0.0878
  H  H17  1  0.976110  0.342440  0.867120  1.0  0.0966
  H  H18  1  0.964510  0.205040  0.012400  1.0  0.1284
  H  H19  1  0.706400  0.011370  0.955710  1.0  0.109
  H  H20  1  0.471150  0.965390  0.754100  1.0  0.1204
  H  H21  1  0.503500  0.125080  0.631120  1.0  0.0898
  H  H22  1  0.523890  0.391010  0.366340  1.0  0.096
  H  H23  1  0.535490  0.547900  0.240540  1.0  0.1294
  H  H24  1  0.793600  0.749310  0.304970  1.0  0.11
  H  H25  1  0.028850  0.782950  0.494250  1.0  0.1164
  H  H26  1  0.996500  0.627630  0.621580  1.0  0.0897
  C  C27  1  0.281300  0.820200  0.859700  1.0  -0.0404
  C  C28  1  0.279200  0.468400  0.922000  1.0  -0.0378
  C  C29  1  0.912600  0.017400  0.654200  1.0  0.1452
  C  C30  1  0.757200  0.932200  0.575400  1.0  -0.1735
  C  C31  1  0.683000  0.822000  0.607000  1.0  -0.0054
  C  C32  1  0.768800  0.802800  0.716000  1.0  -0.1613
  C  C33  1  0.920700  0.888900  0.783600  1.0  0.1326
  C  C34  1  0.218700  0.078400  0.538900  1.0  -0.0414
  C  C35  1  0.220800  0.142800  0.189200  1.0  -0.0374
  C  C36  1  0.587400  0.241600  0.104800  1.0  0.1431
  C  C37  1  0.742800  0.318200  0.175000  1.0  -0.1728
  C  C38  1  0.817000  0.424000  0.139000  1.0  -0.0014
  C  C39  1  0.731200  0.447200  0.034000  1.0  -0.1608
  C  C40  1  0.579300  0.362900  0.968200  1.0  0.129
  C  C41  1  0.460500  0.421600  0.640300  1.0  -0.0404
  C  C42  1  0.046400  0.357200  0.578000  1.0  -0.0352
  C  C43  1  0.863200  0.258400  0.845800  1.0  0.1421
  C  C44  1  0.856800  0.181800  0.924600  1.0  -0.1715
  C  C45  1  0.715000  0.076000  0.893000  1.0  0.0014
  C  C46  1  0.586800  0.052800  0.784000  1.0  -0.1678
  C  C47  1  0.605300  0.137100  0.716400  1.0  0.1306
  C  C48  1  0.039500  0.679800  0.961100  1.0  -0.0401
  C  C49  1  0.453600  0.031600  0.310800  1.0  -0.0361
  C  C50  1  0.636800  0.482600  0.395200  1.0  0.1436
  C  C51  1  0.643200  0.567800  0.325000  1.0  -0.1761
  C  C52  1  0.785000  0.678000  0.361000  1.0  0.001
  C  C53  1  0.913200  0.697200  0.466000  1.0  -0.1653
  C  C54  1  0.894700  0.611100  0.531800  1.0  0.1313
  N  N55  1  0.268700  0.916900  0.852200  1.0  -0.3488
  N  N56  1  0.267200  0.363400  0.922600  1.0  -0.3583
  N  N57  1  0.992800  0.996200  0.755400  1.0  -0.3164
  N  N58  1  0.231300  0.083500  0.648200  1.0  -0.3497
  N  N59  1  0.232800  0.155400  0.096200  1.0  -0.3604
  N  N60  1  0.507200  0.262600  0.003400  1.0  -0.3166
  N  N61  1  0.564700  0.416500  0.647800  1.0  -0.3512
  N  N62  1  0.940800  0.344600  0.577400  1.0  -0.3593
  N  N63  1  0.740800  0.237400  0.744600  1.0  -0.3189
  N  N64  1  0.935300  0.583100  0.851800  1.0  -0.3487
  N  N65  1  0.559200  0.136600  0.403800  1.0  -0.3541
  N  N66  1  0.759200  0.503800  0.496600  1.0  -0.3173
