# generated using pymatgen
data_AgH4(CN)4
_symmetry_space_group_name_H-M   'P 1'
_cell_length_a   12.53500000
_cell_length_b   29.51700000
_cell_length_c   14.70400000
_cell_angle_alpha   90.00000000
_cell_angle_beta   93.95000000
_cell_angle_gamma   90.00000000
_symmetry_Int_Tables_number   1
_chemical_formula_structural   AgH4(CN)4
_chemical_formula_sum   'Ag24 H96 C96 N96'
_cell_volume   5427.49176414
_cell_formula_units_Z   24
loop_
 _symmetry_equiv_pos_site_id
 _symmetry_equiv_pos_as_xyz
  1  'x, y, z'
loop_
 _atom_site_type_symbol
 _atom_site_label
 _atom_site_symmetry_multiplicity
 _atom_site_fract_x
 _atom_site_fract_y
 _atom_site_fract_z
 _atom_site_occupancy
 _atom_site_charge
  Ag  Ag1  1  0.452000  0.772370  0.623300  1.0  0.2707
  Ag  Ag2  1  0.958000  0.753940  0.682800  1.0  0.3847
  Ag  Ag3  1  0.735400  0.905570  0.432300  1.0  0.2711
  Ag  Ag4  1  0.709000  0.603710  0.450400  1.0  0.289
  Ag  Ag5  1  0.261400  0.913560  0.266340  1.0  0.1568
  Ag  Ag6  1  0.210000  0.927680  0.824450  1.0  0.3135
  Ag  Ag7  1  0.548000  0.272370  0.876700  1.0  0.2704
  Ag  Ag8  1  0.042000  0.253940  0.817200  1.0  0.3847
  Ag  Ag9  1  0.264600  0.405570  0.067700  1.0  0.272
  Ag  Ag10  1  0.291000  0.103710  0.049600  1.0  0.2896
  Ag  Ag11  1  0.738600  0.413560  0.233660  1.0  0.1582
  Ag  Ag12  1  0.790000  0.427680  0.675550  1.0  0.3137
  Ag  Ag13  1  0.548000  0.227630  0.376700  1.0  0.2708
  Ag  Ag14  1  0.042000  0.246060  0.317200  1.0  0.3851
  Ag  Ag15  1  0.264600  0.094430  0.567700  1.0  0.2712
  Ag  Ag16  1  0.291000  0.396290  0.549600  1.0  0.2896
  Ag  Ag17  1  0.738600  0.086440  0.733660  1.0  0.1583
  Ag  Ag18  1  0.790000  0.072320  0.175550  1.0  0.3138
  Ag  Ag19  1  0.452000  0.727630  0.123300  1.0  0.271
  Ag  Ag20  1  0.958000  0.746060  0.182800  1.0  0.3851
  Ag  Ag21  1  0.735400  0.594430  0.932300  1.0  0.2705
  Ag  Ag22  1  0.709000  0.896290  0.950400  1.0  0.289
  Ag  Ag23  1  0.261400  0.586440  0.766340  1.0  0.1573
  Ag  Ag24  1  0.210000  0.572320  0.324450  1.0  0.3136
  H  H25  1  0.593500  0.850700  0.563300  1.0  -0.0171
  H  H26  1  0.513200  0.904900  0.331000  1.0  0.009
  H  H27  1  0.329500  0.818100  0.430500  1.0  0.0008
  H  H28  1  0.200500  0.775500  0.637400  1.0  -0.0136
  H  H29  1  0.087200  0.663800  0.724100  1.0  0.001
  H  H30  1  0.389700  0.675900  0.696600  1.0  0.0069
  H  H31  1  0.545600  0.682100  0.529900  1.0  0.0044
  H  H32  1  0.854300  0.674600  0.564700  1.0  0.0019
  H  H33  1  0.703300  0.773800  0.665700  1.0  0.013
  H  H34  1  0.841200  0.804500  0.850500  1.0  0.001
  H  H35  1  0.985200  0.912000  0.926600  1.0  -0.0128
  H  H36  1  0.086700  0.846600  0.726600  1.0  -0.0002
  H  H37  1  0.885200  0.840900  0.571200  1.0  -0.0158
  H  H38  1  0.045000  0.753000  0.437800  1.0  0.0334
  H  H39  1  0.893400  0.849300  0.308400  1.0  0.0457
  H  H40  1  0.760900  0.522400  0.578700  1.0  0.0339
  H  H41  1  0.222400  0.907600  0.047400  1.0  -0.0119
  H  H42  1  0.731200  0.516800  0.314200  1.0  0.0178
  H  H43  1  0.267900  0.010000  0.697700  1.0  0.0046
  H  H44  1  0.962600  0.945800  0.454900  1.0  -0.0132
  H  H45  1  0.991500  0.957800  0.711600  1.0  0.0006
  H  H46  1  0.329700  0.860600  0.694200  1.0  0.0104
  H  H47  1  0.603300  0.826300  0.800600  1.0  -0.0177
  H  H48  1  0.456000  0.926900  0.899900  1.0  -0.0082
  H  H49  1  0.406500  0.350700  0.936700  1.0  -0.0165
  H  H50  1  0.486800  0.404900  0.169000  1.0  0.008
  H  H51  1  0.670500  0.318100  0.069500  1.0  0.0006
  H  H52  1  0.799500  0.275500  0.862600  1.0  -0.0141
  H  H53  1  0.912800  0.163800  0.775900  1.0  0.0011
  H  H54  1  0.610300  0.175900  0.803400  1.0  0.007
  H  H55  1  0.454400  0.182100  0.970100  1.0  0.0051
  H  H56  1  0.145700  0.174600  0.935300  1.0  0.0024
  H  H57  1  0.296700  0.273800  0.834300  1.0  0.0137
  H  H58  1  0.158800  0.304500  0.649500  1.0  0.0008
  H  H59  1  0.014800  0.412000  0.573400  1.0  -0.013
  H  H60  1  0.913300  0.346600  0.773400  1.0  0.0012
  H  H61  1  0.114800  0.340900  0.928800  1.0  -0.0143
  H  H62  1  0.955000  0.253000  0.062200  1.0  0.0337
  H  H63  1  0.106600  0.349300  0.191600  1.0  0.0454
  H  H64  1  0.239100  0.022400  0.921300  1.0  0.0337
  H  H65  1  0.777600  0.407600  0.452600  1.0  -0.0114
  H  H66  1  0.268800  0.016800  0.185800  1.0  0.0203
  H  H67  1  0.732100  0.510000  0.802300  1.0  0.0039
  H  H68  1  0.037400  0.445800  0.045100  1.0  -0.013
  H  H69  1  0.008500  0.457800  0.788400  1.0  -1e-04
  H  H70  1  0.670300  0.360600  0.805800  1.0  0.0113
  H  H71  1  0.396700  0.326300  0.699400  1.0  -0.0174
  H  H72  1  0.544000  0.426900  0.600100  1.0  -0.0078
  H  H73  1  0.406500  0.149300  0.436700  1.0  -0.0168
  H  H74  1  0.486800  0.095100  0.669000  1.0  0.0086
  H  H75  1  0.670500  0.181900  0.569500  1.0  0.0016
  H  H76  1  0.799500  0.224500  0.362600  1.0  -0.0137
  H  H77  1  0.912800  0.336200  0.275900  1.0  0.0011
  H  H78  1  0.610300  0.324100  0.303400  1.0  0.007
  H  H79  1  0.454400  0.317900  0.470100  1.0  0.0053
  H  H80  1  0.145700  0.325400  0.435300  1.0  0.0018
  H  H81  1  0.296700  0.226200  0.334300  1.0  0.0138
  H  H82  1  0.158800  0.195500  0.149500  1.0  0.0004
  H  H83  1  0.014800  0.088000  0.073400  1.0  -0.0135
  H  H84  1  0.913300  0.153400  0.273400  1.0  0.001
  H  H85  1  0.114800  0.159100  0.428800  1.0  -0.0142
  H  H86  1  0.955000  0.247000  0.562200  1.0  0.0344
  H  H87  1  0.106600  0.150700  0.691600  1.0  0.0453
  H  H88  1  0.239100  0.477600  0.421300  1.0  0.0342
  H  H89  1  0.777600  0.092400  0.952600  1.0  -0.0127
  H  H90  1  0.268800  0.483200  0.685800  1.0  0.0206
  H  H91  1  0.732100  0.990000  0.302300  1.0  0.0038
  H  H92  1  0.037400  0.054200  0.545100  1.0  -0.0139
  H  H93  1  0.008500  0.042200  0.288400  1.0  -0.0008
  H  H94  1  0.670300  0.139400  0.305800  1.0  0.0112
  H  H95  1  0.396700  0.173700  0.199400  1.0  -0.0169
  H  H96  1  0.544000  0.073100  0.100100  1.0  -0.0075
  H  H97  1  0.593500  0.649300  0.063300  1.0  -0.0171
  H  H98  1  0.513200  0.595100  0.831000  1.0  0.0085
  H  H99  1  0.329500  0.681900  0.930500  1.0  0.0013
  H  H100  1  0.200500  0.724500  0.137400  1.0  -0.0136
  H  H101  1  0.087200  0.836200  0.224100  1.0  0.0009
  H  H102  1  0.389700  0.824100  0.196600  1.0  0.0069
  H  H103  1  0.545600  0.817900  0.029900  1.0  0.0049
  H  H104  1  0.854300  0.825400  0.064700  1.0  0.0013
  H  H105  1  0.703300  0.726200  0.165700  1.0  0.014
  H  H106  1  0.841200  0.695500  0.350500  1.0  0.0011
  H  H107  1  0.985200  0.588000  0.426600  1.0  -0.013
  H  H108  1  0.086700  0.653400  0.226600  1.0  -0.0004
  H  H109  1  0.885200  0.659100  0.071200  1.0  -0.015
  H  H110  1  0.045000  0.747000  0.937800  1.0  0.034
  H  H111  1  0.893400  0.650700  0.808400  1.0  0.0458
  H  H112  1  0.760900  0.977600  0.078700  1.0  0.0348
  H  H113  1  0.222400  0.592400  0.547400  1.0  -0.0129
  H  H114  1  0.731200  0.983200  0.814200  1.0  0.0182
  H  H115  1  0.267900  0.490000  0.197700  1.0  0.0045
  H  H116  1  0.962600  0.554200  0.954900  1.0  -0.0141
  H  H117  1  0.991500  0.542200  0.211600  1.0  0.0005
  H  H118  1  0.329700  0.639400  0.194200  1.0  0.0104
  H  H119  1  0.603300  0.673700  0.300600  1.0  -0.0172
  H  H120  1  0.456000  0.573100  0.399900  1.0  -0.0078
  C  C121  1  0.545300  0.852800  0.512600  1.0  0.2734
  C  C122  1  0.496700  0.885700  0.378200  1.0  0.2341
  C  C123  1  0.390100  0.836300  0.437600  1.0  0.3291
  C  C124  1  0.211500  0.746000  0.658500  1.0  0.2948
  C  C125  1  0.146200  0.680500  0.708600  1.0  0.3187
  C  C126  1  0.320900  0.687800  0.691800  1.0  0.3265
  C  C127  1  0.610100  0.692900  0.556500  1.0  0.3154
  C  C128  1  0.790100  0.688400  0.576700  1.0  0.3243
  C  C129  1  0.702300  0.746200  0.635300  1.0  0.2969
  C  C130  1  0.895600  0.825500  0.844000  1.0  0.3054
  C  C131  1  0.979600  0.887000  0.887900  1.0  0.3594
  C  C132  1  0.040700  0.849200  0.773400  1.0  0.2804
  C  C133  1  0.908000  0.829600  0.516700  1.0  0.326
  C  C134  1  0.999000  0.777700  0.437500  1.0  0.3177
  C  C135  1  0.911100  0.834200  0.362900  1.0  0.2796
  C  C136  1  0.758700  0.505700  0.525100  1.0  0.3038
  C  C137  1  0.233100  0.938700  0.049100  1.0  0.3224
  C  C138  1  0.742600  0.502300  0.370100  1.0  0.3116
  C  C139  1  0.195400  0.009300  0.679800  1.0  0.3134
  C  C140  1  0.937000  0.965200  0.408500  1.0  0.2966
  C  C141  1  0.036600  0.979000  0.687200  1.0  0.2786
  C  C142  1  0.385400  0.864500  0.738700  1.0  0.2857
  C  C143  1  0.544300  0.845500  0.799000  1.0  0.3309
  C  C144  1  0.458200  0.903700  0.857300  1.0  0.2875
  C  C145  1  0.454700  0.352800  0.987400  1.0  0.2736
  C  C146  1  0.503300  0.385700  0.121800  1.0  0.2335
  C  C147  1  0.609900  0.336300  0.062400  1.0  0.3284
  C  C148  1  0.788500  0.246000  0.841500  1.0  0.2941
  C  C149  1  0.853800  0.180500  0.791400  1.0  0.3185
  C  C150  1  0.679100  0.187800  0.808200  1.0  0.3264
  C  C151  1  0.389900  0.192900  0.943500  1.0  0.3153
  C  C152  1  0.209900  0.188400  0.923300  1.0  0.3262
  C  C153  1  0.297700  0.246200  0.864700  1.0  0.2975
  C  C154  1  0.104400  0.325500  0.656000  1.0  0.3041
  C  C155  1  0.020400  0.387000  0.612100  1.0  0.3603
  C  C156  1  0.959300  0.349200  0.726600  1.0  0.2823
  C  C157  1  0.092000  0.329600  0.983300  1.0  0.3265
  C  C158  1  0.001000  0.277700  0.062500  1.0  0.3185
  C  C159  1  0.088900  0.334200  0.137100  1.0  0.279
  C  C160  1  0.241300  0.005700  0.974900  1.0  0.3031
  C  C161  1  0.766900  0.438700  0.450900  1.0  0.3238
  C  C162  1  0.257400  0.002300  0.129900  1.0  0.3126
  C  C163  1  0.804600  0.509300  0.820200  1.0  0.3133
  C  C164  1  0.063000  0.465200  0.091500  1.0  0.2954
  C  C165  1  0.963400  0.479000  0.812800  1.0  0.278
  C  C166  1  0.614600  0.364500  0.761300  1.0  0.2866
  C  C167  1  0.455700  0.345500  0.701000  1.0  0.331
  C  C168  1  0.541800  0.403700  0.642700  1.0  0.2876
  C  C169  1  0.454700  0.147200  0.487400  1.0  0.2737
  C  C170  1  0.503300  0.114300  0.621800  1.0  0.234
  C  C171  1  0.609900  0.163700  0.562400  1.0  0.3285
  C  C172  1  0.788500  0.254000  0.341500  1.0  0.2951
  C  C173  1  0.853800  0.319500  0.291400  1.0  0.3184
  C  C174  1  0.679100  0.312200  0.308200  1.0  0.3268
  C  C175  1  0.389900  0.307100  0.443500  1.0  0.3153
  C  C176  1  0.209900  0.311600  0.423300  1.0  0.3254
  C  C177  1  0.297700  0.253800  0.364700  1.0  0.2964
  C  C178  1  0.104400  0.174500  0.156000  1.0  0.3042
  C  C179  1  0.020400  0.113000  0.112100  1.0  0.3605
  C  C180  1  0.959300  0.150800  0.226600  1.0  0.2823
  C  C181  1  0.092000  0.170400  0.483300  1.0  0.3261
  C  C182  1  0.001000  0.222300  0.562500  1.0  0.3181
  C  C183  1  0.088900  0.165800  0.637100  1.0  0.2789
  C  C184  1  0.241300  0.494300  0.474900  1.0  0.3039
  C  C185  1  0.766900  0.061300  0.950900  1.0  0.3249
  C  C186  1  0.257400  0.497700  0.629900  1.0  0.3128
  C  C187  1  0.804600  0.990700  0.320200  1.0  0.3134
  C  C188  1  0.063000  0.034800  0.591500  1.0  0.2942
  C  C189  1  0.963400  0.021000  0.312800  1.0  0.2798
  C  C190  1  0.614600  0.135500  0.261300  1.0  0.2867
  C  C191  1  0.455700  0.154500  0.201000  1.0  0.3305
  C  C192  1  0.541800  0.096300  0.142700  1.0  0.2871
  C  C193  1  0.545300  0.647200  0.012600  1.0  0.2734
  C  C194  1  0.496700  0.614300  0.878200  1.0  0.2332
  C  C195  1  0.390100  0.663700  0.937600  1.0  0.3284
  C  C196  1  0.211500  0.754000  0.158500  1.0  0.2954
  C  C197  1  0.146200  0.819500  0.208600  1.0  0.3182
  C  C198  1  0.320900  0.812200  0.191800  1.0  0.3277
  C  C199  1  0.610100  0.807100  0.056500  1.0  0.3148
  C  C200  1  0.790100  0.811600  0.076700  1.0  0.3239
  C  C201  1  0.702300  0.753800  0.135300  1.0  0.296
  C  C202  1  0.895600  0.674500  0.344000  1.0  0.3052
  C  C203  1  0.979600  0.613000  0.387900  1.0  0.3602
  C  C204  1  0.040700  0.650800  0.273400  1.0  0.2809
  C  C205  1  0.908000  0.670400  0.016700  1.0  0.3265
  C  C206  1  0.999000  0.722300  0.937500  1.0  0.3172
  C  C207  1  0.911100  0.665800  0.862900  1.0  0.2791
  C  C208  1  0.758700  0.994300  0.025100  1.0  0.3038
  C  C209  1  0.233100  0.561300  0.549100  1.0  0.3248
  C  C210  1  0.742600  0.997700  0.870100  1.0  0.3116
  C  C211  1  0.195400  0.490700  0.179800  1.0  0.3137
  C  C212  1  0.937000  0.534800  0.908500  1.0  0.2952
  C  C213  1  0.036600  0.521000  0.187200  1.0  0.2801
  C  C214  1  0.385400  0.635500  0.238700  1.0  0.2855
  C  C215  1  0.544300  0.654500  0.299000  1.0  0.3308
  C  C216  1  0.458200  0.596300  0.357300  1.0  0.2892
  N  N217  1  0.455700  0.828600  0.512300  1.0  -0.3426
  N  N218  1  0.569600  0.879400  0.446100  1.0  -0.3917
  N  N219  1  0.401700  0.866400  0.373600  1.0  -0.4137
  N  N220  1  0.310600  0.729800  0.663100  1.0  -0.3744
  N  N221  1  0.128700  0.723200  0.681600  1.0  -0.3743
  N  N222  1  0.240300  0.840100  0.215200  1.0  -0.3691
  N  N223  1  0.606500  0.729400  0.603600  1.0  -0.3672
  N  N224  1  0.699100  0.668600  0.542000  1.0  -0.3736
  N  N225  1  0.796100  0.725500  0.625800  1.0  -0.3699
  N  N226  1  0.963900  0.816900  0.778200  1.0  -0.3846
  N  N227  1  0.899000  0.859900  0.898500  1.0  -0.3845
  N  N228  1  0.055400  0.883200  0.828100  1.0  -0.3886
  N  N229  1  0.878100  0.851700  0.442000  1.0  -0.3811
  N  N230  1  0.967200  0.793000  0.521200  1.0  -0.4042
  N  N231  1  0.969300  0.795200  0.360900  1.0  -0.3602
  N  N232  1  0.747500  0.527700  0.445600  1.0  -0.3493
  N  N233  1  0.232800  0.960300  0.969400  1.0  -0.3816
  N  N234  1  0.246900  0.957600  0.129500  1.0  -0.4034
  N  N235  1  0.137400  0.978500  0.720000  1.0  -0.3126
  N  N236  1  0.838600  0.961400  0.382400  1.0  -0.3399
  N  N237  1  0.007300  0.993900  0.376400  1.0  -0.4193
  N  N238  1  0.375500  0.898100  0.800300  1.0  -0.3757
  N  N239  1  0.467000  0.837200  0.737200  1.0  -0.4104
  N  N240  1  0.546400  0.621800  0.358600  1.0  -0.4026
  N  N241  1  0.544300  0.328600  0.987700  1.0  -0.342
  N  N242  1  0.430400  0.379400  0.053900  1.0  -0.3862
  N  N243  1  0.598300  0.366400  0.126400  1.0  -0.4127
  N  N244  1  0.689400  0.229800  0.836900  1.0  -0.3724
  N  N245  1  0.871300  0.223200  0.818400  1.0  -0.3766
  N  N246  1  0.759700  0.340100  0.284800  1.0  -0.3681
  N  N247  1  0.393500  0.229400  0.896400  1.0  -0.3699
  N  N248  1  0.300900  0.168600  0.958000  1.0  -0.3733
  N  N249  1  0.203900  0.225500  0.874200  1.0  -0.3691
  N  N250  1  0.036100  0.316900  0.721800  1.0  -0.3844
  N  N251  1  0.101000  0.359900  0.601500  1.0  -0.384
  N  N252  1  0.944600  0.383200  0.671900  1.0  -0.3877
  N  N253  1  0.121900  0.351700  0.058000  1.0  -0.3831
  N  N254  1  0.032800  0.293000  0.978800  1.0  -0.4067
  N  N255  1  0.030700  0.295200  0.139100  1.0  -0.3592
  N  N256  1  0.252500  0.027700  0.054400  1.0  -0.3481
  N  N257  1  0.767200  0.460300  0.530600  1.0  -0.3809
  N  N258  1  0.753100  0.457600  0.370500  1.0  -0.4082
  N  N259  1  0.862600  0.478500  0.780000  1.0  -0.3124
  N  N260  1  0.161400  0.461400  0.117600  1.0  -0.3425
  N  N261  1  0.992700  0.493900  0.123600  1.0  -0.4219
  N  N262  1  0.624500  0.398100  0.699700  1.0  -0.3781
  N  N263  1  0.533000  0.337200  0.762800  1.0  -0.4101
  N  N264  1  0.453600  0.121800  0.141400  1.0  -0.404
  N  N265  1  0.544300  0.171400  0.487700  1.0  -0.3427
  N  N266  1  0.430400  0.120600  0.553900  1.0  -0.387
  N  N267  1  0.598300  0.133600  0.626400  1.0  -0.4116
  N  N268  1  0.689400  0.270200  0.336900  1.0  -0.3727
  N  N269  1  0.871300  0.276800  0.318400  1.0  -0.3762
  N  N270  1  0.759700  0.159900  0.784800  1.0  -0.3658
  N  N271  1  0.393500  0.270600  0.396400  1.0  -0.3686
  N  N272  1  0.300900  0.331400  0.458000  1.0  -0.3752
  N  N273  1  0.203900  0.274500  0.374200  1.0  -0.3699
  N  N274  1  0.036100  0.183100  0.221800  1.0  -0.3856
  N  N275  1  0.101000  0.140100  0.101500  1.0  -0.3852
  N  N276  1  0.944600  0.116800  0.171900  1.0  -0.3887
  N  N277  1  0.121900  0.148300  0.558000  1.0  -0.3787
  N  N278  1  0.032800  0.207000  0.478800  1.0  -0.4061
  N  N279  1  0.030700  0.204800  0.639100  1.0  -0.3596
  N  N280  1  0.252500  0.472300  0.554400  1.0  -0.3464
  N  N281  1  0.767200  0.039700  0.030600  1.0  -0.3807
  N  N282  1  0.753100  0.042400  0.870500  1.0  -0.4068
  N  N283  1  0.862600  0.021500  0.280000  1.0  -0.3139
  N  N284  1  0.161400  0.038600  0.617600  1.0  -0.3439
  N  N285  1  0.992700  0.006100  0.623600  1.0  -0.4218
  N  N286  1  0.624500  0.101900  0.199700  1.0  -0.3772
  N  N287  1  0.533000  0.162800  0.262800  1.0  -0.4127
  N  N288  1  0.453600  0.378200  0.641400  1.0  -0.4032
  N  N289  1  0.455700  0.671400  0.012300  1.0  -0.3429
  N  N290  1  0.569600  0.620600  0.946100  1.0  -0.3906
  N  N291  1  0.401700  0.633600  0.873600  1.0  -0.4152
  N  N292  1  0.310600  0.770200  0.163100  1.0  -0.374
  N  N293  1  0.128700  0.776800  0.181600  1.0  -0.3748
  N  N294  1  0.240300  0.659900  0.715200  1.0  -0.3659
  N  N295  1  0.606500  0.770600  0.103600  1.0  -0.3675
  N  N296  1  0.699100  0.831400  0.042000  1.0  -0.3756
  N  N297  1  0.796100  0.774500  0.125800  1.0  -0.37
  N  N298  1  0.963900  0.683100  0.278200  1.0  -0.3855
  N  N299  1  0.899000  0.640100  0.398500  1.0  -0.385
  N  N300  1  0.055400  0.616800  0.328100  1.0  -0.3876
  N  N301  1  0.878100  0.648300  0.942000  1.0  -0.3803
  N  N302  1  0.967200  0.707000  0.021200  1.0  -0.4051
  N  N303  1  0.969300  0.704800  0.860900  1.0  -0.3603
  N  N304  1  0.747500  0.972300  0.945600  1.0  -0.3461
  N  N305  1  0.232800  0.539700  0.469400  1.0  -0.3807
  N  N306  1  0.246900  0.542400  0.629500  1.0  -0.4047
  N  N307  1  0.137400  0.521500  0.220000  1.0  -0.3155
  N  N308  1  0.838600  0.538600  0.882400  1.0  -0.3414
  N  N309  1  0.007300  0.506100  0.876400  1.0  -0.4194
  N  N310  1  0.375500  0.601900  0.300300  1.0  -0.3783
  N  N311  1  0.467000  0.662800  0.237200  1.0  -0.4132
  N  N312  1  0.546400  0.878200  0.858600  1.0  -0.4037
