# generated using pymatgen
data_NaFeN18
_symmetry_space_group_name_H-M   'P 1'
_cell_length_a   12.82590000
_cell_length_b   12.82590000
_cell_length_c   12.82590000
_cell_angle_alpha   90.00000000
_cell_angle_beta   90.00000000
_cell_angle_gamma   90.00000000
_symmetry_Int_Tables_number   1
_chemical_formula_structural   NaFeN18
_chemical_formula_sum   'Na4 Fe4 N72'
_cell_volume   2109.90814448
_cell_formula_units_Z   4
loop_
 _symmetry_equiv_pos_site_id
 _symmetry_equiv_pos_as_xyz
  1  'x, y, z'
loop_
 _atom_site_type_symbol
 _atom_site_label
 _atom_site_symmetry_multiplicity
 _atom_site_fract_x
 _atom_site_fract_y
 _atom_site_fract_z
 _atom_site_occupancy
 _atom_site_charge
  Na  Na1  1  0.000000  0.000000  0.000000  1.0  0.9604
  Na  Na2  1  0.500000  0.000000  0.500000  1.0  0.9604
  Na  Na3  1  0.000000  0.500000  0.500000  1.0  0.9604
  Na  Na4  1  0.500000  0.500000  0.000000  1.0  0.9604
  Fe  Fe5  1  0.500000  0.000000  0.000000  1.0  0.665
  Fe  Fe6  1  0.000000  0.000000  0.500000  1.0  0.665
  Fe  Fe7  1  0.500000  0.500000  0.500000  1.0  0.665
  Fe  Fe8  1  0.000000  0.500000  0.000000  1.0  0.665
  N  N9  1  0.642980  0.938250  0.955340  1.0  -0.3047
  N  N10  1  0.725640  0.980110  0.964310  1.0  0.4399
  N  N11  1  0.807460  0.017740  0.970760  1.0  -0.4033
  N  N12  1  0.857020  0.061750  0.455340  1.0  -0.3055
  N  N13  1  0.774360  0.019890  0.464310  1.0  0.4416
  N  N14  1  0.692540  0.982260  0.470760  1.0  -0.4031
  N  N15  1  0.357020  0.438250  0.544660  1.0  -0.3041
  N  N16  1  0.274360  0.480110  0.535690  1.0  0.4413
  N  N17  1  0.192540  0.517740  0.529240  1.0  -0.4045
  N  N18  1  0.142980  0.561750  0.044660  1.0  -0.3053
  N  N19  1  0.225640  0.519890  0.035690  1.0  0.4402
  N  N20  1  0.307460  0.482260  0.029240  1.0  -0.4041
  N  N21  1  0.955340  0.642980  0.938250  1.0  -0.3063
  N  N22  1  0.964310  0.725640  0.980110  1.0  0.4408
  N  N23  1  0.970760  0.807460  0.017740  1.0  -0.4062
  N  N24  1  0.455340  0.857020  0.061750  1.0  -0.3061
  N  N25  1  0.464310  0.774360  0.019890  1.0  0.4413
  N  N26  1  0.470760  0.692540  0.982260  1.0  -0.4062
  N  N27  1  0.544660  0.357020  0.438250  1.0  -0.3031
  N  N28  1  0.535690  0.274360  0.480110  1.0  0.4392
  N  N29  1  0.529240  0.192540  0.517740  1.0  -0.4066
  N  N30  1  0.044660  0.142980  0.561750  1.0  -0.304
  N  N31  1  0.035690  0.225640  0.519890  1.0  0.4387
  N  N32  1  0.029240  0.307460  0.482260  1.0  -0.4072
  N  N33  1  0.938250  0.955340  0.642980  1.0  -0.3037
  N  N34  1  0.980110  0.964310  0.725640  1.0  0.4395
  N  N35  1  0.017740  0.970760  0.807460  1.0  -0.4042
  N  N36  1  0.061750  0.455340  0.857020  1.0  -0.3048
  N  N37  1  0.019890  0.464310  0.774360  1.0  0.438
  N  N38  1  0.982260  0.470760  0.692540  1.0  -0.4049
  N  N39  1  0.438250  0.544660  0.357020  1.0  -0.3021
  N  N40  1  0.480110  0.535690  0.274360  1.0  0.4401
  N  N41  1  0.517740  0.529240  0.192540  1.0  -0.4061
  N  N42  1  0.561750  0.044660  0.142980  1.0  -0.3022
  N  N43  1  0.519890  0.035690  0.225640  1.0  0.438
  N  N44  1  0.482260  0.029240  0.307460  1.0  -0.4048
  N  N45  1  0.357020  0.061750  0.044660  1.0  -0.3076
  N  N46  1  0.274360  0.019890  0.035690  1.0  0.4415
  N  N47  1  0.192540  0.982260  0.029240  1.0  -0.4044
  N  N48  1  0.142980  0.938250  0.544660  1.0  -0.3049
  N  N49  1  0.225640  0.980110  0.535690  1.0  0.44
  N  N50  1  0.307460  0.017740  0.529240  1.0  -0.4049
  N  N51  1  0.642980  0.561750  0.455340  1.0  -0.3062
  N  N52  1  0.725640  0.519890  0.464310  1.0  0.4401
  N  N53  1  0.807460  0.482260  0.470760  1.0  -0.4045
  N  N54  1  0.857020  0.438250  0.955340  1.0  -0.3054
  N  N55  1  0.774360  0.480110  0.964310  1.0  0.4413
  N  N56  1  0.692540  0.517740  0.970760  1.0  -0.405
  N  N57  1  0.044660  0.357020  0.061750  1.0  -0.3056
  N  N58  1  0.035690  0.274360  0.019890  1.0  0.4392
  N  N59  1  0.029240  0.192540  0.982260  1.0  -0.4093
  N  N60  1  0.544660  0.142980  0.938250  1.0  -0.308
  N  N61  1  0.535690  0.225640  0.980110  1.0  0.4388
  N  N62  1  0.529240  0.307460  0.017740  1.0  -0.41
  N  N63  1  0.455340  0.642980  0.561750  1.0  -0.3088
  N  N64  1  0.464310  0.725640  0.519890  1.0  0.4407
  N  N65  1  0.470760  0.807460  0.482260  1.0  -0.4077
  N  N66  1  0.955340  0.857020  0.438250  1.0  -0.3063
  N  N67  1  0.964310  0.774360  0.480110  1.0  0.4412
  N  N68  1  0.970760  0.692540  0.517740  1.0  -0.4072
  N  N69  1  0.061750  0.044660  0.357020  1.0  -0.3028
  N  N70  1  0.019890  0.035690  0.274360  1.0  0.4384
  N  N71  1  0.982260  0.029240  0.192540  1.0  -0.4065
  N  N72  1  0.938250  0.544660  0.142980  1.0  -0.3044
  N  N73  1  0.980110  0.535690  0.225640  1.0  0.4398
  N  N74  1  0.017740  0.529240  0.307460  1.0  -0.4057
  N  N75  1  0.561750  0.455340  0.642980  1.0  -0.3049
  N  N76  1  0.519890  0.464310  0.725640  1.0  0.4376
  N  N77  1  0.482260  0.470760  0.807460  1.0  -0.405
  N  N78  1  0.438250  0.955340  0.857020  1.0  -0.3042
  N  N79  1  0.480110  0.964310  0.774360  1.0  0.4398
  N  N80  1  0.517740  0.970760  0.692540  1.0  -0.4061
