# generated using pymatgen
data_NaFeN18
_symmetry_space_group_name_H-M   'P 1'
_cell_length_a   12.89870000
_cell_length_b   12.89870000
_cell_length_c   12.89870000
_cell_angle_alpha   90.00000000
_cell_angle_beta   90.00000000
_cell_angle_gamma   90.00000000
_symmetry_Int_Tables_number   1
_chemical_formula_structural   NaFeN18
_chemical_formula_sum   'Na4 Fe4 N72'
_cell_volume   2146.04006640
_cell_formula_units_Z   4
loop_
 _symmetry_equiv_pos_site_id
 _symmetry_equiv_pos_as_xyz
  1  'x, y, z'
loop_
 _atom_site_type_symbol
 _atom_site_label
 _atom_site_symmetry_multiplicity
 _atom_site_fract_x
 _atom_site_fract_y
 _atom_site_fract_z
 _atom_site_occupancy
 _atom_site_charge
  Na  Na1  1  0.000000  0.000000  0.000000  1.0  0.9439
  Na  Na2  1  0.500000  0.000000  0.500000  1.0  0.9439
  Na  Na3  1  0.000000  0.500000  0.500000  1.0  0.9439
  Na  Na4  1  0.500000  0.500000  0.000000  1.0  0.9439
  Fe  Fe5  1  0.500000  0.000000  0.000000  1.0  0.6528
  Fe  Fe6  1  0.000000  0.000000  0.500000  1.0  0.6528
  Fe  Fe7  1  0.500000  0.500000  0.500000  1.0  0.6528
  Fe  Fe8  1  0.000000  0.500000  0.000000  1.0  0.6528
  N  N9  1  0.643010  0.939890  0.956190  1.0  -0.3149
  N  N10  1  0.725480  0.980960  0.965430  1.0  0.4501
  N  N11  1  0.807040  0.017360  0.971960  1.0  -0.4
  N  N12  1  0.856990  0.060110  0.456190  1.0  -0.3175
  N  N13  1  0.774520  0.019040  0.465430  1.0  0.4512
  N  N14  1  0.692960  0.982640  0.471960  1.0  -0.4005
  N  N15  1  0.356990  0.439890  0.543810  1.0  -0.3138
  N  N16  1  0.274520  0.480960  0.534570  1.0  0.4507
  N  N17  1  0.192960  0.517360  0.528040  1.0  -0.4006
  N  N18  1  0.143010  0.560110  0.043810  1.0  -0.3155
  N  N19  1  0.225480  0.519040  0.034570  1.0  0.4503
  N  N20  1  0.307040  0.482640  0.028040  1.0  -0.3995
  N  N21  1  0.956190  0.643010  0.939890  1.0  -0.317
  N  N22  1  0.965430  0.725480  0.980960  1.0  0.4516
  N  N23  1  0.971960  0.807040  0.017360  1.0  -0.4033
  N  N24  1  0.456190  0.856990  0.060110  1.0  -0.3156
  N  N25  1  0.465430  0.774520  0.019040  1.0  0.453
  N  N26  1  0.471960  0.692960  0.982640  1.0  -0.4034
  N  N27  1  0.543810  0.356990  0.439890  1.0  -0.3139
  N  N28  1  0.534570  0.274520  0.480960  1.0  0.4517
  N  N29  1  0.528040  0.192960  0.517360  1.0  -0.4024
  N  N30  1  0.043810  0.143010  0.560110  1.0  -0.3137
  N  N31  1  0.034570  0.225480  0.519040  1.0  0.4507
  N  N32  1  0.028040  0.307040  0.482640  1.0  -0.403
  N  N33  1  0.939890  0.956190  0.643010  1.0  -0.3138
  N  N34  1  0.980960  0.965430  0.725480  1.0  0.451
  N  N35  1  0.017360  0.971960  0.807040  1.0  -0.4006
  N  N36  1  0.060110  0.456190  0.856990  1.0  -0.3147
  N  N37  1  0.019040  0.465430  0.774520  1.0  0.4503
  N  N38  1  0.982640  0.471960  0.692960  1.0  -0.4014
  N  N39  1  0.439890  0.543810  0.356990  1.0  -0.312
  N  N40  1  0.480960  0.534570  0.274520  1.0  0.4516
  N  N41  1  0.517360  0.528040  0.192960  1.0  -0.4013
  N  N42  1  0.560110  0.043810  0.143010  1.0  -0.3126
  N  N43  1  0.519040  0.034570  0.225480  1.0  0.4502
  N  N44  1  0.482640  0.028040  0.307040  1.0  -0.4012
  N  N45  1  0.356990  0.060110  0.043810  1.0  -0.3159
  N  N46  1  0.274520  0.019040  0.034570  1.0  0.4512
  N  N47  1  0.192960  0.982640  0.028040  1.0  -0.401
  N  N48  1  0.143010  0.939890  0.543810  1.0  -0.315
  N  N49  1  0.225480  0.980960  0.534570  1.0  0.4503
  N  N50  1  0.307040  0.017360  0.528040  1.0  -0.4006
  N  N51  1  0.643010  0.560110  0.456190  1.0  -0.3151
  N  N52  1  0.725480  0.519040  0.465430  1.0  0.4505
  N  N53  1  0.807040  0.482640  0.471960  1.0  -0.402
  N  N54  1  0.856990  0.439890  0.956190  1.0  -0.3163
  N  N55  1  0.774520  0.480960  0.965430  1.0  0.4511
  N  N56  1  0.692960  0.517360  0.971960  1.0  -0.4023
  N  N57  1  0.043810  0.356990  0.060110  1.0  -0.3142
  N  N58  1  0.034570  0.274520  0.019040  1.0  0.4519
  N  N59  1  0.028040  0.192960  0.982640  1.0  -0.4031
  N  N60  1  0.543810  0.143010  0.939890  1.0  -0.3167
  N  N61  1  0.534570  0.225480  0.980960  1.0  0.4507
  N  N62  1  0.528040  0.307040  0.017360  1.0  -0.4041
  N  N63  1  0.456190  0.643010  0.560110  1.0  -0.3181
  N  N64  1  0.465430  0.725480  0.519040  1.0  0.4517
  N  N65  1  0.471960  0.807040  0.482640  1.0  -0.4061
  N  N66  1  0.956190  0.856990  0.439890  1.0  -0.3183
  N  N67  1  0.965430  0.774520  0.480960  1.0  0.4527
  N  N68  1  0.971960  0.692960  0.517360  1.0  -0.4036
  N  N69  1  0.060110  0.043810  0.356990  1.0  -0.3137
  N  N70  1  0.019040  0.034570  0.274520  1.0  0.4507
  N  N71  1  0.982640  0.028040  0.192960  1.0  -0.4026
  N  N72  1  0.939890  0.543810  0.143010  1.0  -0.3137
  N  N73  1  0.980960  0.534570  0.225480  1.0  0.4513
  N  N74  1  0.017360  0.528040  0.307040  1.0  -0.4016
  N  N75  1  0.560110  0.456190  0.643010  1.0  -0.3165
  N  N76  1  0.519040  0.465430  0.725480  1.0  0.4499
  N  N77  1  0.482640  0.471960  0.807040  1.0  -0.4018
  N  N78  1  0.439890  0.956190  0.856990  1.0  -0.316
  N  N79  1  0.480960  0.965430  0.774520  1.0  0.4513
  N  N80  1  0.517360  0.971960  0.692960  1.0  -0.4025
