# generated using pymatgen
data_NaFeN18
_symmetry_space_group_name_H-M   'P 1'
_cell_length_a   12.79560000
_cell_length_b   12.79560000
_cell_length_c   12.79560000
_cell_angle_alpha   90.00000000
_cell_angle_beta   90.00000000
_cell_angle_gamma   90.00000000
_symmetry_Int_Tables_number   1
_chemical_formula_structural   NaFeN18
_chemical_formula_sum   'Na4 Fe4 N72'
_cell_volume   2094.99005534
_cell_formula_units_Z   4
loop_
 _symmetry_equiv_pos_site_id
 _symmetry_equiv_pos_as_xyz
  1  'x, y, z'
loop_
 _atom_site_type_symbol
 _atom_site_label
 _atom_site_symmetry_multiplicity
 _atom_site_fract_x
 _atom_site_fract_y
 _atom_site_fract_z
 _atom_site_occupancy
 _atom_site_charge
  Na  Na1  1  0.000000  0.000000  0.000000  1.0  0.953
  Na  Na2  1  0.500000  0.000000  0.500000  1.0  0.953
  Na  Na3  1  0.000000  0.500000  0.500000  1.0  0.953
  Na  Na4  1  0.500000  0.500000  0.000000  1.0  0.953
  Fe  Fe5  1  0.500000  0.000000  0.000000  1.0  0.657
  Fe  Fe6  1  0.000000  0.000000  0.500000  1.0  0.657
  Fe  Fe7  1  0.500000  0.500000  0.500000  1.0  0.657
  Fe  Fe8  1  0.000000  0.500000  0.000000  1.0  0.657
  N  N9  1  0.642840  0.937340  0.954940  1.0  -0.2958
  N  N10  1  0.725780  0.979660  0.963790  1.0  0.4339
  N  N11  1  0.807740  0.017890  0.970220  1.0  -0.407
  N  N12  1  0.857160  0.062660  0.454940  1.0  -0.2935
  N  N13  1  0.774220  0.020340  0.463790  1.0  0.4354
  N  N14  1  0.692260  0.982110  0.470220  1.0  -0.4063
  N  N15  1  0.357160  0.437340  0.545060  1.0  -0.2927
  N  N16  1  0.274220  0.479660  0.536210  1.0  0.435
  N  N17  1  0.192260  0.517890  0.529780  1.0  -0.4069
  N  N18  1  0.142840  0.562660  0.045060  1.0  -0.2947
  N  N19  1  0.225780  0.520340  0.036210  1.0  0.4343
  N  N20  1  0.307740  0.482110  0.029780  1.0  -0.406
  N  N21  1  0.954940  0.642840  0.937340  1.0  -0.2949
  N  N22  1  0.963790  0.725780  0.979660  1.0  0.4347
  N  N23  1  0.970220  0.807740  0.017890  1.0  -0.409
  N  N24  1  0.454940  0.857160  0.062660  1.0  -0.2938
  N  N25  1  0.463790  0.774220  0.020340  1.0  0.4354
  N  N26  1  0.470220  0.692260  0.982110  1.0  -0.4091
  N  N27  1  0.545060  0.357160  0.437340  1.0  -0.2925
  N  N28  1  0.536210  0.274220  0.479660  1.0  0.433
  N  N29  1  0.529780  0.192260  0.517890  1.0  -0.4081
  N  N30  1  0.045060  0.142840  0.562660  1.0  -0.2921
  N  N31  1  0.036210  0.225780  0.520340  1.0  0.4325
  N  N32  1  0.029780  0.307740  0.482110  1.0  -0.4088
  N  N33  1  0.937340  0.954940  0.642840  1.0  -0.292
  N  N34  1  0.979660  0.963790  0.725780  1.0  0.4337
  N  N35  1  0.017890  0.970220  0.807740  1.0  -0.406
  N  N36  1  0.062660  0.454940  0.857160  1.0  -0.2939
  N  N37  1  0.020340  0.463790  0.774220  1.0  0.4317
  N  N38  1  0.982110  0.470220  0.692260  1.0  -0.4069
  N  N39  1  0.437340  0.545060  0.357160  1.0  -0.2917
  N  N40  1  0.479660  0.536210  0.274220  1.0  0.4341
  N  N41  1  0.517890  0.529780  0.192260  1.0  -0.4077
  N  N42  1  0.562660  0.045060  0.142840  1.0  -0.2902
  N  N43  1  0.520340  0.036210  0.225780  1.0  0.4321
  N  N44  1  0.482110  0.029780  0.307740  1.0  -0.4065
  N  N45  1  0.357160  0.062660  0.045060  1.0  -0.2939
  N  N46  1  0.274220  0.020340  0.036210  1.0  0.4353
  N  N47  1  0.192260  0.982110  0.029780  1.0  -0.4069
  N  N48  1  0.142840  0.937340  0.545060  1.0  -0.2958
  N  N49  1  0.225780  0.979660  0.536210  1.0  0.4341
  N  N50  1  0.307740  0.017890  0.529780  1.0  -0.4069
  N  N51  1  0.642840  0.562660  0.454940  1.0  -0.2939
  N  N52  1  0.725780  0.520340  0.463790  1.0  0.4341
  N  N53  1  0.807740  0.482110  0.470220  1.0  -0.4077
  N  N54  1  0.857160  0.437340  0.954940  1.0  -0.296
  N  N55  1  0.774220  0.479660  0.963790  1.0  0.4351
  N  N56  1  0.692260  0.517890  0.970220  1.0  -0.4085
  N  N57  1  0.045060  0.357160  0.062660  1.0  -0.2938
  N  N58  1  0.036210  0.274220  0.020340  1.0  0.4331
  N  N59  1  0.029780  0.192260  0.982110  1.0  -0.4122
  N  N60  1  0.545060  0.142840  0.937340  1.0  -0.2945
  N  N61  1  0.536210  0.225780  0.979660  1.0  0.4325
  N  N62  1  0.529780  0.307740  0.017890  1.0  -0.4097
  N  N63  1  0.454940  0.642840  0.562660  1.0  -0.2947
  N  N64  1  0.463790  0.725780  0.520340  1.0  0.4347
  N  N65  1  0.470220  0.807740  0.482110  1.0  -0.4125
  N  N66  1  0.954940  0.857160  0.437340  1.0  -0.2964
  N  N67  1  0.963790  0.774220  0.479660  1.0  0.4353
  N  N68  1  0.970220  0.692260  0.517890  1.0  -0.4121
  N  N69  1  0.062660  0.045060  0.357160  1.0  -0.2941
  N  N70  1  0.020340  0.036210  0.274220  1.0  0.4322
  N  N71  1  0.982110  0.029780  0.192260  1.0  -0.4092
  N  N72  1  0.937340  0.545060  0.142840  1.0  -0.2922
  N  N73  1  0.979660  0.536210  0.225780  1.0  0.4341
  N  N74  1  0.017890  0.529780  0.307740  1.0  -0.4073
  N  N75  1  0.562660  0.454940  0.642840  1.0  -0.2941
  N  N76  1  0.520340  0.463790  0.725780  1.0  0.4316
  N  N77  1  0.482110  0.470220  0.807740  1.0  -0.407
  N  N78  1  0.437340  0.954940  0.857160  1.0  -0.2958
  N  N79  1  0.479660  0.963790  0.774220  1.0  0.4337
  N  N80  1  0.517890  0.970220  0.692260  1.0  -0.4098
