# generated using pymatgen
data_NaFeN18
_symmetry_space_group_name_H-M   'P 1'
_cell_length_a   12.85500000
_cell_length_b   12.85500000
_cell_length_c   12.85500000
_cell_angle_alpha   90.00000000
_cell_angle_beta   90.00000000
_cell_angle_gamma   90.00000000
_symmetry_Int_Tables_number   1
_chemical_formula_structural   NaFeN18
_chemical_formula_sum   'Na4 Fe4 N72'
_cell_volume   2124.30192638
_cell_formula_units_Z   4
loop_
 _symmetry_equiv_pos_site_id
 _symmetry_equiv_pos_as_xyz
  1  'x, y, z'
loop_
 _atom_site_type_symbol
 _atom_site_label
 _atom_site_symmetry_multiplicity
 _atom_site_fract_x
 _atom_site_fract_y
 _atom_site_fract_z
 _atom_site_occupancy
 _atom_site_charge
  Na  Na1  1  0.000000  0.000000  0.000000  1.0  0.9601
  Na  Na2  1  0.500000  0.000000  0.500000  1.0  0.9601
  Na  Na3  1  0.000000  0.500000  0.500000  1.0  0.9601
  Na  Na4  1  0.500000  0.500000  0.000000  1.0  0.9601
  Fe  Fe5  1  0.500000  0.000000  0.000000  1.0  0.6624
  Fe  Fe6  1  0.000000  0.000000  0.500000  1.0  0.6624
  Fe  Fe7  1  0.500000  0.500000  0.500000  1.0  0.6624
  Fe  Fe8  1  0.000000  0.500000  0.000000  1.0  0.6624
  N  N9  1  0.643050  0.939170  0.955790  1.0  -0.3023
  N  N10  1  0.725590  0.980560  0.964800  1.0  0.4346
  N  N11  1  0.807300  0.017610  0.971360  1.0  -0.4015
  N  N12  1  0.856950  0.060830  0.455790  1.0  -0.3028
  N  N13  1  0.774410  0.019440  0.464800  1.0  0.4366
  N  N14  1  0.692700  0.982390  0.471360  1.0  -0.4015
  N  N15  1  0.356950  0.439170  0.544210  1.0  -0.3018
  N  N16  1  0.274410  0.480560  0.535200  1.0  0.4367
  N  N17  1  0.192700  0.517610  0.528640  1.0  -0.4015
  N  N18  1  0.143050  0.560830  0.044210  1.0  -0.3021
  N  N19  1  0.225590  0.519440  0.035200  1.0  0.4347
  N  N20  1  0.307300  0.482390  0.028640  1.0  -0.401
  N  N21  1  0.955790  0.643050  0.939170  1.0  -0.3051
  N  N22  1  0.964800  0.725590  0.980560  1.0  0.4357
  N  N23  1  0.971360  0.807300  0.017610  1.0  -0.4037
  N  N24  1  0.455790  0.856950  0.060830  1.0  -0.3021
  N  N25  1  0.464800  0.774410  0.019440  1.0  0.4363
  N  N26  1  0.471360  0.692700  0.982390  1.0  -0.4036
  N  N27  1  0.544210  0.356950  0.439170  1.0  -0.3042
  N  N28  1  0.535200  0.274410  0.480560  1.0  0.4341
  N  N29  1  0.528640  0.192700  0.517610  1.0  -0.4028
  N  N30  1  0.044210  0.143050  0.560830  1.0  -0.3024
  N  N31  1  0.035200  0.225590  0.519440  1.0  0.4336
  N  N32  1  0.028640  0.307300  0.482390  1.0  -0.4034
  N  N33  1  0.939170  0.955790  0.643050  1.0  -0.3012
  N  N34  1  0.980560  0.964800  0.725590  1.0  0.4351
  N  N35  1  0.017610  0.971360  0.807300  1.0  -0.4016
  N  N36  1  0.060830  0.455790  0.856950  1.0  -0.2999
  N  N37  1  0.019440  0.464800  0.774410  1.0  0.4334
  N  N38  1  0.982390  0.471360  0.692700  1.0  -0.4025
  N  N39  1  0.439170  0.544210  0.356950  1.0  -0.2993
  N  N40  1  0.480560  0.535200  0.274410  1.0  0.4353
  N  N41  1  0.517610  0.528640  0.192700  1.0  -0.4032
  N  N42  1  0.560830  0.044210  0.143050  1.0  -0.3001
  N  N43  1  0.519440  0.035200  0.225590  1.0  0.4334
  N  N44  1  0.482390  0.028640  0.307300  1.0  -0.4022
  N  N45  1  0.356950  0.060830  0.044210  1.0  -0.3035
  N  N46  1  0.274410  0.019440  0.035200  1.0  0.4366
  N  N47  1  0.192700  0.982390  0.028640  1.0  -0.4015
  N  N48  1  0.143050  0.939170  0.544210  1.0  -0.3026
  N  N49  1  0.225590  0.980560  0.535200  1.0  0.4348
  N  N50  1  0.307300  0.017610  0.528640  1.0  -0.4017
  N  N51  1  0.643050  0.560830  0.455790  1.0  -0.3017
  N  N52  1  0.725590  0.519440  0.464800  1.0  0.4345
  N  N53  1  0.807300  0.482390  0.471360  1.0  -0.4018
  N  N54  1  0.856950  0.439170  0.955790  1.0  -0.304
  N  N55  1  0.774410  0.480560  0.964800  1.0  0.4367
  N  N56  1  0.692700  0.517610  0.971360  1.0  -0.4031
  N  N57  1  0.044210  0.356950  0.060830  1.0  -0.3021
  N  N58  1  0.035200  0.274410  0.019440  1.0  0.4341
  N  N59  1  0.028640  0.192700  0.982390  1.0  -0.404
  N  N60  1  0.544210  0.143050  0.939170  1.0  -0.3048
  N  N61  1  0.535200  0.225590  0.980560  1.0  0.4337
  N  N62  1  0.528640  0.307300  0.017610  1.0  -0.4072
  N  N63  1  0.455790  0.643050  0.560830  1.0  -0.3043
  N  N64  1  0.464800  0.725590  0.519440  1.0  0.4356
  N  N65  1  0.471360  0.807300  0.482390  1.0  -0.4045
  N  N66  1  0.955790  0.856950  0.439170  1.0  -0.3041
  N  N67  1  0.964800  0.774410  0.480560  1.0  0.4363
  N  N68  1  0.971360  0.692700  0.517610  1.0  -0.4067
  N  N69  1  0.060830  0.044210  0.356950  1.0  -0.3
  N  N70  1  0.019440  0.035200  0.274410  1.0  0.4336
  N  N71  1  0.982390  0.028640  0.192700  1.0  -0.4038
  N  N72  1  0.939170  0.544210  0.143050  1.0  -0.3013
  N  N73  1  0.980560  0.535200  0.225590  1.0  0.4352
  N  N74  1  0.017610  0.528640  0.307300  1.0  -0.4031
  N  N75  1  0.560830  0.455790  0.643050  1.0  -0.3037
  N  N76  1  0.519440  0.464800  0.725590  1.0  0.4333
  N  N77  1  0.482390  0.471360  0.807300  1.0  -0.4023
  N  N78  1  0.439170  0.955790  0.856950  1.0  -0.3012
  N  N79  1  0.480560  0.964800  0.774410  1.0  0.4352
  N  N80  1  0.517610  0.971360  0.692700  1.0  -0.4048
