# generated using pymatgen
data_NaFeN18
_symmetry_space_group_name_H-M   'P 1'
_cell_length_a   12.91470000
_cell_length_b   12.91470000
_cell_length_c   12.91470000
_cell_angle_alpha   90.00000000
_cell_angle_beta   90.00000000
_cell_angle_gamma   90.00000000
_symmetry_Int_Tables_number   1
_chemical_formula_structural   NaFeN18
_chemical_formula_sum   'Na4 Fe4 N72'
_cell_volume   2154.03604686
_cell_formula_units_Z   4
loop_
 _symmetry_equiv_pos_site_id
 _symmetry_equiv_pos_as_xyz
  1  'x, y, z'
loop_
 _atom_site_type_symbol
 _atom_site_label
 _atom_site_symmetry_multiplicity
 _atom_site_fract_x
 _atom_site_fract_y
 _atom_site_fract_z
 _atom_site_occupancy
 _atom_site_charge
  Na  Na1  1  0.000000  0.000000  0.000000  1.0  0.9394
  Na  Na2  1  0.500000  0.000000  0.500000  1.0  0.9394
  Na  Na3  1  0.000000  0.500000  0.500000  1.0  0.9394
  Na  Na4  1  0.500000  0.500000  0.000000  1.0  0.9394
  Fe  Fe5  1  0.500000  0.000000  0.000000  1.0  0.6508
  Fe  Fe6  1  0.000000  0.000000  0.500000  1.0  0.6508
  Fe  Fe7  1  0.500000  0.500000  0.500000  1.0  0.6508
  Fe  Fe8  1  0.000000  0.500000  0.000000  1.0  0.6508
  N  N9  1  0.643110  0.940680  0.956660  1.0  -0.3116
  N  N10  1  0.725500  0.981550  0.966280  1.0  0.4568
  N  N11  1  0.806850  0.016920  0.972850  1.0  -0.4143
  N  N12  1  0.856890  0.059320  0.456660  1.0  -0.3143
  N  N13  1  0.774500  0.018450  0.466280  1.0  0.4585
  N  N14  1  0.693150  0.983080  0.472850  1.0  -0.4127
  N  N15  1  0.356890  0.440680  0.543340  1.0  -0.3096
  N  N16  1  0.274500  0.481550  0.533720  1.0  0.4586
  N  N17  1  0.193150  0.516920  0.527150  1.0  -0.4135
  N  N18  1  0.143110  0.559320  0.043340  1.0  -0.3093
  N  N19  1  0.225500  0.518450  0.033720  1.0  0.4577
  N  N20  1  0.306850  0.483080  0.027150  1.0  -0.4143
  N  N21  1  0.956660  0.643110  0.940680  1.0  -0.3092
  N  N22  1  0.966280  0.725500  0.981550  1.0  0.4578
  N  N23  1  0.972850  0.806850  0.016920  1.0  -0.4153
  N  N24  1  0.456660  0.856890  0.059320  1.0  -0.3086
  N  N25  1  0.466280  0.774500  0.018450  1.0  0.459
  N  N26  1  0.472850  0.693150  0.983080  1.0  -0.4158
  N  N27  1  0.543340  0.356890  0.440680  1.0  -0.3088
  N  N28  1  0.533720  0.274500  0.481550  1.0  0.4575
  N  N29  1  0.527150  0.193150  0.516920  1.0  -0.4148
  N  N30  1  0.043340  0.143110  0.559320  1.0  -0.3066
  N  N31  1  0.033720  0.225500  0.518450  1.0  0.4567
  N  N32  1  0.027150  0.306850  0.483080  1.0  -0.4146
  N  N33  1  0.940680  0.956660  0.643110  1.0  -0.3079
  N  N34  1  0.981550  0.966280  0.725500  1.0  0.4573
  N  N35  1  0.016920  0.972850  0.806850  1.0  -0.4144
  N  N36  1  0.059320  0.456660  0.856890  1.0  -0.3059
  N  N37  1  0.018450  0.466280  0.774500  1.0  0.4575
  N  N38  1  0.983080  0.472850  0.693150  1.0  -0.413
  N  N39  1  0.440680  0.543340  0.356890  1.0  -0.3075
  N  N40  1  0.481550  0.533720  0.274500  1.0  0.4585
  N  N41  1  0.516920  0.527150  0.193150  1.0  -0.415
  N  N42  1  0.559320  0.043340  0.143110  1.0  -0.3043
  N  N43  1  0.518450  0.033720  0.225500  1.0  0.4575
  N  N44  1  0.483080  0.027150  0.306850  1.0  -0.4138
  N  N45  1  0.356890  0.059320  0.043340  1.0  -0.3086
  N  N46  1  0.274500  0.018450  0.033720  1.0  0.4584
  N  N47  1  0.193150  0.983080  0.027150  1.0  -0.4125
  N  N48  1  0.143110  0.940680  0.543340  1.0  -0.308
  N  N49  1  0.225500  0.981550  0.533720  1.0  0.4569
  N  N50  1  0.306850  0.016920  0.527150  1.0  -0.4142
  N  N51  1  0.643110  0.559320  0.456660  1.0  -0.3121
  N  N52  1  0.725500  0.518450  0.466280  1.0  0.4579
  N  N53  1  0.806850  0.483080  0.472850  1.0  -0.4145
  N  N54  1  0.856890  0.440680  0.956660  1.0  -0.3145
  N  N55  1  0.774500  0.481550  0.966280  1.0  0.4585
  N  N56  1  0.693150  0.516920  0.972850  1.0  -0.4128
  N  N57  1  0.043340  0.356890  0.059320  1.0  -0.3061
  N  N58  1  0.033720  0.274500  0.018450  1.0  0.4575
  N  N59  1  0.027150  0.193150  0.983080  1.0  -0.4142
  N  N60  1  0.543340  0.143110  0.940680  1.0  -0.3088
  N  N61  1  0.533720  0.225500  0.981550  1.0  0.4568
  N  N62  1  0.527150  0.306850  0.016920  1.0  -0.4153
  N  N63  1  0.456660  0.643110  0.559320  1.0  -0.3092
  N  N64  1  0.466280  0.725500  0.518450  1.0  0.4578
  N  N65  1  0.472850  0.806850  0.483080  1.0  -0.415
  N  N66  1  0.956660  0.856890  0.440680  1.0  -0.3116
  N  N67  1  0.966280  0.774500  0.481550  1.0  0.4592
  N  N68  1  0.972850  0.693150  0.516920  1.0  -0.4137
  N  N69  1  0.059320  0.043340  0.356890  1.0  -0.3061
  N  N70  1  0.018450  0.033720  0.274500  1.0  0.4583
  N  N71  1  0.983080  0.027150  0.193150  1.0  -0.4132
  N  N72  1  0.940680  0.543340  0.143110  1.0  -0.3054
  N  N73  1  0.981550  0.533720  0.225500  1.0  0.4576
  N  N74  1  0.016920  0.527150  0.306850  1.0  -0.4144
  N  N75  1  0.559320  0.456660  0.643110  1.0  -0.3072
  N  N76  1  0.518450  0.466280  0.725500  1.0  0.4579
  N  N77  1  0.483080  0.472850  0.806850  1.0  -0.414
  N  N78  1  0.440680  0.956660  0.856890  1.0  -0.3098
  N  N79  1  0.481550  0.966280  0.774500  1.0  0.4582
  N  N80  1  0.516920  0.972850  0.693150  1.0  -0.413
