# generated using pymatgen
data_KFeN18
_symmetry_space_group_name_H-M   'P 1'
_cell_length_a   13.24000000
_cell_length_b   13.24000000
_cell_length_c   13.24000000
_cell_angle_alpha   90.00000000
_cell_angle_beta   90.00000000
_cell_angle_gamma   90.00000000
_symmetry_Int_Tables_number   1
_chemical_formula_structural   KFeN18
_chemical_formula_sum   'K4 Fe4 N72'
_cell_volume   2320.94022400
_cell_formula_units_Z   4
loop_
 _symmetry_equiv_pos_site_id
 _symmetry_equiv_pos_as_xyz
  1  'x, y, z'
loop_
 _atom_site_type_symbol
 _atom_site_label
 _atom_site_symmetry_multiplicity
 _atom_site_fract_x
 _atom_site_fract_y
 _atom_site_fract_z
 _atom_site_occupancy
 _atom_site_charge
  K  K1  1  0.000000  0.000000  0.000000  1.0  0.9929
  K  K2  1  0.500000  0.000000  0.500000  1.0  0.9929
  K  K3  1  0.000000  0.500000  0.500000  1.0  0.9929
  K  K4  1  0.500000  0.500000  0.000000  1.0  0.9929
  Fe  Fe5  1  0.500000  0.000000  0.000000  1.0  0.6112
  Fe  Fe6  1  0.000000  0.000000  0.500000  1.0  0.6112
  Fe  Fe7  1  0.500000  0.500000  0.500000  1.0  0.6112
  Fe  Fe8  1  0.000000  0.500000  0.000000  1.0  0.6112
  N  N9  1  0.636990  0.936960  0.955810  1.0  -0.2934
  N  N10  1  0.715690  0.980820  0.962360  1.0  0.4478
  N  N11  1  0.792400  0.020400  0.966300  1.0  -0.4225
  N  N12  1  0.863010  0.063040  0.455810  1.0  -0.2985
  N  N13  1  0.784310  0.019180  0.462360  1.0  0.4495
  N  N14  1  0.707600  0.979600  0.466300  1.0  -0.4204
  N  N15  1  0.363010  0.436960  0.544190  1.0  -0.2934
  N  N16  1  0.284310  0.480820  0.537640  1.0  0.4489
  N  N17  1  0.207600  0.520400  0.533700  1.0  -0.4214
  N  N18  1  0.136990  0.563040  0.044190  1.0  -0.295
  N  N19  1  0.215690  0.519180  0.037640  1.0  0.4481
  N  N20  1  0.292400  0.479600  0.033700  1.0  -0.4213
  N  N21  1  0.955810  0.636990  0.936960  1.0  -0.2925
  N  N22  1  0.962360  0.715690  0.980820  1.0  0.4489
  N  N23  1  0.966300  0.792400  0.020400  1.0  -0.4237
  N  N24  1  0.455810  0.863010  0.063040  1.0  -0.2952
  N  N25  1  0.462360  0.784310  0.019180  1.0  0.4523
  N  N26  1  0.466300  0.707600  0.979600  1.0  -0.4238
  N  N27  1  0.544190  0.363010  0.436960  1.0  -0.2917
  N  N28  1  0.537640  0.284310  0.480820  1.0  0.451
  N  N29  1  0.533700  0.207600  0.520400  1.0  -0.4231
  N  N30  1  0.044190  0.136990  0.563040  1.0  -0.2916
  N  N31  1  0.037640  0.215690  0.519180  1.0  0.4482
  N  N32  1  0.033700  0.292400  0.479600  1.0  -0.4231
  N  N33  1  0.936960  0.955810  0.636990  1.0  -0.2905
  N  N34  1  0.980820  0.962360  0.715690  1.0  0.4492
  N  N35  1  0.020400  0.966300  0.792400  1.0  -0.4221
  N  N36  1  0.063040  0.455810  0.863010  1.0  -0.2961
  N  N37  1  0.019180  0.462360  0.784310  1.0  0.4494
  N  N38  1  0.979600  0.466300  0.707600  1.0  -0.4213
  N  N39  1  0.436960  0.544190  0.363010  1.0  -0.2925
  N  N40  1  0.480820  0.537640  0.284310  1.0  0.4495
  N  N41  1  0.520400  0.533700  0.207600  1.0  -0.4213
  N  N42  1  0.563040  0.044190  0.136990  1.0  -0.2915
  N  N43  1  0.519180  0.037640  0.215690  1.0  0.449
  N  N44  1  0.479600  0.033700  0.292400  1.0  -0.4212
  N  N45  1  0.363010  0.063040  0.044190  1.0  -0.2949
  N  N46  1  0.284310  0.019180  0.037640  1.0  0.4493
  N  N47  1  0.207600  0.979600  0.033700  1.0  -0.4205
  N  N48  1  0.136990  0.936960  0.544190  1.0  -0.2936
  N  N49  1  0.215690  0.980820  0.537640  1.0  0.4478
  N  N50  1  0.292400  0.020400  0.533700  1.0  -0.4224
  N  N51  1  0.636990  0.563040  0.455810  1.0  -0.2949
  N  N52  1  0.715690  0.519180  0.462360  1.0  0.4481
  N  N53  1  0.792400  0.479600  0.466300  1.0  -0.4214
  N  N54  1  0.863010  0.436960  0.955810  1.0  -0.2982
  N  N55  1  0.784310  0.480820  0.962360  1.0  0.4491
  N  N56  1  0.707600  0.520400  0.966300  1.0  -0.4213
  N  N57  1  0.044190  0.363010  0.063040  1.0  -0.2916
  N  N58  1  0.037640  0.284310  0.019180  1.0  0.451
  N  N59  1  0.033700  0.207600  0.979600  1.0  -0.4267
  N  N60  1  0.544190  0.136990  0.936960  1.0  -0.2927
  N  N61  1  0.537640  0.215690  0.980820  1.0  0.4479
  N  N62  1  0.533700  0.292400  0.020400  1.0  -0.4267
  N  N63  1  0.455810  0.636990  0.563040  1.0  -0.2956
  N  N64  1  0.462360  0.715690  0.519180  1.0  0.4492
  N  N65  1  0.466300  0.792400  0.479600  1.0  -0.4263
  N  N66  1  0.955810  0.863010  0.436960  1.0  -0.2969
  N  N67  1  0.962360  0.784310  0.480820  1.0  0.4524
  N  N68  1  0.966300  0.707600  0.520400  1.0  -0.4263
  N  N69  1  0.063040  0.044190  0.363010  1.0  -0.2923
  N  N70  1  0.019180  0.037640  0.284310  1.0  0.4495
  N  N71  1  0.979600  0.033700  0.207600  1.0  -0.4215
  N  N72  1  0.936960  0.544190  0.136990  1.0  -0.2905
  N  N73  1  0.980820  0.537640  0.215690  1.0  0.4492
  N  N74  1  0.020400  0.533700  0.292400  1.0  -0.4221
  N  N75  1  0.563040  0.455810  0.636990  1.0  -0.2964
  N  N76  1  0.519180  0.462360  0.715690  1.0  0.4491
  N  N77  1  0.479600  0.466300  0.792400  1.0  -0.4217
  N  N78  1  0.436960  0.955810  0.863010  1.0  -0.2972
  N  N79  1  0.480820  0.962360  0.784310  1.0  0.4493
  N  N80  1  0.520400  0.966300  0.707600  1.0  -0.4216
