# generated using pymatgen
data_KFeN18
_symmetry_space_group_name_H-M   'P 1'
_cell_length_a   13.25300000
_cell_length_b   13.25300000
_cell_length_c   13.25300000
_cell_angle_alpha   90.00000000
_cell_angle_beta   90.00000000
_cell_angle_gamma   90.00000000
_symmetry_Int_Tables_number   1
_chemical_formula_structural   KFeN18
_chemical_formula_sum   'K4 Fe4 N72'
_cell_volume   2327.78354528
_cell_formula_units_Z   4
loop_
 _symmetry_equiv_pos_site_id
 _symmetry_equiv_pos_as_xyz
  1  'x, y, z'
loop_
 _atom_site_type_symbol
 _atom_site_label
 _atom_site_symmetry_multiplicity
 _atom_site_fract_x
 _atom_site_fract_y
 _atom_site_fract_z
 _atom_site_occupancy
 _atom_site_charge
  K  K1  1  0.000000  0.000000  0.000000  1.0  0.9862
  K  K2  1  0.500000  0.000000  0.500000  1.0  0.9862
  K  K3  1  0.000000  0.500000  0.500000  1.0  0.9862
  K  K4  1  0.500000  0.500000  0.000000  1.0  0.9862
  Fe  Fe5  1  0.500000  0.000000  0.000000  1.0  0.607
  Fe  Fe6  1  0.000000  0.000000  0.500000  1.0  0.607
  Fe  Fe7  1  0.500000  0.500000  0.500000  1.0  0.607
  Fe  Fe8  1  0.000000  0.500000  0.000000  1.0  0.607
  N  N9  1  0.636790  0.937120  0.956020  1.0  -0.282
  N  N10  1  0.715900  0.981300  0.963100  1.0  0.4435
  N  N11  1  0.792400  0.020600  0.967900  1.0  -0.4315
  N  N12  1  0.863210  0.062880  0.456020  1.0  -0.2826
  N  N13  1  0.784100  0.018700  0.463100  1.0  0.4455
  N  N14  1  0.707600  0.979400  0.467900  1.0  -0.4289
  N  N15  1  0.363210  0.437120  0.543980  1.0  -0.281
  N  N16  1  0.284100  0.481300  0.536900  1.0  0.4449
  N  N17  1  0.207600  0.520600  0.532100  1.0  -0.4299
  N  N18  1  0.136790  0.562880  0.043980  1.0  -0.2838
  N  N19  1  0.215900  0.518700  0.036900  1.0  0.4438
  N  N20  1  0.292400  0.479400  0.032100  1.0  -0.4295
  N  N21  1  0.956020  0.636790  0.937120  1.0  -0.2811
  N  N22  1  0.963100  0.715900  0.981300  1.0  0.4443
  N  N23  1  0.967900  0.792400  0.020600  1.0  -0.4304
  N  N24  1  0.456020  0.863210  0.062880  1.0  -0.2795
  N  N25  1  0.463100  0.784100  0.018700  1.0  0.448
  N  N26  1  0.467900  0.707600  0.979400  1.0  -0.4302
  N  N27  1  0.543980  0.363210  0.437120  1.0  -0.281
  N  N28  1  0.536900  0.284100  0.481300  1.0  0.4467
  N  N29  1  0.532100  0.207600  0.520600  1.0  -0.4294
  N  N30  1  0.043980  0.136790  0.562880  1.0  -0.2798
  N  N31  1  0.036900  0.215900  0.518700  1.0  0.4432
  N  N32  1  0.032100  0.292400  0.479400  1.0  -0.4293
  N  N33  1  0.937120  0.956020  0.636790  1.0  -0.279
  N  N34  1  0.981300  0.963100  0.715900  1.0  0.4451
  N  N35  1  0.020600  0.967900  0.792400  1.0  -0.4304
  N  N36  1  0.062880  0.456020  0.863210  1.0  -0.2802
  N  N37  1  0.018700  0.463100  0.784100  1.0  0.4449
  N  N38  1  0.979400  0.467900  0.707600  1.0  -0.4286
  N  N39  1  0.437120  0.543980  0.363210  1.0  -0.2798
  N  N40  1  0.481300  0.536900  0.284100  1.0  0.4452
  N  N41  1  0.520600  0.532100  0.207600  1.0  -0.4284
  N  N42  1  0.562880  0.043980  0.136790  1.0  -0.2804
  N  N43  1  0.518700  0.036900  0.215900  1.0  0.4447
  N  N44  1  0.479400  0.032100  0.292400  1.0  -0.4289
  N  N45  1  0.363210  0.062880  0.043980  1.0  -0.2826
  N  N46  1  0.284100  0.018700  0.036900  1.0  0.4453
  N  N47  1  0.207600  0.979400  0.032100  1.0  -0.4288
  N  N48  1  0.136790  0.937120  0.543980  1.0  -0.282
  N  N49  1  0.215900  0.981300  0.536900  1.0  0.4436
  N  N50  1  0.292400  0.020600  0.532100  1.0  -0.4309
  N  N51  1  0.636790  0.562880  0.456020  1.0  -0.2837
  N  N52  1  0.715900  0.518700  0.463100  1.0  0.4437
  N  N53  1  0.792400  0.479400  0.467900  1.0  -0.4303
  N  N54  1  0.863210  0.437120  0.956020  1.0  -0.281
  N  N55  1  0.784100  0.481300  0.963100  1.0  0.445
  N  N56  1  0.707600  0.520600  0.967900  1.0  -0.43
  N  N57  1  0.043980  0.363210  0.062880  1.0  -0.2795
  N  N58  1  0.036900  0.284100  0.018700  1.0  0.4465
  N  N59  1  0.032100  0.207600  0.979400  1.0  -0.4299
  N  N60  1  0.543980  0.136790  0.937120  1.0  -0.281
  N  N61  1  0.536900  0.215900  0.981300  1.0  0.4431
  N  N62  1  0.532100  0.292400  0.020600  1.0  -0.4298
  N  N63  1  0.456020  0.636790  0.562880  1.0  -0.28
  N  N64  1  0.463100  0.715900  0.518700  1.0  0.4444
  N  N65  1  0.467900  0.792400  0.479400  1.0  -0.4303
  N  N66  1  0.956020  0.863210  0.437120  1.0  -0.2809
  N  N67  1  0.963100  0.784100  0.481300  1.0  0.4482
  N  N68  1  0.967900  0.707600  0.520600  1.0  -0.4296
  N  N69  1  0.062880  0.043980  0.363210  1.0  -0.2801
  N  N70  1  0.018700  0.036900  0.284100  1.0  0.445
  N  N71  1  0.979400  0.032100  0.207600  1.0  -0.4287
  N  N72  1  0.937120  0.543980  0.136790  1.0  -0.2791
  N  N73  1  0.981300  0.536900  0.215900  1.0  0.4451
  N  N74  1  0.020600  0.532100  0.292400  1.0  -0.4298
  N  N75  1  0.562880  0.456020  0.636790  1.0  -0.2804
  N  N76  1  0.518700  0.463100  0.715900  1.0  0.4448
  N  N77  1  0.479400  0.467900  0.792400  1.0  -0.4296
  N  N78  1  0.437120  0.956020  0.863210  1.0  -0.2795
  N  N79  1  0.481300  0.963100  0.784100  1.0  0.4451
  N  N80  1  0.520600  0.967900  0.707600  1.0  -0.4287
