# generated using pymatgen
data_KFeN18
_symmetry_space_group_name_H-M   'P 1'
_cell_length_a   13.22350000
_cell_length_b   13.22350000
_cell_length_c   13.22350000
_cell_angle_alpha   90.00000000
_cell_angle_beta   90.00000000
_cell_angle_gamma   90.00000000
_symmetry_Int_Tables_number   1
_chemical_formula_structural   KFeN18
_chemical_formula_sum   'K4 Fe4 N72'
_cell_volume   2312.27380208
_cell_formula_units_Z   4
loop_
 _symmetry_equiv_pos_site_id
 _symmetry_equiv_pos_as_xyz
  1  'x, y, z'
loop_
 _atom_site_type_symbol
 _atom_site_label
 _atom_site_symmetry_multiplicity
 _atom_site_fract_x
 _atom_site_fract_y
 _atom_site_fract_z
 _atom_site_occupancy
 _atom_site_charge
  K  K1  1  0.000000  0.000000  0.000000  1.0  0.9956
  K  K2  1  0.500000  0.000000  0.500000  1.0  0.9956
  K  K3  1  0.000000  0.500000  0.500000  1.0  0.9956
  K  K4  1  0.500000  0.500000  0.000000  1.0  0.9956
  Fe  Fe5  1  0.500000  0.000000  0.000000  1.0  0.616
  Fe  Fe6  1  0.000000  0.000000  0.500000  1.0  0.616
  Fe  Fe7  1  0.500000  0.500000  0.500000  1.0  0.616
  Fe  Fe8  1  0.000000  0.500000  0.000000  1.0  0.616
  N  N9  1  0.637120  0.936570  0.955440  1.0  -0.2994
  N  N10  1  0.715520  0.980610  0.961620  1.0  0.4549
  N  N11  1  0.792470  0.020800  0.965700  1.0  -0.4251
  N  N12  1  0.862880  0.063430  0.455440  1.0  -0.3006
  N  N13  1  0.784480  0.019390  0.461620  1.0  0.4577
  N  N14  1  0.707530  0.979200  0.465700  1.0  -0.4237
  N  N15  1  0.362880  0.436570  0.544560  1.0  -0.299
  N  N16  1  0.284480  0.480610  0.538380  1.0  0.4567
  N  N17  1  0.207530  0.520800  0.534300  1.0  -0.4246
  N  N18  1  0.137120  0.563430  0.044560  1.0  -0.2997
  N  N19  1  0.215520  0.519390  0.038380  1.0  0.4552
  N  N20  1  0.292470  0.479200  0.034300  1.0  -0.4242
  N  N21  1  0.955440  0.637120  0.936570  1.0  -0.3008
  N  N22  1  0.961620  0.715520  0.980610  1.0  0.4557
  N  N23  1  0.965700  0.792470  0.020800  1.0  -0.4264
  N  N24  1  0.455440  0.862880  0.063430  1.0  -0.2994
  N  N25  1  0.461620  0.784480  0.019390  1.0  0.4594
  N  N26  1  0.465700  0.707530  0.979200  1.0  -0.4267
  N  N27  1  0.544560  0.362880  0.436570  1.0  -0.2982
  N  N28  1  0.538380  0.284480  0.480610  1.0  0.4582
  N  N29  1  0.534300  0.207530  0.520800  1.0  -0.4261
  N  N30  1  0.044560  0.137120  0.563430  1.0  -0.2977
  N  N31  1  0.038380  0.215520  0.519390  1.0  0.4546
  N  N32  1  0.034300  0.292470  0.479200  1.0  -0.4259
  N  N33  1  0.936570  0.955440  0.637120  1.0  -0.2987
  N  N34  1  0.980610  0.961620  0.715520  1.0  0.456
  N  N35  1  0.020800  0.965700  0.792470  1.0  -0.4252
  N  N36  1  0.063430  0.455440  0.862880  1.0  -0.2975
  N  N37  1  0.019390  0.461620  0.784480  1.0  0.4567
  N  N38  1  0.979200  0.465700  0.707530  1.0  -0.4252
  N  N39  1  0.436570  0.544560  0.362880  1.0  -0.2975
  N  N40  1  0.480610  0.538380  0.284480  1.0  0.4566
  N  N41  1  0.520800  0.534300  0.207530  1.0  -0.4252
  N  N42  1  0.563430  0.044560  0.137120  1.0  -0.2974
  N  N43  1  0.519390  0.038380  0.215520  1.0  0.4557
  N  N44  1  0.479200  0.034300  0.292470  1.0  -0.4244
  N  N45  1  0.362880  0.063430  0.044560  1.0  -0.3026
  N  N46  1  0.284480  0.019390  0.038380  1.0  0.4574
  N  N47  1  0.207530  0.979200  0.034300  1.0  -0.4238
  N  N48  1  0.137120  0.936570  0.544560  1.0  -0.2981
  N  N49  1  0.215520  0.980610  0.538380  1.0  0.4548
  N  N50  1  0.292470  0.020800  0.534300  1.0  -0.425
  N  N51  1  0.637120  0.563430  0.455440  1.0  -0.2993
  N  N52  1  0.715520  0.519390  0.461620  1.0  0.4553
  N  N53  1  0.792470  0.479200  0.465700  1.0  -0.4242
  N  N54  1  0.862880  0.436570  0.955440  1.0  -0.3003
  N  N55  1  0.784480  0.480610  0.961620  1.0  0.457
  N  N56  1  0.707530  0.520800  0.965700  1.0  -0.4246
  N  N57  1  0.044560  0.362880  0.063430  1.0  -0.3
  N  N58  1  0.038380  0.284480  0.019390  1.0  0.4579
  N  N59  1  0.034300  0.207530  0.979200  1.0  -0.4295
  N  N60  1  0.544560  0.137120  0.936570  1.0  -0.2979
  N  N61  1  0.538380  0.215520  0.980610  1.0  0.4546
  N  N62  1  0.534300  0.292470  0.020800  1.0  -0.4293
  N  N63  1  0.455440  0.637120  0.563430  1.0  -0.3022
  N  N64  1  0.461620  0.715520  0.519390  1.0  0.4557
  N  N65  1  0.465700  0.792470  0.479200  1.0  -0.429
  N  N66  1  0.955440  0.862880  0.436570  1.0  -0.2999
  N  N67  1  0.961620  0.784480  0.480610  1.0  0.4597
  N  N68  1  0.965700  0.707530  0.520800  1.0  -0.4291
  N  N69  1  0.063430  0.044560  0.362880  1.0  -0.2991
  N  N70  1  0.019390  0.038380  0.284480  1.0  0.4565
  N  N71  1  0.979200  0.034300  0.207530  1.0  -0.4257
  N  N72  1  0.936570  0.544560  0.137120  1.0  -0.2988
  N  N73  1  0.980610  0.538380  0.215520  1.0  0.4559
  N  N74  1  0.020800  0.534300  0.292470  1.0  -0.4256
  N  N75  1  0.563430  0.455440  0.637120  1.0  -0.3007
  N  N76  1  0.519390  0.461620  0.715520  1.0  0.4559
  N  N77  1  0.479200  0.465700  0.792470  1.0  -0.4251
  N  N78  1  0.436570  0.955440  0.862880  1.0  -0.2972
  N  N79  1  0.480610  0.961620  0.784480  1.0  0.4567
  N  N80  1  0.520800  0.965700  0.707530  1.0  -0.4257
