# generated using pymatgen
data_KFeN18
_symmetry_space_group_name_H-M   'P 1'
_cell_length_a   13.13190000
_cell_length_b   13.13190000
_cell_length_c   13.13190000
_cell_angle_alpha   90.00000000
_cell_angle_beta   90.00000000
_cell_angle_gamma   90.00000000
_symmetry_Int_Tables_number   1
_chemical_formula_structural   KFeN18
_chemical_formula_sum   'K4 Fe4 N72'
_cell_volume   2264.55410153
_cell_formula_units_Z   4
loop_
 _symmetry_equiv_pos_site_id
 _symmetry_equiv_pos_as_xyz
  1  'x, y, z'
loop_
 _atom_site_type_symbol
 _atom_site_label
 _atom_site_symmetry_multiplicity
 _atom_site_fract_x
 _atom_site_fract_y
 _atom_site_fract_z
 _atom_site_occupancy
 _atom_site_charge
  K  K1  1  0.000000  0.000000  0.000000  1.0  0.9942
  K  K2  1  0.500000  0.000000  0.500000  1.0  0.9942
  K  K3  1  0.000000  0.500000  0.500000  1.0  0.9942
  K  K4  1  0.500000  0.500000  0.000000  1.0  0.9942
  Fe  Fe5  1  0.500000  0.000000  0.000000  1.0  0.6397
  Fe  Fe6  1  0.000000  0.000000  0.500000  1.0  0.6397
  Fe  Fe7  1  0.500000  0.500000  0.500000  1.0  0.6397
  Fe  Fe8  1  0.000000  0.500000  0.000000  1.0  0.6397
  N  N9  1  0.636780  0.934130  0.954340  1.0  -0.3187
  N  N10  1  0.715350  0.979500  0.959180  1.0  0.4684
  N  N11  1  0.792750  0.021550  0.962820  1.0  -0.426
  N  N12  1  0.863220  0.065870  0.454340  1.0  -0.3183
  N  N13  1  0.784650  0.020500  0.459180  1.0  0.4703
  N  N14  1  0.707250  0.978450  0.462820  1.0  -0.4231
  N  N15  1  0.363220  0.434130  0.545660  1.0  -0.3159
  N  N16  1  0.284650  0.479500  0.540820  1.0  0.4696
  N  N17  1  0.207250  0.521550  0.537180  1.0  -0.4249
  N  N18  1  0.136780  0.565870  0.045660  1.0  -0.3174
  N  N19  1  0.215350  0.520500  0.040820  1.0  0.4693
  N  N20  1  0.292750  0.478450  0.037180  1.0  -0.4245
  N  N21  1  0.954340  0.636780  0.934130  1.0  -0.3194
  N  N22  1  0.959180  0.715350  0.979500  1.0  0.4689
  N  N23  1  0.962820  0.792750  0.021550  1.0  -0.4263
  N  N24  1  0.454340  0.863220  0.065870  1.0  -0.3163
  N  N25  1  0.459180  0.784650  0.020500  1.0  0.4706
  N  N26  1  0.462820  0.707250  0.978450  1.0  -0.425
  N  N27  1  0.545660  0.363220  0.434130  1.0  -0.3197
  N  N28  1  0.540820  0.284650  0.479500  1.0  0.4697
  N  N29  1  0.537180  0.207250  0.521550  1.0  -0.422
  N  N30  1  0.045660  0.136780  0.565870  1.0  -0.3154
  N  N31  1  0.040820  0.215350  0.520500  1.0  0.4666
  N  N32  1  0.037180  0.292750  0.478450  1.0  -0.4242
  N  N33  1  0.934130  0.954340  0.636780  1.0  -0.3189
  N  N34  1  0.979500  0.959180  0.715350  1.0  0.469
  N  N35  1  0.021550  0.962820  0.792750  1.0  -0.4243
  N  N36  1  0.065870  0.454340  0.863220  1.0  -0.3147
  N  N37  1  0.020500  0.459180  0.784650  1.0  0.4682
  N  N38  1  0.978450  0.462820  0.707250  1.0  -0.4228
  N  N39  1  0.434130  0.545660  0.363220  1.0  -0.3153
  N  N40  1  0.479500  0.540820  0.284650  1.0  0.4688
  N  N41  1  0.521550  0.537180  0.207250  1.0  -0.4225
  N  N42  1  0.565870  0.045660  0.136780  1.0  -0.3191
  N  N43  1  0.520500  0.040820  0.215350  1.0  0.4679
  N  N44  1  0.478450  0.037180  0.292750  1.0  -0.423
  N  N45  1  0.363220  0.065870  0.045660  1.0  -0.3185
  N  N46  1  0.284650  0.020500  0.040820  1.0  0.4704
  N  N47  1  0.207250  0.978450  0.037180  1.0  -0.4233
  N  N48  1  0.136780  0.934130  0.545660  1.0  -0.3164
  N  N49  1  0.215350  0.979500  0.540820  1.0  0.4686
  N  N50  1  0.292750  0.021550  0.537180  1.0  -0.4258
  N  N51  1  0.636780  0.565870  0.454340  1.0  -0.3172
  N  N52  1  0.715350  0.520500  0.459180  1.0  0.4731
  N  N53  1  0.792750  0.478450  0.462820  1.0  -0.4242
  N  N54  1  0.863220  0.434130  0.954340  1.0  -0.3189
  N  N55  1  0.784650  0.479500  0.959180  1.0  0.4703
  N  N56  1  0.707250  0.521550  0.962820  1.0  -0.4247
  N  N57  1  0.045660  0.363220  0.065870  1.0  -0.3158
  N  N58  1  0.040820  0.284650  0.020500  1.0  0.4702
  N  N59  1  0.037180  0.207250  0.978450  1.0  -0.4238
  N  N60  1  0.545660  0.136780  0.934130  1.0  -0.3164
  N  N61  1  0.540820  0.215350  0.979500  1.0  0.4667
  N  N62  1  0.537180  0.292750  0.021550  1.0  -0.4248
  N  N63  1  0.454340  0.636780  0.565870  1.0  -0.3193
  N  N64  1  0.459180  0.715350  0.520500  1.0  0.468
  N  N65  1  0.462820  0.792750  0.478450  1.0  -0.4257
  N  N66  1  0.954340  0.863220  0.434130  1.0  -0.3175
  N  N67  1  0.959180  0.784650  0.479500  1.0  0.4713
  N  N68  1  0.962820  0.707250  0.521550  1.0  -0.4247
  N  N69  1  0.065870  0.045660  0.363220  1.0  -0.3146
  N  N70  1  0.020500  0.040820  0.284650  1.0  0.4682
  N  N71  1  0.978450  0.037180  0.207250  1.0  -0.4226
  N  N72  1  0.934130  0.545660  0.136780  1.0  -0.3192
  N  N73  1  0.979500  0.540820  0.215350  1.0  0.4681
  N  N74  1  0.021550  0.537180  0.292750  1.0  -0.4237
  N  N75  1  0.565870  0.454340  0.636780  1.0  -0.3191
  N  N76  1  0.520500  0.459180  0.715350  1.0  0.4694
  N  N77  1  0.478450  0.462820  0.792750  1.0  -0.4233
  N  N78  1  0.434130  0.954340  0.863220  1.0  -0.315
  N  N79  1  0.479500  0.959180  0.784650  1.0  0.4685
  N  N80  1  0.521550  0.962820  0.707250  1.0  -0.4232
