# generated using pymatgen
data_KFeN18
_symmetry_space_group_name_H-M   'P 1'
_cell_length_a   13.20190000
_cell_length_b   13.20190000
_cell_length_c   13.20190000
_cell_angle_alpha   90.00000000
_cell_angle_beta   90.00000000
_cell_angle_gamma   90.00000000
_symmetry_Int_Tables_number   1
_chemical_formula_structural   KFeN18
_chemical_formula_sum   'K4 Fe4 N72'
_cell_volume   2300.96131096
_cell_formula_units_Z   4
loop_
 _symmetry_equiv_pos_site_id
 _symmetry_equiv_pos_as_xyz
  1  'x, y, z'
loop_
 _atom_site_type_symbol
 _atom_site_label
 _atom_site_symmetry_multiplicity
 _atom_site_fract_x
 _atom_site_fract_y
 _atom_site_fract_z
 _atom_site_occupancy
 _atom_site_charge
  K  K1  1  0.000000  0.000000  0.000000  1.0  1.0003
  K  K2  1  0.500000  0.000000  0.500000  1.0  1.0003
  K  K3  1  0.000000  0.500000  0.500000  1.0  1.0003
  K  K4  1  0.500000  0.500000  0.000000  1.0  1.0003
  Fe  Fe5  1  0.500000  0.000000  0.000000  1.0  0.6225
  Fe  Fe6  1  0.000000  0.000000  0.500000  1.0  0.6225
  Fe  Fe7  1  0.500000  0.500000  0.500000  1.0  0.6225
  Fe  Fe8  1  0.000000  0.500000  0.000000  1.0  0.6225
  N  N9  1  0.637040  0.935980  0.954990  1.0  -0.2991
  N  N10  1  0.715440  0.980250  0.960750  1.0  0.4503
  N  N11  1  0.792560  0.021170  0.964500  1.0  -0.4209
  N  N12  1  0.862960  0.064020  0.454990  1.0  -0.3017
  N  N13  1  0.784560  0.019750  0.460750  1.0  0.4529
  N  N14  1  0.707440  0.978830  0.464500  1.0  -0.4193
  N  N15  1  0.362960  0.435980  0.545010  1.0  -0.2993
  N  N16  1  0.284560  0.480250  0.539250  1.0  0.452
  N  N17  1  0.207440  0.521170  0.535500  1.0  -0.4214
  N  N18  1  0.137040  0.564020  0.045010  1.0  -0.3018
  N  N19  1  0.215440  0.519750  0.039250  1.0  0.4507
  N  N20  1  0.292560  0.478830  0.035500  1.0  -0.4199
  N  N21  1  0.954990  0.637040  0.935980  1.0  -0.2999
  N  N22  1  0.960750  0.715440  0.980250  1.0  0.4508
  N  N23  1  0.964500  0.792560  0.021170  1.0  -0.4241
  N  N24  1  0.454990  0.862960  0.064020  1.0  -0.2999
  N  N25  1  0.460750  0.784560  0.019750  1.0  0.4539
  N  N26  1  0.464500  0.707440  0.978830  1.0  -0.4231
  N  N27  1  0.545010  0.362960  0.435980  1.0  -0.2993
  N  N28  1  0.539250  0.284560  0.480250  1.0  0.4528
  N  N29  1  0.535500  0.207440  0.521170  1.0  -0.4225
  N  N30  1  0.045010  0.137040  0.564020  1.0  -0.2985
  N  N31  1  0.039250  0.215440  0.519750  1.0  0.4496
  N  N32  1  0.035500  0.292560  0.478830  1.0  -0.4235
  N  N33  1  0.935980  0.954990  0.637040  1.0  -0.298
  N  N34  1  0.980250  0.960750  0.715440  1.0  0.4518
  N  N35  1  0.021170  0.964500  0.792560  1.0  -0.4211
  N  N36  1  0.064020  0.454990  0.862960  1.0  -0.2992
  N  N37  1  0.019750  0.460750  0.784560  1.0  0.4519
  N  N38  1  0.978830  0.464500  0.707440  1.0  -0.4212
  N  N39  1  0.435980  0.545010  0.362960  1.0  -0.2993
  N  N40  1  0.480250  0.539250  0.284560  1.0  0.4516
  N  N41  1  0.521170  0.535500  0.207440  1.0  -0.4209
  N  N42  1  0.564020  0.045010  0.137040  1.0  -0.2995
  N  N43  1  0.519750  0.039250  0.215440  1.0  0.4516
  N  N44  1  0.478830  0.035500  0.292560  1.0  -0.4207
  N  N45  1  0.362960  0.064020  0.045010  1.0  -0.3034
  N  N46  1  0.284560  0.019750  0.039250  1.0  0.4526
  N  N47  1  0.207440  0.978830  0.035500  1.0  -0.42
  N  N48  1  0.137040  0.935980  0.545010  1.0  -0.3
  N  N49  1  0.215440  0.980250  0.539250  1.0  0.4503
  N  N50  1  0.292560  0.021170  0.535500  1.0  -0.4215
  N  N51  1  0.637040  0.564020  0.454990  1.0  -0.3005
  N  N52  1  0.715440  0.519750  0.460750  1.0  0.4507
  N  N53  1  0.792560  0.478830  0.464500  1.0  -0.4197
  N  N54  1  0.862960  0.435980  0.954990  1.0  -0.2998
  N  N55  1  0.784560  0.480250  0.960750  1.0  0.4522
  N  N56  1  0.707440  0.521170  0.964500  1.0  -0.4211
  N  N57  1  0.045010  0.362960  0.064020  1.0  -0.301
  N  N58  1  0.039250  0.284560  0.019750  1.0  0.4524
  N  N59  1  0.035500  0.207440  0.978830  1.0  -0.4257
  N  N60  1  0.545010  0.137040  0.935980  1.0  -0.2996
  N  N61  1  0.539250  0.215440  0.980250  1.0  0.4497
  N  N62  1  0.535500  0.292560  0.021170  1.0  -0.4269
  N  N63  1  0.454990  0.637040  0.564020  1.0  -0.2997
  N  N64  1  0.460750  0.715440  0.519750  1.0  0.4507
  N  N65  1  0.464500  0.792560  0.478830  1.0  -0.4264
  N  N66  1  0.954990  0.862960  0.435980  1.0  -0.3015
  N  N67  1  0.960750  0.784560  0.480250  1.0  0.4543
  N  N68  1  0.964500  0.707440  0.521170  1.0  -0.4254
  N  N69  1  0.064020  0.045010  0.362960  1.0  -0.3006
  N  N70  1  0.019750  0.039250  0.284560  1.0  0.4516
  N  N71  1  0.978830  0.035500  0.207440  1.0  -0.4217
  N  N72  1  0.935980  0.545010  0.137040  1.0  -0.2987
  N  N73  1  0.980250  0.539250  0.215440  1.0  0.4516
  N  N74  1  0.021170  0.535500  0.292560  1.0  -0.4216
  N  N75  1  0.564020  0.454990  0.637040  1.0  -0.3009
  N  N76  1  0.519750  0.460750  0.715440  1.0  0.4519
  N  N77  1  0.478830  0.464500  0.792560  1.0  -0.4213
  N  N78  1  0.435980  0.954990  0.862960  1.0  -0.298
  N  N79  1  0.480250  0.960750  0.784560  1.0  0.4518
  N  N80  1  0.521170  0.964500  0.707440  1.0  -0.4215
