# generated using pymatgen
data_KFeN18
_symmetry_space_group_name_H-M   'P 1'
_cell_length_a   13.16760000
_cell_length_b   13.16760000
_cell_length_c   13.16760000
_cell_angle_alpha   90.00000000
_cell_angle_beta   90.00000000
_cell_angle_gamma   90.00000000
_symmetry_Int_Tables_number   1
_chemical_formula_structural   KFeN18
_chemical_formula_sum   'K4 Fe4 N72'
_cell_volume   2283.07340848
_cell_formula_units_Z   4
loop_
 _symmetry_equiv_pos_site_id
 _symmetry_equiv_pos_as_xyz
  1  'x, y, z'
loop_
 _atom_site_type_symbol
 _atom_site_label
 _atom_site_symmetry_multiplicity
 _atom_site_fract_x
 _atom_site_fract_y
 _atom_site_fract_z
 _atom_site_occupancy
 _atom_site_charge
  K  K1  1  0.000000  0.000000  0.000000  1.0  0.9917
  K  K2  1  0.500000  0.000000  0.500000  1.0  0.9917
  K  K3  1  0.000000  0.500000  0.500000  1.0  0.9917
  K  K4  1  0.500000  0.500000  0.000000  1.0  0.9917
  Fe  Fe5  1  0.500000  0.000000  0.000000  1.0  0.6303
  Fe  Fe6  1  0.000000  0.000000  0.500000  1.0  0.6303
  Fe  Fe7  1  0.500000  0.500000  0.500000  1.0  0.6303
  Fe  Fe8  1  0.000000  0.500000  0.000000  1.0  0.6303
  N  N9  1  0.636960  0.935170  0.954720  1.0  -0.3095
  N  N10  1  0.715360  0.979920  0.960060  1.0  0.4664
  N  N11  1  0.792650  0.021430  0.963750  1.0  -0.4256
  N  N12  1  0.863040  0.064830  0.454720  1.0  -0.3116
  N  N13  1  0.784640  0.020080  0.460060  1.0  0.469
  N  N14  1  0.707350  0.978570  0.463750  1.0  -0.4242
  N  N15  1  0.363040  0.435170  0.545280  1.0  -0.3104
  N  N16  1  0.284640  0.479920  0.539940  1.0  0.4684
  N  N17  1  0.207350  0.521430  0.536250  1.0  -0.4261
  N  N18  1  0.136960  0.564830  0.045280  1.0  -0.3121
  N  N19  1  0.215360  0.520080  0.039940  1.0  0.4666
  N  N20  1  0.292650  0.478570  0.036250  1.0  -0.4245
  N  N21  1  0.954720  0.636960  0.935170  1.0  -0.3114
  N  N22  1  0.960060  0.715360  0.979920  1.0  0.4653
  N  N23  1  0.963750  0.792650  0.021430  1.0  -0.4281
  N  N24  1  0.454720  0.863040  0.064830  1.0  -0.3097
  N  N25  1  0.460060  0.784640  0.020080  1.0  0.4689
  N  N26  1  0.463750  0.707350  0.978570  1.0  -0.4276
  N  N27  1  0.545280  0.363040  0.435170  1.0  -0.311
  N  N28  1  0.539940  0.284640  0.479920  1.0  0.4675
  N  N29  1  0.536250  0.207350  0.521430  1.0  -0.427
  N  N30  1  0.045280  0.136960  0.564830  1.0  -0.3095
  N  N31  1  0.039940  0.215360  0.520080  1.0  0.4642
  N  N32  1  0.036250  0.292650  0.478570  1.0  -0.4277
  N  N33  1  0.935170  0.954720  0.636960  1.0  -0.3094
  N  N34  1  0.979920  0.960060  0.715360  1.0  0.4668
  N  N35  1  0.021430  0.963750  0.792650  1.0  -0.4256
  N  N36  1  0.064830  0.454720  0.863040  1.0  -0.3087
  N  N37  1  0.020080  0.460060  0.784640  1.0  0.467
  N  N38  1  0.978570  0.463750  0.707350  1.0  -0.4254
  N  N39  1  0.435170  0.545280  0.363040  1.0  -0.3103
  N  N40  1  0.479920  0.539940  0.284640  1.0  0.4671
  N  N41  1  0.521430  0.536250  0.207350  1.0  -0.4255
  N  N42  1  0.564830  0.045280  0.136960  1.0  -0.3098
  N  N43  1  0.520080  0.039940  0.215360  1.0  0.4666
  N  N44  1  0.478570  0.036250  0.292650  1.0  -0.4249
  N  N45  1  0.363040  0.064830  0.045280  1.0  -0.3122
  N  N46  1  0.284640  0.020080  0.039940  1.0  0.4674
  N  N47  1  0.207350  0.978570  0.036250  1.0  -0.4248
  N  N48  1  0.136960  0.935170  0.545280  1.0  -0.3102
  N  N49  1  0.215360  0.979920  0.539940  1.0  0.4653
  N  N50  1  0.292650  0.021430  0.536250  1.0  -0.4262
  N  N51  1  0.636960  0.564830  0.454720  1.0  -0.3119
  N  N52  1  0.715360  0.520080  0.460060  1.0  0.4654
  N  N53  1  0.792650  0.478570  0.463750  1.0  -0.4246
  N  N54  1  0.863040  0.435170  0.954720  1.0  -0.311
  N  N55  1  0.784640  0.479920  0.960060  1.0  0.467
  N  N56  1  0.707350  0.521430  0.963750  1.0  -0.426
  N  N57  1  0.045280  0.363040  0.064830  1.0  -0.3094
  N  N58  1  0.039940  0.284640  0.020080  1.0  0.4683
  N  N59  1  0.036250  0.207350  0.978570  1.0  -0.4301
  N  N60  1  0.545280  0.136960  0.935170  1.0  -0.3106
  N  N61  1  0.539940  0.215360  0.979920  1.0  0.465
  N  N62  1  0.536250  0.292650  0.021430  1.0  -0.4309
  N  N63  1  0.454720  0.636960  0.564830  1.0  -0.3099
  N  N64  1  0.460060  0.715360  0.520080  1.0  0.4662
  N  N65  1  0.463750  0.792650  0.478570  1.0  -0.4305
  N  N66  1  0.954720  0.863040  0.435170  1.0  -0.3132
  N  N67  1  0.960060  0.784640  0.479920  1.0  0.4699
  N  N68  1  0.963750  0.707350  0.521430  1.0  -0.4298
  N  N69  1  0.064830  0.045280  0.363040  1.0  -0.3091
  N  N70  1  0.020080  0.039940  0.284640  1.0  0.466
  N  N71  1  0.978570  0.036250  0.207350  1.0  -0.4258
  N  N72  1  0.935170  0.545280  0.136960  1.0  -0.3097
  N  N73  1  0.979920  0.539940  0.215360  1.0  0.4657
  N  N74  1  0.021430  0.536250  0.292650  1.0  -0.426
  N  N75  1  0.564830  0.454720  0.636960  1.0  -0.3104
  N  N76  1  0.520080  0.460060  0.715360  1.0  0.4658
  N  N77  1  0.478570  0.463750  0.792650  1.0  -0.4254
  N  N78  1  0.435170  0.954720  0.863040  1.0  -0.3106
  N  N79  1  0.479920  0.960060  0.784640  1.0  0.4661
  N  N80  1  0.521430  0.963750  0.707350  1.0  -0.4259
