# generated using pymatgen
data_KFeN18
_symmetry_space_group_name_H-M   'P 1'
_cell_length_a   13.10260000
_cell_length_b   13.10260000
_cell_length_c   13.10260000
_cell_angle_alpha   90.00000000
_cell_angle_beta   90.00000000
_cell_angle_gamma   90.00000000
_symmetry_Int_Tables_number   1
_chemical_formula_structural   KFeN18
_chemical_formula_sum   'K4 Fe4 N72'
_cell_volume   2249.42982369
_cell_formula_units_Z   4
loop_
 _symmetry_equiv_pos_site_id
 _symmetry_equiv_pos_as_xyz
  1  'x, y, z'
loop_
 _atom_site_type_symbol
 _atom_site_label
 _atom_site_symmetry_multiplicity
 _atom_site_fract_x
 _atom_site_fract_y
 _atom_site_fract_z
 _atom_site_occupancy
 _atom_site_charge
  K  K1  1  0.000000  0.000000  0.000000  1.0  1.0007
  K  K2  1  0.500000  0.000000  0.500000  1.0  1.0007
  K  K3  1  0.000000  0.500000  0.500000  1.0  1.0007
  K  K4  1  0.500000  0.500000  0.000000  1.0  1.0007
  Fe  Fe5  1  0.500000  0.000000  0.000000  1.0  0.6489
  Fe  Fe6  1  0.000000  0.000000  0.500000  1.0  0.6489
  Fe  Fe7  1  0.500000  0.500000  0.500000  1.0  0.6489
  Fe  Fe8  1  0.000000  0.500000  0.000000  1.0  0.6489
  N  N9  1  0.636600  0.933000  0.953820  1.0  -0.3067
  N  N10  1  0.715290  0.979010  0.958630  1.0  0.4549
  N  N11  1  0.792810  0.021780  0.961910  1.0  -0.4233
  N  N12  1  0.863400  0.067000  0.453820  1.0  -0.3065
  N  N13  1  0.784710  0.020990  0.458630  1.0  0.457
  N  N14  1  0.707190  0.978220  0.461910  1.0  -0.4222
  N  N15  1  0.363400  0.433000  0.546180  1.0  -0.3063
  N  N16  1  0.284710  0.479010  0.541370  1.0  0.4569
  N  N17  1  0.207190  0.521780  0.538090  1.0  -0.4232
  N  N18  1  0.136600  0.567000  0.046180  1.0  -0.3089
  N  N19  1  0.215290  0.520990  0.041370  1.0  0.4551
  N  N20  1  0.292810  0.478220  0.038090  1.0  -0.4228
  N  N21  1  0.953820  0.636600  0.933000  1.0  -0.308
  N  N22  1  0.958630  0.715290  0.979010  1.0  0.4545
  N  N23  1  0.961910  0.792810  0.021780  1.0  -0.4242
  N  N24  1  0.453820  0.863400  0.067000  1.0  -0.3045
  N  N25  1  0.458630  0.784710  0.020990  1.0  0.4573
  N  N26  1  0.461910  0.707190  0.978220  1.0  -0.4248
  N  N27  1  0.546180  0.363400  0.433000  1.0  -0.3084
  N  N28  1  0.541370  0.284710  0.479010  1.0  0.4561
  N  N29  1  0.538090  0.207190  0.521780  1.0  -0.4241
  N  N30  1  0.046180  0.136600  0.567000  1.0  -0.306
  N  N31  1  0.041370  0.215290  0.520990  1.0  0.4535
  N  N32  1  0.038090  0.292810  0.478220  1.0  -0.4239
  N  N33  1  0.933000  0.953820  0.636600  1.0  -0.3072
  N  N34  1  0.979010  0.958630  0.715290  1.0  0.4553
  N  N35  1  0.021780  0.961910  0.792810  1.0  -0.4228
  N  N36  1  0.067000  0.453820  0.863400  1.0  -0.3038
  N  N37  1  0.020990  0.458630  0.784710  1.0  0.4546
  N  N38  1  0.978220  0.461910  0.707190  1.0  -0.4236
  N  N39  1  0.433000  0.546180  0.363400  1.0  -0.3065
  N  N40  1  0.479010  0.541370  0.284710  1.0  0.4549
  N  N41  1  0.521780  0.538090  0.207190  1.0  -0.4236
  N  N42  1  0.567000  0.046180  0.136600  1.0  -0.3079
  N  N43  1  0.520990  0.041370  0.215290  1.0  0.4548
  N  N44  1  0.478220  0.038090  0.292810  1.0  -0.4218
  N  N45  1  0.363400  0.067000  0.046180  1.0  -0.3081
  N  N46  1  0.284710  0.020990  0.041370  1.0  0.4565
  N  N47  1  0.207190  0.978220  0.038090  1.0  -0.4226
  N  N48  1  0.136600  0.933000  0.546180  1.0  -0.3066
  N  N49  1  0.215290  0.979010  0.541370  1.0  0.4545
  N  N50  1  0.292810  0.021780  0.538090  1.0  -0.4238
  N  N51  1  0.636600  0.567000  0.453820  1.0  -0.3093
  N  N52  1  0.715290  0.520990  0.458630  1.0  0.4545
  N  N53  1  0.792810  0.478220  0.461910  1.0  -0.4229
  N  N54  1  0.863400  0.433000  0.953820  1.0  -0.3062
  N  N55  1  0.784710  0.479010  0.958630  1.0  0.4562
  N  N56  1  0.707190  0.521780  0.961910  1.0  -0.4229
  N  N57  1  0.046180  0.363400  0.067000  1.0  -0.3059
  N  N58  1  0.041370  0.284710  0.020990  1.0  0.4565
  N  N59  1  0.038090  0.207190  0.978220  1.0  -0.4252
  N  N60  1  0.546180  0.136600  0.933000  1.0  -0.3069
  N  N61  1  0.541370  0.215290  0.979010  1.0  0.4537
  N  N62  1  0.538090  0.292810  0.021780  1.0  -0.4246
  N  N63  1  0.453820  0.636600  0.567000  1.0  -0.3065
  N  N64  1  0.458630  0.715290  0.520990  1.0  0.4549
  N  N65  1  0.461910  0.792810  0.478220  1.0  -0.4246
  N  N66  1  0.953820  0.863400  0.433000  1.0  -0.3088
  N  N67  1  0.958630  0.784710  0.479010  1.0  0.4577
  N  N68  1  0.961910  0.707190  0.521780  1.0  -0.4246
  N  N69  1  0.067000  0.046180  0.363400  1.0  -0.3052
  N  N70  1  0.020990  0.041370  0.284710  1.0  0.4545
  N  N71  1  0.978220  0.038090  0.207190  1.0  -0.4239
  N  N72  1  0.933000  0.546180  0.136600  1.0  -0.3064
  N  N73  1  0.979010  0.541370  0.215290  1.0  0.4549
  N  N74  1  0.021780  0.538090  0.292810  1.0  -0.4231
  N  N75  1  0.567000  0.453820  0.636600  1.0  -0.3062
  N  N76  1  0.520990  0.458630  0.715290  1.0  0.4552
  N  N77  1  0.478220  0.461910  0.792810  1.0  -0.4223
  N  N78  1  0.433000  0.953820  0.863400  1.0  -0.306
  N  N79  1  0.479010  0.958630  0.784710  1.0  0.4549
  N  N80  1  0.521780  0.961910  0.707190  1.0  -0.4242
