# generated using pymatgen
data_NaCrN18
_symmetry_space_group_name_H-M   'P 1'
_cell_length_a   12.84340000
_cell_length_b   12.84340000
_cell_length_c   12.84340000
_cell_angle_alpha   90.00000000
_cell_angle_beta   90.00000000
_cell_angle_gamma   90.00000000
_symmetry_Int_Tables_number   1
_chemical_formula_structural   NaCrN18
_chemical_formula_sum   'Na4 Cr4 N72'
_cell_volume   2118.55637845
_cell_formula_units_Z   4
loop_
 _symmetry_equiv_pos_site_id
 _symmetry_equiv_pos_as_xyz
  1  'x, y, z'
loop_
 _atom_site_type_symbol
 _atom_site_label
 _atom_site_symmetry_multiplicity
 _atom_site_fract_x
 _atom_site_fract_y
 _atom_site_fract_z
 _atom_site_occupancy
 _atom_site_charge
  Na  Na1  1  0.000000  0.000000  0.000000  1.0  0.9555
  Na  Na2  1  0.500000  0.000000  0.500000  1.0  0.9555
  Na  Na3  1  0.000000  0.500000  0.500000  1.0  0.9555
  Na  Na4  1  0.500000  0.500000  0.000000  1.0  0.9555
  Cr  Cr5  1  0.000000  0.000000  0.500000  1.0  0.4431
  Cr  Cr6  1  0.500000  0.000000  0.000000  1.0  0.4431
  Cr  Cr7  1  0.000000  0.500000  0.000000  1.0  0.4431
  Cr  Cr8  1  0.500000  0.500000  0.500000  1.0  0.4431
  N  N9  1  0.059150  0.042500  0.358860  1.0  -0.2929
  N  N10  1  0.018500  0.032900  0.275940  1.0  0.4533
  N  N11  1  0.983800  0.027200  0.193830  1.0  -0.3943
  N  N12  1  0.440850  0.957500  0.858860  1.0  -0.2905
  N  N13  1  0.481500  0.967100  0.775940  1.0  0.4541
  N  N14  1  0.516200  0.972800  0.693830  1.0  -0.3939
  N  N15  1  0.940850  0.542500  0.141140  1.0  -0.2914
  N  N16  1  0.981500  0.532900  0.224060  1.0  0.4548
  N  N17  1  0.016200  0.527200  0.306170  1.0  -0.3928
  N  N18  1  0.559150  0.457500  0.641140  1.0  -0.292
  N  N19  1  0.518500  0.467100  0.724060  1.0  0.4535
  N  N20  1  0.483800  0.472800  0.806170  1.0  -0.393
  N  N21  1  0.358860  0.059150  0.042500  1.0  -0.2955
  N  N22  1  0.275940  0.018500  0.032900  1.0  0.4539
  N  N23  1  0.193830  0.983800  0.027200  1.0  -0.3928
  N  N24  1  0.858860  0.440850  0.957500  1.0  -0.2938
  N  N25  1  0.775940  0.481500  0.967100  1.0  0.4537
  N  N26  1  0.693830  0.516200  0.972800  1.0  -0.3944
  N  N27  1  0.141140  0.940850  0.542500  1.0  -0.2942
  N  N28  1  0.224060  0.981500  0.532900  1.0  0.4535
  N  N29  1  0.306170  0.016200  0.527200  1.0  -0.3934
  N  N30  1  0.641140  0.559150  0.457500  1.0  -0.2952
  N  N31  1  0.724060  0.518500  0.467100  1.0  0.4539
  N  N32  1  0.806170  0.483800  0.472800  1.0  -0.3925
  N  N33  1  0.042500  0.358860  0.059150  1.0  -0.2935
  N  N34  1  0.032900  0.275940  0.018500  1.0  0.4536
  N  N35  1  0.027200  0.193830  0.983800  1.0  -0.3938
  N  N36  1  0.957500  0.858860  0.440850  1.0  -0.2919
  N  N37  1  0.967100  0.775940  0.481500  1.0  0.4548
  N  N38  1  0.972800  0.693830  0.516200  1.0  -0.3935
  N  N39  1  0.542500  0.141140  0.940850  1.0  -0.2939
  N  N40  1  0.532900  0.224060  0.981500  1.0  0.4531
  N  N41  1  0.527200  0.306170  0.016200  1.0  -0.3926
  N  N42  1  0.457500  0.641140  0.559150  1.0  -0.2918
  N  N43  1  0.467100  0.724060  0.518500  1.0  0.4543
  N  N44  1  0.472800  0.806170  0.483800  1.0  -0.3926
  N  N45  1  0.940850  0.957500  0.641140  1.0  -0.292
  N  N46  1  0.981500  0.967100  0.724060  1.0  0.4546
  N  N47  1  0.016200  0.972800  0.806170  1.0  -0.393
  N  N48  1  0.559150  0.042500  0.141140  1.0  -0.2909
  N  N49  1  0.518500  0.032900  0.224060  1.0  0.4537
  N  N50  1  0.483800  0.027200  0.306170  1.0  -0.3928
  N  N51  1  0.059150  0.457500  0.858860  1.0  -0.2918
  N  N52  1  0.018500  0.467100  0.775940  1.0  0.4531
  N  N53  1  0.983800  0.472800  0.693830  1.0  -0.395
  N  N54  1  0.440850  0.542500  0.358860  1.0  -0.2932
  N  N55  1  0.481500  0.532900  0.275940  1.0  0.4544
  N  N56  1  0.516200  0.527200  0.193830  1.0  -0.3939
  N  N57  1  0.641140  0.940850  0.957500  1.0  -0.297
  N  N58  1  0.724060  0.981500  0.967100  1.0  0.4535
  N  N59  1  0.806170  0.016200  0.972800  1.0  -0.3946
  N  N60  1  0.141140  0.559150  0.042500  1.0  -0.2957
  N  N61  1  0.224060  0.518500  0.032900  1.0  0.4539
  N  N62  1  0.306170  0.483800  0.027200  1.0  -0.3933
  N  N63  1  0.858860  0.059150  0.457500  1.0  -0.2948
  N  N64  1  0.775940  0.018500  0.467100  1.0  0.4541
  N  N65  1  0.693830  0.983800  0.472800  1.0  -0.3965
  N  N66  1  0.358860  0.440850  0.542500  1.0  -0.2949
  N  N67  1  0.275940  0.481500  0.532900  1.0  0.4536
  N  N68  1  0.193830  0.516200  0.527200  1.0  -0.394
  N  N69  1  0.957500  0.641140  0.940850  1.0  -0.2937
  N  N70  1  0.967100  0.724060  0.981500  1.0  0.4544
  N  N71  1  0.972800  0.806170  0.016200  1.0  -0.3936
  N  N72  1  0.042500  0.141140  0.559150  1.0  -0.2926
  N  N73  1  0.032900  0.224060  0.518500  1.0  0.4531
  N  N74  1  0.027200  0.306170  0.483800  1.0  -0.3936
  N  N75  1  0.457500  0.858860  0.059150  1.0  -0.2917
  N  N76  1  0.467100  0.775940  0.018500  1.0  0.4549
  N  N77  1  0.472800  0.693830  0.983800  1.0  -0.3954
  N  N78  1  0.542500  0.358860  0.440850  1.0  -0.2939
  N  N79  1  0.532900  0.275940  0.481500  1.0  0.4535
  N  N80  1  0.527200  0.193830  0.516200  1.0  -0.3936
