# generated using pymatgen
data_NaCrN18
_symmetry_space_group_name_H-M   'P 1'
_cell_length_a   12.79810000
_cell_length_b   12.79810000
_cell_length_c   12.79810000
_cell_angle_alpha   90.00000000
_cell_angle_beta   90.00000000
_cell_angle_gamma   90.00000000
_symmetry_Int_Tables_number   1
_chemical_formula_structural   NaCrN18
_chemical_formula_sum   'Na4 Cr4 N72'
_cell_volume   2096.21825062
_cell_formula_units_Z   4
loop_
 _symmetry_equiv_pos_site_id
 _symmetry_equiv_pos_as_xyz
  1  'x, y, z'
loop_
 _atom_site_type_symbol
 _atom_site_label
 _atom_site_symmetry_multiplicity
 _atom_site_fract_x
 _atom_site_fract_y
 _atom_site_fract_z
 _atom_site_occupancy
 _atom_site_charge
  Na  Na1  1  0.000000  0.000000  0.000000  1.0  0.9626
  Na  Na2  1  0.500000  0.000000  0.500000  1.0  0.9626
  Na  Na3  1  0.000000  0.500000  0.500000  1.0  0.9626
  Na  Na4  1  0.500000  0.500000  0.000000  1.0  0.9626
  Cr  Cr5  1  0.000000  0.000000  0.500000  1.0  0.4465
  Cr  Cr6  1  0.500000  0.000000  0.000000  1.0  0.4465
  Cr  Cr7  1  0.000000  0.500000  0.000000  1.0  0.4465
  Cr  Cr8  1  0.500000  0.500000  0.500000  1.0  0.4465
  N  N9  1  0.060060  0.043280  0.358920  1.0  -0.2937
  N  N10  1  0.019400  0.034000  0.276000  1.0  0.464
  N  N11  1  0.983400  0.028400  0.193320  1.0  -0.4034
  N  N12  1  0.439940  0.956720  0.858920  1.0  -0.29
  N  N13  1  0.480600  0.966000  0.776000  1.0  0.4646
  N  N14  1  0.516600  0.971600  0.693320  1.0  -0.404
  N  N15  1  0.939940  0.543280  0.141080  1.0  -0.2907
  N  N16  1  0.980600  0.534000  0.224000  1.0  0.4658
  N  N17  1  0.016600  0.528400  0.306680  1.0  -0.4031
  N  N18  1  0.560060  0.456720  0.641080  1.0  -0.2937
  N  N19  1  0.519400  0.466000  0.724000  1.0  0.4644
  N  N20  1  0.483400  0.471600  0.806680  1.0  -0.4021
  N  N21  1  0.358920  0.060060  0.043280  1.0  -0.2965
  N  N22  1  0.276000  0.019400  0.034000  1.0  0.4649
  N  N23  1  0.193320  0.983400  0.028400  1.0  -0.4058
  N  N24  1  0.858920  0.439940  0.956720  1.0  -0.2931
  N  N25  1  0.776000  0.480600  0.966000  1.0  0.4651
  N  N26  1  0.693320  0.516600  0.971600  1.0  -0.4066
  N  N27  1  0.141080  0.939940  0.543280  1.0  -0.2936
  N  N28  1  0.224000  0.980600  0.534000  1.0  0.4645
  N  N29  1  0.306680  0.016600  0.528400  1.0  -0.4066
  N  N30  1  0.641080  0.560060  0.456720  1.0  -0.295
  N  N31  1  0.724000  0.519400  0.466000  1.0  0.4648
  N  N32  1  0.806680  0.483400  0.471600  1.0  -0.4059
  N  N33  1  0.043280  0.358920  0.060060  1.0  -0.2936
  N  N34  1  0.034000  0.276000  0.019400  1.0  0.4637
  N  N35  1  0.028400  0.193320  0.983400  1.0  -0.4071
  N  N36  1  0.956720  0.858920  0.439940  1.0  -0.2916
  N  N37  1  0.966000  0.776000  0.480600  1.0  0.4649
  N  N38  1  0.971600  0.693320  0.516600  1.0  -0.4058
  N  N39  1  0.543280  0.141080  0.939940  1.0  -0.2921
  N  N40  1  0.534000  0.224000  0.980600  1.0  0.4636
  N  N41  1  0.528400  0.306680  0.016600  1.0  -0.4069
  N  N42  1  0.456720  0.641080  0.560060  1.0  -0.2908
  N  N43  1  0.466000  0.724000  0.519400  1.0  0.4647
  N  N44  1  0.471600  0.806680  0.483400  1.0  -0.4059
  N  N45  1  0.939940  0.956720  0.641080  1.0  -0.2937
  N  N46  1  0.980600  0.966000  0.724000  1.0  0.4655
  N  N47  1  0.016600  0.971600  0.806680  1.0  -0.4033
  N  N48  1  0.560060  0.043280  0.141080  1.0  -0.2918
  N  N49  1  0.519400  0.034000  0.224000  1.0  0.4647
  N  N50  1  0.483400  0.028400  0.306680  1.0  -0.405
  N  N51  1  0.060060  0.456720  0.858920  1.0  -0.2916
  N  N52  1  0.019400  0.466000  0.776000  1.0  0.4636
  N  N53  1  0.983400  0.471600  0.693320  1.0  -0.4052
  N  N54  1  0.439940  0.543280  0.358920  1.0  -0.2933
  N  N55  1  0.480600  0.534000  0.276000  1.0  0.4649
  N  N56  1  0.516600  0.528400  0.193320  1.0  -0.4068
  N  N57  1  0.641080  0.939940  0.956720  1.0  -0.2992
  N  N58  1  0.724000  0.980600  0.966000  1.0  0.4646
  N  N59  1  0.806680  0.016600  0.971600  1.0  -0.407
  N  N60  1  0.141080  0.560060  0.043280  1.0  -0.2942
  N  N61  1  0.224000  0.519400  0.034000  1.0  0.4646
  N  N62  1  0.306680  0.483400  0.028400  1.0  -0.41
  N  N63  1  0.858920  0.060060  0.456720  1.0  -0.2938
  N  N64  1  0.776000  0.019400  0.466000  1.0  0.4652
  N  N65  1  0.693320  0.983400  0.471600  1.0  -0.4074
  N  N66  1  0.358920  0.439940  0.543280  1.0  -0.2954
  N  N67  1  0.276000  0.480600  0.534000  1.0  0.4648
  N  N68  1  0.193320  0.516600  0.528400  1.0  -0.4081
  N  N69  1  0.956720  0.641080  0.939940  1.0  -0.2954
  N  N70  1  0.966000  0.724000  0.980600  1.0  0.4648
  N  N71  1  0.971600  0.806680  0.016600  1.0  -0.4068
  N  N72  1  0.043280  0.141080  0.560060  1.0  -0.2922
  N  N73  1  0.034000  0.224000  0.519400  1.0  0.4635
  N  N74  1  0.028400  0.306680  0.483400  1.0  -0.4072
  N  N75  1  0.456720  0.858920  0.060060  1.0  -0.2915
  N  N76  1  0.466000  0.776000  0.019400  1.0  0.465
  N  N77  1  0.471600  0.693320  0.983400  1.0  -0.4083
  N  N78  1  0.543280  0.358920  0.439940  1.0  -0.2942
  N  N79  1  0.534000  0.276000  0.480600  1.0  0.4636
  N  N80  1  0.528400  0.193320  0.516600  1.0  -0.4071
