# generated using pymatgen
data_NaCrN18
_symmetry_space_group_name_H-M   'P 1'
_cell_length_a   12.76210000
_cell_length_b   12.76210000
_cell_length_c   12.76210000
_cell_angle_alpha   90.00000000
_cell_angle_beta   90.00000000
_cell_angle_gamma   90.00000000
_symmetry_Int_Tables_number   1
_chemical_formula_structural   NaCrN18
_chemical_formula_sum   'Na4 Cr4 N72'
_cell_volume   2078.57849570
_cell_formula_units_Z   4
loop_
 _symmetry_equiv_pos_site_id
 _symmetry_equiv_pos_as_xyz
  1  'x, y, z'
loop_
 _atom_site_type_symbol
 _atom_site_label
 _atom_site_symmetry_multiplicity
 _atom_site_fract_x
 _atom_site_fract_y
 _atom_site_fract_z
 _atom_site_occupancy
 _atom_site_charge
  Na  Na1  1  0.000000  0.000000  0.000000  1.0  0.954
  Na  Na2  1  0.500000  0.000000  0.500000  1.0  0.954
  Na  Na3  1  0.000000  0.500000  0.500000  1.0  0.954
  Na  Na4  1  0.500000  0.500000  0.000000  1.0  0.954
  Cr  Cr5  1  0.000000  0.000000  0.500000  1.0  0.4373
  Cr  Cr6  1  0.500000  0.000000  0.000000  1.0  0.4373
  Cr  Cr7  1  0.000000  0.500000  0.000000  1.0  0.4373
  Cr  Cr8  1  0.500000  0.500000  0.500000  1.0  0.4373
  N  N9  1  0.061260  0.043800  0.358940  1.0  -0.2893
  N  N10  1  0.019840  0.034560  0.275820  1.0  0.4621
  N  N11  1  0.983190  0.029070  0.192990  1.0  -0.4018
  N  N12  1  0.438740  0.956200  0.858940  1.0  -0.2897
  N  N13  1  0.480160  0.965440  0.775820  1.0  0.4627
  N  N14  1  0.516810  0.970930  0.692990  1.0  -0.402
  N  N15  1  0.938740  0.543800  0.141060  1.0  -0.2876
  N  N16  1  0.980160  0.534560  0.224180  1.0  0.4634
  N  N17  1  0.016810  0.529070  0.307010  1.0  -0.4028
  N  N18  1  0.561260  0.456200  0.641060  1.0  -0.289
  N  N19  1  0.519840  0.465440  0.724180  1.0  0.4621
  N  N20  1  0.483190  0.470930  0.807010  1.0  -0.4009
  N  N21  1  0.358940  0.061260  0.043800  1.0  -0.2925
  N  N22  1  0.275820  0.019840  0.034560  1.0  0.4628
  N  N23  1  0.192990  0.983190  0.029070  1.0  -0.4036
  N  N24  1  0.858940  0.438740  0.956200  1.0  -0.293
  N  N25  1  0.775820  0.480160  0.965440  1.0  0.4629
  N  N26  1  0.692990  0.516810  0.970930  1.0  -0.4044
  N  N27  1  0.141060  0.938740  0.543800  1.0  -0.2916
  N  N28  1  0.224180  0.980160  0.534560  1.0  0.4623
  N  N29  1  0.307010  0.016810  0.529070  1.0  -0.4036
  N  N30  1  0.641060  0.561260  0.456200  1.0  -0.2935
  N  N31  1  0.724180  0.519840  0.465440  1.0  0.4625
  N  N32  1  0.807010  0.483190  0.470930  1.0  -0.403
  N  N33  1  0.043800  0.358940  0.061260  1.0  -0.289
  N  N34  1  0.034560  0.275820  0.019840  1.0  0.4616
  N  N35  1  0.029070  0.192990  0.983190  1.0  -0.4041
  N  N36  1  0.956200  0.858940  0.438740  1.0  -0.2905
  N  N37  1  0.965440  0.775820  0.480160  1.0  0.4627
  N  N38  1  0.970930  0.692990  0.516810  1.0  -0.4042
  N  N39  1  0.543800  0.141060  0.938740  1.0  -0.2897
  N  N40  1  0.534560  0.224180  0.980160  1.0  0.4615
  N  N41  1  0.529070  0.307010  0.016810  1.0  -0.4045
  N  N42  1  0.456200  0.641060  0.561260  1.0  -0.2893
  N  N43  1  0.465440  0.724180  0.519840  1.0  0.4624
  N  N44  1  0.470930  0.807010  0.483190  1.0  -0.4022
  N  N45  1  0.938740  0.956200  0.641060  1.0  -0.2876
  N  N46  1  0.980160  0.965440  0.724180  1.0  0.4632
  N  N47  1  0.016810  0.970930  0.807010  1.0  -0.4029
  N  N48  1  0.561260  0.043800  0.141060  1.0  -0.2891
  N  N49  1  0.519840  0.034560  0.224180  1.0  0.4624
  N  N50  1  0.483190  0.029070  0.307010  1.0  -0.4031
  N  N51  1  0.061260  0.456200  0.858940  1.0  -0.2904
  N  N52  1  0.019840  0.465440  0.775820  1.0  0.4618
  N  N53  1  0.983190  0.470930  0.692990  1.0  -0.4038
  N  N54  1  0.438740  0.543800  0.358940  1.0  -0.2901
  N  N55  1  0.480160  0.534560  0.275820  1.0  0.4629
  N  N56  1  0.516810  0.529070  0.192990  1.0  -0.4044
  N  N57  1  0.641060  0.938740  0.956200  1.0  -0.2932
  N  N58  1  0.724180  0.980160  0.965440  1.0  0.4624
  N  N59  1  0.807010  0.016810  0.970930  1.0  -0.404
  N  N60  1  0.141060  0.561260  0.043800  1.0  -0.2941
  N  N61  1  0.224180  0.519840  0.034560  1.0  0.4624
  N  N62  1  0.307010  0.483190  0.029070  1.0  -0.4041
  N  N63  1  0.858940  0.061260  0.456200  1.0  -0.295
  N  N64  1  0.775820  0.019840  0.465440  1.0  0.463
  N  N65  1  0.692990  0.983190  0.470930  1.0  -0.4049
  N  N66  1  0.358940  0.438740  0.543800  1.0  -0.2921
  N  N67  1  0.275820  0.480160  0.534560  1.0  0.4627
  N  N68  1  0.192990  0.516810  0.529070  1.0  -0.405
  N  N69  1  0.956200  0.641060  0.938740  1.0  -0.2867
  N  N70  1  0.965440  0.724180  0.980160  1.0  0.4625
  N  N71  1  0.970930  0.807010  0.016810  1.0  -0.4049
  N  N72  1  0.043800  0.141060  0.561260  1.0  -0.2905
  N  N73  1  0.034560  0.224180  0.519840  1.0  0.4614
  N  N74  1  0.029070  0.307010  0.483190  1.0  -0.404
  N  N75  1  0.456200  0.858940  0.061260  1.0  -0.2914
  N  N76  1  0.465440  0.775820  0.019840  1.0  0.4627
  N  N77  1  0.470930  0.692990  0.983190  1.0  -0.4056
  N  N78  1  0.543800  0.358940  0.438740  1.0  -0.2904
  N  N79  1  0.534560  0.275820  0.480160  1.0  0.4616
  N  N80  1  0.529070  0.192990  0.516810  1.0  -0.4041
