# generated using pymatgen
data_NaCrN18
_symmetry_space_group_name_H-M   'P 1'
_cell_length_a   12.74600000
_cell_length_b   12.74600000
_cell_length_c   12.74600000
_cell_angle_alpha   90.00000000
_cell_angle_beta   90.00000000
_cell_angle_gamma   90.00000000
_symmetry_Int_Tables_number   1
_chemical_formula_structural   NaCrN18
_chemical_formula_sum   'Na4 Cr4 N72'
_cell_volume   2070.72173694
_cell_formula_units_Z   4
loop_
 _symmetry_equiv_pos_site_id
 _symmetry_equiv_pos_as_xyz
  1  'x, y, z'
loop_
 _atom_site_type_symbol
 _atom_site_label
 _atom_site_symmetry_multiplicity
 _atom_site_fract_x
 _atom_site_fract_y
 _atom_site_fract_z
 _atom_site_occupancy
 _atom_site_charge
  Na  Na1  1  0.000000  0.000000  0.000000  1.0  0.9687
  Na  Na2  1  0.500000  0.000000  0.500000  1.0  0.9687
  Na  Na3  1  0.000000  0.500000  0.500000  1.0  0.9687
  Na  Na4  1  0.500000  0.500000  0.000000  1.0  0.9687
  Cr  Cr5  1  0.000000  0.000000  0.500000  1.0  0.4397
  Cr  Cr6  1  0.500000  0.000000  0.000000  1.0  0.4397
  Cr  Cr7  1  0.000000  0.500000  0.000000  1.0  0.4397
  Cr  Cr8  1  0.500000  0.500000  0.500000  1.0  0.4397
  N  N9  1  0.061870  0.044180  0.358930  1.0  -0.2797
  N  N10  1  0.020080  0.035110  0.275750  1.0  0.4391
  N  N11  1  0.983160  0.029540  0.192690  1.0  -0.393
  N  N12  1  0.438130  0.955820  0.858930  1.0  -0.2793
  N  N13  1  0.479920  0.964890  0.775750  1.0  0.4404
  N  N14  1  0.516840  0.970460  0.692690  1.0  -0.3926
  N  N15  1  0.938130  0.544180  0.141070  1.0  -0.2783
  N  N16  1  0.979920  0.535110  0.224250  1.0  0.4411
  N  N17  1  0.016840  0.529540  0.307310  1.0  -0.3916
  N  N18  1  0.561870  0.455820  0.641070  1.0  -0.2788
  N  N19  1  0.520080  0.464890  0.724250  1.0  0.439
  N  N20  1  0.483160  0.470460  0.807310  1.0  -0.3918
  N  N21  1  0.358930  0.061870  0.044180  1.0  -0.2825
  N  N22  1  0.275750  0.020080  0.035110  1.0  0.4409
  N  N23  1  0.192690  0.983160  0.029540  1.0  -0.3929
  N  N24  1  0.858930  0.438130  0.955820  1.0  -0.2818
  N  N25  1  0.775750  0.479920  0.964890  1.0  0.4409
  N  N26  1  0.692690  0.516840  0.970460  1.0  -0.3942
  N  N27  1  0.141070  0.938130  0.544180  1.0  -0.2822
  N  N28  1  0.224250  0.979920  0.535110  1.0  0.4395
  N  N29  1  0.307310  0.016840  0.529540  1.0  -0.394
  N  N30  1  0.641070  0.561870  0.455820  1.0  -0.2842
  N  N31  1  0.724250  0.520080  0.464890  1.0  0.4397
  N  N32  1  0.807310  0.483160  0.470460  1.0  -0.3931
  N  N33  1  0.044180  0.358930  0.061870  1.0  -0.2792
  N  N34  1  0.035110  0.275750  0.020080  1.0  0.4386
  N  N35  1  0.029540  0.192690  0.983160  1.0  -0.3945
  N  N36  1  0.955820  0.858930  0.438130  1.0  -0.2798
  N  N37  1  0.964890  0.775750  0.479920  1.0  0.4405
  N  N38  1  0.970460  0.692690  0.516840  1.0  -0.394
  N  N39  1  0.544180  0.141070  0.938130  1.0  -0.2804
  N  N40  1  0.535110  0.224250  0.979920  1.0  0.4389
  N  N41  1  0.529540  0.307310  0.016840  1.0  -0.3945
  N  N42  1  0.455820  0.641070  0.561870  1.0  -0.28
  N  N43  1  0.464890  0.724250  0.520080  1.0  0.4405
  N  N44  1  0.470460  0.807310  0.483160  1.0  -0.3935
  N  N45  1  0.938130  0.955820  0.641070  1.0  -0.2783
  N  N46  1  0.979920  0.964890  0.724250  1.0  0.4408
  N  N47  1  0.016840  0.970460  0.807310  1.0  -0.3922
  N  N48  1  0.561870  0.044180  0.141070  1.0  -0.2788
  N  N49  1  0.520080  0.035110  0.224250  1.0  0.4393
  N  N50  1  0.483160  0.029540  0.307310  1.0  -0.3936
  N  N51  1  0.061870  0.455820  0.858930  1.0  -0.2796
  N  N52  1  0.020080  0.464890  0.775750  1.0  0.4388
  N  N53  1  0.983160  0.470460  0.692690  1.0  -0.394
  N  N54  1  0.438130  0.544180  0.358930  1.0  -0.2795
  N  N55  1  0.479920  0.535110  0.275750  1.0  0.4407
  N  N56  1  0.516840  0.529540  0.192690  1.0  -0.3944
  N  N57  1  0.641070  0.938130  0.955820  1.0  -0.283
  N  N58  1  0.724250  0.979920  0.964890  1.0  0.4396
  N  N59  1  0.807310  0.016840  0.970460  1.0  -0.3949
  N  N60  1  0.141070  0.561870  0.044180  1.0  -0.2837
  N  N61  1  0.224250  0.520080  0.035110  1.0  0.4397
  N  N62  1  0.307310  0.483160  0.029540  1.0  -0.3978
  N  N63  1  0.858930  0.061870  0.455820  1.0  -0.2831
  N  N64  1  0.775750  0.020080  0.464890  1.0  0.4411
  N  N65  1  0.692690  0.983160  0.470460  1.0  -0.395
  N  N66  1  0.358930  0.438130  0.544180  1.0  -0.2809
  N  N67  1  0.275750  0.479920  0.535110  1.0  0.4408
  N  N68  1  0.192690  0.516840  0.529540  1.0  -0.398
  N  N69  1  0.955820  0.641070  0.938130  1.0  -0.2801
  N  N70  1  0.964890  0.724250  0.979920  1.0  0.4406
  N  N71  1  0.970460  0.807310  0.016840  1.0  -0.395
  N  N72  1  0.044180  0.141070  0.561870  1.0  -0.2801
  N  N73  1  0.035110  0.224250  0.520080  1.0  0.4387
  N  N74  1  0.029540  0.307310  0.483160  1.0  -0.3959
  N  N75  1  0.455820  0.858930  0.061870  1.0  -0.279
  N  N76  1  0.464890  0.775750  0.020080  1.0  0.4405
  N  N77  1  0.470460  0.692690  0.983160  1.0  -0.3952
  N  N78  1  0.544180  0.358930  0.438130  1.0  -0.28
  N  N79  1  0.535110  0.275750  0.479920  1.0  0.4387
  N  N80  1  0.529540  0.192690  0.516840  1.0  -0.394
