# generated using pymatgen
data_KCrN18
_symmetry_space_group_name_H-M   'P 1'
_cell_length_a   13.09730000
_cell_length_b   13.09730000
_cell_length_c   13.09730000
_cell_angle_alpha   90.00000000
_cell_angle_beta   90.00000000
_cell_angle_gamma   90.00000000
_symmetry_Int_Tables_number   1
_chemical_formula_structural   KCrN18
_chemical_formula_sum   'K4 Cr4 N72'
_cell_volume   2246.70124548
_cell_formula_units_Z   4
loop_
 _symmetry_equiv_pos_site_id
 _symmetry_equiv_pos_as_xyz
  1  'x, y, z'
loop_
 _atom_site_type_symbol
 _atom_site_label
 _atom_site_symmetry_multiplicity
 _atom_site_fract_x
 _atom_site_fract_y
 _atom_site_fract_z
 _atom_site_occupancy
 _atom_site_charge
  K  K1  1  0.500000  0.500000  0.500000  1.0  0.9828
  K  K2  1  0.000000  0.500000  0.000000  1.0  0.9828
  K  K3  1  0.500000  0.000000  0.000000  1.0  0.9828
  K  K4  1  0.000000  0.000000  0.500000  1.0  0.9828
  Cr  Cr5  1  0.500000  0.500000  0.000000  1.0  0.6562
  Cr  Cr6  1  0.000000  0.500000  0.500000  1.0  0.6562
  Cr  Cr7  1  0.500000  0.000000  0.500000  1.0  0.6562
  Cr  Cr8  1  0.000000  0.000000  0.000000  1.0  0.6562
  N  N9  1  0.436310  0.455990  0.135200  1.0  -0.301
  N  N10  1  0.480520  0.461110  0.214040  1.0  0.4599
  N  N11  1  0.520100  0.464500  0.292460  1.0  -0.4287
  N  N12  1  0.063690  0.544010  0.635200  1.0  -0.3015
  N  N13  1  0.019480  0.538890  0.714040  1.0  0.4585
  N  N14  1  0.979900  0.535500  0.792460  1.0  -0.4286
  N  N15  1  0.563690  0.955990  0.364800  1.0  -0.3016
  N  N16  1  0.519480  0.961110  0.285960  1.0  0.4596
  N  N17  1  0.479900  0.964500  0.207540  1.0  -0.4284
  N  N18  1  0.936310  0.044010  0.864800  1.0  -0.3009
  N  N19  1  0.980520  0.038890  0.785960  1.0  0.4609
  N  N20  1  0.020100  0.035500  0.707540  1.0  -0.4281
  N  N21  1  0.135200  0.436310  0.455990  1.0  -0.3028
  N  N22  1  0.214040  0.480520  0.461110  1.0  0.4593
  N  N23  1  0.292460  0.520100  0.464500  1.0  -0.4317
  N  N24  1  0.635200  0.063690  0.544010  1.0  -0.3045
  N  N25  1  0.714040  0.019480  0.538890  1.0  0.4599
  N  N26  1  0.792460  0.979900  0.535500  1.0  -0.4313
  N  N27  1  0.364800  0.563690  0.955990  1.0  -0.3036
  N  N28  1  0.285960  0.519480  0.961110  1.0  0.4619
  N  N29  1  0.207540  0.479900  0.964500  1.0  -0.4306
  N  N30  1  0.864800  0.936310  0.044010  1.0  -0.3026
  N  N31  1  0.785960  0.980520  0.038890  1.0  0.4619
  N  N32  1  0.707540  0.020100  0.035500  1.0  -0.4324
  N  N33  1  0.455990  0.135200  0.436310  1.0  -0.3034
  N  N34  1  0.461110  0.214040  0.480520  1.0  0.4594
  N  N35  1  0.464500  0.292460  0.520100  1.0  -0.4314
  N  N36  1  0.544010  0.635200  0.063690  1.0  -0.3017
  N  N37  1  0.538890  0.714040  0.019480  1.0  0.4579
  N  N38  1  0.535500  0.792460  0.979900  1.0  -0.4312
  N  N39  1  0.955990  0.364800  0.563690  1.0  -0.3009
  N  N40  1  0.961110  0.285960  0.519480  1.0  0.462
  N  N41  1  0.964500  0.207540  0.479900  1.0  -0.4316
  N  N42  1  0.044010  0.864800  0.936310  1.0  -0.3021
  N  N43  1  0.038890  0.785960  0.980520  1.0  0.4608
  N  N44  1  0.035500  0.707540  0.020100  1.0  -0.4308
  N  N45  1  0.563690  0.544010  0.864800  1.0  -0.303
  N  N46  1  0.519480  0.538890  0.785960  1.0  0.4589
  N  N47  1  0.479900  0.535500  0.707540  1.0  -0.4287
  N  N48  1  0.936310  0.455990  0.364800  1.0  -0.3009
  N  N49  1  0.980520  0.461110  0.285960  1.0  0.4602
  N  N50  1  0.020100  0.464500  0.207540  1.0  -0.4283
  N  N51  1  0.436310  0.044010  0.635200  1.0  -0.3023
  N  N52  1  0.480520  0.038890  0.714040  1.0  0.4593
  N  N53  1  0.520100  0.035500  0.792460  1.0  -0.429
  N  N54  1  0.063690  0.955990  0.135200  1.0  -0.3016
  N  N55  1  0.019480  0.961110  0.214040  1.0  0.4581
  N  N56  1  0.979900  0.964500  0.292460  1.0  -0.4288
  N  N57  1  0.864800  0.563690  0.544010  1.0  -0.3052
  N  N58  1  0.785960  0.519480  0.538890  1.0  0.4625
  N  N59  1  0.707540  0.479900  0.535500  1.0  -0.4339
  N  N60  1  0.364800  0.936310  0.455990  1.0  -0.3029
  N  N61  1  0.285960  0.980520  0.461110  1.0  0.462
  N  N62  1  0.207540  0.020100  0.464500  1.0  -0.4347
  N  N63  1  0.635200  0.436310  0.044010  1.0  -0.3024
  N  N64  1  0.714040  0.480520  0.038890  1.0  0.4592
  N  N65  1  0.792460  0.520100  0.035500  1.0  -0.4351
  N  N66  1  0.135200  0.063690  0.955990  1.0  -0.3037
  N  N67  1  0.214040  0.019480  0.961110  1.0  0.4595
  N  N68  1  0.292460  0.979900  0.964500  1.0  -0.4337
  N  N69  1  0.544010  0.864800  0.563690  1.0  -0.3012
  N  N70  1  0.538890  0.785960  0.519480  1.0  0.4612
  N  N71  1  0.535500  0.707540  0.479900  1.0  -0.4317
  N  N72  1  0.455990  0.364800  0.936310  1.0  -0.3017
  N  N73  1  0.461110  0.285960  0.980520  1.0  0.4627
  N  N74  1  0.464500  0.207540  0.020100  1.0  -0.431
  N  N75  1  0.044010  0.635200  0.436310  1.0  -0.3026
  N  N76  1  0.038890  0.714040  0.480520  1.0  0.4582
  N  N77  1  0.035500  0.792460  0.520100  1.0  -0.4316
  N  N78  1  0.955990  0.135200  0.063690  1.0  -0.3022
  N  N79  1  0.961110  0.214040  0.019480  1.0  0.4594
  N  N80  1  0.964500  0.292460  0.979900  1.0  -0.4314
