# generated using pymatgen
data_KCrN18
_symmetry_space_group_name_H-M   'P 1'
_cell_length_a   13.06760000
_cell_length_b   13.06760000
_cell_length_c   13.06760000
_cell_angle_alpha   90.00000000
_cell_angle_beta   90.00000000
_cell_angle_gamma   90.00000000
_symmetry_Int_Tables_number   1
_chemical_formula_structural   KCrN18
_chemical_formula_sum   'K4 Cr4 N72'
_cell_volume   2231.45172956
_cell_formula_units_Z   4
loop_
 _symmetry_equiv_pos_site_id
 _symmetry_equiv_pos_as_xyz
  1  'x, y, z'
loop_
 _atom_site_type_symbol
 _atom_site_label
 _atom_site_symmetry_multiplicity
 _atom_site_fract_x
 _atom_site_fract_y
 _atom_site_fract_z
 _atom_site_occupancy
 _atom_site_charge
  K  K1  1  0.500000  0.500000  0.500000  1.0  0.992
  K  K2  1  0.000000  0.500000  0.000000  1.0  0.992
  K  K3  1  0.500000  0.000000  0.000000  1.0  0.992
  K  K4  1  0.000000  0.000000  0.500000  1.0  0.992
  Cr  Cr5  1  0.500000  0.500000  0.000000  1.0  0.6809
  Cr  Cr6  1  0.000000  0.500000  0.500000  1.0  0.6809
  Cr  Cr7  1  0.500000  0.000000  0.500000  1.0  0.6809
  Cr  Cr8  1  0.000000  0.000000  0.000000  1.0  0.6809
  N  N9  1  0.435040  0.455230  0.134990  1.0  -0.2924
  N  N10  1  0.480050  0.460260  0.214180  1.0  0.4447
  N  N11  1  0.520700  0.463200  0.292540  1.0  -0.4288
  N  N12  1  0.064960  0.544770  0.634990  1.0  -0.2927
  N  N13  1  0.019950  0.539740  0.714180  1.0  0.4445
  N  N14  1  0.979300  0.536800  0.792540  1.0  -0.4284
  N  N15  1  0.564960  0.955230  0.365010  1.0  -0.2929
  N  N16  1  0.519950  0.960260  0.285820  1.0  0.445
  N  N17  1  0.479300  0.963200  0.207460  1.0  -0.4296
  N  N18  1  0.935040  0.044770  0.865010  1.0  -0.2928
  N  N19  1  0.980050  0.039740  0.785820  1.0  0.4453
  N  N20  1  0.020700  0.036800  0.707460  1.0  -0.4293
  N  N21  1  0.134990  0.435040  0.455230  1.0  -0.293
  N  N22  1  0.214180  0.480050  0.460260  1.0  0.4449
  N  N23  1  0.292540  0.520700  0.463200  1.0  -0.4316
  N  N24  1  0.634990  0.064960  0.544770  1.0  -0.2952
  N  N25  1  0.714180  0.019950  0.539740  1.0  0.4454
  N  N26  1  0.792540  0.979300  0.536800  1.0  -0.4311
  N  N27  1  0.365010  0.564960  0.955230  1.0  -0.2952
  N  N28  1  0.285820  0.519950  0.960260  1.0  0.4474
  N  N29  1  0.207460  0.479300  0.963200  1.0  -0.4301
  N  N30  1  0.865010  0.935040  0.044770  1.0  -0.2931
  N  N31  1  0.785820  0.980050  0.039740  1.0  0.4469
  N  N32  1  0.707460  0.020700  0.036800  1.0  -0.4316
  N  N33  1  0.455230  0.134990  0.435040  1.0  -0.2942
  N  N34  1  0.460260  0.214180  0.480050  1.0  0.4447
  N  N35  1  0.463200  0.292540  0.520700  1.0  -0.4309
  N  N36  1  0.544770  0.634990  0.064960  1.0  -0.2926
  N  N37  1  0.539740  0.714180  0.019950  1.0  0.4431
  N  N38  1  0.536800  0.792540  0.979300  1.0  -0.4308
  N  N39  1  0.955230  0.365010  0.564960  1.0  -0.2922
  N  N40  1  0.960260  0.285820  0.519950  1.0  0.4474
  N  N41  1  0.963200  0.207460  0.479300  1.0  -0.4312
  N  N42  1  0.044770  0.865010  0.935040  1.0  -0.2928
  N  N43  1  0.039740  0.785820  0.980050  1.0  0.4461
  N  N44  1  0.036800  0.707460  0.020700  1.0  -0.4305
  N  N45  1  0.564960  0.544770  0.865010  1.0  -0.2921
  N  N46  1  0.519950  0.539740  0.785820  1.0  0.445
  N  N47  1  0.479300  0.536800  0.707460  1.0  -0.4297
  N  N48  1  0.935040  0.455230  0.365010  1.0  -0.2936
  N  N49  1  0.980050  0.460260  0.285820  1.0  0.4453
  N  N50  1  0.020700  0.463200  0.207460  1.0  -0.4297
  N  N51  1  0.435040  0.044770  0.634990  1.0  -0.2919
  N  N52  1  0.480050  0.039740  0.714180  1.0  0.4447
  N  N53  1  0.520700  0.036800  0.792540  1.0  -0.4289
  N  N54  1  0.064960  0.955230  0.134990  1.0  -0.2939
  N  N55  1  0.019950  0.960260  0.214180  1.0  0.4446
  N  N56  1  0.979300  0.963200  0.292540  1.0  -0.4286
  N  N57  1  0.865010  0.564960  0.544770  1.0  -0.2949
  N  N58  1  0.785820  0.519950  0.539740  1.0  0.4475
  N  N59  1  0.707460  0.479300  0.536800  1.0  -0.4334
  N  N60  1  0.365010  0.935040  0.455230  1.0  -0.2943
  N  N61  1  0.285820  0.980050  0.460260  1.0  0.4468
  N  N62  1  0.207460  0.020700  0.463200  1.0  -0.4337
  N  N63  1  0.634990  0.435040  0.044770  1.0  -0.293
  N  N64  1  0.714180  0.480050  0.039740  1.0  0.4449
  N  N65  1  0.792540  0.520700  0.036800  1.0  -0.4349
  N  N66  1  0.134990  0.064960  0.955230  1.0  -0.2964
  N  N67  1  0.214180  0.019950  0.960260  1.0  0.4455
  N  N68  1  0.292540  0.979300  0.963200  1.0  -0.4335
  N  N69  1  0.544770  0.865010  0.564960  1.0  -0.2915
  N  N70  1  0.539740  0.785820  0.519950  1.0  0.4457
  N  N71  1  0.536800  0.707460  0.479300  1.0  -0.4311
  N  N72  1  0.455230  0.365010  0.935040  1.0  -0.2946
  N  N73  1  0.460260  0.285820  0.980050  1.0  0.4478
  N  N74  1  0.463200  0.207460  0.020700  1.0  -0.4305
  N  N75  1  0.044770  0.634990  0.435040  1.0  -0.2937
  N  N76  1  0.039740  0.714180  0.480050  1.0  0.4433
  N  N77  1  0.036800  0.792540  0.520700  1.0  -0.4309
  N  N78  1  0.955230  0.134990  0.064960  1.0  -0.2942
  N  N79  1  0.960260  0.214180  0.019950  1.0  0.4445
  N  N80  1  0.963200  0.292540  0.979300  1.0  -0.4309
