# generated using pymatgen
data_KCrN18
_symmetry_space_group_name_H-M   'P 1'
_cell_length_a   13.14970000
_cell_length_b   13.14970000
_cell_length_c   13.14970000
_cell_angle_alpha   90.00000000
_cell_angle_beta   90.00000000
_cell_angle_gamma   90.00000000
_symmetry_Int_Tables_number   1
_chemical_formula_structural   KCrN18
_chemical_formula_sum   'K4 Cr4 N72'
_cell_volume   2273.77524830
_cell_formula_units_Z   4
loop_
 _symmetry_equiv_pos_site_id
 _symmetry_equiv_pos_as_xyz
  1  'x, y, z'
loop_
 _atom_site_type_symbol
 _atom_site_label
 _atom_site_symmetry_multiplicity
 _atom_site_fract_x
 _atom_site_fract_y
 _atom_site_fract_z
 _atom_site_occupancy
 _atom_site_charge
  K  K1  1  0.500000  0.500000  0.500000  1.0  0.9807
  K  K2  1  0.000000  0.500000  0.000000  1.0  0.9807
  K  K3  1  0.500000  0.000000  0.000000  1.0  0.9807
  K  K4  1  0.000000  0.000000  0.500000  1.0  0.9807
  Cr  Cr5  1  0.500000  0.500000  0.000000  1.0  0.6506
  Cr  Cr6  1  0.000000  0.500000  0.500000  1.0  0.6506
  Cr  Cr7  1  0.500000  0.000000  0.500000  1.0  0.6506
  Cr  Cr8  1  0.000000  0.000000  0.000000  1.0  0.6506
  N  N9  1  0.437600  0.456700  0.135360  1.0  -0.303
  N  N10  1  0.481300  0.462800  0.214060  1.0  0.4591
  N  N11  1  0.519200  0.466200  0.292200  1.0  -0.4213
  N  N12  1  0.062400  0.543300  0.635360  1.0  -0.306
  N  N13  1  0.018700  0.537200  0.714060  1.0  0.4579
  N  N14  1  0.980800  0.533800  0.792200  1.0  -0.4208
  N  N15  1  0.562400  0.956700  0.364640  1.0  -0.304
  N  N16  1  0.518700  0.962800  0.285940  1.0  0.4587
  N  N17  1  0.480800  0.966200  0.207800  1.0  -0.4226
  N  N18  1  0.937600  0.043300  0.864640  1.0  -0.3039
  N  N19  1  0.981300  0.037200  0.785940  1.0  0.4593
  N  N20  1  0.019200  0.033800  0.707800  1.0  -0.4225
  N  N21  1  0.135360  0.437600  0.456700  1.0  -0.3069
  N  N22  1  0.214060  0.481300  0.462800  1.0  0.4586
  N  N23  1  0.292200  0.519200  0.466200  1.0  -0.4251
  N  N24  1  0.635360  0.062400  0.543300  1.0  -0.309
  N  N25  1  0.714060  0.018700  0.537200  1.0  0.4584
  N  N26  1  0.792200  0.980800  0.533800  1.0  -0.425
  N  N27  1  0.364640  0.562400  0.956700  1.0  -0.3063
  N  N28  1  0.285940  0.518700  0.962800  1.0  0.4606
  N  N29  1  0.207800  0.480800  0.966200  1.0  -0.4242
  N  N30  1  0.864640  0.937600  0.043300  1.0  -0.3069
  N  N31  1  0.785940  0.981300  0.037200  1.0  0.4601
  N  N32  1  0.707800  0.019200  0.033800  1.0  -0.4247
  N  N33  1  0.456700  0.135360  0.437600  1.0  -0.3074
  N  N34  1  0.462800  0.214060  0.481300  1.0  0.4574
  N  N35  1  0.466200  0.292200  0.519200  1.0  -0.4256
  N  N36  1  0.543300  0.635360  0.062400  1.0  -0.3056
  N  N37  1  0.537200  0.714060  0.018700  1.0  0.4568
  N  N38  1  0.533800  0.792200  0.980800  1.0  -0.4254
  N  N39  1  0.956700  0.364640  0.562400  1.0  -0.305
  N  N40  1  0.962800  0.285940  0.518700  1.0  0.4605
  N  N41  1  0.966200  0.207800  0.480800  1.0  -0.4245
  N  N42  1  0.043300  0.864640  0.937600  1.0  -0.305
  N  N43  1  0.037200  0.785940  0.981300  1.0  0.4599
  N  N44  1  0.033800  0.707800  0.019200  1.0  -0.4237
  N  N45  1  0.562400  0.543300  0.864640  1.0  -0.3065
  N  N46  1  0.518700  0.537200  0.785940  1.0  0.4585
  N  N47  1  0.480800  0.533800  0.707800  1.0  -0.4228
  N  N48  1  0.937600  0.456700  0.364640  1.0  -0.3059
  N  N49  1  0.981300  0.462800  0.285940  1.0  0.4595
  N  N50  1  0.019200  0.466200  0.207800  1.0  -0.4226
  N  N51  1  0.437600  0.043300  0.635360  1.0  -0.3055
  N  N52  1  0.481300  0.037200  0.714060  1.0  0.4589
  N  N53  1  0.519200  0.033800  0.792200  1.0  -0.4215
  N  N54  1  0.062400  0.956700  0.135360  1.0  -0.3064
  N  N55  1  0.018700  0.962800  0.214060  1.0  0.4582
  N  N56  1  0.980800  0.966200  0.292200  1.0  -0.4209
  N  N57  1  0.864640  0.562400  0.543300  1.0  -0.3106
  N  N58  1  0.785940  0.518700  0.537200  1.0  0.4602
  N  N59  1  0.707800  0.480800  0.533800  1.0  -0.4268
  N  N60  1  0.364640  0.937600  0.456700  1.0  -0.3072
  N  N61  1  0.285940  0.981300  0.462800  1.0  0.4604
  N  N62  1  0.207800  0.019200  0.466200  1.0  -0.4269
  N  N63  1  0.635360  0.437600  0.043300  1.0  -0.3079
  N  N64  1  0.714060  0.481300  0.037200  1.0  0.4585
  N  N65  1  0.792200  0.519200  0.033800  1.0  -0.4277
  N  N66  1  0.135360  0.062400  0.956700  1.0  -0.3091
  N  N67  1  0.214060  0.018700  0.962800  1.0  0.4586
  N  N68  1  0.292200  0.980800  0.966200  1.0  -0.4273
  N  N69  1  0.543300  0.864640  0.562400  1.0  -0.3068
  N  N70  1  0.537200  0.785940  0.518700  1.0  0.4598
  N  N71  1  0.533800  0.707800  0.480800  1.0  -0.4243
  N  N72  1  0.456700  0.364640  0.937600  1.0  -0.3079
  N  N73  1  0.462800  0.285940  0.981300  1.0  0.4606
  N  N74  1  0.466200  0.207800  0.019200  1.0  -0.424
  N  N75  1  0.043300  0.635360  0.437600  1.0  -0.309
  N  N76  1  0.037200  0.714060  0.481300  1.0  0.4568
  N  N77  1  0.033800  0.792200  0.519200  1.0  -0.4254
  N  N78  1  0.956700  0.135360  0.062400  1.0  -0.3071
  N  N79  1  0.962800  0.214060  0.018700  1.0  0.4573
  N  N80  1  0.966200  0.292200  0.980800  1.0  -0.4256
