# generated using pymatgen
data_KCrN18
_symmetry_space_group_name_H-M   'P 1'
_cell_length_a   13.04840000
_cell_length_b   13.04840000
_cell_length_c   13.04840000
_cell_angle_alpha   90.00000000
_cell_angle_beta   90.00000000
_cell_angle_gamma   90.00000000
_symmetry_Int_Tables_number   1
_chemical_formula_structural   KCrN18
_chemical_formula_sum   'K4 Cr4 N72'
_cell_volume   2221.63027322
_cell_formula_units_Z   4
loop_
 _symmetry_equiv_pos_site_id
 _symmetry_equiv_pos_as_xyz
  1  'x, y, z'
loop_
 _atom_site_type_symbol
 _atom_site_label
 _atom_site_symmetry_multiplicity
 _atom_site_fract_x
 _atom_site_fract_y
 _atom_site_fract_z
 _atom_site_occupancy
 _atom_site_charge
  K  K1  1  0.500000  0.500000  0.500000  1.0  0.9946
  K  K2  1  0.000000  0.500000  0.000000  1.0  0.9946
  K  K3  1  0.500000  0.000000  0.000000  1.0  0.9946
  K  K4  1  0.000000  0.000000  0.500000  1.0  0.9946
  Cr  Cr5  1  0.500000  0.500000  0.000000  1.0  0.6803
  Cr  Cr6  1  0.000000  0.500000  0.500000  1.0  0.6803
  Cr  Cr7  1  0.500000  0.000000  0.500000  1.0  0.6803
  Cr  Cr8  1  0.000000  0.000000  0.000000  1.0  0.6803
  N  N9  1  0.434160  0.454780  0.134900  1.0  -0.2885
  N  N10  1  0.479620  0.459460  0.214050  1.0  0.4412
  N  N11  1  0.520980  0.462140  0.292800  1.0  -0.4289
  N  N12  1  0.065840  0.545220  0.634900  1.0  -0.2886
  N  N13  1  0.020380  0.540540  0.714050  1.0  0.4398
  N  N14  1  0.979020  0.537860  0.792800  1.0  -0.4283
  N  N15  1  0.565840  0.954780  0.365100  1.0  -0.2859
  N  N16  1  0.520380  0.959460  0.285950  1.0  0.4405
  N  N17  1  0.479020  0.962140  0.207200  1.0  -0.4297
  N  N18  1  0.934160  0.045220  0.865100  1.0  -0.2903
  N  N19  1  0.979620  0.040540  0.785950  1.0  0.442
  N  N20  1  0.020980  0.037860  0.707200  1.0  -0.4297
  N  N21  1  0.134900  0.434160  0.454780  1.0  -0.2894
  N  N22  1  0.214050  0.479620  0.459460  1.0  0.4408
  N  N23  1  0.292800  0.520980  0.462140  1.0  -0.4319
  N  N24  1  0.634900  0.065840  0.545220  1.0  -0.2885
  N  N25  1  0.714050  0.020380  0.540540  1.0  0.4412
  N  N26  1  0.792800  0.979020  0.537860  1.0  -0.4315
  N  N27  1  0.365100  0.565840  0.954780  1.0  -0.2878
  N  N28  1  0.285950  0.520380  0.959460  1.0  0.4433
  N  N29  1  0.207200  0.479020  0.962140  1.0  -0.4303
  N  N30  1  0.865100  0.934160  0.045220  1.0  -0.2897
  N  N31  1  0.785950  0.979620  0.040540  1.0  0.4429
  N  N32  1  0.707200  0.020980  0.037860  1.0  -0.4317
  N  N33  1  0.454780  0.134900  0.434160  1.0  -0.2906
  N  N34  1  0.459460  0.214050  0.479620  1.0  0.4405
  N  N35  1  0.462140  0.292800  0.520980  1.0  -0.4315
  N  N36  1  0.545220  0.634900  0.065840  1.0  -0.2898
  N  N37  1  0.540540  0.714050  0.020380  1.0  0.4389
  N  N38  1  0.537860  0.792800  0.979020  1.0  -0.4308
  N  N39  1  0.954780  0.365100  0.565840  1.0  -0.2851
  N  N40  1  0.959460  0.285950  0.520380  1.0  0.4437
  N  N41  1  0.962140  0.207200  0.479020  1.0  -0.4317
  N  N42  1  0.045220  0.865100  0.934160  1.0  -0.2898
  N  N43  1  0.040540  0.785950  0.979620  1.0  0.4423
  N  N44  1  0.037860  0.707200  0.020980  1.0  -0.4306
  N  N45  1  0.565840  0.545220  0.865100  1.0  -0.2901
  N  N46  1  0.520380  0.540540  0.785950  1.0  0.4405
  N  N47  1  0.479020  0.537860  0.707200  1.0  -0.4298
  N  N48  1  0.934160  0.454780  0.365100  1.0  -0.2901
  N  N49  1  0.979620  0.459460  0.285950  1.0  0.442
  N  N50  1  0.020980  0.462140  0.207200  1.0  -0.4299
  N  N51  1  0.434160  0.045220  0.634900  1.0  -0.2898
  N  N52  1  0.479620  0.040540  0.714050  1.0  0.4411
  N  N53  1  0.520980  0.037860  0.792800  1.0  -0.429
  N  N54  1  0.065840  0.954780  0.134900  1.0  -0.2891
  N  N55  1  0.020380  0.959460  0.214050  1.0  0.4399
  N  N56  1  0.979020  0.962140  0.292800  1.0  -0.4284
  N  N57  1  0.865100  0.565840  0.545220  1.0  -0.2928
  N  N58  1  0.785950  0.520380  0.540540  1.0  0.4433
  N  N59  1  0.707200  0.479020  0.537860  1.0  -0.4336
  N  N60  1  0.365100  0.934160  0.454780  1.0  -0.29
  N  N61  1  0.285950  0.979620  0.459460  1.0  0.4428
  N  N62  1  0.207200  0.020980  0.462140  1.0  -0.434
  N  N63  1  0.634900  0.434160  0.045220  1.0  -0.2893
  N  N64  1  0.714050  0.479620  0.040540  1.0  0.4408
  N  N65  1  0.792800  0.520980  0.037860  1.0  -0.4353
  N  N66  1  0.134900  0.065840  0.954780  1.0  -0.2918
  N  N67  1  0.214050  0.020380  0.959460  1.0  0.4413
  N  N68  1  0.292800  0.979020  0.962140  1.0  -0.434
  N  N69  1  0.545220  0.865100  0.565840  1.0  -0.2897
  N  N70  1  0.540540  0.785950  0.520380  1.0  0.4421
  N  N71  1  0.537860  0.707200  0.479020  1.0  -0.4311
  N  N72  1  0.454780  0.365100  0.934160  1.0  -0.2901
  N  N73  1  0.459460  0.285950  0.979620  1.0  0.4439
  N  N74  1  0.462140  0.207200  0.020980  1.0  -0.4311
  N  N75  1  0.045220  0.634900  0.434160  1.0  -0.2915
  N  N76  1  0.040540  0.714050  0.479620  1.0  0.4392
  N  N77  1  0.037860  0.792800  0.520980  1.0  -0.431
  N  N78  1  0.954780  0.134900  0.065840  1.0  -0.2903
  N  N79  1  0.959460  0.214050  0.020380  1.0  0.4403
  N  N80  1  0.962140  0.292800  0.979020  1.0  -0.4315
