# generated using pymatgen
data_KCrN18
_symmetry_space_group_name_H-M   'P 1'
_cell_length_a   13.16420000
_cell_length_b   13.16420000
_cell_length_c   13.16420000
_cell_angle_alpha   90.00000000
_cell_angle_beta   90.00000000
_cell_angle_gamma   90.00000000
_symmetry_Int_Tables_number   1
_chemical_formula_structural   KCrN18
_chemical_formula_sum   'K4 Cr4 N72'
_cell_volume   2281.30533106
_cell_formula_units_Z   4
loop_
 _symmetry_equiv_pos_site_id
 _symmetry_equiv_pos_as_xyz
  1  'x, y, z'
loop_
 _atom_site_type_symbol
 _atom_site_label
 _atom_site_symmetry_multiplicity
 _atom_site_fract_x
 _atom_site_fract_y
 _atom_site_fract_z
 _atom_site_occupancy
 _atom_site_charge
  K  K1  1  0.500000  0.500000  0.500000  1.0  0.9859
  K  K2  1  0.000000  0.500000  0.000000  1.0  0.9859
  K  K3  1  0.500000  0.000000  0.000000  1.0  0.9859
  K  K4  1  0.000000  0.000000  0.500000  1.0  0.9859
  Cr  Cr5  1  0.500000  0.500000  0.000000  1.0  0.6599
  Cr  Cr6  1  0.000000  0.500000  0.500000  1.0  0.6599
  Cr  Cr7  1  0.500000  0.000000  0.500000  1.0  0.6599
  Cr  Cr8  1  0.000000  0.000000  0.000000  1.0  0.6599
  N  N9  1  0.438400  0.457500  0.135300  1.0  -0.2965
  N  N10  1  0.482200  0.464400  0.214400  1.0  0.451
  N  N11  1  0.518500  0.468300  0.292200  1.0  -0.4257
  N  N12  1  0.061600  0.542500  0.635300  1.0  -0.2968
  N  N13  1  0.017800  0.535600  0.714400  1.0  0.4498
  N  N14  1  0.981500  0.531700  0.792200  1.0  -0.4237
  N  N15  1  0.561600  0.957500  0.364700  1.0  -0.298
  N  N16  1  0.517800  0.964400  0.285600  1.0  0.4501
  N  N17  1  0.481500  0.968300  0.207800  1.0  -0.4256
  N  N18  1  0.938400  0.042500  0.864700  1.0  -0.2977
  N  N19  1  0.982200  0.035600  0.785600  1.0  0.4511
  N  N20  1  0.018500  0.031700  0.707800  1.0  -0.4257
  N  N21  1  0.135300  0.438400  0.457500  1.0  -0.299
  N  N22  1  0.214400  0.482200  0.464400  1.0  0.4499
  N  N23  1  0.292200  0.518500  0.468300  1.0  -0.4271
  N  N24  1  0.635300  0.061600  0.542500  1.0  -0.2995
  N  N25  1  0.714400  0.017800  0.535600  1.0  0.4501
  N  N26  1  0.792200  0.981500  0.531700  1.0  -0.4264
  N  N27  1  0.364700  0.561600  0.957500  1.0  -0.3028
  N  N28  1  0.285600  0.517800  0.964400  1.0  0.4503
  N  N29  1  0.207800  0.481500  0.968300  1.0  -0.4252
  N  N30  1  0.864700  0.938400  0.042500  1.0  -0.2986
  N  N31  1  0.785600  0.982200  0.035600  1.0  0.4503
  N  N32  1  0.707800  0.018500  0.031700  1.0  -0.4257
  N  N33  1  0.457500  0.135300  0.438400  1.0  -0.3012
  N  N34  1  0.464400  0.214400  0.482200  1.0  0.4485
  N  N35  1  0.468300  0.292200  0.518500  1.0  -0.4267
  N  N36  1  0.542500  0.635300  0.061600  1.0  -0.2966
  N  N37  1  0.535600  0.714400  0.017800  1.0  0.4477
  N  N38  1  0.531700  0.792200  0.981500  1.0  -0.4261
  N  N39  1  0.957500  0.364700  0.561600  1.0  -0.2971
  N  N40  1  0.964400  0.285600  0.517800  1.0  0.4511
  N  N41  1  0.968300  0.207800  0.481500  1.0  -0.4262
  N  N42  1  0.042500  0.864700  0.938400  1.0  -0.3003
  N  N43  1  0.035600  0.785600  0.982200  1.0  0.4503
  N  N44  1  0.031700  0.707800  0.018500  1.0  -0.4248
  N  N45  1  0.561600  0.542500  0.864700  1.0  -0.2982
  N  N46  1  0.517800  0.535600  0.785600  1.0  0.45
  N  N47  1  0.481500  0.531700  0.707800  1.0  -0.4253
  N  N48  1  0.938400  0.457500  0.364700  1.0  -0.2974
  N  N49  1  0.982200  0.464400  0.285600  1.0  0.4512
  N  N50  1  0.018500  0.468300  0.207800  1.0  -0.426
  N  N51  1  0.438400  0.042500  0.635300  1.0  -0.2957
  N  N52  1  0.482200  0.035600  0.714400  1.0  0.4509
  N  N53  1  0.518500  0.031700  0.792200  1.0  -0.4251
  N  N54  1  0.061600  0.957500  0.135300  1.0  -0.2965
  N  N55  1  0.017800  0.964400  0.214400  1.0  0.4499
  N  N56  1  0.981500  0.968300  0.292200  1.0  -0.4247
  N  N57  1  0.864700  0.561600  0.542500  1.0  -0.3006
  N  N58  1  0.785600  0.517800  0.535600  1.0  0.4504
  N  N59  1  0.707800  0.481500  0.531700  1.0  -0.425
  N  N60  1  0.364700  0.938400  0.457500  1.0  -0.3009
  N  N61  1  0.285600  0.982200  0.464400  1.0  0.4501
  N  N62  1  0.207800  0.018500  0.468300  1.0  -0.4259
  N  N63  1  0.635300  0.438400  0.042500  1.0  -0.2978
  N  N64  1  0.714400  0.482200  0.035600  1.0  0.45
  N  N65  1  0.792200  0.518500  0.031700  1.0  -0.427
  N  N66  1  0.135300  0.061600  0.957500  1.0  -0.3005
  N  N67  1  0.214400  0.017800  0.964400  1.0  0.45
  N  N68  1  0.292200  0.981500  0.968300  1.0  -0.4267
  N  N69  1  0.542500  0.864700  0.561600  1.0  -0.2972
  N  N70  1  0.535600  0.785600  0.517800  1.0  0.4503
  N  N71  1  0.531700  0.707800  0.481500  1.0  -0.4255
  N  N72  1  0.457500  0.364700  0.938400  1.0  -0.3006
  N  N73  1  0.464400  0.285600  0.982200  1.0  0.4511
  N  N74  1  0.468300  0.207800  0.018500  1.0  -0.4254
  N  N75  1  0.042500  0.635300  0.438400  1.0  -0.2976
  N  N76  1  0.035600  0.714400  0.482200  1.0  0.4477
  N  N77  1  0.031700  0.792200  0.518500  1.0  -0.4258
  N  N78  1  0.957500  0.135300  0.061600  1.0  -0.2979
  N  N79  1  0.964400  0.214400  0.017800  1.0  0.4486
  N  N80  1  0.968300  0.292200  0.981500  1.0  -0.4273
