# generated using pymatgen
data_UCuH6C14(NO4)2
_symmetry_space_group_name_H-M   'P 1'
_cell_length_a   8.43630000
_cell_length_b   13.14850000
_cell_length_c   17.83300000
_cell_angle_alpha   90.00000000
_cell_angle_beta   90.00000000
_cell_angle_gamma   90.00000000
_symmetry_Int_Tables_number   1
_chemical_formula_structural   UCuH6C14(NO4)2
_chemical_formula_sum   'U4 Cu4 H24 C56 N8 O32'
_cell_volume   1978.12000658
_cell_formula_units_Z   4
loop_
 _symmetry_equiv_pos_site_id
 _symmetry_equiv_pos_as_xyz
  1  'x, y, z'
loop_
 _atom_site_type_symbol
 _atom_site_label
 _atom_site_symmetry_multiplicity
 _atom_site_fract_x
 _atom_site_fract_y
 _atom_site_fract_z
 _atom_site_occupancy
 _atom_site_charge
  U  U1  1  0.817980  0.178180  0.232860  1.0  1.331
  U  U2  1  0.182020  0.821820  0.732860  1.0  1.3308
  U  U3  1  0.317980  0.821820  0.232860  1.0  1.3306
  U  U4  1  0.682020  0.178180  0.732860  1.0  1.3312
  Cu  Cu5  1  0.646500  0.691470  0.492570  1.0  0.8904
  Cu  Cu6  1  0.353500  0.308530  0.992570  1.0  0.89
  Cu  Cu7  1  0.146500  0.308530  0.492570  1.0  0.8904
  Cu  Cu8  1  0.853500  0.691470  0.992570  1.0  0.89
  H  H9  1  0.774400  0.109700  0.492500  1.0  0.0949
  H  H10  1  0.900300  0.011200  0.583600  1.0  0.1294
  H  H11  1  0.844400  0.841300  0.588400  1.0  0.1001
  H  H12  1  0.611800  0.268700  0.453600  1.0  0.1003
  H  H13  1  0.481000  0.368200  0.367900  1.0  0.1307
  H  H14  1  0.493500  0.543200  0.379500  1.0  0.097
  H  H15  1  0.225600  0.890300  0.992500  1.0  0.0955
  H  H16  1  0.099700  0.988800  0.083600  1.0  0.1298
  H  H17  1  0.155600  0.158700  0.088400  1.0  0.0999
  H  H18  1  0.388200  0.731300  0.953600  1.0  0.1004
  H  H19  1  0.519000  0.631800  0.867900  1.0  0.1302
  H  H20  1  0.506500  0.456800  0.879500  1.0  0.0974
  H  H21  1  0.274400  0.890300  0.492500  1.0  0.0953
  H  H22  1  0.400300  0.988800  0.583600  1.0  0.13
  H  H23  1  0.344400  0.158700  0.588400  1.0  0.0997
  H  H24  1  0.111800  0.731300  0.453600  1.0  0.1003
  H  H25  1  0.981000  0.631800  0.367900  1.0  0.1304
  H  H26  1  0.993500  0.456800  0.379500  1.0  0.0974
  H  H27  1  0.725600  0.109700  0.992500  1.0  0.095
  H  H28  1  0.599700  0.011200  0.083600  1.0  0.1296
  H  H29  1  0.655600  0.841300  0.088400  1.0  0.1001
  H  H30  1  0.888200  0.268700  0.953600  1.0  0.1003
  H  H31  1  0.019000  0.368200  0.867900  1.0  0.1307
  H  H32  1  0.006500  0.543200  0.879500  1.0  0.0967
  C  C33  1  0.619300  0.060100  0.369900  1.0  0.6939
  C  C34  1  0.682000  0.994900  0.433100  1.0  -0.0904
  C  C35  1  0.765000  0.039200  0.491200  1.0  -0.0678
  C  C36  1  0.834300  0.981400  0.548100  1.0  -0.1541
  C  C37  1  0.802400  0.880500  0.549800  1.0  0.1723
  C  C38  1  0.655500  0.891000  0.439300  1.0  0.0785
  C  C39  1  0.555800  0.830000  0.386500  1.0  0.659
  C  C40  1  0.779600  0.313900  0.573100  1.0  0.7095
  C  C41  1  0.695400  0.383400  0.518200  1.0  -0.1059
  C  C42  1  0.614000  0.339100  0.458400  1.0  -0.0333
  C  C43  1  0.537000  0.397800  0.407100  1.0  -0.1261
  C  C44  1  0.544600  0.502300  0.414500  1.0  0.1628
  C  C45  1  0.698400  0.488800  0.522000  1.0  0.1245
  C  C46  1  0.784500  0.549100  0.582100  1.0  0.6197
  C  C47  1  0.380700  0.939900  0.869900  1.0  0.693
  C  C48  1  0.318000  0.005100  0.933100  1.0  -0.0907
  C  C49  1  0.235000  0.960800  0.991200  1.0  -0.0695
  C  C50  1  0.165700  0.018600  0.048100  1.0  -0.1546
  C  C51  1  0.197600  0.119500  0.049800  1.0  0.1724
  C  C52  1  0.344500  0.109000  0.939300  1.0  0.0789
  C  C53  1  0.444200  0.170000  0.886500  1.0  0.6585
  C  C54  1  0.220400  0.686100  0.073100  1.0  0.7085
  C  C55  1  0.304600  0.616600  0.018200  1.0  -0.107
  C  C56  1  0.386000  0.660900  0.958400  1.0  -0.0333
  C  C57  1  0.463000  0.602200  0.907100  1.0  -0.1254
  C  C58  1  0.455400  0.497700  0.914500  1.0  0.1612
  C  C59  1  0.301600  0.511200  0.022000  1.0  0.1243
  C  C60  1  0.215500  0.450900  0.082100  1.0  0.6182
  C  C61  1  0.119300  0.939900  0.369900  1.0  0.6946
  C  C62  1  0.182000  0.005100  0.433100  1.0  -0.0906
  C  C63  1  0.265000  0.960800  0.491200  1.0  -0.0692
  C  C64  1  0.334300  0.018600  0.548100  1.0  -0.1541
  C  C65  1  0.302400  0.119500  0.549800  1.0  0.1721
  C  C66  1  0.155500  0.109000  0.439300  1.0  0.0787
  C  C67  1  0.055800  0.170000  0.386500  1.0  0.6599
  C  C68  1  0.279600  0.686100  0.573100  1.0  0.7091
  C  C69  1  0.195400  0.616600  0.518200  1.0  -0.1064
  C  C70  1  0.114000  0.660900  0.458400  1.0  -0.0335
  C  C71  1  0.037000  0.602200  0.407100  1.0  -0.1257
  C  C72  1  0.044600  0.497700  0.414500  1.0  0.1619
  C  C73  1  0.198400  0.511200  0.522000  1.0  0.124
  C  C74  1  0.284500  0.450900  0.582100  1.0  0.6191
  C  C75  1  0.880700  0.060100  0.869900  1.0  0.6924
  C  C76  1  0.818000  0.994900  0.933100  1.0  -0.0905
  C  C77  1  0.735000  0.039200  0.991200  1.0  -0.0682
  C  C78  1  0.665700  0.981400  0.048100  1.0  -0.155
  C  C79  1  0.697600  0.880500  0.049800  1.0  0.1725
  C  C80  1  0.844500  0.891000  0.939300  1.0  0.0789
  C  C81  1  0.944200  0.830000  0.886500  1.0  0.6577
  C  C82  1  0.720400  0.313900  0.073100  1.0  0.7091
  C  C83  1  0.804600  0.383400  0.018200  1.0  -0.1066
  C  C84  1  0.886000  0.339100  0.958400  1.0  -0.0332
  C  C85  1  0.963000  0.397800  0.907100  1.0  -0.1257
  C  C86  1  0.955400  0.502300  0.914500  1.0  0.1621
  C  C87  1  0.801600  0.488800  0.022000  1.0  0.1247
  C  C88  1  0.715500  0.549100  0.082100  1.0  0.6187
  N  N89  1  0.712000  0.835200  0.497600  1.0  -0.3198
  N  N90  1  0.623900  0.545800  0.471100  1.0  -0.2563
  N  N91  1  0.288000  0.164800  0.997600  1.0  -0.3211
  N  N92  1  0.376100  0.454200  0.971100  1.0  -0.2546
  N  N93  1  0.212000  0.164800  0.497600  1.0  -0.3211
  N  N94  1  0.123900  0.454200  0.471100  1.0  -0.2548
  N  N95  1  0.788000  0.835200  0.997600  1.0  -0.3199
  N  N96  1  0.876100  0.545800  0.971100  1.0  -0.256
  O  O97  1  0.687900  0.053600  0.306100  1.0  -0.7062
  O  O98  1  0.510900  0.119700  0.385900  1.0  -0.5358
  O  O99  1  0.489600  0.874000  0.333100  1.0  -0.6683
  O  O100  1  0.544400  0.735800  0.400500  1.0  -0.5594
  O  O101  1  0.773000  0.644900  0.577000  1.0  -0.5616
  O  O102  1  0.856100  0.505600  0.632300  1.0  -0.488
  O  O103  1  0.915400  0.285200  0.560800  1.0  -0.6672
  O  O104  1  0.691200  0.283200  0.625900  1.0  -0.7494
  O  O105  1  0.312100  0.946400  0.806100  1.0  -0.7061
  O  O106  1  0.489100  0.880300  0.885900  1.0  -0.5358
  O  O107  1  0.510400  0.126000  0.833100  1.0  -0.6693
  O  O108  1  0.455600  0.264200  0.900500  1.0  -0.5571
  O  O109  1  0.227000  0.355100  0.077000  1.0  -0.5624
  O  O110  1  0.143900  0.494400  0.132300  1.0  -0.488
  O  O111  1  0.084600  0.714800  0.060800  1.0  -0.6691
  O  O112  1  0.308800  0.716800  0.125900  1.0  -0.749
  O  O113  1  0.187900  0.946400  0.306100  1.0  -0.706
  O  O114  1  0.010900  0.880300  0.385900  1.0  -0.5359
  O  O115  1  0.989600  0.126000  0.333100  1.0  -0.6696
  O  O116  1  0.044400  0.264200  0.400500  1.0  -0.557
  O  O117  1  0.273000  0.355100  0.577000  1.0  -0.5621
  O  O118  1  0.356100  0.494400  0.632300  1.0  -0.4882
  O  O119  1  0.415400  0.714800  0.560800  1.0  -0.6683
  O  O120  1  0.191200  0.716800  0.625900  1.0  -0.7485
  O  O121  1  0.812100  0.053600  0.806100  1.0  -0.7076
  O  O122  1  0.989100  0.119700  0.885900  1.0  -0.5355
  O  O123  1  0.010400  0.874000  0.833100  1.0  -0.6683
  O  O124  1  0.955600  0.735800  0.900500  1.0  -0.5591
  O  O125  1  0.727000  0.644900  0.077000  1.0  -0.5618
  O  O126  1  0.643900  0.505600  0.132300  1.0  -0.4872
  O  O127  1  0.584600  0.285200  0.060800  1.0  -0.668
  O  O128  1  0.808800  0.283200  0.125900  1.0  -0.7497
