# generated using pymatgen
data_ZnH6(C5N3)2
_symmetry_space_group_name_H-M   'P 1'
_cell_length_a   7.22590000
_cell_length_b   15.14200000
_cell_length_c   18.69830000
_cell_angle_alpha   90.00000000
_cell_angle_beta   90.00000000
_cell_angle_gamma   93.14400000
_symmetry_Int_Tables_number   1
_chemical_formula_structural   ZnH6(C5N3)2
_chemical_formula_sum   'Zn4 H24 C40 N24'
_cell_volume   2042.78725649
_cell_formula_units_Z   4
loop_
 _symmetry_equiv_pos_site_id
 _symmetry_equiv_pos_as_xyz
  1  'x, y, z'
loop_
 _atom_site_type_symbol
 _atom_site_label
 _atom_site_symmetry_multiplicity
 _atom_site_fract_x
 _atom_site_fract_y
 _atom_site_fract_z
 _atom_site_occupancy
 _atom_site_charge
  Zn  Zn1  1  0.362470  0.980770  0.920330  1.0  0.7411
  Zn  Zn2  1  0.362470  0.480770  0.579670  1.0  0.7408
  Zn  Zn3  1  0.637530  0.519230  0.420330  1.0  0.741
  Zn  Zn4  1  0.637530  0.019230  0.079670  1.0  0.7406
  H  H5  1  0.303100  0.595000  0.334700  1.0  0.0907
  H  H6  1  0.940300  0.969500  0.174400  1.0  0.0624
  H  H7  1  0.303100  0.095000  0.165300  1.0  0.0928
  H  H8  1  0.987400  0.135400  0.743900  1.0  0.1143
  H  H9  1  0.987400  0.635400  0.756100  1.0  0.1139
  H  H10  1  0.059700  0.030500  0.825600  1.0  0.0624
  H  H11  1  0.696900  0.405000  0.665300  1.0  0.0932
  H  H12  1  0.033800  0.590900  0.518700  1.0  0.0979
  H  H13  1  0.966200  0.409100  0.481300  1.0  0.099
  H  H14  1  0.012600  0.364600  0.243900  1.0  0.1129
  H  H15  1  0.059700  0.530500  0.674400  1.0  0.0633
  H  H16  1  0.568900  0.624600  0.665800  1.0  0.0713
  H  H17  1  0.431100  0.875400  0.165800  1.0  0.072
  H  H18  1  0.568900  0.124600  0.834200  1.0  0.0726
  H  H19  1  0.966200  0.909100  0.018700  1.0  0.0991
  H  H20  1  0.489300  0.270600  0.251000  1.0  0.1107
  H  H21  1  0.940300  0.469500  0.325600  1.0  0.0621
  H  H22  1  0.696900  0.905000  0.834700  1.0  0.0911
  H  H23  1  0.012600  0.864600  0.256100  1.0  0.1128
  H  H24  1  0.489300  0.770600  0.249000  1.0  0.1103
  H  H25  1  0.431100  0.375400  0.334200  1.0  0.0717
  H  H26  1  0.510700  0.229400  0.751000  1.0  0.1104
  H  H27  1  0.510700  0.729400  0.749000  1.0  0.1101
  H  H28  1  0.033800  0.090900  0.981300  1.0  0.0977
  C  C29  1  0.584600  0.310000  0.266000  1.0  -0.1588
  C  C30  1  0.240000  0.195300  0.738300  1.0  -0.0322
  C  C31  1  0.877900  0.417100  0.516540  1.0  0.0115
  C  C32  1  0.803700  0.236000  0.186220  1.0  0.3393
  C  C33  1  0.152100  0.571900  0.689000  1.0  0.1674
  C  C34  1  0.803700  0.736000  0.313780  1.0  0.3394
  C  C35  1  0.043900  0.845900  0.878080  1.0  0.3054
  C  C36  1  0.847900  0.928100  0.189000  1.0  0.1649
  C  C37  1  0.270200  0.085000  0.117800  1.0  0.0415
  C  C38  1  0.877900  0.917100  0.983460  1.0  0.013
  C  C39  1  0.891900  0.889700  0.913250  1.0  -0.1265
  C  C40  1  0.196300  0.764000  0.813780  1.0  0.3398
  C  C41  1  0.415400  0.690000  0.734000  1.0  -0.1579
  C  C42  1  0.760000  0.804700  0.261700  1.0  -0.0337
  C  C43  1  0.449600  0.126500  0.815800  1.0  0.1583
  C  C44  1  0.196300  0.264000  0.686220  1.0  0.3396
  C  C45  1  0.108100  0.110300  0.086750  1.0  -0.1286
  C  C46  1  0.729800  0.415000  0.617800  1.0  0.0408
  C  C47  1  0.152100  0.071900  0.811000  1.0  0.1672
  C  C48  1  0.122100  0.082900  0.016540  1.0  0.014
  C  C49  1  0.892400  0.365400  0.261500  1.0  -0.1494
  C  C50  1  0.729800  0.915000  0.882200  1.0  0.0416
  C  C51  1  0.415400  0.190000  0.766000  1.0  -0.1581
  C  C52  1  0.240000  0.695300  0.761700  1.0  -0.0345
  C  C53  1  0.956100  0.154100  0.121920  1.0  0.3053
  C  C54  1  0.956100  0.654100  0.378080  1.0  0.3056
  C  C55  1  0.892400  0.865400  0.238500  1.0  -0.1498
  C  C56  1  0.847900  0.428100  0.311000  1.0  0.1661
  C  C57  1  0.891900  0.389700  0.586750  1.0  -0.1271
  C  C58  1  0.760000  0.304700  0.238300  1.0  -0.0327
  C  C59  1  0.550400  0.873500  0.184200  1.0  0.1584
  C  C60  1  0.108100  0.610300  0.413250  1.0  -0.1283
  C  C61  1  0.584600  0.810000  0.234000  1.0  -0.1587
  C  C62  1  0.043900  0.345900  0.621920  1.0  0.3054
  C  C63  1  0.270200  0.585000  0.382200  1.0  0.0418
  C  C64  1  0.449600  0.626500  0.684200  1.0  0.1591
  C  C65  1  0.107600  0.134600  0.761500  1.0  -0.1506
  C  C66  1  0.122100  0.582900  0.483460  1.0  0.0137
  C  C67  1  0.550400  0.373500  0.315800  1.0  0.1575
  C  C68  1  0.107600  0.634600  0.738500  1.0  -0.151
  N  N69  1  0.627500  0.955800  0.929610  1.0  -0.237
  N  N70  1  0.677400  0.181800  0.156610  1.0  -0.3437
  N  N71  1  0.776800  0.627890  0.385360  1.0  -0.2687
  N  N72  1  0.776800  0.127890  0.114640  1.0  -0.2681
  N  N73  1  0.981400  0.721800  0.333190  1.0  -0.3991
  N  N74  1  0.322600  0.818200  0.843390  1.0  -0.3443
  N  N75  1  0.719700  0.956560  0.993280  1.0  -0.2522
  N  N76  1  0.280300  0.543440  0.493280  1.0  -0.252
  N  N77  1  0.223200  0.872110  0.885360  1.0  -0.2689
  N  N78  1  0.679600  0.932500  0.160930  1.0  -0.3452
  N  N79  1  0.322600  0.318200  0.656610  1.0  -0.3442
  N  N80  1  0.320400  0.567500  0.660930  1.0  -0.3435
  N  N81  1  0.372500  0.544200  0.429610  1.0  -0.2376
  N  N82  1  0.223200  0.372110  0.614640  1.0  -0.2688
  N  N83  1  0.372500  0.044200  0.070390  1.0  -0.2374
  N  N84  1  0.018600  0.778200  0.833190  1.0  -0.3948
  N  N85  1  0.677400  0.681800  0.343390  1.0  -0.3438
  N  N86  1  0.320400  0.067500  0.839070  1.0  -0.3436
  N  N87  1  0.627500  0.455800  0.570390  1.0  -0.2369
  N  N88  1  0.679600  0.432500  0.339070  1.0  -0.3471
  N  N89  1  0.280300  0.043440  0.006720  1.0  -0.2511
  N  N90  1  0.719700  0.456560  0.506720  1.0  -0.2507
  N  N91  1  0.981400  0.221800  0.166810  1.0  -0.3994
  N  N92  1  0.018600  0.278200  0.666810  1.0  -0.3992
