# generated using pymatgen
data_CdC4N6Cl
_symmetry_space_group_name_H-M   'P 1'
_cell_length_a   8.86940000
_cell_length_b   17.82700000
_cell_length_c   9.40620000
_cell_angle_alpha   90.00000000
_cell_angle_beta   107.25000000
_cell_angle_gamma   90.00000000
_symmetry_Int_Tables_number   1
_chemical_formula_structural   CdC4N6Cl
_chemical_formula_sum   'Cd4 C16 N24 Cl4'
_cell_volume   1420.36236422
_cell_formula_units_Z   4
loop_
 _symmetry_equiv_pos_site_id
 _symmetry_equiv_pos_as_xyz
  1  'x, y, z'
loop_
 _atom_site_type_symbol
 _atom_site_label
 _atom_site_symmetry_multiplicity
 _atom_site_fract_x
 _atom_site_fract_y
 _atom_site_fract_z
 _atom_site_occupancy
 _atom_site_charge
  Cd  Cd1  1  0.422820  0.572940  0.849540  1.0  0.8906
  Cd  Cd2  1  0.077180  0.072940  0.650460  1.0  0.8894
  Cd  Cd3  1  0.577180  0.427060  0.150460  1.0  0.8903
  Cd  Cd4  1  0.922820  0.927060  0.349540  1.0  0.8907
  C  C5  1  0.479000  0.717070  0.103800  1.0  0.6279
  C  C6  1  0.593700  0.824070  0.210300  1.0  0.6381
  C  C7  1  0.367200  0.437610  0.578800  1.0  0.6084
  C  C8  1  0.404900  0.369660  0.387800  1.0  0.6316
  C  C9  1  0.021000  0.217070  0.396200  1.0  0.6272
  C  C10  1  0.906300  0.324070  0.289700  1.0  0.6348
  C  C11  1  0.132800  0.937610  0.921200  1.0  0.6065
  C  C12  1  0.095100  0.869660  0.112200  1.0  0.6327
  C  C13  1  0.521000  0.282930  0.896200  1.0  0.6267
  C  C14  1  0.406300  0.175930  0.789700  1.0  0.6381
  C  C15  1  0.632800  0.562390  0.421200  1.0  0.6066
  C  C16  1  0.595100  0.630340  0.612200  1.0  0.6325
  C  C17  1  0.979000  0.782930  0.603800  1.0  0.6274
  C  C18  1  0.093700  0.675930  0.710300  1.0  0.6356
  C  C19  1  0.867200  0.062390  0.078800  1.0  0.6087
  C  C20  1  0.904900  0.130340  0.887800  1.0  0.6314
  N  N21  1  0.456300  0.668320  0.022900  1.0  -0.4932
  N  N22  1  0.493600  0.770580  0.200700  1.0  -0.4529
  N  N23  1  0.677800  0.874200  0.228000  1.0  -0.5067
  N  N24  1  0.377400  0.484350  0.660800  1.0  -0.4846
  N  N25  1  0.335200  0.381700  0.487800  1.0  -0.4279
  N  N26  1  0.458200  0.353080  0.296700  1.0  -0.5271
  N  N27  1  0.043700  0.168320  0.477100  1.0  -0.4938
  N  N28  1  0.006400  0.270580  0.299300  1.0  -0.4544
  N  N29  1  0.822200  0.374200  0.272000  1.0  -0.5083
  N  N30  1  0.122600  0.984350  0.839200  1.0  -0.4851
  N  N31  1  0.164800  0.881700  0.012200  1.0  -0.4261
  N  N32  1  0.041800  0.853080  0.203300  1.0  -0.525
  N  N33  1  0.543700  0.331680  0.977100  1.0  -0.4925
  N  N34  1  0.506400  0.229420  0.799300  1.0  -0.4545
  N  N35  1  0.322200  0.125800  0.772000  1.0  -0.5047
  N  N36  1  0.622600  0.515650  0.339200  1.0  -0.4849
  N  N37  1  0.664800  0.618300  0.512200  1.0  -0.4258
  N  N38  1  0.541800  0.646920  0.703300  1.0  -0.5278
  N  N39  1  0.956300  0.831680  0.522900  1.0  -0.4951
  N  N40  1  0.993600  0.729420  0.700700  1.0  -0.453
  N  N41  1  0.177800  0.625800  0.728000  1.0  -0.5049
  N  N42  1  0.877400  0.015650  0.160800  1.0  -0.4837
  N  N43  1  0.835200  0.118300  0.987800  1.0  -0.4275
  N  N44  1  0.958200  0.146920  0.796700  1.0  -0.5276
  Cl  Cl45  1  0.697920  0.514160  0.987700  1.0  -0.5016
  Cl  Cl46  1  0.802080  0.014160  0.512300  1.0  -0.5025
  Cl  Cl47  1  0.302080  0.485840  0.012300  1.0  -0.5025
  Cl  Cl48  1  0.197920  0.985840  0.487700  1.0  -0.5015
