# generated using pymatgen
data_UH6(C3O2)2
_symmetry_space_group_name_H-M   'P 1'
_cell_length_a   8.93670000
_cell_length_b   9.49440000
_cell_length_c   11.97690000
_cell_angle_alpha   83.96700000
_cell_angle_beta   73.74000000
_cell_angle_gamma   67.59800000
_symmetry_Int_Tables_number   1
_chemical_formula_structural   UH6(C3O2)2
_chemical_formula_sum   'U3 H18 C18 O12'
_cell_volume   901.94985440
_cell_formula_units_Z   3
loop_
 _symmetry_equiv_pos_site_id
 _symmetry_equiv_pos_as_xyz
  1  'x, y, z'
loop_
 _atom_site_type_symbol
 _atom_site_label
 _atom_site_symmetry_multiplicity
 _atom_site_fract_x
 _atom_site_fract_y
 _atom_site_fract_z
 _atom_site_occupancy
 _atom_site_charge
  U  U1  1  0.579550  0.710340  0.821130  1.0  1.6756
  U  U2  1  0.420450  0.289660  0.178870  1.0  1.6776
  U  U3  1  0.500000  0.000000  0.500000  1.0  1.9078
  H  H4  1  0.763600  0.125800  0.960000  1.0  0.0653
  H  H5  1  0.019600  0.944500  0.363000  1.0  0.073
  H  H6  1  0.292400  0.736600  0.257100  1.0  0.0891
  H  H7  1  0.982500  0.081000  0.143400  1.0  0.0767
  H  H8  1  0.425800  0.784900  0.156900  1.0  0.0899
  H  H9  1  0.236400  0.874200  0.040000  1.0  0.0652
  H  H10  1  0.996500  0.224000  0.784200  1.0  0.0871
  H  H11  1  0.989100  0.120500  0.333700  1.0  0.0818
  H  H12  1  0.974300  0.848100  0.092800  1.0  0.0766
  H  H13  1  0.010900  0.879500  0.666300  1.0  0.0795
  H  H14  1  0.017500  0.919000  0.856600  1.0  0.0779
  H  H15  1  0.707600  0.263400  0.742900  1.0  0.0886
  H  H16  1  0.980400  0.055500  0.637000  1.0  0.0712
  H  H17  1  0.574200  0.215100  0.843100  1.0  0.0911
  H  H18  1  0.025700  0.151900  0.907200  1.0  0.0764
  H  H19  1  0.757900  0.952700  0.819200  1.0  0.0835
  H  H20  1  0.242100  0.047300  0.180800  1.0  0.081
  H  H21  1  0.003500  0.776000  0.215800  1.0  0.0879
  C  C22  1  0.304700  0.810900  0.194200  1.0  -0.1746
  C  C23  1  0.038400  0.016900  0.299800  1.0  -0.1492
  C  C24  1  0.317700  0.985900  0.330400  1.0  0.6286
  C  C25  1  0.027400  0.849100  0.154800  1.0  -0.1488
  C  C26  1  0.295600  0.641200  0.053800  1.0  0.6746
  C  C27  1  0.216400  0.802300  0.104500  1.0  -0.1812
  C  C28  1  0.783600  0.197700  0.895500  1.0  -0.1822
  C  C29  1  0.226800  0.974900  0.246000  1.0  -0.1681
  C  C30  1  0.233400  0.935400  0.752900  1.0  0.6874
  C  C31  1  0.773200  0.025100  0.754000  1.0  -0.1693
  C  C32  1  0.695300  0.189100  0.805800  1.0  -0.1741
  C  C33  1  0.972600  0.150900  0.845200  1.0  -0.1482
  C  C34  1  0.704400  0.358800  0.946200  1.0  0.6741
  C  C35  1  0.961600  0.983100  0.700200  1.0  -0.1508
  C  C36  1  0.045700  0.988500  0.792400  1.0  -0.178
  C  C37  1  0.682300  0.014100  0.669600  1.0  0.6285
  C  C38  1  0.766600  0.064600  0.247100  1.0  0.6859
  C  C39  1  0.954300  0.011500  0.207600  1.0  -0.1773
  O  O40  1  0.303800  0.926300  0.646100  1.0  -0.7482
  O  O41  1  0.382300  0.618700  0.950400  1.0  -0.7062
  O  O42  1  0.684600  0.089000  0.578000  1.0  -0.6377
  O  O43  1  0.696200  0.073700  0.353900  1.0  -0.7471
  O  O44  1  0.617700  0.381300  0.049600  1.0  -0.7092
  O  O45  1  0.310200  0.898500  0.831900  1.0  -0.6838
  O  O46  1  0.689800  0.101500  0.168100  1.0  -0.6854
  O  O47  1  0.402800  0.073100  0.309400  1.0  -0.8181
  O  O48  1  0.265500  0.537300  0.118900  1.0  -0.7404
  O  O49  1  0.597200  0.926900  0.690600  1.0  -0.8206
  O  O50  1  0.734500  0.462700  0.881100  1.0  -0.7438
  O  O51  1  0.315400  0.911000  0.422000  1.0  -0.6396
