# generated using pymatgen
data_CuH24C30(NO)6
_symmetry_space_group_name_H-M   'P 1'
_cell_length_a   23.18850000
_cell_length_b   23.18850000
_cell_length_c   23.18850000
_cell_angle_alpha   90.00000000
_cell_angle_beta   90.00000000
_cell_angle_gamma   90.00000000
_symmetry_Int_Tables_number   1
_chemical_formula_structural   CuH24C30(NO)6
_chemical_formula_sum   'Cu8 H192 C240 N48 O48'
_cell_volume   12468.60792308
_cell_formula_units_Z   8
loop_
 _symmetry_equiv_pos_site_id
 _symmetry_equiv_pos_as_xyz
  1  'x, y, z'
loop_
 _atom_site_type_symbol
 _atom_site_label
 _atom_site_symmetry_multiplicity
 _atom_site_fract_x
 _atom_site_fract_y
 _atom_site_fract_z
 _atom_site_occupancy
 _atom_site_charge
  Cu  Cu1  1  0.250000  0.250000  0.250000  1.0  0.7192
  Cu  Cu2  1  0.750000  0.750000  0.250000  1.0  0.7192
  Cu  Cu3  1  0.750000  0.250000  0.750000  1.0  0.7192
  Cu  Cu4  1  0.250000  0.750000  0.750000  1.0  0.7192
  Cu  Cu5  1  0.750000  0.750000  0.750000  1.0  0.7192
  Cu  Cu6  1  0.250000  0.250000  0.750000  1.0  0.7192
  Cu  Cu7  1  0.250000  0.750000  0.250000  1.0  0.7192
  Cu  Cu8  1  0.750000  0.250000  0.250000  1.0  0.7192
  H  H9  1  0.387600  0.276100  0.357800  1.0  0.1043
  H  H10  1  0.390700  0.275100  0.454900  1.0  0.104
  H  H11  1  0.264900  0.158200  0.456400  1.0  0.1105
  H  H12  1  0.263300  0.160100  0.355400  1.0  0.1172
  H  H13  1  0.887600  0.776100  0.857800  1.0  0.1043
  H  H14  1  0.890700  0.775100  0.954900  1.0  0.104
  H  H15  1  0.764900  0.658200  0.956400  1.0  0.1105
  H  H16  1  0.763300  0.660100  0.855400  1.0  0.1172
  H  H17  1  0.612400  0.723900  0.357800  1.0  0.1038
  H  H18  1  0.609300  0.724900  0.454900  1.0  0.1032
  H  H19  1  0.735100  0.841800  0.456400  1.0  0.1108
  H  H20  1  0.736700  0.839900  0.355400  1.0  0.1176
  H  H21  1  0.112400  0.223900  0.857800  1.0  0.1038
  H  H22  1  0.109300  0.224900  0.954900  1.0  0.1032
  H  H23  1  0.235100  0.341800  0.956400  1.0  0.1108
  H  H24  1  0.236700  0.339900  0.855400  1.0  0.1176
  H  H25  1  0.612400  0.276100  0.642200  1.0  0.1035
  H  H26  1  0.609300  0.275100  0.545100  1.0  0.1034
  H  H27  1  0.735100  0.158200  0.543600  1.0  0.1102
  H  H28  1  0.736700  0.160100  0.644600  1.0  0.1176
  H  H29  1  0.112400  0.776100  0.142200  1.0  0.1035
  H  H30  1  0.109300  0.775100  0.045100  1.0  0.1034
  H  H31  1  0.235100  0.658200  0.043600  1.0  0.1102
  H  H32  1  0.236700  0.660100  0.144600  1.0  0.1176
  H  H33  1  0.387600  0.723900  0.642200  1.0  0.1036
  H  H34  1  0.390700  0.724900  0.545100  1.0  0.1032
  H  H35  1  0.264900  0.841800  0.543600  1.0  0.1103
  H  H36  1  0.263300  0.839900  0.644600  1.0  0.1175
  H  H37  1  0.887600  0.223900  0.142200  1.0  0.1036
  H  H38  1  0.890700  0.224900  0.045100  1.0  0.1032
  H  H39  1  0.764900  0.341800  0.043600  1.0  0.1103
  H  H40  1  0.763300  0.339900  0.144600  1.0  0.1175
  H  H41  1  0.357800  0.387600  0.276100  1.0  0.1033
  H  H42  1  0.454900  0.390700  0.275100  1.0  0.1051
  H  H43  1  0.456400  0.264900  0.158200  1.0  0.112
  H  H44  1  0.355400  0.263300  0.160100  1.0  0.118
  H  H45  1  0.857800  0.887600  0.776100  1.0  0.1033
  H  H46  1  0.954900  0.890700  0.775100  1.0  0.1051
  H  H47  1  0.956400  0.764900  0.658200  1.0  0.112
  H  H48  1  0.855400  0.763300  0.660100  1.0  0.118
  H  H49  1  0.357800  0.612400  0.723900  1.0  0.1039
  H  H50  1  0.454900  0.609300  0.724900  1.0  0.1047
  H  H51  1  0.456400  0.735100  0.841800  1.0  0.113
  H  H52  1  0.355400  0.736700  0.839900  1.0  0.1178
  H  H53  1  0.857800  0.112400  0.223900  1.0  0.1039
  H  H54  1  0.954900  0.109300  0.224900  1.0  0.1047
  H  H55  1  0.956400  0.235100  0.341800  1.0  0.113
  H  H56  1  0.855400  0.236700  0.339900  1.0  0.1178
  H  H57  1  0.642200  0.612400  0.276100  1.0  0.104
  H  H58  1  0.545100  0.609300  0.275100  1.0  0.105
  H  H59  1  0.543600  0.735100  0.158200  1.0  0.1124
  H  H60  1  0.644600  0.736700  0.160100  1.0  0.1168
  H  H61  1  0.142200  0.112400  0.776100  1.0  0.104
  H  H62  1  0.045100  0.109300  0.775100  1.0  0.105
  H  H63  1  0.043600  0.235100  0.658200  1.0  0.1124
  H  H64  1  0.144600  0.236700  0.660100  1.0  0.1168
  H  H65  1  0.642200  0.387600  0.723900  1.0  0.1036
  H  H66  1  0.545100  0.390700  0.724900  1.0  0.1049
  H  H67  1  0.543600  0.264900  0.841800  1.0  0.1135
  H  H68  1  0.644600  0.263300  0.839900  1.0  0.1179
  H  H69  1  0.142200  0.887600  0.223900  1.0  0.1036
  H  H70  1  0.045100  0.890700  0.224900  1.0  0.1049
  H  H71  1  0.043600  0.764900  0.341800  1.0  0.1135
  H  H72  1  0.144600  0.763300  0.339900  1.0  0.1179
  H  H73  1  0.276100  0.357800  0.387600  1.0  0.1042
  H  H74  1  0.275100  0.454900  0.390700  1.0  0.1049
  H  H75  1  0.158200  0.456400  0.264900  1.0  0.1104
  H  H76  1  0.160100  0.355400  0.263300  1.0  0.1148
  H  H77  1  0.776100  0.857800  0.887600  1.0  0.1042
  H  H78  1  0.775100  0.954900  0.890700  1.0  0.1049
  H  H79  1  0.658200  0.956400  0.764900  1.0  0.1104
  H  H80  1  0.660100  0.855400  0.763300  1.0  0.1148
  H  H81  1  0.723900  0.357800  0.612400  1.0  0.1036
  H  H82  1  0.724900  0.454900  0.609300  1.0  0.1048
  H  H83  1  0.841800  0.456400  0.735100  1.0  0.1106
  H  H84  1  0.839900  0.355400  0.736700  1.0  0.1149
  H  H85  1  0.223900  0.857800  0.112400  1.0  0.1036
  H  H86  1  0.224900  0.954900  0.109300  1.0  0.1048
  H  H87  1  0.341800  0.956400  0.235100  1.0  0.1106
  H  H88  1  0.339900  0.855400  0.236700  1.0  0.1149
  H  H89  1  0.276100  0.642200  0.612400  1.0  0.1033
  H  H90  1  0.275100  0.545100  0.609300  1.0  0.1047
  H  H91  1  0.158200  0.543600  0.735100  1.0  0.1105
  H  H92  1  0.160100  0.644600  0.736700  1.0  0.1143
  H  H93  1  0.776100  0.142200  0.112400  1.0  0.1033
  H  H94  1  0.775100  0.045100  0.109300  1.0  0.1047
  H  H95  1  0.658200  0.043600  0.235100  1.0  0.1105
  H  H96  1  0.660100  0.144600  0.236700  1.0  0.1143
  H  H97  1  0.723900  0.642200  0.387600  1.0  0.1042
  H  H98  1  0.724900  0.545100  0.390700  1.0  0.1048
  H  H99  1  0.841800  0.543600  0.264900  1.0  0.1104
  H  H100  1  0.839900  0.644600  0.263300  1.0  0.1151
  H  H101  1  0.223900  0.142200  0.887600  1.0  0.1042
  H  H102  1  0.224900  0.045100  0.890700  1.0  0.1048
  H  H103  1  0.341800  0.043600  0.764900  1.0  0.1104
  H  H104  1  0.339900  0.144600  0.763300  1.0  0.1151
  H  H105  1  0.612400  0.723900  0.642200  1.0  0.1034
  H  H106  1  0.609300  0.724900  0.545100  1.0  0.1028
  H  H107  1  0.735100  0.841800  0.543600  1.0  0.1103
  H  H108  1  0.736700  0.839900  0.644600  1.0  0.1176
  H  H109  1  0.112400  0.223900  0.142200  1.0  0.1034
  H  H110  1  0.109300  0.224900  0.045100  1.0  0.1028
  H  H111  1  0.235100  0.341800  0.043600  1.0  0.1103
  H  H112  1  0.236700  0.339900  0.144600  1.0  0.1176
  H  H113  1  0.387600  0.276100  0.642200  1.0  0.1035
  H  H114  1  0.390700  0.275100  0.545100  1.0  0.1038
  H  H115  1  0.264900  0.158200  0.543600  1.0  0.1101
  H  H116  1  0.263300  0.160100  0.644600  1.0  0.1171
  H  H117  1  0.887600  0.776100  0.142200  1.0  0.1035
  H  H118  1  0.890700  0.775100  0.045100  1.0  0.1038
  H  H119  1  0.764900  0.658200  0.043600  1.0  0.1101
  H  H120  1  0.763300  0.660100  0.144600  1.0  0.1171
  H  H121  1  0.387600  0.723900  0.357800  1.0  0.1043
  H  H122  1  0.390700  0.724900  0.454900  1.0  0.1038
  H  H123  1  0.264900  0.841800  0.456400  1.0  0.1103
  H  H124  1  0.263300  0.839900  0.355400  1.0  0.1182
  H  H125  1  0.887600  0.223900  0.857800  1.0  0.1043
  H  H126  1  0.890700  0.224900  0.954900  1.0  0.1038
  H  H127  1  0.764900  0.341800  0.956400  1.0  0.1103
  H  H128  1  0.763300  0.339900  0.855400  1.0  0.1182
  H  H129  1  0.612400  0.276100  0.357800  1.0  0.1041
  H  H130  1  0.609300  0.275100  0.454900  1.0  0.1034
  H  H131  1  0.735100  0.158200  0.456400  1.0  0.111
  H  H132  1  0.736700  0.160100  0.355400  1.0  0.1169
  H  H133  1  0.112400  0.776100  0.857800  1.0  0.1041
  H  H134  1  0.109300  0.775100  0.954900  1.0  0.1034
  H  H135  1  0.235100  0.658200  0.956400  1.0  0.111
  H  H136  1  0.236700  0.660100  0.855400  1.0  0.1169
  H  H137  1  0.642200  0.612400  0.723900  1.0  0.1038
  H  H138  1  0.545100  0.609300  0.724900  1.0  0.1046
  H  H139  1  0.543600  0.735100  0.841800  1.0  0.1131
  H  H140  1  0.644600  0.736700  0.839900  1.0  0.1175
  H  H141  1  0.142200  0.112400  0.223900  1.0  0.1038
  H  H142  1  0.045100  0.109300  0.224900  1.0  0.1046
  H  H143  1  0.043600  0.235100  0.341800  1.0  0.1131
  H  H144  1  0.144600  0.236700  0.339900  1.0  0.1175
  H  H145  1  0.642200  0.387600  0.276100  1.0  0.1031
  H  H146  1  0.545100  0.390700  0.275100  1.0  0.1051
  H  H147  1  0.543600  0.264900  0.158200  1.0  0.1125
  H  H148  1  0.644600  0.263300  0.160100  1.0  0.1167
  H  H149  1  0.142200  0.887600  0.776100  1.0  0.1031
  H  H150  1  0.045100  0.890700  0.775100  1.0  0.1051
  H  H151  1  0.043600  0.764900  0.658200  1.0  0.1125
  H  H152  1  0.144600  0.763300  0.660100  1.0  0.1167
  H  H153  1  0.357800  0.387600  0.723900  1.0  0.1037
  H  H154  1  0.454900  0.390700  0.724900  1.0  0.105
  H  H155  1  0.456400  0.264900  0.841800  1.0  0.1135
  H  H156  1  0.355400  0.263300  0.839900  1.0  0.118
  H  H157  1  0.857800  0.887600  0.223900  1.0  0.1037
  H  H158  1  0.954900  0.890700  0.224900  1.0  0.105
  H  H159  1  0.956400  0.764900  0.341800  1.0  0.1135
  H  H160  1  0.855400  0.763300  0.339900  1.0  0.118
  H  H161  1  0.357800  0.612400  0.276100  1.0  0.1039
  H  H162  1  0.454900  0.609300  0.275100  1.0  0.1051
  H  H163  1  0.456400  0.735100  0.158200  1.0  0.1118
  H  H164  1  0.355400  0.736700  0.160100  1.0  0.118
  H  H165  1  0.857800  0.112400  0.776100  1.0  0.1039
  H  H166  1  0.954900  0.109300  0.775100  1.0  0.1051
  H  H167  1  0.956400  0.235100  0.658200  1.0  0.1118
  H  H168  1  0.855400  0.236700  0.660100  1.0  0.118
  H  H169  1  0.723900  0.642200  0.612400  1.0  0.1032
  H  H170  1  0.724900  0.545100  0.609300  1.0  0.1047
  H  H171  1  0.841800  0.543600  0.735100  1.0  0.1102
  H  H172  1  0.839900  0.644600  0.736700  1.0  0.1149
  H  H173  1  0.223900  0.142200  0.112400  1.0  0.1032
  H  H174  1  0.224900  0.045100  0.109300  1.0  0.1047
  H  H175  1  0.341800  0.043600  0.235100  1.0  0.1102
  H  H176  1  0.339900  0.144600  0.236700  1.0  0.1149
  H  H177  1  0.276100  0.642200  0.387600  1.0  0.1043
  H  H178  1  0.275100  0.545100  0.390700  1.0  0.1051
  H  H179  1  0.158200  0.543600  0.264900  1.0  0.1105
  H  H180  1  0.160100  0.644600  0.263300  1.0  0.1143
  H  H181  1  0.776100  0.142200  0.887600  1.0  0.1043
  H  H182  1  0.775100  0.045100  0.890700  1.0  0.1051
  H  H183  1  0.658200  0.043600  0.764900  1.0  0.1105
  H  H184  1  0.660100  0.144600  0.763300  1.0  0.1143
  H  H185  1  0.723900  0.357800  0.387600  1.0  0.104
  H  H186  1  0.724900  0.454900  0.390700  1.0  0.1045
  H  H187  1  0.841800  0.456400  0.264900  1.0  0.1107
  H  H188  1  0.839900  0.355400  0.263300  1.0  0.1153
  H  H189  1  0.223900  0.857800  0.887600  1.0  0.104
  H  H190  1  0.224900  0.954900  0.890700  1.0  0.1045
  H  H191  1  0.341800  0.956400  0.764900  1.0  0.1107
  H  H192  1  0.339900  0.855400  0.763300  1.0  0.1153
  H  H193  1  0.276100  0.357800  0.612400  1.0  0.1037
  H  H194  1  0.275100  0.454900  0.609300  1.0  0.1049
  H  H195  1  0.158200  0.456400  0.735100  1.0  0.1102
  H  H196  1  0.160100  0.355400  0.736700  1.0  0.1147
  H  H197  1  0.776100  0.857800  0.112400  1.0  0.1037
  H  H198  1  0.775100  0.954900  0.109300  1.0  0.1049
  H  H199  1  0.658200  0.956400  0.235100  1.0  0.1102
  H  H200  1  0.660100  0.855400  0.236700  1.0  0.1147
  C  C201  1  0.362000  0.252800  0.378100  1.0  -0.0222
  C  C202  1  0.364100  0.252000  0.435900  1.0  -0.1676
  C  C203  1  0.326700  0.216600  0.468400  1.0  0.0061
  C  C204  1  0.289800  0.182800  0.436900  1.0  -0.1262
  C  C205  1  0.288100  0.183900  0.376000  1.0  0.0057
  C  C206  1  0.862000  0.752800  0.878100  1.0  -0.0222
  C  C207  1  0.864100  0.752000  0.935900  1.0  -0.1676
  C  C208  1  0.826700  0.716600  0.968400  1.0  0.0061
  C  C209  1  0.789800  0.682800  0.936900  1.0  -0.1262
  C  C210  1  0.788100  0.683900  0.876000  1.0  0.0057
  C  C211  1  0.638000  0.747200  0.378100  1.0  -0.0265
  C  C212  1  0.635900  0.748000  0.435900  1.0  -0.1688
  C  C213  1  0.673300  0.783400  0.468400  1.0  0.0064
  C  C214  1  0.710200  0.817200  0.436900  1.0  -0.1256
  C  C215  1  0.711900  0.816100  0.376000  1.0  0.0046
  C  C216  1  0.138000  0.247200  0.878100  1.0  -0.0265
  C  C217  1  0.135900  0.248000  0.935900  1.0  -0.1688
  C  C218  1  0.173300  0.283400  0.968400  1.0  0.0064
  C  C219  1  0.210200  0.317200  0.936900  1.0  -0.1256
  C  C220  1  0.211900  0.316100  0.876000  1.0  0.0046
  C  C221  1  0.638000  0.252800  0.621900  1.0  -0.0256
  C  C222  1  0.635900  0.252000  0.564100  1.0  -0.1682
  C  C223  1  0.673300  0.216600  0.531600  1.0  0.0067
  C  C224  1  0.710200  0.182800  0.563100  1.0  -0.1277
  C  C225  1  0.711900  0.183900  0.624000  1.0  0.0068
  C  C226  1  0.138000  0.752800  0.121900  1.0  -0.0256
  C  C227  1  0.135900  0.752000  0.064100  1.0  -0.1682
  C  C228  1  0.173300  0.716600  0.031600  1.0  0.0067
  C  C229  1  0.210200  0.682800  0.063100  1.0  -0.1277
  C  C230  1  0.211900  0.683900  0.124000  1.0  0.0068
  C  C231  1  0.362000  0.747200  0.621900  1.0  -0.0215
  C  C232  1  0.364100  0.748000  0.564100  1.0  -0.1674
  C  C233  1  0.326700  0.783400  0.531600  1.0  0.007
  C  C234  1  0.289800  0.817200  0.563100  1.0  -0.1255
  C  C235  1  0.288100  0.816100  0.624000  1.0  0.005
  C  C236  1  0.862000  0.247200  0.121900  1.0  -0.0215
  C  C237  1  0.864100  0.248000  0.064100  1.0  -0.1674
  C  C238  1  0.826700  0.283400  0.031600  1.0  0.007
  C  C239  1  0.789800  0.317200  0.063100  1.0  -0.1255
  C  C240  1  0.788100  0.316100  0.124000  1.0  0.005
  C  C241  1  0.378100  0.362000  0.252800  1.0  -0.0275
  C  C242  1  0.435900  0.364100  0.252000  1.0  -0.1722
  C  C243  1  0.468400  0.326700  0.216600  1.0  0.0087
  C  C244  1  0.436900  0.289800  0.182800  1.0  -0.1226
  C  C245  1  0.376000  0.288100  0.183900  1.0  0.0085
  C  C246  1  0.878100  0.862000  0.752800  1.0  -0.0275
  C  C247  1  0.935900  0.864100  0.752000  1.0  -0.1722
  C  C248  1  0.968400  0.826700  0.716600  1.0  0.0087
  C  C249  1  0.936900  0.789800  0.682800  1.0  -0.1226
  C  C250  1  0.876000  0.788100  0.683900  1.0  0.0085
  C  C251  1  0.378100  0.638000  0.747200  1.0  -0.0301
  C  C252  1  0.435900  0.635900  0.748000  1.0  -0.1733
  C  C253  1  0.468400  0.673300  0.783400  1.0  0.0071
  C  C254  1  0.436900  0.710200  0.817200  1.0  -0.1227
  C  C255  1  0.376000  0.711900  0.816100  1.0  0.0039
  C  C256  1  0.878100  0.138000  0.247200  1.0  -0.0301
  C  C257  1  0.935900  0.135900  0.248000  1.0  -0.1733
  C  C258  1  0.968400  0.173300  0.283400  1.0  0.0071
  C  C259  1  0.936900  0.210200  0.317200  1.0  -0.1227
  C  C260  1  0.876000  0.211900  0.316100  1.0  0.0039
  C  C261  1  0.621900  0.638000  0.252800  1.0  -0.0272
  C  C262  1  0.564100  0.635900  0.252000  1.0  -0.1729
  C  C263  1  0.531600  0.673300  0.216600  1.0  0.0077
  C  C264  1  0.563100  0.710200  0.182800  1.0  -0.1227
  C  C265  1  0.624000  0.711900  0.183900  1.0  0.0081
  C  C266  1  0.121900  0.138000  0.752800  1.0  -0.0272
  C  C267  1  0.064100  0.135900  0.752000  1.0  -0.1729
  C  C268  1  0.031600  0.173300  0.716600  1.0  0.0077
  C  C269  1  0.063100  0.210200  0.682800  1.0  -0.1227
  C  C270  1  0.124000  0.211900  0.683900  1.0  0.0081
  C  C271  1  0.621900  0.362000  0.747200  1.0  -0.025
  C  C272  1  0.564100  0.364100  0.748000  1.0  -0.1718
  C  C273  1  0.531600  0.326700  0.783400  1.0  0.0074
  C  C274  1  0.563100  0.289800  0.817200  1.0  -0.1234
  C  C275  1  0.624000  0.288100  0.816100  1.0  0.0056
  C  C276  1  0.121900  0.862000  0.247200  1.0  -0.025
  C  C277  1  0.064100  0.864100  0.248000  1.0  -0.1718
  C  C278  1  0.031600  0.826700  0.283400  1.0  0.0074
  C  C279  1  0.063100  0.789800  0.317200  1.0  -0.1234
  C  C280  1  0.124000  0.788100  0.316100  1.0  0.0056
  C  C281  1  0.252800  0.378100  0.362000  1.0  -0.0212
  C  C282  1  0.252000  0.435900  0.364100  1.0  -0.1702
  C  C283  1  0.216600  0.468400  0.326700  1.0  0.0077
  C  C284  1  0.182800  0.436900  0.289800  1.0  -0.1206
  C  C285  1  0.183900  0.376000  0.288100  1.0  0.0036
  C  C286  1  0.752800  0.878100  0.862000  1.0  -0.0212
  C  C287  1  0.752000  0.935900  0.864100  1.0  -0.1702
  C  C288  1  0.716600  0.968400  0.826700  1.0  0.0077
  C  C289  1  0.682800  0.936900  0.789800  1.0  -0.1206
  C  C290  1  0.683900  0.876000  0.788100  1.0  0.0036
  C  C291  1  0.747200  0.378100  0.638000  1.0  -0.0234
  C  C292  1  0.748000  0.435900  0.635900  1.0  -0.1699
  C  C293  1  0.783400  0.468400  0.673300  1.0  0.0086
  C  C294  1  0.817200  0.436900  0.710200  1.0  -0.1219
  C  C295  1  0.816100  0.376000  0.711900  1.0  0.0064
  C  C296  1  0.247200  0.878100  0.138000  1.0  -0.0234
  C  C297  1  0.248000  0.935900  0.135900  1.0  -0.1699
  C  C298  1  0.283400  0.968400  0.173300  1.0  0.0086
  C  C299  1  0.317200  0.936900  0.210200  1.0  -0.1219
  C  C300  1  0.316100  0.876000  0.211900  1.0  0.0064
  C  C301  1  0.252800  0.621900  0.638000  1.0  -0.0203
  C  C302  1  0.252000  0.564100  0.635900  1.0  -0.1715
  C  C303  1  0.216600  0.531600  0.673300  1.0  0.0075
  C  C304  1  0.182800  0.563100  0.710200  1.0  -0.1208
  C  C305  1  0.183900  0.624000  0.711900  1.0  0.0046
  C  C306  1  0.752800  0.121900  0.138000  1.0  -0.0203
  C  C307  1  0.752000  0.064100  0.135900  1.0  -0.1715
  C  C308  1  0.716600  0.031600  0.173300  1.0  0.0075
  C  C309  1  0.682800  0.063100  0.210200  1.0  -0.1208
  C  C310  1  0.683900  0.124000  0.211900  1.0  0.0046
  C  C311  1  0.747200  0.621900  0.362000  1.0  -0.0226
  C  C312  1  0.748000  0.564100  0.364100  1.0  -0.1698
  C  C313  1  0.783400  0.531600  0.326700  1.0  0.0073
  C  C314  1  0.817200  0.563100  0.289800  1.0  -0.1216
  C  C315  1  0.816100  0.624000  0.288100  1.0  0.0047
  C  C316  1  0.247200  0.121900  0.862000  1.0  -0.0226
  C  C317  1  0.248000  0.064100  0.864100  1.0  -0.1698
  C  C318  1  0.283400  0.031600  0.826700  1.0  0.0073
  C  C319  1  0.317200  0.063100  0.789800  1.0  -0.1216
  C  C320  1  0.316100  0.124000  0.788100  1.0  0.0047
  C  C321  1  0.638000  0.747200  0.621900  1.0  -0.026
  C  C322  1  0.635900  0.748000  0.564100  1.0  -0.1685
  C  C323  1  0.673300  0.783400  0.531600  1.0  0.0067
  C  C324  1  0.710200  0.817200  0.563100  1.0  -0.1218
  C  C325  1  0.711900  0.816100  0.624000  1.0  0.0056
  C  C326  1  0.138000  0.247200  0.121900  1.0  -0.026
  C  C327  1  0.135900  0.248000  0.064100  1.0  -0.1685
  C  C328  1  0.173300  0.283400  0.031600  1.0  0.0067
  C  C329  1  0.210200  0.317200  0.063100  1.0  -0.1218
  C  C330  1  0.211900  0.316100  0.124000  1.0  0.0056
  C  C331  1  0.362000  0.252800  0.621900  1.0  -0.0211
  C  C332  1  0.364100  0.252000  0.564100  1.0  -0.1676
  C  C333  1  0.326700  0.216600  0.531600  1.0  0.0067
  C  C334  1  0.289800  0.182800  0.563100  1.0  -0.1226
  C  C335  1  0.288100  0.183900  0.624000  1.0  0.0071
  C  C336  1  0.862000  0.752800  0.121900  1.0  -0.0211
  C  C337  1  0.864100  0.752000  0.064100  1.0  -0.1676
  C  C338  1  0.826700  0.716600  0.031600  1.0  0.0067
  C  C339  1  0.789800  0.682800  0.063100  1.0  -0.1226
  C  C340  1  0.788100  0.683900  0.124000  1.0  0.0071
  C  C341  1  0.362000  0.747200  0.378100  1.0  -0.0229
  C  C342  1  0.364100  0.748000  0.435900  1.0  -0.1677
  C  C343  1  0.326700  0.783400  0.468400  1.0  0.0066
  C  C344  1  0.289800  0.817200  0.436900  1.0  -0.1209
  C  C345  1  0.288100  0.816100  0.376000  1.0  0.0037
  C  C346  1  0.862000  0.247200  0.878100  1.0  -0.0229
  C  C347  1  0.864100  0.248000  0.935900  1.0  -0.1677
  C  C348  1  0.826700  0.283400  0.968400  1.0  0.0066
  C  C349  1  0.789800  0.317200  0.936900  1.0  -0.1209
  C  C350  1  0.788100  0.316100  0.876000  1.0  0.0037
  C  C351  1  0.638000  0.252800  0.378100  1.0  -0.0258
  C  C352  1  0.635900  0.252000  0.435900  1.0  -0.1688
  C  C353  1  0.673300  0.216600  0.468400  1.0  0.0059
  C  C354  1  0.710200  0.182800  0.436900  1.0  -0.1228
  C  C355  1  0.711900  0.183900  0.376000  1.0  0.0057
  C  C356  1  0.138000  0.752800  0.878100  1.0  -0.0258
  C  C357  1  0.135900  0.752000  0.935900  1.0  -0.1688
  C  C358  1  0.173300  0.716600  0.968400  1.0  0.0059
  C  C359  1  0.210200  0.682800  0.936900  1.0  -0.1228
  C  C360  1  0.211900  0.683900  0.876000  1.0  0.0057
  C  C361  1  0.621900  0.638000  0.747200  1.0  -0.0281
  C  C362  1  0.564100  0.635900  0.748000  1.0  -0.1729
  C  C363  1  0.531600  0.673300  0.783400  1.0  0.0067
  C  C364  1  0.563100  0.710200  0.817200  1.0  -0.1185
  C  C365  1  0.624000  0.711900  0.816100  1.0  0.0045
  C  C366  1  0.121900  0.138000  0.247200  1.0  -0.0281
  C  C367  1  0.064100  0.135900  0.248000  1.0  -0.1729
  C  C368  1  0.031600  0.173300  0.283400  1.0  0.0067
  C  C369  1  0.063100  0.210200  0.317200  1.0  -0.1185
  C  C370  1  0.124000  0.211900  0.316100  1.0  0.0045
  C  C371  1  0.621900  0.362000  0.252800  1.0  -0.0246
  C  C372  1  0.564100  0.364100  0.252000  1.0  -0.1728
  C  C373  1  0.531600  0.326700  0.216600  1.0  0.0085
  C  C374  1  0.563100  0.289800  0.182800  1.0  -0.1185
  C  C375  1  0.624000  0.288100  0.183900  1.0  0.0088
  C  C376  1  0.121900  0.862000  0.752800  1.0  -0.0246
  C  C377  1  0.064100  0.864100  0.752000  1.0  -0.1728
  C  C378  1  0.031600  0.826700  0.716600  1.0  0.0085
  C  C379  1  0.063100  0.789800  0.682800  1.0  -0.1185
  C  C380  1  0.124000  0.788100  0.683900  1.0  0.0088
  C  C381  1  0.378100  0.362000  0.747200  1.0  -0.0272
  C  C382  1  0.435900  0.364100  0.748000  1.0  -0.1713
  C  C383  1  0.468400  0.326700  0.783400  1.0  0.0077
  C  C384  1  0.436900  0.289800  0.817200  1.0  -0.1192
  C  C385  1  0.376000  0.288100  0.816100  1.0  0.0051
  C  C386  1  0.878100  0.862000  0.247200  1.0  -0.0272
  C  C387  1  0.935900  0.864100  0.248000  1.0  -0.1713
  C  C388  1  0.968400  0.826700  0.283400  1.0  0.0077
  C  C389  1  0.936900  0.789800  0.317200  1.0  -0.1192
  C  C390  1  0.876000  0.788100  0.316100  1.0  0.0051
  C  C391  1  0.378100  0.638000  0.252800  1.0  -0.0301
  C  C392  1  0.435900  0.635900  0.252000  1.0  -0.1738
  C  C393  1  0.468400  0.673300  0.216600  1.0  0.008
  C  C394  1  0.436900  0.710200  0.182800  1.0  -0.119
  C  C395  1  0.376000  0.711900  0.183900  1.0  0.0078
  C  C396  1  0.878100  0.138000  0.752800  1.0  -0.0301
  C  C397  1  0.935900  0.135900  0.752000  1.0  -0.1738
  C  C398  1  0.968400  0.173300  0.716600  1.0  0.008
  C  C399  1  0.936900  0.210200  0.682800  1.0  -0.119
  C  C400  1  0.876000  0.211900  0.683900  1.0  0.0078
  C  C401  1  0.747200  0.621900  0.638000  1.0  -0.0219
  C  C402  1  0.748000  0.564100  0.635900  1.0  -0.1705
  C  C403  1  0.783400  0.531600  0.673300  1.0  0.008
  C  C404  1  0.817200  0.563100  0.710200  1.0  -0.1177
  C  C405  1  0.816100  0.624000  0.711900  1.0  0.0061
  C  C406  1  0.247200  0.121900  0.138000  1.0  -0.0219
  C  C407  1  0.248000  0.064100  0.135900  1.0  -0.1705
  C  C408  1  0.283400  0.031600  0.173300  1.0  0.008
  C  C409  1  0.317200  0.063100  0.210200  1.0  -0.1177
  C  C410  1  0.316100  0.124000  0.211900  1.0  0.0061
  C  C411  1  0.252800  0.621900  0.362000  1.0  -0.0203
  C  C412  1  0.252000  0.564100  0.364100  1.0  -0.1704
  C  C413  1  0.216600  0.531600  0.326700  1.0  0.0066
  C  C414  1  0.182800  0.563100  0.289800  1.0  -0.1166
  C  C415  1  0.183900  0.624000  0.288100  1.0  0.004
  C  C416  1  0.752800  0.121900  0.862000  1.0  -0.0203
  C  C417  1  0.752000  0.064100  0.864100  1.0  -0.1704
  C  C418  1  0.716600  0.031600  0.826700  1.0  0.0066
  C  C419  1  0.682800  0.063100  0.789800  1.0  -0.1166
  C  C420  1  0.683900  0.124000  0.788100  1.0  0.004
  C  C421  1  0.747200  0.378100  0.362000  1.0  -0.0234
  C  C422  1  0.748000  0.435900  0.364100  1.0  -0.1703
  C  C423  1  0.783400  0.468400  0.326700  1.0  0.0083
  C  C424  1  0.817200  0.436900  0.289800  1.0  -0.1173
  C  C425  1  0.816100  0.376000  0.288100  1.0  0.0044
  C  C426  1  0.247200  0.878100  0.862000  1.0  -0.0234
  C  C427  1  0.248000  0.935900  0.864100  1.0  -0.1703
  C  C428  1  0.283400  0.968400  0.826700  1.0  0.0083
  C  C429  1  0.317200  0.936900  0.789800  1.0  -0.1173
  C  C430  1  0.316100  0.876000  0.788100  1.0  0.0044
  C  C431  1  0.252800  0.378100  0.638000  1.0  -0.0222
  C  C432  1  0.252000  0.435900  0.635900  1.0  -0.1714
  C  C433  1  0.216600  0.468400  0.673300  1.0  0.0082
  C  C434  1  0.182800  0.436900  0.710200  1.0  -0.1167
  C  C435  1  0.183900  0.376000  0.711900  1.0  0.0047
  C  C436  1  0.752800  0.878100  0.138000  1.0  -0.0222
  C  C437  1  0.752000  0.935900  0.135900  1.0  -0.1714
  C  C438  1  0.716600  0.968400  0.173300  1.0  0.0082
  C  C439  1  0.682800  0.936900  0.210200  1.0  -0.1167
  C  C440  1  0.683900  0.876000  0.211900  1.0  0.0047
  N  N441  1  0.324000  0.221000  0.349200  1.0  0.3123
  N  N442  1  0.824000  0.721000  0.849200  1.0  0.3123
  N  N443  1  0.676000  0.779000  0.349200  1.0  0.3144
  N  N444  1  0.176000  0.279000  0.849200  1.0  0.3144
  N  N445  1  0.676000  0.221000  0.650800  1.0  0.314
  N  N446  1  0.176000  0.721000  0.150800  1.0  0.314
  N  N447  1  0.324000  0.779000  0.650800  1.0  0.3133
  N  N448  1  0.824000  0.279000  0.150800  1.0  0.3133
  N  N449  1  0.349200  0.324000  0.221000  1.0  0.3125
  N  N450  1  0.849200  0.824000  0.721000  1.0  0.3125
  N  N451  1  0.349200  0.676000  0.779000  1.0  0.3114
  N  N452  1  0.849200  0.176000  0.279000  1.0  0.3114
  N  N453  1  0.650800  0.676000  0.221000  1.0  0.3102
  N  N454  1  0.150800  0.176000  0.721000  1.0  0.3102
  N  N455  1  0.650800  0.324000  0.779000  1.0  0.3113
  N  N456  1  0.150800  0.824000  0.279000  1.0  0.3113
  N  N457  1  0.221000  0.349200  0.324000  1.0  0.3101
  N  N458  1  0.721000  0.849200  0.824000  1.0  0.3101
  N  N459  1  0.779000  0.349200  0.676000  1.0  0.3104
  N  N460  1  0.279000  0.849200  0.176000  1.0  0.3104
  N  N461  1  0.221000  0.650800  0.676000  1.0  0.3118
  N  N462  1  0.721000  0.150800  0.176000  1.0  0.3118
  N  N463  1  0.779000  0.650800  0.324000  1.0  0.3092
  N  N464  1  0.279000  0.150800  0.824000  1.0  0.3092
  N  N465  1  0.676000  0.779000  0.650800  1.0  0.3146
  N  N466  1  0.176000  0.279000  0.150800  1.0  0.3146
  N  N467  1  0.324000  0.221000  0.650800  1.0  0.3133
  N  N468  1  0.824000  0.721000  0.150800  1.0  0.3133
  N  N469  1  0.324000  0.779000  0.349200  1.0  0.3133
  N  N470  1  0.824000  0.279000  0.849200  1.0  0.3133
  N  N471  1  0.676000  0.221000  0.349200  1.0  0.3131
  N  N472  1  0.176000  0.721000  0.849200  1.0  0.3131
  N  N473  1  0.650800  0.676000  0.779000  1.0  0.3099
  N  N474  1  0.150800  0.176000  0.279000  1.0  0.3099
  N  N475  1  0.650800  0.324000  0.221000  1.0  0.3115
  N  N476  1  0.150800  0.824000  0.721000  1.0  0.3115
  N  N477  1  0.349200  0.324000  0.779000  1.0  0.3122
  N  N478  1  0.849200  0.824000  0.279000  1.0  0.3122
  N  N479  1  0.349200  0.676000  0.221000  1.0  0.3118
  N  N480  1  0.849200  0.176000  0.721000  1.0  0.3118
  N  N481  1  0.779000  0.650800  0.676000  1.0  0.3111
  N  N482  1  0.279000  0.150800  0.176000  1.0  0.3111
  N  N483  1  0.221000  0.650800  0.324000  1.0  0.3098
  N  N484  1  0.721000  0.150800  0.824000  1.0  0.3098
  N  N485  1  0.779000  0.349200  0.324000  1.0  0.3092
  N  N486  1  0.279000  0.849200  0.824000  1.0  0.3092
  N  N487  1  0.221000  0.349200  0.676000  1.0  0.3109
  N  N488  1  0.721000  0.849200  0.176000  1.0  0.3109
  O  O489  1  0.324000  0.223200  0.291900  1.0  -0.5647
  O  O490  1  0.824000  0.723200  0.791900  1.0  -0.5647
  O  O491  1  0.676000  0.776800  0.291900  1.0  -0.5635
  O  O492  1  0.176000  0.276800  0.791900  1.0  -0.5635
  O  O493  1  0.676000  0.223200  0.708100  1.0  -0.5638
  O  O494  1  0.176000  0.723200  0.208100  1.0  -0.5638
  O  O495  1  0.324000  0.776800  0.708100  1.0  -0.5642
  O  O496  1  0.824000  0.276800  0.208100  1.0  -0.5642
  O  O497  1  0.291900  0.324000  0.223200  1.0  -0.5625
  O  O498  1  0.791900  0.824000  0.723200  1.0  -0.5625
  O  O499  1  0.291900  0.676000  0.776800  1.0  -0.5634
  O  O500  1  0.791900  0.176000  0.276800  1.0  -0.5634
  O  O501  1  0.708100  0.676000  0.223200  1.0  -0.5635
  O  O502  1  0.208100  0.176000  0.723200  1.0  -0.5635
  O  O503  1  0.708100  0.324000  0.776800  1.0  -0.5639
  O  O504  1  0.208100  0.824000  0.276800  1.0  -0.5639
  O  O505  1  0.223200  0.291900  0.324000  1.0  -0.5655
  O  O506  1  0.723200  0.791900  0.824000  1.0  -0.5655
  O  O507  1  0.776800  0.291900  0.676000  1.0  -0.5657
  O  O508  1  0.276800  0.791900  0.176000  1.0  -0.5657
  O  O509  1  0.223200  0.708100  0.676000  1.0  -0.5664
  O  O510  1  0.723200  0.208100  0.176000  1.0  -0.5664
  O  O511  1  0.776800  0.708100  0.324000  1.0  -0.5648
  O  O512  1  0.276800  0.208100  0.824000  1.0  -0.5648
  O  O513  1  0.676000  0.776800  0.708100  1.0  -0.564
  O  O514  1  0.176000  0.276800  0.208100  1.0  -0.564
  O  O515  1  0.324000  0.223200  0.708100  1.0  -0.564
  O  O516  1  0.824000  0.723200  0.208100  1.0  -0.564
  O  O517  1  0.324000  0.776800  0.291900  1.0  -0.5641
  O  O518  1  0.824000  0.276800  0.791900  1.0  -0.5641
  O  O519  1  0.676000  0.223200  0.291900  1.0  -0.5638
  O  O520  1  0.176000  0.723200  0.791900  1.0  -0.5638
  O  O521  1  0.708100  0.676000  0.776800  1.0  -0.5639
  O  O522  1  0.208100  0.176000  0.276800  1.0  -0.5639
  O  O523  1  0.708100  0.324000  0.223200  1.0  -0.5635
  O  O524  1  0.208100  0.824000  0.723200  1.0  -0.5635
  O  O525  1  0.291900  0.324000  0.776800  1.0  -0.5631
  O  O526  1  0.791900  0.824000  0.276800  1.0  -0.5631
  O  O527  1  0.291900  0.676000  0.223200  1.0  -0.5633
  O  O528  1  0.791900  0.176000  0.723200  1.0  -0.5633
  O  O529  1  0.776800  0.708100  0.676000  1.0  -0.5659
  O  O530  1  0.276800  0.208100  0.176000  1.0  -0.5659
  O  O531  1  0.223200  0.708100  0.324000  1.0  -0.566
  O  O532  1  0.723200  0.208100  0.824000  1.0  -0.566
  O  O533  1  0.776800  0.291900  0.324000  1.0  -0.565
  O  O534  1  0.276800  0.791900  0.824000  1.0  -0.565
  O  O535  1  0.223200  0.291900  0.676000  1.0  -0.5654
  O  O536  1  0.723200  0.791900  0.176000  1.0  -0.5654
