# generated using pymatgen
data_CoH8(C7O3)2
_symmetry_space_group_name_H-M   'P 1'
_cell_length_a   8.65470000
_cell_length_b   17.37200000
_cell_length_c   17.37200000
_cell_angle_alpha   120.00000000
_cell_angle_beta   90.00000000
_cell_angle_gamma   90.00000000
_symmetry_Int_Tables_number   1
_chemical_formula_structural   CoH8(C7O3)2
_chemical_formula_sum   'Co3 H24 C42 O18'
_cell_volume   2261.94630624
_cell_formula_units_Z   3
loop_
 _symmetry_equiv_pos_site_id
 _symmetry_equiv_pos_as_xyz
  1  'x, y, z'
loop_
 _atom_site_type_symbol
 _atom_site_label
 _atom_site_symmetry_multiplicity
 _atom_site_fract_x
 _atom_site_fract_y
 _atom_site_fract_z
 _atom_site_occupancy
 _atom_site_charge
  Co  Co1  1  0.000000  0.530310  0.000000  1.0  0.9952
  Co  Co2  1  0.333333  0.469690  0.469690  1.0  0.9962
  Co  Co3  1  0.666667  0.000000  0.530310  1.0  0.9961
  H  H4  1  0.548730  0.880400  0.691900  1.0  0.1224
  H  H5  1  0.527570  0.041500  0.241100  1.0  0.1092
  H  H6  1  0.827600  0.153500  0.578400  1.0  0.3732
  H  H7  1  0.139100  0.241100  0.041500  1.0  0.1104
  H  H8  1  0.860900  0.199600  0.958500  1.0  0.109
  H  H9  1  0.160930  0.424900  0.846500  1.0  0.3735
  H  H10  1  0.882070  0.811500  0.119600  1.0  0.1214
  H  H11  1  0.194230  0.758900  0.800400  1.0  0.1101
  H  H12  1  0.663070  0.234300  0.535300  1.0  0.1085
  H  H13  1  0.329730  0.464700  0.699000  1.0  0.1087
  H  H14  1  0.336930  0.699000  0.464700  1.0  0.1098
  H  H15  1  0.117930  0.691900  0.880400  1.0  0.1225
  H  H16  1  0.472430  0.800400  0.758900  1.0  0.1092
  H  H17  1  0.215400  0.308100  0.188500  1.0  0.1223
  H  H18  1  0.784600  0.119600  0.811500  1.0  0.1226
  H  H19  1  0.505730  0.846500  0.424900  1.0  0.3752
  H  H20  1  0.996400  0.301000  0.765700  1.0  0.1097
  H  H21  1  0.494270  0.421600  0.575100  1.0  0.3719
  H  H22  1  0.839070  0.578400  0.153500  1.0  0.3717
  H  H23  1  0.003600  0.535300  0.234300  1.0  0.1083
  H  H24  1  0.172400  0.575100  0.421600  1.0  0.374
  H  H25  1  0.805770  0.958500  0.199600  1.0  0.1101
  H  H26  1  0.451270  0.188500  0.308100  1.0  0.122
  H  H27  1  0.670270  0.765700  0.301000  1.0  0.1095
  C  C28  1  0.490930  0.827210  0.659250  1.0  -0.0679
  C  C29  1  0.175730  0.659250  0.827210  1.0  -0.0698
  C  C30  1  0.837770  0.679360  0.153020  1.0  0.6616
  C  C31  1  0.452030  0.796720  0.570930  1.0  -0.1611
  C  C32  1  0.824270  0.832040  0.172790  1.0  -0.07
  C  C33  1  0.358930  0.701420  0.654400  1.0  -0.0326
  C  C34  1  0.214630  0.570930  0.796720  1.0  -0.1586
  C  C35  1  0.828900  0.153020  0.679360  1.0  0.6613
  C  C36  1  0.842400  0.172790  0.832040  1.0  -0.0683
  C  C37  1  0.301930  0.524740  0.719450  1.0  -0.0693
  C  C38  1  0.031400  0.475260  0.194710  1.0  -0.0694
  C  C39  1  0.968600  0.280550  0.805290  1.0  -0.0696
  C  C40  1  0.495570  0.320640  0.473660  1.0  0.6611
  C  C41  1  0.348730  0.565110  0.672150  1.0  0.2549
  C  C42  1  0.881300  0.203280  0.774210  1.0  -0.1603
  C  C43  1  0.171100  0.473660  0.320640  1.0  0.6598
  C  C44  1  0.974400  0.298580  0.952980  1.0  -0.033
  C  C45  1  0.015400  0.327850  0.892960  1.0  0.2532
  C  C46  1  0.641070  0.047020  0.345600  1.0  -0.0335
  C  C47  1  0.157600  0.340750  0.167960  1.0  -0.0685
  C  C48  1  0.547970  0.225790  0.429070  1.0  -0.1594
  C  C49  1  0.777870  0.919400  0.220700  1.0  -0.1293
  C  C50  1  0.682070  0.107040  0.434890  1.0  0.2523
  C  C51  1  0.307730  0.654400  0.701420  1.0  -0.0324
  C  C52  1  0.364730  0.719450  0.524740  1.0  -0.0689
  C  C53  1  0.692270  0.952980  0.298580  1.0  -0.0337
  C  C54  1  0.635270  0.194710  0.475260  1.0  -0.0709
  C  C55  1  0.504430  0.846980  0.526340  1.0  0.6625
  C  C56  1  0.555470  0.080600  0.301300  1.0  -0.1319
  C  C57  1  0.118700  0.429070  0.225790  1.0  -0.1595
  C  C58  1  0.444530  0.779300  0.698700  1.0  -0.1295
  C  C59  1  0.785370  0.774210  0.203280  1.0  -0.1601
  C  C60  1  0.111200  0.301300  0.080600  1.0  -0.1307
  C  C61  1  0.025600  0.345600  0.047020  1.0  -0.0322
  C  C62  1  0.698070  0.805290  0.280550  1.0  -0.0711
  C  C63  1  0.651270  0.892960  0.327850  1.0  0.253
  C  C64  1  0.222130  0.698700  0.779300  1.0  -0.1315
  C  C65  1  0.984600  0.434890  0.107040  1.0  0.2544
  C  C66  1  0.509070  0.167960  0.340750  1.0  -0.0696
  C  C67  1  0.888800  0.220700  0.919400  1.0  -0.1336
  C  C68  1  0.162230  0.526340  0.846980  1.0  0.6611
  C  C69  1  0.317930  0.672150  0.565110  1.0  0.253
  O  O70  1  0.240900  0.428190  0.346190  1.0  -0.5811
  O  O71  1  0.471430  0.813290  0.443210  1.0  -0.4874
  O  O72  1  0.897400  0.480300  0.077360  1.0  -0.5974
  O  O73  1  0.092430  0.571810  0.918000  1.0  -0.5823
  O  O74  1  0.425770  0.346190  0.428190  1.0  -0.581
  O  O75  1  0.759100  0.082000  0.653810  1.0  -0.5821
  O  O76  1  0.804770  0.629920  0.186710  1.0  -0.4862
  O  O77  1  0.861900  0.186710  0.629920  1.0  -0.4848
  O  O78  1  0.102600  0.402940  0.922640  1.0  -0.5961
  O  O79  1  0.435930  0.519700  0.597060  1.0  -0.5983
  O  O80  1  0.528570  0.370080  0.556790  1.0  -0.4852
  O  O81  1  0.564070  0.922640  0.402940  1.0  -0.5975
  O  O82  1  0.769270  0.077360  0.480300  1.0  -0.5963
  O  O83  1  0.907570  0.653810  0.082000  1.0  -0.5808
  O  O84  1  0.574230  0.918000  0.571810  1.0  -0.5826
  O  O85  1  0.195230  0.443210  0.813290  1.0  -0.4859
  O  O86  1  0.138100  0.556790  0.370080  1.0  -0.4863
  O  O87  1  0.230730  0.597060  0.519700  1.0  -0.5933
