# generated using pymatgen
data_CoH15(C3N)6
_symmetry_space_group_name_H-M   'P 1'
_cell_length_a   14.29900000
_cell_length_b   19.03100000
_cell_length_c   19.31940000
_cell_angle_alpha   119.50700000
_cell_angle_beta   90.00000000
_cell_angle_gamma   90.00000000
_symmetry_Int_Tables_number   1
_chemical_formula_structural   CoH15(C3N)6
_chemical_formula_sum   'Co8 H120 C144 N48'
_cell_volume   4575.38518986
_cell_formula_units_Z   8
loop_
 _symmetry_equiv_pos_site_id
 _symmetry_equiv_pos_as_xyz
  1  'x, y, z'
loop_
 _atom_site_type_symbol
 _atom_site_label
 _atom_site_symmetry_multiplicity
 _atom_site_fract_x
 _atom_site_fract_y
 _atom_site_fract_z
 _atom_site_occupancy
 _atom_site_charge
  Co  Co1  1  0.666667  0.672110  0.766200  1.0  0.739
  Co  Co2  1  0.666667  0.827890  0.233800  1.0  0.7385
  Co  Co3  1  0.833390  0.094090  0.766200  1.0  0.7351
  Co  Co4  1  0.833390  0.405910  0.233800  1.0  0.7366
  Co  Co5  1  0.333390  0.327890  0.233800  1.0  0.7397
  Co  Co6  1  0.333390  0.172110  0.766200  1.0  0.7404
  Co  Co7  1  0.166610  0.905910  0.233800  1.0  0.7349
  Co  Co8  1  0.166610  0.594090  0.766200  1.0  0.7339
  H  H9  1  0.701400  0.818800  0.743800  1.0  0.0385
  H  H10  1  0.626400  0.931500  0.757800  1.0  0.0952
  H  H11  1  0.464900  0.935000  0.758800  1.0  0.077
  H  H12  1  0.464400  0.715200  0.737000  1.0  0.0553
  H  H13  1  0.314200  0.779600  0.746800  1.0  0.0589
  H  H14  1  0.628700  0.631900  0.593400  1.0  0.0441
  H  H15  1  0.616800  0.525100  0.467200  1.0  0.0856
  H  H16  1  0.614800  0.395000  0.447400  1.0  0.0787
  H  H17  1  0.643600  0.488600  0.682600  1.0  0.0534
  H  H18  1  0.635200  0.346800  0.606400  1.0  0.0321
  H  H19  1  0.833300  0.735900  0.887400  1.0  0.0388
  H  H20  1  0.873100  0.845300  0.007600  1.0  0.0786
  H  H21  1  0.766800  0.949600  0.071800  1.0  0.0775
  H  H22  1  0.586400  0.825200  0.896000  1.0  0.0359
  H  H23  1  0.603300  0.007900  0.073200  1.0  0.049
  H  H24  1  0.701400  0.681200  0.256200  1.0  0.0386
  H  H25  1  0.626400  0.568500  0.242200  1.0  0.0953
  H  H26  1  0.464900  0.565000  0.241200  1.0  0.0766
  H  H27  1  0.464400  0.784800  0.263000  1.0  0.0548
  H  H28  1  0.314200  0.720400  0.253200  1.0  0.0588
  H  H29  1  0.628700  0.868100  0.406600  1.0  0.0442
  H  H30  1  0.616800  0.974900  0.532800  1.0  0.0861
  H  H31  1  0.614800  0.105000  0.552600  1.0  0.0791
  H  H32  1  0.643600  0.011400  0.317400  1.0  0.0537
  H  H33  1  0.635200  0.153200  0.393600  1.0  0.0323
  H  H34  1  0.833300  0.764100  0.112600  1.0  0.0378
  H  H35  1  0.873100  0.654700  0.992400  1.0  0.0778
  H  H36  1  0.766800  0.550400  0.928200  1.0  0.078
  H  H37  1  0.586400  0.674800  0.104000  1.0  0.0363
  H  H38  1  0.603300  0.492100  0.926800  1.0  0.049
  H  H39  1  0.798600  0.925000  0.743800  1.0  0.0386
  H  H40  1  0.873600  0.826300  0.757800  1.0  0.0952
  H  H41  1  0.035100  0.823800  0.758800  1.0  0.0764
  H  H42  1  0.035600  0.021800  0.737000  1.0  0.0541
  H  H43  1  0.185800  0.967200  0.746800  1.0  0.0586
  H  H44  1  0.871300  0.961500  0.593400  1.0  0.0427
  H  H45  1  0.883200  0.942100  0.467200  1.0  0.0871
  H  H46  1  0.885200  0.052400  0.447400  1.0  0.0785
  H  H47  1  0.856400  0.194000  0.682600  1.0  0.0532
  H  H48  1  0.864800  0.259600  0.606400  1.0  0.0321
  H  H49  1  0.666667  0.151500  0.887400  1.0  0.0418
  H  H50  1  0.626900  0.162300  0.007600  1.0  0.078
  H  H51  1  0.733200  0.122200  0.071800  1.0  0.0778
  H  H52  1  0.913600  0.070800  0.896000  1.0  0.0349
  H  H53  1  0.896700  0.065300  0.073200  1.0  0.0495
  H  H54  1  0.798600  0.575000  0.256200  1.0  0.0388
  H  H55  1  0.873600  0.673700  0.242200  1.0  0.0955
  H  H56  1  0.035100  0.676200  0.241200  1.0  0.0764
  H  H57  1  0.035600  0.478200  0.263000  1.0  0.0546
  H  H58  1  0.185800  0.532800  0.253200  1.0  0.0591
  H  H59  1  0.871300  0.538500  0.406600  1.0  0.043
  H  H60  1  0.883200  0.557900  0.532800  1.0  0.0872
  H  H61  1  0.885200  0.447600  0.552600  1.0  0.0786
  H  H62  1  0.856400  0.306000  0.317400  1.0  0.054
  H  H63  1  0.864800  0.240400  0.393600  1.0  0.0324
  H  H64  1  0.666667  0.348500  0.112600  1.0  0.0421
  H  H65  1  0.626900  0.337700  0.992400  1.0  0.0782
  H  H66  1  0.733200  0.377800  0.928200  1.0  0.0777
  H  H67  1  0.913600  0.429200  0.104000  1.0  0.0351
  H  H68  1  0.896700  0.434700  0.926800  1.0  0.05
  H  H69  1  0.298600  0.181200  0.256200  1.0  0.0384
  H  H70  1  0.373600  0.068500  0.242200  1.0  0.0949
  H  H71  1  0.535100  0.065000  0.241200  1.0  0.0771
  H  H72  1  0.535600  0.284800  0.263000  1.0  0.0543
  H  H73  1  0.685800  0.220400  0.253200  1.0  0.0589
  H  H74  1  0.371300  0.368100  0.406600  1.0  0.0442
  H  H75  1  0.383200  0.474900  0.532800  1.0  0.0862
  H  H76  1  0.385200  0.605000  0.552600  1.0  0.0788
  H  H77  1  0.356400  0.511400  0.317400  1.0  0.0539
  H  H78  1  0.364800  0.653200  0.393600  1.0  0.0326
  H  H79  1  0.166700  0.264100  0.112600  1.0  0.0384
  H  H80  1  0.126900  0.154700  0.992400  1.0  0.078
  H  H81  1  0.233200  0.050400  0.928200  1.0  0.0777
  H  H82  1  0.413600  0.174800  0.104000  1.0  0.0364
  H  H83  1  0.396700  0.992100  0.926800  1.0  0.0489
  H  H84  1  0.298600  0.318800  0.743800  1.0  0.0383
  H  H85  1  0.373600  0.431500  0.757800  1.0  0.0951
  H  H86  1  0.535100  0.435000  0.758800  1.0  0.077
  H  H87  1  0.535600  0.215200  0.737000  1.0  0.0549
  H  H88  1  0.685800  0.279600  0.746800  1.0  0.0591
  H  H89  1  0.371300  0.131900  0.593400  1.0  0.0441
  H  H90  1  0.383200  0.025100  0.467200  1.0  0.0854
  H  H91  1  0.385200  0.895000  0.447400  1.0  0.0786
  H  H92  1  0.356400  0.988600  0.682600  1.0  0.0533
  H  H93  1  0.364800  0.846800  0.606400  1.0  0.0322
  H  H94  1  0.166700  0.235900  0.887400  1.0  0.0388
  H  H95  1  0.126900  0.345300  0.007600  1.0  0.0782
  H  H96  1  0.233200  0.449600  0.071800  1.0  0.0772
  H  H97  1  0.413600  0.325200  0.896000  1.0  0.0358
  H  H98  1  0.396700  0.507900  0.073200  1.0  0.0488
  H  H99  1  0.201400  0.075000  0.256200  1.0  0.039
  H  H100  1  0.126400  0.173700  0.242200  1.0  0.0957
  H  H101  1  0.964900  0.176200  0.241200  1.0  0.0763
  H  H102  1  0.964400  0.978200  0.263000  1.0  0.0549
  H  H103  1  0.814200  0.032800  0.253200  1.0  0.0588
  H  H104  1  0.128700  0.038500  0.406600  1.0  0.0429
  H  H105  1  0.116800  0.057900  0.532800  1.0  0.0872
  H  H106  1  0.114800  0.947600  0.552600  1.0  0.0792
  H  H107  1  0.143600  0.806000  0.317400  1.0  0.0539
  H  H108  1  0.135200  0.740400  0.393600  1.0  0.0319
  H  H109  1  0.333333  0.848500  0.112600  1.0  0.0416
  H  H110  1  0.373100  0.837700  0.992400  1.0  0.0781
  H  H111  1  0.266800  0.877800  0.928200  1.0  0.0779
  H  H112  1  0.086400  0.929200  0.104000  1.0  0.0351
  H  H113  1  0.103300  0.934700  0.926800  1.0  0.05
  H  H114  1  0.201400  0.425000  0.743800  1.0  0.0389
  H  H115  1  0.126400  0.326300  0.757800  1.0  0.0956
  H  H116  1  0.964900  0.323800  0.758800  1.0  0.076
  H  H117  1  0.964400  0.521800  0.737000  1.0  0.0546
  H  H118  1  0.814200  0.467200  0.746800  1.0  0.0583
  H  H119  1  0.128700  0.461500  0.593400  1.0  0.0425
  H  H120  1  0.116800  0.442100  0.467200  1.0  0.0875
  H  H121  1  0.114800  0.552400  0.447400  1.0  0.0793
  H  H122  1  0.143600  0.694000  0.682600  1.0  0.0532
  H  H123  1  0.135200  0.759600  0.606400  1.0  0.0318
  H  H124  1  0.333333  0.651500  0.887400  1.0  0.0413
  H  H125  1  0.373100  0.662300  0.007600  1.0  0.078
  H  H126  1  0.266800  0.622200  0.071800  1.0  0.0782
  H  H127  1  0.086400  0.570800  0.896000  1.0  0.035
  H  H128  1  0.103300  0.565300  0.073200  1.0  0.0497
  C  C129  1  0.636400  0.820230  0.745860  1.0  0.1226
  C  C130  1  0.591900  0.888060  0.753320  1.0  -0.1767
  C  C131  1  0.496400  0.890070  0.753980  1.0  -0.0495
  C  C132  1  0.447100  0.824310  0.747280  1.0  -0.0751
  C  C133  1  0.497400  0.759330  0.741300  1.0  0.1256
  C  C134  1  0.345300  0.823310  0.748480  1.0  0.0849
  C  C135  1  0.629300  0.579860  0.586320  1.0  0.1347
  C  C136  1  0.621500  0.515970  0.510140  1.0  -0.2059
  C  C137  1  0.620800  0.439060  0.498320  1.0  -0.001
  C  C138  1  0.629200  0.428030  0.563940  1.0  -0.0527
  C  C139  1  0.637700  0.495980  0.638640  1.0  0.1085
  C  C140  1  0.629000  0.349210  0.559620  1.0  0.1221
  C  C141  1  0.789900  0.777150  0.913500  1.0  0.1165
  C  C142  1  0.814700  0.842960  0.985320  1.0  -0.1904
  C  C143  1  0.751700  0.904850  0.023300  1.0  -0.0223
  C  C144  1  0.665800  0.900130  0.988860  1.0  -0.0914
  C  C145  1  0.645500  0.830370  0.918140  1.0  0.1374
  C  C146  1  0.596800  0.965680  0.021360  1.0  0.1215
  C  C147  1  0.636400  0.679770  0.254140  1.0  0.1229
  C  C148  1  0.591900  0.611940  0.246680  1.0  -0.1753
  C  C149  1  0.496400  0.609930  0.246020  1.0  -0.0501
  C  C150  1  0.447100  0.675690  0.252720  1.0  -0.0748
  C  C151  1  0.497400  0.740670  0.258700  1.0  0.1248
  C  C152  1  0.345300  0.676690  0.251520  1.0  0.0836
  C  C153  1  0.629300  0.920140  0.413680  1.0  0.1349
  C  C154  1  0.621500  0.984030  0.489860  1.0  -0.2048
  C  C155  1  0.620800  0.060940  0.501680  1.0  0.0
  C  C156  1  0.629200  0.071970  0.436060  1.0  -0.0523
  C  C157  1  0.637700  0.004020  0.361360  1.0  0.1103
  C  C158  1  0.629000  0.150790  0.440380  1.0  0.1222
  C  C159  1  0.789900  0.722850  0.086500  1.0  0.1173
  C  C160  1  0.814700  0.657040  0.014680  1.0  -0.1901
  C  C161  1  0.751700  0.595150  0.976700  1.0  -0.0221
  C  C162  1  0.665800  0.599870  0.011140  1.0  -0.0925
  C  C163  1  0.645500  0.669630  0.081860  1.0  0.1366
  C  C164  1  0.596800  0.534320  0.978640  1.0  0.1207
  C  C165  1  0.863600  0.925630  0.745860  1.0  0.1205
  C  C166  1  0.908100  0.865260  0.753320  1.0  -0.1745
  C  C167  1  0.003600  0.863910  0.753980  1.0  -0.0502
  C  C168  1  0.052900  0.922970  0.747280  1.0  -0.0743
  C  C169  1  0.002600  0.981970  0.741300  1.0  0.1261
  C  C170  1  0.154700  0.925170  0.748480  1.0  0.0834
  C  C171  1  0.870700  0.006460  0.586320  1.0  0.1383
  C  C172  1  0.878500  0.994170  0.510140  1.0  -0.2075
  C  C173  1  0.879200  0.059260  0.498320  1.0  -0.0015
  C  C174  1  0.870800  0.135910  0.563940  1.0  -0.052
  C  C175  1  0.862300  0.142660  0.638640  1.0  0.1081
  C  C176  1  0.871000  0.210410  0.559620  1.0  0.1174
  C  C177  1  0.710100  0.136350  0.913500  1.0  0.1125
  C  C178  1  0.685300  0.142360  0.985320  1.0  -0.1927
  C  C179  1  0.748300  0.118450  0.023300  1.0  -0.022
  C  C180  1  0.834200  0.088730  0.988860  1.0  -0.0901
  C  C181  1  0.854500  0.087770  0.918140  1.0  0.1349
  C  C182  1  0.903200  0.055680  0.021360  1.0  0.1206
  C  C183  1  0.863600  0.574370  0.254140  1.0  0.1214
  C  C184  1  0.908100  0.634740  0.246680  1.0  -0.1752
  C  C185  1  0.003600  0.636090  0.246020  1.0  -0.0485
  C  C186  1  0.052900  0.577030  0.252720  1.0  -0.0742
  C  C187  1  0.002600  0.518030  0.258700  1.0  0.1274
  C  C188  1  0.154700  0.574830  0.251520  1.0  0.0842
  C  C189  1  0.870700  0.493540  0.413680  1.0  0.1374
  C  C190  1  0.878500  0.505830  0.489860  1.0  -0.2066
  C  C191  1  0.879200  0.440740  0.501680  1.0  0.0014
  C  C192  1  0.870800  0.364090  0.436060  1.0  -0.0528
  C  C193  1  0.862300  0.357340  0.361360  1.0  0.1091
  C  C194  1  0.871000  0.289590  0.440380  1.0  0.1201
  C  C195  1  0.710100  0.363650  0.086500  1.0  0.1123
  C  C196  1  0.685300  0.357640  0.014680  1.0  -0.1915
  C  C197  1  0.748300  0.381550  0.976700  1.0  -0.0222
  C  C198  1  0.834200  0.411270  0.011140  1.0  -0.0903
  C  C199  1  0.854500  0.412230  0.081860  1.0  0.1357
  C  C200  1  0.903200  0.444320  0.978640  1.0  0.1207
  C  C201  1  0.363600  0.179770  0.254140  1.0  0.1202
  C  C202  1  0.408100  0.111940  0.246680  1.0  -0.1762
  C  C203  1  0.503600  0.109930  0.246020  1.0  -0.0503
  C  C204  1  0.552900  0.175690  0.252720  1.0  -0.0738
  C  C205  1  0.502600  0.240670  0.258700  1.0  0.1257
  C  C206  1  0.654700  0.176690  0.251520  1.0  0.0836
  C  C207  1  0.370700  0.420140  0.413680  1.0  0.135
  C  C208  1  0.378500  0.484030  0.489860  1.0  -0.2053
  C  C209  1  0.379200  0.560940  0.501680  1.0  0.0003
  C  C210  1  0.370800  0.571970  0.436060  1.0  -0.0518
  C  C211  1  0.362300  0.504020  0.361360  1.0  0.1103
  C  C212  1  0.371000  0.650790  0.440380  1.0  0.1208
  C  C213  1  0.210100  0.222850  0.086500  1.0  0.1164
  C  C214  1  0.185300  0.157040  0.014680  1.0  -0.1909
  C  C215  1  0.248300  0.095150  0.976700  1.0  -0.0217
  C  C216  1  0.334200  0.099870  0.011140  1.0  -0.0905
  C  C217  1  0.354500  0.169630  0.081860  1.0  0.1367
  C  C218  1  0.403200  0.034320  0.978640  1.0  0.1201
  C  C219  1  0.363600  0.320230  0.745860  1.0  0.1204
  C  C220  1  0.408100  0.388060  0.753320  1.0  -0.1763
  C  C221  1  0.503600  0.390070  0.753980  1.0  -0.0494
  C  C222  1  0.552900  0.324310  0.747280  1.0  -0.0739
  C  C223  1  0.502600  0.259330  0.741300  1.0  0.1251
  C  C224  1  0.654700  0.323310  0.748480  1.0  0.0848
  C  C225  1  0.370700  0.079860  0.586320  1.0  0.1345
  C  C226  1  0.378500  0.015970  0.510140  1.0  -0.2063
  C  C227  1  0.379200  0.939060  0.498320  1.0  -0.0014
  C  C228  1  0.370800  0.928030  0.563940  1.0  -0.052
  C  C229  1  0.362300  0.995980  0.638640  1.0  0.1088
  C  C230  1  0.371000  0.849210  0.559620  1.0  0.1216
  C  C231  1  0.210100  0.277150  0.913500  1.0  0.1166
  C  C232  1  0.185300  0.342960  0.985320  1.0  -0.1906
  C  C233  1  0.248300  0.404850  0.023300  1.0  -0.0221
  C  C234  1  0.334200  0.400130  0.988860  1.0  -0.09
  C  C235  1  0.354500  0.330370  0.918140  1.0  0.1364
  C  C236  1  0.403200  0.465680  0.021360  1.0  0.1215
  C  C237  1  0.136400  0.074370  0.254140  1.0  0.1231
  C  C238  1  0.091900  0.134740  0.246680  1.0  -0.1747
  C  C239  1  0.996400  0.136090  0.246020  1.0  -0.0488
  C  C240  1  0.947100  0.077030  0.252720  1.0  -0.0753
  C  C241  1  0.997400  0.018030  0.258700  1.0  0.1273
  C  C242  1  0.845300  0.074830  0.251520  1.0  0.0844
  C  C243  1  0.129300  0.993540  0.413680  1.0  0.1374
  C  C244  1  0.121500  0.005830  0.489860  1.0  -0.2065
  C  C245  1  0.120800  0.940740  0.501680  1.0  0.0011
  C  C246  1  0.129200  0.864090  0.436060  1.0  -0.0531
  C  C247  1  0.137700  0.857340  0.361360  1.0  0.1095
  C  C248  1  0.129000  0.789590  0.440380  1.0  0.1201
  C  C249  1  0.289900  0.863650  0.086500  1.0  0.1126
  C  C250  1  0.314700  0.857640  0.014680  1.0  -0.1905
  C  C251  1  0.251700  0.881550  0.976700  1.0  -0.0224
  C  C252  1  0.165800  0.911270  0.011140  1.0  -0.0923
  C  C253  1  0.145500  0.912230  0.081860  1.0  0.1355
  C  C254  1  0.096800  0.944320  0.978640  1.0  0.1207
  C  C255  1  0.136400  0.425630  0.745860  1.0  0.1231
  C  C256  1  0.091900  0.365260  0.753320  1.0  -0.1746
  C  C257  1  0.996400  0.363910  0.753980  1.0  -0.0498
  C  C258  1  0.947100  0.422970  0.747280  1.0  -0.0756
  C  C259  1  0.997400  0.481970  0.741300  1.0  0.1254
  C  C260  1  0.845300  0.425170  0.748480  1.0  0.0835
  C  C261  1  0.129300  0.506460  0.586320  1.0  0.1384
  C  C262  1  0.121500  0.494170  0.510140  1.0  -0.2077
  C  C263  1  0.120800  0.559260  0.498320  1.0  -0.0009
  C  C264  1  0.129200  0.635910  0.563940  1.0  -0.0527
  C  C265  1  0.137700  0.642660  0.638640  1.0  0.1078
  C  C266  1  0.129000  0.710410  0.559620  1.0  0.1183
  C  C267  1  0.289900  0.636350  0.913500  1.0  0.1122
  C  C268  1  0.314700  0.642360  0.985320  1.0  -0.1918
  C  C269  1  0.251700  0.618450  0.023300  1.0  -0.0221
  C  C270  1  0.165800  0.588730  0.988860  1.0  -0.0915
  C  C271  1  0.145500  0.587770  0.918140  1.0  0.1351
  C  C272  1  0.096800  0.555680  0.021360  1.0  0.1203
  N  N273  1  0.591590  0.756740  0.741440  1.0  -0.3658
  N  N274  1  0.298700  0.881560  0.751800  1.0  -0.2682
  N  N275  1  0.637700  0.571470  0.650760  1.0  -0.3435
  N  N276  1  0.620700  0.284380  0.494740  1.0  -0.23
  N  N277  1  0.706600  0.770340  0.880320  1.0  -0.3535
  N  N278  1  0.528300  0.965560  0.979420  1.0  -0.2691
  N  N279  1  0.591590  0.743260  0.258560  1.0  -0.3658
  N  N280  1  0.298700  0.618440  0.248200  1.0  -0.268
  N  N281  1  0.637700  0.928530  0.349240  1.0  -0.3458
  N  N282  1  0.620700  0.215620  0.505260  1.0  -0.2311
  N  N283  1  0.706600  0.729660  0.119680  1.0  -0.3524
  N  N284  1  0.528300  0.534440  0.020580  1.0  -0.2697
  N  N285  1  0.908410  0.984700  0.741440  1.0  -0.3707
  N  N286  1  0.201300  0.870240  0.751800  1.0  -0.2688
  N  N287  1  0.862300  0.079290  0.650760  1.0  -0.3489
  N  N288  1  0.879300  0.210360  0.494740  1.0  -0.2302
  N  N289  1  0.793400  0.109980  0.880320  1.0  -0.3631
  N  N290  1  0.971700  0.013860  0.979420  1.0  -0.2707
  N  N291  1  0.908410  0.515300  0.258560  1.0  -0.3694
  N  N292  1  0.201300  0.629760  0.248200  1.0  -0.2681
  N  N293  1  0.862300  0.420710  0.349240  1.0  -0.3542
  N  N294  1  0.879300  0.289640  0.505260  1.0  -0.2305
  N  N295  1  0.793400  0.390020  0.119680  1.0  -0.3611
  N  N296  1  0.971700  0.486140  0.020580  1.0  -0.272
  N  N297  1  0.408410  0.243260  0.258560  1.0  -0.3662
  N  N298  1  0.701300  0.118440  0.248200  1.0  -0.269
  N  N299  1  0.362300  0.428530  0.349240  1.0  -0.346
  N  N300  1  0.379300  0.715620  0.505260  1.0  -0.2317
  N  N301  1  0.293400  0.229660  0.119680  1.0  -0.3537
  N  N302  1  0.471700  0.034440  0.020580  1.0  -0.2707
  N  N303  1  0.408410  0.256740  0.741440  1.0  -0.3683
  N  N304  1  0.701300  0.381560  0.751800  1.0  -0.2685
  N  N305  1  0.362300  0.071470  0.650760  1.0  -0.3436
  N  N306  1  0.379300  0.784380  0.494740  1.0  -0.2304
  N  N307  1  0.293400  0.270340  0.880320  1.0  -0.353
  N  N308  1  0.471700  0.465560  0.979420  1.0  -0.2704
  N  N309  1  0.091590  0.015300  0.258560  1.0  -0.3672
  N  N310  1  0.798700  0.129760  0.248200  1.0  -0.268
  N  N311  1  0.137700  0.920710  0.349240  1.0  -0.3539
  N  N312  1  0.120700  0.789640  0.505260  1.0  -0.2298
  N  N313  1  0.206600  0.890020  0.119680  1.0  -0.3608
  N  N314  1  0.028300  0.986140  0.020580  1.0  -0.2713
  N  N315  1  0.091590  0.484700  0.741440  1.0  -0.3696
  N  N316  1  0.798700  0.370240  0.751800  1.0  -0.2682
  N  N317  1  0.137700  0.579290  0.650760  1.0  -0.3488
  N  N318  1  0.120700  0.710360  0.494740  1.0  -0.2297
  N  N319  1  0.206600  0.609980  0.880320  1.0  -0.3627
  N  N320  1  0.028300  0.513860  0.979420  1.0  -0.2698
