# generated using pymatgen
data_Mn2H4WC12(N5O)2
_symmetry_space_group_name_H-M   'P 1'
_cell_length_a   11.34160000
_cell_length_b   14.74040000
_cell_length_c   15.19790000
_cell_angle_alpha   90.00000000
_cell_angle_beta   90.00000000
_cell_angle_gamma   90.00000000
_symmetry_Int_Tables_number   1
_chemical_formula_structural   Mn2H4WC12(N5O)2
_chemical_formula_sum   'Mn8 H16 W4 C48 N40 O8'
_cell_volume   2540.78067631
_cell_formula_units_Z   4
loop_
 _symmetry_equiv_pos_site_id
 _symmetry_equiv_pos_as_xyz
  1  'x, y, z'
loop_
 _atom_site_type_symbol
 _atom_site_label
 _atom_site_symmetry_multiplicity
 _atom_site_fract_x
 _atom_site_fract_y
 _atom_site_fract_z
 _atom_site_occupancy
 _atom_site_charge
  Mn  Mn1  1  0.193920  0.693580  0.522490  1.0  1.1558
  Mn  Mn2  1  0.693920  0.806420  0.522490  1.0  1.1571
  Mn  Mn3  1  0.693920  0.806420  0.977510  1.0  1.1554
  Mn  Mn4  1  0.306080  0.193580  0.022490  1.0  1.156
  Mn  Mn5  1  0.806080  0.306420  0.477510  1.0  1.156
  Mn  Mn6  1  0.193920  0.693580  0.977510  1.0  1.1548
  Mn  Mn7  1  0.306080  0.193580  0.477510  1.0  1.1551
  Mn  Mn8  1  0.806080  0.306420  0.022490  1.0  1.1577
  H  H9  1  0.248600  0.002700  0.174000  1.0  0.1213
  H  H10  1  0.480900  0.704200  0.825600  1.0  0.115
  H  H11  1  0.980900  0.795800  0.825600  1.0  0.1161
  H  H12  1  0.480900  0.704200  0.674400  1.0  0.115
  H  H13  1  0.248600  0.002700  0.326000  1.0  0.1209
  H  H14  1  0.751400  0.997300  0.826000  1.0  0.1208
  H  H15  1  0.748600  0.497300  0.326000  1.0  0.1209
  H  H16  1  0.519100  0.295800  0.325600  1.0  0.1157
  H  H17  1  0.748600  0.497300  0.174000  1.0  0.1211
  H  H18  1  0.251400  0.502700  0.674000  1.0  0.1209
  H  H19  1  0.980900  0.795800  0.674400  1.0  0.116
  H  H20  1  0.019100  0.204200  0.325600  1.0  0.115
  H  H21  1  0.519100  0.295800  0.174400  1.0  0.1154
  H  H22  1  0.751400  0.997300  0.674000  1.0  0.1213
  H  H23  1  0.019100  0.204200  0.174400  1.0  0.1149
  H  H24  1  0.251400  0.502700  0.826000  1.0  0.1204
  W  W25  1  0.632720  0.047000  0.250000  1.0  0.0666
  W  W26  1  0.367280  0.953000  0.750000  1.0  0.0683
  W  W27  1  0.867280  0.547000  0.750000  1.0  0.0759
  W  W28  1  0.132720  0.453000  0.250000  1.0  0.0642
  C  C29  1  0.714700  0.145570  0.164040  1.0  0.1591
  C  C30  1  0.285300  0.854430  0.835960  1.0  0.1567
  C  C31  1  0.214700  0.354430  0.335960  1.0  0.1589
  C  C32  1  0.001000  0.395940  0.163600  1.0  0.1338
  C  C33  1  0.343600  0.040800  0.861960  1.0  0.1752
  C  C34  1  0.204800  0.045710  0.204700  1.0  0.0151
  C  C35  1  0.431300  0.665170  0.705020  1.0  -0.0261
  C  C36  1  0.795200  0.954290  0.795300  1.0  0.014
  C  C37  1  0.501000  0.104060  0.336400  1.0  0.1343
  C  C38  1  0.931300  0.834830  0.705020  1.0  -0.0257
  C  C39  1  0.785300  0.645570  0.664040  1.0  0.1581
  C  C40  1  0.499000  0.895940  0.836400  1.0  0.1335
  C  C41  1  0.156400  0.540800  0.138040  1.0  0.1754
  C  C42  1  0.683400  0.505900  0.750000  1.0  0.1404
  C  C43  1  0.843600  0.459200  0.861960  1.0  0.1754
  C  C44  1  0.568700  0.334830  0.294980  1.0  -0.0258
  C  C45  1  0.508100  0.052200  0.750000  1.0  0.1503
  C  C46  1  0.656400  0.959200  0.138040  1.0  0.1755
  C  C47  1  0.295200  0.545710  0.704700  1.0  0.0154
  C  C48  1  0.795200  0.954290  0.704700  1.0  0.0157
  C  C49  1  0.714700  0.145570  0.335960  1.0  0.1581
  C  C50  1  0.068700  0.165170  0.294980  1.0  -0.0244
  C  C51  1  0.568700  0.334830  0.205020  1.0  -0.0246
  C  C52  1  0.816600  0.005900  0.250000  1.0  0.1397
  C  C53  1  0.991900  0.552200  0.250000  1.0  0.1497
  C  C54  1  0.931300  0.834830  0.794980  1.0  -0.0237
  C  C55  1  0.285300  0.854430  0.664040  1.0  0.1586
  C  C56  1  0.499000  0.895940  0.663600  1.0  0.1343
  C  C57  1  0.501000  0.104060  0.163600  1.0  0.1346
  C  C58  1  0.843600  0.459200  0.638040  1.0  0.1752
  C  C59  1  0.214700  0.354430  0.164040  1.0  0.1602
  C  C60  1  0.999000  0.604060  0.663600  1.0  0.1351
  C  C61  1  0.183400  0.994100  0.750000  1.0  0.1383
  C  C62  1  0.431300  0.665170  0.794980  1.0  -0.0253
  C  C63  1  0.704800  0.454290  0.204700  1.0  0.0154
  C  C64  1  0.656400  0.959200  0.361960  1.0  0.1754
  C  C65  1  0.785300  0.645570  0.835960  1.0  0.1566
  C  C66  1  0.068700  0.165170  0.205020  1.0  -0.0249
  C  C67  1  0.204800  0.045710  0.295300  1.0  0.0148
  C  C68  1  0.704800  0.454290  0.295300  1.0  0.0138
  C  C69  1  0.999000  0.604060  0.836400  1.0  0.133
  C  C70  1  0.001000  0.395940  0.336400  1.0  0.1344
  C  C71  1  0.491900  0.947800  0.250000  1.0  0.154
  C  C72  1  0.295200  0.545710  0.795300  1.0  0.0151
  C  C73  1  0.343600  0.040800  0.638040  1.0  0.182
  C  C74  1  0.008100  0.447800  0.750000  1.0  0.1545
  C  C75  1  0.316600  0.494100  0.250000  1.0  0.1399
  C  C76  1  0.156400  0.540800  0.361960  1.0  0.1759
  N  N77  1  0.641160  0.391880  0.160520  1.0  0.3241
  N  N78  1  0.430700  0.133120  0.383310  1.0  -0.4403
  N  N79  1  0.086500  0.017200  0.750000  1.0  -0.4359
  N  N80  1  0.141160  0.108120  0.339480  1.0  0.3172
  N  N81  1  0.755600  0.199660  0.118240  1.0  -0.4453
  N  N82  1  0.917500  0.605000  0.250000  1.0  -0.3882
  N  N83  1  0.082500  0.395000  0.750000  1.0  -0.3896
  N  N84  1  0.430700  0.133120  0.116690  1.0  -0.4405
  N  N85  1  0.582500  0.105000  0.750000  1.0  -0.3898
  N  N86  1  0.244400  0.800340  0.618240  1.0  -0.447
  N  N87  1  0.358840  0.608120  0.839480  1.0  0.3181
  N  N88  1  0.666100  0.911820  0.422010  1.0  -0.4554
  N  N89  1  0.255600  0.300340  0.381760  1.0  -0.447
  N  N90  1  0.858840  0.891880  0.839480  1.0  0.323
  N  N91  1  0.569300  0.866880  0.616690  1.0  -0.4417
  N  N92  1  0.744400  0.699660  0.881760  1.0  -0.4456
  N  N93  1  0.913500  0.982800  0.250000  1.0  -0.4366
  N  N94  1  0.141160  0.108120  0.160520  1.0  0.3324
  N  N95  1  0.333900  0.088180  0.577990  1.0  -0.4542
  N  N96  1  0.166100  0.588180  0.077990  1.0  -0.4554
  N  N97  1  0.586500  0.482800  0.750000  1.0  -0.4355
  N  N98  1  0.413500  0.517200  0.250000  1.0  -0.4379
  N  N99  1  0.255600  0.300340  0.118240  1.0  -0.4473
  N  N100  1  0.858840  0.891880  0.660520  1.0  0.3237
  N  N101  1  0.244400  0.800340  0.881760  1.0  -0.4461
  N  N102  1  0.930700  0.366880  0.116690  1.0  -0.4411
  N  N103  1  0.569300  0.866880  0.883310  1.0  -0.4421
  N  N104  1  0.833900  0.411820  0.577990  1.0  -0.4556
  N  N105  1  0.069300  0.633120  0.883310  1.0  -0.4418
  N  N106  1  0.069300  0.633120  0.616690  1.0  -0.4408
  N  N107  1  0.417500  0.895000  0.250000  1.0  -0.3876
  N  N108  1  0.358840  0.608120  0.660520  1.0  0.3324
  N  N109  1  0.166100  0.588180  0.422010  1.0  -0.4554
  N  N110  1  0.641160  0.391880  0.339480  1.0  0.3224
  N  N111  1  0.930700  0.366880  0.383310  1.0  -0.4405
  N  N112  1  0.744400  0.699660  0.618240  1.0  -0.4456
  N  N113  1  0.666100  0.911820  0.077990  1.0  -0.4567
  N  N114  1  0.755600  0.199660  0.381760  1.0  -0.4457
  N  N115  1  0.333900  0.088180  0.922010  1.0  -0.4545
  N  N116  1  0.833900  0.411820  0.922010  1.0  -0.4546
  O  O117  1  0.848800  0.885190  0.925100  1.0  -0.6002
  O  O118  1  0.348800  0.614810  0.574900  1.0  -0.5991
  O  O119  1  0.151200  0.114810  0.425100  1.0  -0.6018
  O  O120  1  0.151200  0.114810  0.074900  1.0  -0.5991
  O  O121  1  0.348800  0.614810  0.925100  1.0  -0.6001
  O  O122  1  0.848800  0.885190  0.574900  1.0  -0.5988
  O  O123  1  0.651200  0.385190  0.425100  1.0  -0.6015
  O  O124  1  0.651200  0.385190  0.074900  1.0  -0.5993
