# generated using pymatgen
data_ZnH8C16(NO4)2
_symmetry_space_group_name_H-M   'P 1'
_cell_length_a   8.69370000
_cell_length_b   12.05630000
_cell_length_c   20.66070000
_cell_angle_alpha   90.00000000
_cell_angle_beta   90.00000000
_cell_angle_gamma   101.90300000
_symmetry_Int_Tables_number   1
_chemical_formula_structural   ZnH8C16(NO4)2
_chemical_formula_sum   'Zn4 H32 C64 N8 O32'
_cell_volume   2118.96485032
_cell_formula_units_Z   4
loop_
 _symmetry_equiv_pos_site_id
 _symmetry_equiv_pos_as_xyz
  1  'x, y, z'
loop_
 _atom_site_type_symbol
 _atom_site_label
 _atom_site_symmetry_multiplicity
 _atom_site_fract_x
 _atom_site_fract_y
 _atom_site_fract_z
 _atom_site_occupancy
 _atom_site_charge
  Zn  Zn1  1  0.660610  0.239510  0.506300  1.0  1.0954
  Zn  Zn2  1  0.946290  0.820780  0.002100  1.0  1.2018
  Zn  Zn3  1  0.339390  0.760490  0.006300  1.0  1.0952
  Zn  Zn4  1  0.053710  0.179220  0.502100  1.0  1.2055
  H  H5  1  0.507600  0.189600  0.911600  1.0  0.1491
  H  H6  1  0.961200  0.303400  0.091800  1.0  0.1179
  H  H7  1  0.406400  0.492300  0.060600  1.0  0.1293
  H  H8  1  0.091000  0.262000  0.326700  1.0  0.1462
  H  H9  1  0.045300  0.313500  0.261500  1.0  0.1416
  H  H10  1  0.352100  0.418700  0.999000  1.0  0.1346
  H  H11  1  0.617300  0.659000  0.293600  1.0  0.132
  H  H12  1  0.492400  0.810400  0.411600  1.0  0.1485
  H  H13  1  0.447600  0.904600  0.455800  1.0  0.1349
  H  H14  1  0.019700  0.314100  0.763400  1.0  0.1475
  H  H15  1  0.912700  0.608700  0.822400  1.0  0.1234
  H  H16  1  0.087300  0.391300  0.322400  1.0  0.122
  H  H17  1  0.070400  0.238400  0.709000  1.0  0.1524
  H  H18  1  0.909000  0.738000  0.826700  1.0  0.1466
  H  H19  1  0.593600  0.507700  0.560600  1.0  0.1294
  H  H20  1  0.954700  0.686500  0.761500  1.0  0.1424
  H  H21  1  0.679300  0.458200  0.504100  1.0  0.1411
  H  H22  1  0.980300  0.685900  0.263400  1.0  0.1469
  H  H23  1  0.898100  0.210500  0.735900  1.0  0.1395
  H  H24  1  0.887400  0.297900  0.867900  1.0  0.1435
  H  H25  1  0.320700  0.541800  0.004100  1.0  0.141
  H  H26  1  0.552400  0.095400  0.955800  1.0  0.1357
  H  H27  1  0.382700  0.341000  0.793600  1.0  0.1323
  H  H28  1  0.493000  0.797300  0.487100  1.0  0.1159
  H  H29  1  0.112600  0.702100  0.367900  1.0  0.1411
  H  H30  1  0.647900  0.581300  0.499000  1.0  0.1331
  H  H31  1  0.038800  0.696600  0.591800  1.0  0.118
  H  H32  1  0.367300  0.314900  0.197100  1.0  0.1423
  H  H33  1  0.101900  0.789500  0.235900  1.0  0.1387
  H  H34  1  0.929600  0.761600  0.209000  1.0  0.1533
  H  H35  1  0.632700  0.685100  0.697100  1.0  0.1426
  H  H36  1  0.507000  0.202700  0.987100  1.0  0.117
  C  C37  1  0.630300  0.657900  0.001400  1.0  0.6846
  C  C38  1  0.877100  0.805800  0.411800  1.0  0.4514
  C  C39  1  0.567700  0.591000  0.274700  1.0  -0.0322
  C  C40  1  0.718700  0.017700  0.500000  1.0  0.6425
  C  C41  1  0.351000  0.478400  0.212800  1.0  -0.0467
  C  C42  1  0.039100  0.248600  0.008300  1.0  -0.0051
  C  C43  1  0.815100  0.353300  0.953800  1.0  0.0972
  C  C44  1  0.960900  0.751400  0.508300  1.0  -0.009
  C  C45  1  0.514000  0.850300  0.451900  1.0  -0.3647
  C  C46  1  0.900900  0.297900  0.912600  1.0  -0.1031
  C  C47  1  0.795000  0.503300  0.687000  1.0  0.157
  C  C48  1  0.173300  0.204100  0.019400  1.0  0.346
  C  C49  1  0.768400  0.461900  0.313600  1.0  0.5269
  C  C50  1  0.961600  0.683000  0.807800  1.0  -0.3623
  C  C51  1  0.008000  0.242500  0.941700  1.0  0.0438
  C  C52  1  0.184900  0.646700  0.453800  1.0  0.0968
  C  C53  1  0.330000  0.662400  0.233100  1.0  0.438
  C  C54  1  0.878900  0.288700  0.609300  1.0  0.6446
  C  C55  1  0.840000  0.287700  0.398800  1.0  0.5913
  C  C56  1  0.164400  0.642200  0.521000  1.0  -0.1524
  C  C57  1  0.878600  0.292600  0.326600  1.0  0.0848
  C  C58  1  0.574300  0.419900  0.741900  1.0  -0.0303
  C  C59  1  0.122900  0.194200  0.911800  1.0  0.4526
  C  C60  1  0.393000  0.494000  0.015000  1.0  -0.3486
  C  C61  1  0.281300  0.982300  0.000000  1.0  0.6423
  C  C62  1  0.542600  0.538100  0.984200  1.0  0.0047
  C  C63  1  0.368700  0.505700  0.777500  1.0  -0.1133
  C  C64  1  0.663000  0.903400  0.453500  1.0  0.1882
  C  C65  1  0.582900  0.617000  0.715800  1.0  -0.0257
  C  C66  1  0.052600  0.696700  0.547200  1.0  0.016
  C  C67  1  0.486000  0.149700  0.951900  1.0  -0.3657
  C  C68  1  0.432300  0.409000  0.774700  1.0  -0.034
  C  C69  1  0.014000  0.730000  0.225300  1.0  -0.3613
  C  C70  1  0.660000  0.305100  0.259700  1.0  0.5454
  C  C71  1  0.121400  0.707400  0.826600  1.0  0.0874
  C  C72  1  0.947400  0.303300  0.047200  1.0  0.0182
  C  C73  1  0.369700  0.342100  0.501400  1.0  0.6854
  C  C74  1  0.038400  0.317000  0.307800  1.0  -0.362
  C  C75  1  0.099100  0.702100  0.412600  1.0  -0.1094
  C  C76  1  0.064500  0.652300  0.173200  1.0  -0.0058
  C  C77  1  0.560100  0.392400  0.247700  1.0  -0.0655
  C  C78  1  0.121100  0.711300  0.109300  1.0  0.6439
  C  C79  1  0.337000  0.096600  0.953500  1.0  0.1886
  C  C80  1  0.205000  0.496700  0.187000  1.0  0.1528
  C  C81  1  0.457400  0.461900  0.484200  1.0  0.0036
  C  C82  1  0.274000  0.577700  0.431500  1.0  0.4405
  C  C83  1  0.607000  0.506000  0.515000  1.0  -0.3477
  C  C84  1  0.726000  0.422300  0.931500  1.0  0.4413
  C  C85  1  0.160000  0.712300  0.898800  1.0  0.5912
  C  C86  1  0.425700  0.580100  0.241900  1.0  -0.0284
  C  C87  1  0.935500  0.347700  0.673200  1.0  -0.0042
  C  C88  1  0.649000  0.521600  0.712800  1.0  -0.0467
  C  C89  1  0.439900  0.607600  0.747700  1.0  -0.0673
  C  C90  1  0.231600  0.538100  0.813600  1.0  0.5267
  C  C91  1  0.340000  0.694900  0.759700  1.0  0.5468
  C  C92  1  0.631300  0.494300  0.277500  1.0  -0.1135
  C  C93  1  0.280600  0.571500  0.541500  1.0  0.5712
  C  C94  1  0.670000  0.337600  0.733100  1.0  0.4377
  C  C95  1  0.986000  0.270000  0.725300  1.0  -0.3628
  C  C96  1  0.719400  0.428500  0.041500  1.0  0.5713
  C  C97  1  0.835600  0.357800  0.021000  1.0  -0.1534
  C  C98  1  0.826700  0.795900  0.519400  1.0  0.3466
  C  C99  1  0.992000  0.757500  0.441700  1.0  0.0442
  C  C100  1  0.417100  0.383000  0.215800  1.0  -0.0227
  N  N101  1  0.225100  0.170500  0.959800  1.0  -0.1631
  N  N102  1  0.780800  0.360200  0.296000  1.0  0.0704
  N  N103  1  0.806900  0.396600  0.701200  1.0  -0.0914
  N  N104  1  0.774900  0.829500  0.459800  1.0  -0.1617
  N  N105  1  0.193100  0.603400  0.201200  1.0  -0.091
  N  N106  1  0.219200  0.639800  0.796000  1.0  0.0714
  N  N107  1  0.648900  0.458100  0.987200  1.0  -0.1463
  N  N108  1  0.351100  0.541900  0.487200  1.0  -0.1459
  O  O109  1  0.385800  0.923500  0.003900  1.0  -0.5769
  O  O110  1  0.926400  0.276700  0.445100  1.0  -0.6758
  O  O111  1  0.016400  0.764300  0.086500  1.0  -0.6874
  O  O112  1  0.245000  0.701700  0.086700  1.0  -0.5742
  O  O113  1  0.225800  0.323700  0.498100  1.0  -0.5845
  O  O114  1  0.073600  0.723300  0.945100  1.0  -0.6784
  O  O115  1  0.449800  0.268300  0.516800  1.0  -0.6547
  O  O116  1  0.321000  0.560900  0.376600  1.0  -0.4721
  O  O117  1  0.300900  0.706800  0.916600  1.0  -0.5825
  O  O118  1  0.854000  0.535100  0.347200  1.0  -0.4881
  O  O119  1  0.877800  0.844100  0.357900  1.0  -0.4521
  O  O120  1  0.614200  0.076500  0.503900  1.0  -0.577
  O  O121  1  0.213000  0.185100  0.071200  1.0  -0.4116
  O  O122  1  0.895000  0.561500  0.660000  1.0  -0.4796
  O  O123  1  0.143000  0.952000  0.997300  1.0  -0.6011
  O  O124  1  0.627000  0.209500  0.248800  1.0  -0.3934
  O  O125  1  0.550200  0.731700  0.016800  1.0  -0.6583
  O  O126  1  0.787000  0.814900  0.571200  1.0  -0.4122
  O  O127  1  0.983600  0.235700  0.586500  1.0  -0.6867
  O  O128  1  0.755000  0.298300  0.586700  1.0  -0.5743
  O  O129  1  0.643500  0.237400  0.754600  1.0  -0.5182
  O  O130  1  0.356500  0.762600  0.254600  1.0  -0.5184
  O  O131  1  0.679000  0.439100  0.876600  1.0  -0.473
  O  O132  1  0.774200  0.676300  0.998100  1.0  -0.5852
  O  O133  1  0.122200  0.155900  0.857900  1.0  -0.4561
  O  O134  1  0.312400  0.546500  0.595900  1.0  -0.4562
  O  O135  1  0.699100  0.293200  0.416600  1.0  -0.581
  O  O136  1  0.857000  0.048000  0.497300  1.0  -0.6008
  O  O137  1  0.373000  0.790500  0.748800  1.0  -0.3923
  O  O138  1  0.105000  0.438500  0.160000  1.0  -0.4818
  O  O139  1  0.687600  0.453500  0.095900  1.0  -0.4561
  O  O140  1  0.146000  0.464900  0.847200  1.0  -0.4875
