# generated using pymatgen
data_ZnH12C21N2O5
_symmetry_space_group_name_H-M   'P 1'
_cell_length_a   11.36100000
_cell_length_b   15.53200000
_cell_length_c   16.26900000
_cell_angle_alpha   90.00000000
_cell_angle_beta   94.66100000
_cell_angle_gamma   90.00000000
_symmetry_Int_Tables_number   1
_chemical_formula_structural   ZnH12C21N2O5
_chemical_formula_sum   'Zn4 H48 C84 N8 O20'
_cell_volume   2861.31833885
_cell_formula_units_Z   4
loop_
 _symmetry_equiv_pos_site_id
 _symmetry_equiv_pos_as_xyz
  1  'x, y, z'
loop_
 _atom_site_type_symbol
 _atom_site_label
 _atom_site_symmetry_multiplicity
 _atom_site_fract_x
 _atom_site_fract_y
 _atom_site_fract_z
 _atom_site_occupancy
 _atom_site_charge
  Zn  Zn1  1  0.024210  0.374010  0.538110  1.0  0.8616
  Zn  Zn2  1  0.975790  0.874010  0.961890  1.0  0.8613
  Zn  Zn3  1  0.975790  0.625990  0.461890  1.0  0.861
  Zn  Zn4  1  0.024210  0.125990  0.038110  1.0  0.8613
  H  H5  1  0.982000  0.686000  0.723000  1.0  0.1199
  H  H6  1  0.768000  0.883000  0.843000  1.0  0.05
  H  H7  1  0.371000  0.181000  0.302000  1.0  0.2145
  H  H8  1  0.606000  0.204000  0.947000  1.0  0.0926
  H  H9  1  0.232000  0.383000  0.657000  1.0  0.0511
  H  H10  1  0.172000  0.959000  0.860000  1.0  0.0723
  H  H11  1  0.986000  0.078000  0.550000  1.0  0.0988
  H  H12  1  0.436000  0.099000  0.166000  1.0  0.0875
  H  H13  1  0.582000  0.847000  0.077000  1.0  0.1588
  H  H14  1  0.828000  0.459000  0.640000  1.0  0.0713
  H  H15  1  0.418000  0.153000  0.923000  1.0  0.1578
  H  H16  1  0.394000  0.704000  0.553000  1.0  0.0929
  H  H17  1  0.777000  0.836000  0.072000  1.0  0.0872
  H  H18  1  0.394000  0.796000  0.053000  1.0  0.0945
  H  H19  1  0.184000  0.789000  0.050000  1.0  0.0926
  H  H20  1  0.223000  0.164000  0.928000  1.0  0.0872
  H  H21  1  0.606000  0.296000  0.447000  1.0  0.0921
  H  H22  1  0.816000  0.289000  0.450000  1.0  0.0938
  H  H23  1  0.946000  0.565000  0.254000  1.0  0.0814
  H  H24  1  0.564000  0.901000  0.834000  1.0  0.0875
  H  H25  1  0.816000  0.211000  0.950000  1.0  0.0946
  H  H26  1  0.018000  0.186000  0.777000  1.0  0.1192
  H  H27  1  0.014000  0.578000  0.950000  1.0  0.0991
  H  H28  1  0.768000  0.617000  0.343000  1.0  0.0498
  H  H29  1  0.232000  0.117000  0.157000  1.0  0.0507
  H  H30  1  0.014000  0.922000  0.450000  1.0  0.0993
  H  H31  1  0.828000  0.041000  0.140000  1.0  0.0734
  H  H32  1  0.621000  0.474000  0.634000  1.0  0.0976
  H  H33  1  0.564000  0.599000  0.334000  1.0  0.0873
  H  H34  1  0.172000  0.541000  0.360000  1.0  0.073
  H  H35  1  0.946000  0.935000  0.754000  1.0  0.0812
  H  H36  1  0.018000  0.314000  0.277000  1.0  0.1197
  H  H37  1  0.418000  0.347000  0.423000  1.0  0.1581
  H  H38  1  0.982000  0.814000  0.223000  1.0  0.1205
  H  H39  1  0.379000  0.526000  0.366000  1.0  0.0974
  H  H40  1  0.436000  0.401000  0.666000  1.0  0.0874
  H  H41  1  0.223000  0.336000  0.428000  1.0  0.087
  H  H42  1  0.371000  0.319000  0.802000  1.0  0.2141
  H  H43  1  0.986000  0.422000  0.050000  1.0  0.099
  H  H44  1  0.629000  0.681000  0.198000  1.0  0.2152
  H  H45  1  0.184000  0.711000  0.550000  1.0  0.094
  H  H46  1  0.629000  0.819000  0.698000  1.0  0.2152
  H  H47  1  0.777000  0.664000  0.572000  1.0  0.0869
  H  H48  1  0.582000  0.653000  0.577000  1.0  0.1574
  H  H49  1  0.054000  0.435000  0.746000  1.0  0.0814
  H  H50  1  0.054000  0.065000  0.246000  1.0  0.0816
  H  H51  1  0.379000  0.974000  0.866000  1.0  0.0964
  H  H52  1  0.621000  0.026000  0.134000  1.0  0.0985
  C  C53  1  0.220700  0.578600  0.402300  1.0  0.1175
  C  C54  1  0.999000  0.648200  0.841800  1.0  -0.1338
  C  C55  1  0.981900  0.424000  0.109700  1.0  -0.0872
  C  C56  1  0.280400  0.113700  0.107400  1.0  0.102
  C  C57  1  0.719600  0.613700  0.392600  1.0  0.1024
  C  C58  1  0.299600  0.333500  0.833100  1.0  0.3547
  C  C59  1  0.389300  0.146500  0.970500  1.0  -0.1478
  C  C60  1  0.389300  0.353500  0.470500  1.0  -0.149
  C  C61  1  0.962600  0.509700  0.232500  1.0  -0.1049
  C  C62  1  0.036000  0.003600  0.353000  1.0  0.2055
  C  C63  1  0.229500  0.835200  0.014700  1.0  0.1655
  C  C64  1  0.001000  0.351800  0.158200  1.0  -0.1332
  C  C65  1  0.589700  0.122100  0.040200  1.0  0.0206
  C  C66  1  0.402600  0.389400  0.610500  1.0  -0.1652
  C  C67  1  0.589700  0.377900  0.540200  1.0  0.0212
  C  C68  1  0.984000  0.064000  0.780300  1.0  -0.1717
  C  C69  1  0.342000  0.579100  0.400600  1.0  -0.0983
  C  C70  1  0.984000  0.436000  0.280300  1.0  -0.1717
  C  C71  1  0.351300  0.667000  0.517900  1.0  -0.1911
  C  C72  1  0.800800  0.658900  0.150700  1.0  0.0417
  C  C73  1  0.280400  0.386300  0.607400  1.0  0.1017
  C  C74  1  0.267600  0.352600  0.472200  1.0  0.1207
  C  C75  1  0.410300  0.877900  0.959800  1.0  0.0208
  C  C76  1  0.648700  0.333000  0.482100  1.0  -0.1896
  C  C77  1  0.016000  0.234700  0.618000  1.0  0.6494
  C  C78  1  0.540800  0.875100  0.960100  1.0  0.038
  C  C79  1  0.001000  0.148200  0.658200  1.0  -0.1331
  C  C80  1  0.658000  0.079100  0.099400  1.0  -0.0999
  C  C81  1  0.036000  0.496400  0.853000  1.0  0.2054
  C  C82  1  0.700400  0.833500  0.666900  1.0  0.3525
  C  C83  1  0.037400  0.490300  0.767500  1.0  -0.1053
  C  C84  1  0.410300  0.622100  0.459800  1.0  0.0202
  C  C85  1  0.984000  0.734700  0.882000  1.0  0.6463
  C  C86  1  0.983000  0.442200  0.372000  1.0  0.6476
  C  C87  1  0.700400  0.666500  0.166900  1.0  0.353
  C  C88  1  0.037400  0.009700  0.267500  1.0  -0.1047
  C  C89  1  0.597400  0.610600  0.389500  1.0  -0.164
  C  C90  1  0.267600  0.147400  0.972200  1.0  0.12
  C  C91  1  0.719600  0.886300  0.892600  1.0  0.1031
  C  C92  1  0.610700  0.646500  0.529500  1.0  -0.1489
  C  C93  1  0.017000  0.942200  0.128000  1.0  0.6469
  C  C94  1  0.924100  0.846300  0.629000  1.0  -0.009
  C  C95  1  0.732400  0.852600  0.027800  1.0  0.1201
  C  C96  1  0.459200  0.375100  0.539900  1.0  0.0394
  C  C97  1  0.610700  0.853500  0.029500  1.0  -0.1501
  C  C98  1  0.459200  0.124900  0.039900  1.0  0.0393
  C  C99  1  0.017000  0.557800  0.628000  1.0  0.6462
  C  C100  1  0.779300  0.421400  0.597700  1.0  0.1116
  C  C101  1  0.984000  0.765300  0.382000  1.0  0.649
  C  C102  1  0.016000  0.265300  0.118000  1.0  0.6511
  C  C103  1  0.983000  0.057800  0.872000  1.0  0.6473
  C  C104  1  0.770500  0.335200  0.485300  1.0  0.1754
  C  C105  1  0.658000  0.420900  0.599400  1.0  -0.1017
  C  C106  1  0.964000  0.996400  0.647000  1.0  0.1997
  C  C107  1  0.199200  0.341100  0.849300  1.0  0.0454
  C  C108  1  0.229500  0.664800  0.514700  1.0  0.1641
  C  C109  1  0.999000  0.851800  0.341800  1.0  -0.1338
  C  C110  1  0.981900  0.076000  0.609700  1.0  -0.0873
  C  C111  1  0.220700  0.921400  0.902300  1.0  0.1126
  C  C112  1  0.299600  0.166500  0.333100  1.0  0.3552
  C  C113  1  0.964000  0.503600  0.147000  1.0  0.2003
  C  C114  1  0.779300  0.078600  0.097700  1.0  0.1167
  C  C115  1  0.003100  0.357400  0.243300  1.0  -0.0092
  C  C116  1  0.962600  0.990300  0.732500  1.0  -0.1056
  C  C117  1  0.648700  0.167000  0.982100  1.0  -0.1924
  C  C118  1  0.075900  0.153700  0.371000  1.0  -0.0078
  C  C119  1  0.199200  0.158900  0.349300  1.0  0.0455
  C  C120  1  0.996900  0.642600  0.756700  1.0  -0.0082
  C  C121  1  0.016000  0.564000  0.719700  1.0  -0.1707
  C  C122  1  0.018100  0.924000  0.390300  1.0  -0.0891
  C  C123  1  0.924100  0.653700  0.129000  1.0  -0.0084
  C  C124  1  0.075900  0.346300  0.871000  1.0  -0.0085
  C  C125  1  0.018100  0.576000  0.890300  1.0  -0.0892
  C  C126  1  0.351300  0.833000  0.017900  1.0  -0.1896
  C  C127  1  0.996900  0.857400  0.256700  1.0  -0.0095
  C  C128  1  0.770500  0.164800  0.985300  1.0  0.173
  C  C129  1  0.597400  0.889400  0.889500  1.0  -0.1641
  C  C130  1  0.732400  0.647400  0.527800  1.0  0.1202
  C  C131  1  0.016000  0.936000  0.219700  1.0  -0.1709
  C  C132  1  0.402600  0.110600  0.110500  1.0  -0.1651
  C  C133  1  0.342000  0.920900  0.900600  1.0  -0.0997
  C  C134  1  0.003100  0.142600  0.743300  1.0  -0.0084
  C  C135  1  0.540800  0.624900  0.460100  1.0  0.0378
  C  C136  1  0.800800  0.841100  0.650700  1.0  0.042
  N  N137  1  0.212800  0.371000  0.539000  1.0  -0.3411
  N  N138  1  0.164000  0.881600  0.959300  1.0  -0.3289
  N  N139  1  0.164000  0.618400  0.459300  1.0  -0.3288
  N  N140  1  0.787200  0.629000  0.461000  1.0  -0.3434
  N  N141  1  0.836000  0.381600  0.540700  1.0  -0.3261
  N  N142  1  0.787200  0.871000  0.961000  1.0  -0.3427
  N  N143  1  0.212800  0.129000  0.039000  1.0  -0.3412
  N  N144  1  0.836000  0.118400  0.040700  1.0  -0.3279
  O  O145  1  0.030200  0.199250  0.161570  1.0  -0.5904
  O  O146  1  0.011500  0.261940  0.040800  1.0  -0.5855
  O  O147  1  0.987400  0.624050  0.586920  1.0  -0.6029
  O  O148  1  0.011500  0.238060  0.540800  1.0  -0.5853
  O  O149  1  0.030200  0.300750  0.661570  1.0  -0.5896
  O  O150  1  0.988500  0.738060  0.959200  1.0  -0.5885
  O  O151  1  0.047400  0.488060  0.597540  1.0  -0.6658
  O  O152  1  0.050500  0.071600  0.405640  1.0  -0.3443
  O  O153  1  0.050500  0.428400  0.905640  1.0  -0.3431
  O  O154  1  0.047400  0.011940  0.097540  1.0  -0.6658
  O  O155  1  0.949500  0.571600  0.094360  1.0  -0.3446
  O  O156  1  0.969800  0.699250  0.338430  1.0  -0.588
  O  O157  1  0.949500  0.928400  0.594360  1.0  -0.3437
  O  O158  1  0.952600  0.988060  0.902460  1.0  -0.6648
  O  O159  1  0.012600  0.124050  0.913080  1.0  -0.6035
  O  O160  1  0.987400  0.875950  0.086920  1.0  -0.6053
  O  O161  1  0.012600  0.375950  0.413080  1.0  -0.6036
  O  O162  1  0.952600  0.511940  0.402460  1.0  -0.6649
  O  O163  1  0.969800  0.800750  0.838430  1.0  -0.5875
  O  O164  1  0.988500  0.761940  0.459200  1.0  -0.5878
