# generated using pymatgen
data_Ni3H36C42N18O13
_symmetry_space_group_name_H-M   'P 1'
_cell_length_a   16.74460000
_cell_length_b   16.74460000
_cell_length_c   15.19640000
_cell_angle_alpha   90.00000000
_cell_angle_beta   90.00000000
_cell_angle_gamma   120.00000000
_symmetry_Int_Tables_number   1
_chemical_formula_structural   Ni3H36C42N18O13
_chemical_formula_sum   'Ni6 H72 C84 N36 O26'
_cell_volume   3689.95358342
_cell_formula_units_Z   2
loop_
 _symmetry_equiv_pos_site_id
 _symmetry_equiv_pos_as_xyz
  1  'x, y, z'
loop_
 _atom_site_type_symbol
 _atom_site_label
 _atom_site_symmetry_multiplicity
 _atom_site_fract_x
 _atom_site_fract_y
 _atom_site_fract_z
 _atom_site_occupancy
 _atom_site_charge
  Ni  Ni1  1  0.470550  0.735280  0.250000  1.0  0.8557
  Ni  Ni2  1  0.264720  0.735280  0.250000  1.0  0.8554
  Ni  Ni3  1  0.264720  0.529450  0.250000  1.0  0.8552
  Ni  Ni4  1  0.529450  0.264720  0.750000  1.0  0.8546
  Ni  Ni5  1  0.735280  0.264720  0.750000  1.0  0.8564
  Ni  Ni6  1  0.735280  0.470550  0.750000  1.0  0.8552
  H  H7  1  0.296400  0.886500  0.405300  1.0  0.3649
  H  H8  1  0.289900  0.954200  0.464100  1.0  0.3358
  H  H9  1  0.113500  0.409900  0.405300  1.0  0.3636
  H  H10  1  0.045800  0.335700  0.464100  1.0  0.3374
  H  H11  1  0.590100  0.703600  0.405300  1.0  0.3645
  H  H12  1  0.664300  0.710100  0.464100  1.0  0.3386
  H  H13  1  0.703600  0.113500  0.905300  1.0  0.367
  H  H14  1  0.710100  0.045800  0.964100  1.0  0.3388
  H  H15  1  0.886500  0.590100  0.905300  1.0  0.3638
  H  H16  1  0.954200  0.664300  0.964100  1.0  0.3376
  H  H17  1  0.409900  0.296400  0.905300  1.0  0.3643
  H  H18  1  0.335700  0.289900  0.964100  1.0  0.3384
  H  H19  1  0.886500  0.296400  0.594700  1.0  0.3633
  H  H20  1  0.954200  0.289900  0.535900  1.0  0.339
  H  H21  1  0.409900  0.113500  0.594700  1.0  0.3666
  H  H22  1  0.335700  0.045800  0.535900  1.0  0.3356
  H  H23  1  0.703600  0.590100  0.594700  1.0  0.3643
  H  H24  1  0.710100  0.664300  0.535900  1.0  0.3372
  H  H25  1  0.113500  0.703600  0.094700  1.0  0.3648
  H  H26  1  0.045800  0.710100  0.035900  1.0  0.3373
  H  H27  1  0.590100  0.886500  0.094700  1.0  0.3664
  H  H28  1  0.664300  0.954200  0.035900  1.0  0.3387
  H  H29  1  0.296400  0.409900  0.094700  1.0  0.3632
  H  H30  1  0.289900  0.335700  0.035900  1.0  0.3379
  H  H31  1  0.703600  0.113500  0.594700  1.0  0.3672
  H  H32  1  0.710100  0.045800  0.535900  1.0  0.339
  H  H33  1  0.886500  0.590100  0.594700  1.0  0.3636
  H  H34  1  0.954200  0.664300  0.535900  1.0  0.3379
  H  H35  1  0.409900  0.296400  0.594700  1.0  0.3639
  H  H36  1  0.335700  0.289900  0.535900  1.0  0.3383
  H  H37  1  0.296400  0.886500  0.094700  1.0  0.3652
  H  H38  1  0.289900  0.954200  0.035900  1.0  0.3357
  H  H39  1  0.113500  0.409900  0.094700  1.0  0.3641
  H  H40  1  0.045800  0.335700  0.035900  1.0  0.337
  H  H41  1  0.590100  0.703600  0.094700  1.0  0.3641
  H  H42  1  0.664300  0.710100  0.035900  1.0  0.3384
  H  H43  1  0.113500  0.703600  0.405300  1.0  0.3649
  H  H44  1  0.045800  0.710100  0.464100  1.0  0.3374
  H  H45  1  0.590100  0.886500  0.405300  1.0  0.3656
  H  H46  1  0.664300  0.954200  0.464100  1.0  0.338
  H  H47  1  0.296400  0.409900  0.405300  1.0  0.3636
  H  H48  1  0.289900  0.335700  0.464100  1.0  0.3382
  H  H49  1  0.886500  0.296400  0.905300  1.0  0.3637
  H  H50  1  0.954200  0.289900  0.964100  1.0  0.3396
  H  H51  1  0.409900  0.113500  0.905300  1.0  0.367
  H  H52  1  0.335700  0.045800  0.964100  1.0  0.3362
  H  H53  1  0.703600  0.590100  0.905300  1.0  0.3638
  H  H54  1  0.710100  0.664300  0.964100  1.0  0.3371
  H  H55  1  0.790200  0.013700  0.250000  1.0  0.1086
  H  H56  1  0.632700  0.932400  0.250000  1.0  0.0734
  H  H57  1  0.986300  0.776500  0.250000  1.0  0.1097
  H  H58  1  0.067600  0.700300  0.250000  1.0  0.0757
  H  H59  1  0.223500  0.209800  0.250000  1.0  0.1096
  H  H60  1  0.299700  0.367300  0.250000  1.0  0.0751
  H  H61  1  0.209800  0.986300  0.750000  1.0  0.1084
  H  H62  1  0.367300  0.067600  0.750000  1.0  0.0738
  H  H63  1  0.013700  0.223500  0.750000  1.0  0.1101
  H  H64  1  0.932400  0.299700  0.750000  1.0  0.0737
  H  H65  1  0.776500  0.790200  0.750000  1.0  0.1097
  H  H66  1  0.700300  0.632700  0.750000  1.0  0.0752
  H  H67  1  0.013700  0.790200  0.750000  1.0  0.1099
  H  H68  1  0.932400  0.632700  0.750000  1.0  0.0752
  H  H69  1  0.776500  0.986300  0.750000  1.0  0.1081
  H  H70  1  0.700300  0.067600  0.750000  1.0  0.0735
  H  H71  1  0.209800  0.223500  0.750000  1.0  0.1098
  H  H72  1  0.367300  0.299700  0.750000  1.0  0.0741
  H  H73  1  0.986300  0.209800  0.250000  1.0  0.1102
  H  H74  1  0.067600  0.367300  0.250000  1.0  0.0752
  H  H75  1  0.223500  0.013700  0.250000  1.0  0.1084
  H  H76  1  0.299700  0.932400  0.250000  1.0  0.0738
  H  H77  1  0.790200  0.776500  0.250000  1.0  0.1097
  H  H78  1  0.632700  0.700300  0.250000  1.0  0.0757
  C  C79  1  0.411900  0.963800  0.469800  1.0  0.2055
  C  C80  1  0.036200  0.448100  0.469800  1.0  0.2042
  C  C81  1  0.551900  0.588100  0.469800  1.0  0.2054
  C  C82  1  0.588100  0.036200  0.969800  1.0  0.2057
  C  C83  1  0.963800  0.551900  0.969800  1.0  0.2059
  C  C84  1  0.448100  0.411900  0.969800  1.0  0.2052
  C  C85  1  0.963800  0.411900  0.530200  1.0  0.2048
  C  C86  1  0.448100  0.036200  0.530200  1.0  0.2053
  C  C87  1  0.588100  0.551900  0.530200  1.0  0.205
  C  C88  1  0.036200  0.588100  0.030200  1.0  0.2056
  C  C89  1  0.551900  0.963800  0.030200  1.0  0.2057
  C  C90  1  0.411900  0.448100  0.030200  1.0  0.2052
  C  C91  1  0.588100  0.036200  0.530200  1.0  0.2057
  C  C92  1  0.963800  0.551900  0.530200  1.0  0.2059
  C  C93  1  0.448100  0.411900  0.530200  1.0  0.2053
  C  C94  1  0.411900  0.963800  0.030200  1.0  0.2054
  C  C95  1  0.036200  0.448100  0.030200  1.0  0.2043
  C  C96  1  0.551900  0.588100  0.030200  1.0  0.2054
  C  C97  1  0.036200  0.588100  0.469800  1.0  0.2056
  C  C98  1  0.551900  0.963800  0.469800  1.0  0.2057
  C  C99  1  0.411900  0.448100  0.469800  1.0  0.2051
  C  C100  1  0.963800  0.411900  0.969800  1.0  0.2048
  C  C101  1  0.448100  0.036200  0.969800  1.0  0.2054
  C  C102  1  0.588100  0.551900  0.969800  1.0  0.205
  C  C103  1  0.910300  0.955150  0.250000  1.0  0.387
  C  C104  1  0.806900  0.903450  0.250000  1.0  -0.0712
  C  C105  1  0.044850  0.955150  0.250000  1.0  0.3869
  C  C106  1  0.096550  0.903450  0.250000  1.0  -0.0707
  C  C107  1  0.044850  0.089700  0.250000  1.0  0.3861
  C  C108  1  0.096550  0.193100  0.250000  1.0  -0.0656
  C  C109  1  0.089700  0.044850  0.750000  1.0  0.3868
  C  C110  1  0.193100  0.096550  0.750000  1.0  -0.0707
  C  C111  1  0.955150  0.044850  0.750000  1.0  0.3869
  C  C112  1  0.903450  0.096550  0.750000  1.0  -0.0703
  C  C113  1  0.955150  0.910300  0.750000  1.0  0.3863
  C  C114  1  0.903450  0.806900  0.750000  1.0  -0.0673
  C  C115  1  0.426550  0.853100  0.371300  1.0  0.6727
  C  C116  1  0.464200  0.928400  0.438000  1.0  -0.0793
  C  C117  1  0.146900  0.573450  0.371300  1.0  0.6726
  C  C118  1  0.071600  0.535800  0.438000  1.0  -0.0791
  C  C119  1  0.426550  0.573450  0.371300  1.0  0.6727
  C  C120  1  0.464200  0.535800  0.438000  1.0  -0.0791
  C  C121  1  0.573450  0.146900  0.871300  1.0  0.6731
  C  C122  1  0.535800  0.071600  0.938000  1.0  -0.0789
  C  C123  1  0.853100  0.426550  0.871300  1.0  0.6726
  C  C124  1  0.928400  0.464200  0.938000  1.0  -0.0798
  C  C125  1  0.573450  0.426550  0.871300  1.0  0.6725
  C  C126  1  0.535800  0.464200  0.938000  1.0  -0.0797
  C  C127  1  0.853100  0.426550  0.628700  1.0  0.6726
  C  C128  1  0.928400  0.464200  0.562000  1.0  -0.0797
  C  C129  1  0.573450  0.146900  0.628700  1.0  0.6732
  C  C130  1  0.535800  0.071600  0.562000  1.0  -0.0786
  C  C131  1  0.573450  0.426550  0.628700  1.0  0.6728
  C  C132  1  0.535800  0.464200  0.562000  1.0  -0.0797
  C  C133  1  0.146900  0.573450  0.128700  1.0  0.673
  C  C134  1  0.071600  0.535800  0.062000  1.0  -0.079
  C  C135  1  0.426550  0.853100  0.128700  1.0  0.6726
  C  C136  1  0.464200  0.928400  0.062000  1.0  -0.0792
  C  C137  1  0.426550  0.573450  0.128700  1.0  0.6728
  C  C138  1  0.464200  0.535800  0.062000  1.0  -0.0789
  C  C139  1  0.759100  0.949600  0.250000  1.0  -0.1813
  C  C140  1  0.664500  0.900100  0.250000  1.0  0.1168
  C  C141  1  0.050400  0.809500  0.250000  1.0  -0.1829
  C  C142  1  0.099900  0.764400  0.250000  1.0  0.122
  C  C143  1  0.190500  0.240900  0.250000  1.0  -0.183
  C  C144  1  0.235600  0.335500  0.250000  1.0  0.1197
  C  C145  1  0.240900  0.050400  0.750000  1.0  -0.1822
  C  C146  1  0.335500  0.099900  0.750000  1.0  0.118
  C  C147  1  0.949600  0.190500  0.750000  1.0  -0.1812
  C  C148  1  0.900100  0.235600  0.750000  1.0  0.1206
  C  C149  1  0.809500  0.759100  0.750000  1.0  -0.1848
  C  C150  1  0.764400  0.664500  0.750000  1.0  0.1194
  C  C151  1  0.949600  0.759100  0.750000  1.0  -0.1839
  C  C152  1  0.900100  0.664500  0.750000  1.0  0.1194
  C  C153  1  0.809500  0.050400  0.750000  1.0  -0.1815
  C  C154  1  0.764400  0.099900  0.750000  1.0  0.1178
  C  C155  1  0.240900  0.190500  0.750000  1.0  -0.1822
  C  C156  1  0.335500  0.235600  0.750000  1.0  0.1213
  C  C157  1  0.050400  0.240900  0.250000  1.0  -0.1819
  C  C158  1  0.099900  0.335500  0.250000  1.0  0.1202
  C  C159  1  0.190500  0.949600  0.250000  1.0  -0.1797
  C  C160  1  0.235600  0.900100  0.250000  1.0  0.1169
  C  C161  1  0.759100  0.809500  0.250000  1.0  -0.18
  C  C162  1  0.664500  0.764400  0.250000  1.0  0.1222
  N  N163  1  0.321200  0.930600  0.443000  1.0  -0.6377
  N  N164  1  0.069400  0.390600  0.443000  1.0  -0.6353
  N  N165  1  0.609400  0.678800  0.443000  1.0  -0.6379
  N  N166  1  0.678800  0.069400  0.943000  1.0  -0.6367
  N  N167  1  0.930600  0.609400  0.943000  1.0  -0.6374
  N  N168  1  0.390600  0.321200  0.943000  1.0  -0.6374
  N  N169  1  0.930600  0.321200  0.557000  1.0  -0.6349
  N  N170  1  0.390600  0.069400  0.557000  1.0  -0.6355
  N  N171  1  0.678800  0.609400  0.557000  1.0  -0.6353
  N  N172  1  0.069400  0.678800  0.057000  1.0  -0.6365
  N  N173  1  0.609400  0.930600  0.057000  1.0  -0.6354
  N  N174  1  0.321200  0.390600  0.057000  1.0  -0.6326
  N  N175  1  0.678800  0.069400  0.557000  1.0  -0.6357
  N  N176  1  0.930600  0.609400  0.557000  1.0  -0.6361
  N  N177  1  0.390600  0.321200  0.557000  1.0  -0.636
  N  N178  1  0.321200  0.930600  0.057000  1.0  -0.6366
  N  N179  1  0.069400  0.390600  0.057000  1.0  -0.6341
  N  N180  1  0.609400  0.678800  0.057000  1.0  -0.6373
  N  N181  1  0.069400  0.678800  0.443000  1.0  -0.6378
  N  N182  1  0.609400  0.930600  0.443000  1.0  -0.637
  N  N183  1  0.321200  0.390600  0.443000  1.0  -0.6341
  N  N184  1  0.930600  0.321200  0.943000  1.0  -0.6359
  N  N185  1  0.390600  0.069400  0.943000  1.0  -0.6367
  N  N186  1  0.678800  0.609400  0.943000  1.0  -0.6368
  N  N187  1  0.615600  0.807800  0.250000  1.0  -0.3004
  N  N188  1  0.192200  0.807800  0.250000  1.0  -0.2998
  N  N189  1  0.192200  0.384400  0.250000  1.0  -0.3004
  N  N190  1  0.384400  0.192200  0.750000  1.0  -0.2995
  N  N191  1  0.807800  0.192200  0.750000  1.0  -0.3002
  N  N192  1  0.807800  0.615600  0.750000  1.0  -0.3012
  N  N193  1  0.953200  0.046800  0.250000  1.0  -0.501
  N  N194  1  0.953200  0.906400  0.250000  1.0  -0.5013
  N  N195  1  0.093600  0.046800  0.250000  1.0  -0.4995
  N  N196  1  0.046800  0.953200  0.750000  1.0  -0.5002
  N  N197  1  0.046800  0.093600  0.750000  1.0  -0.4992
  N  N198  1  0.906400  0.953200  0.750000  1.0  -0.5016
  O  O199  1  0.478000  0.824300  0.346000  1.0  -0.6561
  O  O200  1  0.175700  0.653700  0.346000  1.0  -0.6557
  O  O201  1  0.346300  0.522000  0.346000  1.0  -0.6559
  O  O202  1  0.522000  0.175700  0.846000  1.0  -0.6568
  O  O203  1  0.824300  0.346300  0.846000  1.0  -0.6564
  O  O204  1  0.653700  0.478000  0.846000  1.0  -0.6559
  O  O205  1  0.824300  0.478000  0.654000  1.0  -0.6558
  O  O206  1  0.653700  0.175700  0.654000  1.0  -0.6577
  O  O207  1  0.522000  0.346300  0.654000  1.0  -0.6566
  O  O208  1  0.175700  0.522000  0.154000  1.0  -0.6574
  O  O209  1  0.346300  0.824300  0.154000  1.0  -0.6569
  O  O210  1  0.478000  0.653700  0.154000  1.0  -0.6566
  O  O211  1  0.522000  0.175700  0.654000  1.0  -0.6579
  O  O212  1  0.824300  0.346300  0.654000  1.0  -0.6567
  O  O213  1  0.653700  0.478000  0.654000  1.0  -0.6563
  O  O214  1  0.478000  0.824300  0.154000  1.0  -0.6567
  O  O215  1  0.175700  0.653700  0.154000  1.0  -0.6566
  O  O216  1  0.346300  0.522000  0.154000  1.0  -0.6567
  O  O217  1  0.175700  0.522000  0.346000  1.0  -0.6566
  O  O218  1  0.346300  0.824300  0.346000  1.0  -0.6559
  O  O219  1  0.478000  0.653700  0.346000  1.0  -0.656
  O  O220  1  0.824300  0.478000  0.846000  1.0  -0.6552
  O  O221  1  0.653700  0.175700  0.846000  1.0  -0.6571
  O  O222  1  0.522000  0.346300  0.846000  1.0  -0.656
  O  O223  1  0.333333  0.666667  0.250000  1.0  -0.7875
  O  O224  1  0.666667  0.333333  0.750000  1.0  -0.7875
