# generated using pymatgen
data_Er2H42(C23O6)3
_symmetry_space_group_name_H-M   'P 1'
_cell_length_a   19.09830000
_cell_length_b   14.42210000
_cell_length_c   30.55600000
_cell_angle_alpha   90.00000000
_cell_angle_beta   90.00000000
_cell_angle_gamma   90.00000000
_symmetry_Int_Tables_number   1
_chemical_formula_structural   Er2H42(C23O6)3
_chemical_formula_sum   'Er8 H168 C276 O72'
_cell_volume   8416.27107429
_cell_formula_units_Z   4
loop_
 _symmetry_equiv_pos_site_id
 _symmetry_equiv_pos_as_xyz
  1  'x, y, z'
loop_
 _atom_site_type_symbol
 _atom_site_label
 _atom_site_symmetry_multiplicity
 _atom_site_fract_x
 _atom_site_fract_y
 _atom_site_fract_z
 _atom_site_occupancy
 _atom_site_charge
  Er  Er1  1  0.141260  0.462200  0.747510  1.0  1.5426
  Er  Er2  1  0.187850  0.524190  0.623270  1.0  1.5462
  Er  Er3  1  0.858740  0.537800  0.247510  1.0  1.5413
  Er  Er4  1  0.812150  0.475810  0.123270  1.0  1.5461
  Er  Er5  1  0.641260  0.037800  0.747510  1.0  1.5411
  Er  Er6  1  0.687850  0.975810  0.623270  1.0  1.5457
  Er  Er7  1  0.358740  0.962200  0.247510  1.0  1.542
  Er  Er8  1  0.312150  0.024190  0.123270  1.0  1.5464
  H  H9  1  0.130200  0.242900  0.582000  1.0  0.1093
  H  H10  1  0.188700  0.739900  0.785400  1.0  0.1087
  H  H11  1  0.043800  0.674700  0.854900  1.0  0.1166
  H  H12  1  0.097500  0.224400  0.723600  1.0  0.3553
  H  H13  1  0.250600  0.768100  0.645300  1.0  0.4088
  H  H14  1  0.241700  0.527000  0.866300  1.0  0.3996
  H  H15  1  0.117200  0.136400  0.522000  1.0  0.1082
  H  H16  1  0.060200  0.929300  0.683200  1.0  0.123
  H  H17  1  0.095300  0.990300  0.719300  1.0  0.1358
  H  H18  1  0.195300  0.849000  0.846000  1.0  0.1159
  H  H19  1  0.265700  0.060300  0.688400  1.0  0.1253
  H  H20  1  0.229700  0.001200  0.652100  1.0  0.1214
  H  H21  1  0.984100  0.783900  0.904400  1.0  0.1079
  H  H22  1  0.258600  0.685900  0.985500  1.0  0.1242
  H  H23  1  0.301200  0.641400  0.947200  1.0  0.1381
  H  H24  1  0.401000  0.012800  0.938700  1.0  0.1192
  H  H25  1  0.098600  0.990800  0.497100  1.0  0.1269
  H  H26  1  0.064200  0.900300  0.619300  1.0  0.1313
  H  H27  1  0.210500  0.997800  0.872300  1.0  0.1247
  H  H28  1  0.258000  0.088000  0.753100  1.0  0.1352
  H  H29  1  0.179700  0.801900  0.993400  1.0  0.1022
  H  H30  1  0.984900  0.880200  0.963900  1.0  0.1163
  H  H31  1  0.283800  0.860200  0.039200  1.0  0.4057
  H  H32  1  0.077700  0.869800  0.547600  1.0  0.1171
  H  H33  1  0.238700  0.115600  0.823600  1.0  0.113
  H  H34  1  0.079400  0.885300  0.009100  1.0  0.1184
  H  H35  1  0.425100  0.979700  0.860400  1.0  0.124
  H  H36  1  0.083500  0.980200  0.783100  1.0  0.1152
  H  H37  1  0.897400  0.010700  0.637700  1.0  0.4105
  H  H38  1  0.238300  0.992900  0.586600  1.0  0.1164
  H  H39  1  0.430400  0.999500  0.729700  1.0  0.3928
  H  H40  1  0.320400  0.692400  0.872700  1.0  0.1109
  H  H41  1  0.416600  0.885900  0.801200  1.0  0.133
  H  H42  1  0.064700  0.968700  0.856400  1.0  0.107
  H  H43  1  0.860400  0.995200  0.842000  1.0  0.1136
  H  H44  1  0.809600  0.012500  0.768100  1.0  0.098
  H  H45  1  0.249700  0.013400  0.514600  1.0  0.1019
  H  H46  1  0.458700  0.006900  0.525600  1.0  0.1087
  H  H47  1  0.512300  0.993400  0.596500  1.0  0.1161
  H  H48  1  0.367100  0.741200  0.808800  1.0  0.1075
  H  H49  1  0.954200  0.973500  0.886400  1.0  0.1261
  H  H50  1  0.360400  0.022800  0.480800  1.0  0.1345
  H  H51  1  0.869800  0.757100  0.082000  1.0  0.1092
  H  H52  1  0.811300  0.260100  0.285400  1.0  0.1089
  H  H53  1  0.956200  0.325300  0.354900  1.0  0.1171
  H  H54  1  0.902500  0.775600  0.223600  1.0  0.3551
  H  H55  1  0.749400  0.231900  0.145300  1.0  0.4116
  H  H56  1  0.758300  0.473000  0.366300  1.0  0.4009
  H  H57  1  0.882800  0.863600  0.022000  1.0  0.1082
  H  H58  1  0.939800  0.070700  0.183200  1.0  0.1245
  H  H59  1  0.904700  0.009700  0.219300  1.0  0.1351
  H  H60  1  0.804700  0.151000  0.346000  1.0  0.1157
  H  H61  1  0.734300  0.939700  0.188400  1.0  0.1274
  H  H62  1  0.770300  0.998800  0.152100  1.0  0.1219
  H  H63  1  0.015900  0.216100  0.404400  1.0  0.1078
  H  H64  1  0.741400  0.314100  0.485500  1.0  0.1239
  H  H65  1  0.698800  0.358600  0.447200  1.0  0.1387
  H  H66  1  0.599000  0.987200  0.438700  1.0  0.1201
  H  H67  1  0.901400  0.009200  0.997100  1.0  0.1262
  H  H68  1  0.935800  0.099700  0.119300  1.0  0.1309
  H  H69  1  0.789500  0.002200  0.372300  1.0  0.1245
  H  H70  1  0.742000  0.912000  0.253100  1.0  0.1358
  H  H71  1  0.820300  0.198100  0.493400  1.0  0.1013
  H  H72  1  0.015100  0.119800  0.463900  1.0  0.1161
  H  H73  1  0.716200  0.139800  0.539200  1.0  0.4062
  H  H74  1  0.922300  0.130200  0.047600  1.0  0.117
  H  H75  1  0.761300  0.884400  0.323600  1.0  0.114
  H  H76  1  0.920600  0.114700  0.509100  1.0  0.1186
  H  H77  1  0.574900  0.020300  0.360400  1.0  0.1246
  H  H78  1  0.916500  0.019800  0.283100  1.0  0.1148
  H  H79  1  0.102600  0.989300  0.137700  1.0  0.4095
  H  H80  1  0.761700  0.007100  0.086600  1.0  0.1166
  H  H81  1  0.569600  0.000500  0.229700  1.0  0.3935
  H  H82  1  0.679600  0.307600  0.372700  1.0  0.1113
  H  H83  1  0.583400  0.114100  0.301200  1.0  0.1326
  H  H84  1  0.935300  0.031300  0.356400  1.0  0.1077
  H  H85  1  0.139600  0.004800  0.342000  1.0  0.1143
  H  H86  1  0.190400  0.987500  0.268100  1.0  0.0978
  H  H87  1  0.750300  0.986600  0.014600  1.0  0.1021
  H  H88  1  0.541300  0.993100  0.025600  1.0  0.1088
  H  H89  1  0.487700  0.006600  0.096500  1.0  0.1161
  H  H90  1  0.632900  0.258800  0.308800  1.0  0.1075
  H  H91  1  0.045800  0.026500  0.386400  1.0  0.1268
  H  H92  1  0.639600  0.977200  0.980800  1.0  0.1353
  H  H93  1  0.630200  0.257100  0.582000  1.0  0.109
  H  H94  1  0.688700  0.760100  0.785400  1.0  0.1087
  H  H95  1  0.543800  0.825300  0.854900  1.0  0.117
  H  H96  1  0.597500  0.275600  0.723600  1.0  0.3549
  H  H97  1  0.750600  0.731900  0.645300  1.0  0.4099
  H  H98  1  0.741700  0.973000  0.866300  1.0  0.4004
  H  H99  1  0.617200  0.363600  0.522000  1.0  0.1078
  H  H100  1  0.560200  0.570700  0.683200  1.0  0.1257
  H  H101  1  0.595300  0.509700  0.719300  1.0  0.1357
  H  H102  1  0.695300  0.651000  0.846000  1.0  0.1156
  H  H103  1  0.765700  0.439700  0.688400  1.0  0.1261
  H  H104  1  0.729700  0.498800  0.652100  1.0  0.1209
  H  H105  1  0.484100  0.716100  0.904400  1.0  0.1079
  H  H106  1  0.758600  0.814100  0.985500  1.0  0.1241
  H  H107  1  0.801200  0.858600  0.947200  1.0  0.1372
  H  H108  1  0.901000  0.487200  0.938700  1.0  0.1204
  H  H109  1  0.598600  0.509200  0.497100  1.0  0.1265
  H  H110  1  0.564200  0.599700  0.619300  1.0  0.1309
  H  H111  1  0.710500  0.502200  0.872300  1.0  0.1254
  H  H112  1  0.758000  0.412000  0.753100  1.0  0.1361
  H  H113  1  0.679700  0.698100  0.993400  1.0  0.1024
  H  H114  1  0.484900  0.619800  0.963900  1.0  0.116
  H  H115  1  0.783800  0.639800  0.039200  1.0  0.4059
  H  H116  1  0.577700  0.630200  0.547600  1.0  0.1174
  H  H117  1  0.738700  0.384400  0.823600  1.0  0.1134
  H  H118  1  0.579400  0.614700  0.009100  1.0  0.1184
  H  H119  1  0.925100  0.520300  0.860400  1.0  0.1244
  H  H120  1  0.583500  0.519800  0.783100  1.0  0.1153
  H  H121  1  0.397400  0.489300  0.637700  1.0  0.4107
  H  H122  1  0.738300  0.507100  0.586600  1.0  0.117
  H  H123  1  0.930400  0.500500  0.729700  1.0  0.3932
  H  H124  1  0.820400  0.807600  0.872700  1.0  0.1113
  H  H125  1  0.916600  0.614100  0.801200  1.0  0.1329
  H  H126  1  0.564700  0.531300  0.856400  1.0  0.1077
  H  H127  1  0.360400  0.504800  0.842000  1.0  0.1139
  H  H128  1  0.309600  0.487500  0.768100  1.0  0.0974
  H  H129  1  0.749700  0.486600  0.514600  1.0  0.1021
  H  H130  1  0.958700  0.493100  0.525600  1.0  0.1084
  H  H131  1  0.012300  0.506600  0.596500  1.0  0.1162
  H  H132  1  0.867100  0.758800  0.808800  1.0  0.1074
  H  H133  1  0.454200  0.526500  0.886400  1.0  0.1266
  H  H134  1  0.860400  0.477200  0.480800  1.0  0.1349
  H  H135  1  0.369800  0.742900  0.082000  1.0  0.1093
  H  H136  1  0.311300  0.239900  0.285400  1.0  0.1089
  H  H137  1  0.456200  0.174700  0.354900  1.0  0.1168
  H  H138  1  0.402500  0.724400  0.223600  1.0  0.3559
  H  H139  1  0.249400  0.268100  0.145300  1.0  0.41
  H  H140  1  0.258300  0.027000  0.366300  1.0  0.4005
  H  H141  1  0.382800  0.636400  0.022000  1.0  0.1087
  H  H142  1  0.439800  0.429300  0.183200  1.0  0.1233
  H  H143  1  0.404700  0.490300  0.219300  1.0  0.1348
  H  H144  1  0.304700  0.349000  0.346000  1.0  0.1162
  H  H145  1  0.234300  0.560300  0.188400  1.0  0.1268
  H  H146  1  0.270300  0.501200  0.152100  1.0  0.1219
  H  H147  1  0.515900  0.283900  0.404400  1.0  0.1079
  H  H148  1  0.241400  0.185900  0.485500  1.0  0.124
  H  H149  1  0.198800  0.141400  0.447200  1.0  0.139
  H  H150  1  0.099000  0.512800  0.438700  1.0  0.1197
  H  H151  1  0.401400  0.490800  0.997100  1.0  0.1266
  H  H152  1  0.435800  0.400300  0.119300  1.0  0.1312
  H  H153  1  0.289500  0.497800  0.372300  1.0  0.1239
  H  H154  1  0.242000  0.588000  0.253100  1.0  0.1354
  H  H155  1  0.320300  0.301900  0.493400  1.0  0.1015
  H  H156  1  0.515100  0.380200  0.463900  1.0  0.1161
  H  H157  1  0.216200  0.360200  0.539200  1.0  0.4059
  H  H158  1  0.422300  0.369800  0.047600  1.0  0.1173
  H  H159  1  0.261300  0.615600  0.323600  1.0  0.1133
  H  H160  1  0.420600  0.385300  0.509100  1.0  0.1187
  H  H161  1  0.074900  0.479700  0.360400  1.0  0.1249
  H  H162  1  0.416500  0.480200  0.283100  1.0  0.1151
  H  H163  1  0.602600  0.510700  0.137700  1.0  0.4093
  H  H164  1  0.261700  0.492900  0.086600  1.0  0.1166
  H  H165  1  0.069600  0.499500  0.229700  1.0  0.3935
  H  H166  1  0.179600  0.192400  0.372700  1.0  0.1108
  H  H167  1  0.083400  0.385900  0.301200  1.0  0.1326
  H  H168  1  0.435300  0.468700  0.356400  1.0  0.1069
  H  H169  1  0.639600  0.495200  0.342000  1.0  0.1139
  H  H170  1  0.690400  0.512500  0.268100  1.0  0.0977
  H  H171  1  0.250300  0.513400  0.014600  1.0  0.1022
  H  H172  1  0.041300  0.506900  0.025600  1.0  0.1088
  H  H173  1  0.987700  0.493400  0.096500  1.0  0.1159
  H  H174  1  0.132900  0.241200  0.308800  1.0  0.1075
  H  H175  1  0.545800  0.473500  0.386400  1.0  0.1263
  H  H176  1  0.139600  0.522800  0.980800  1.0  0.1352
  C  C177  1  0.135500  0.317100  0.660200  1.0  0.7343
  C  C178  1  0.193600  0.670600  0.707700  1.0  0.6959
  C  C179  1  0.135100  0.556400  0.827000  1.0  0.6909
  C  C180  1  0.116500  0.219900  0.645800  1.0  -0.1853
  C  C181  1  0.211900  0.767700  0.723000  1.0  -0.1514
  C  C182  1  0.138500  0.617000  0.865900  1.0  -0.2342
  C  C183  1  0.118400  0.197200  0.602100  1.0  -0.0646
  C  C184  1  0.095400  0.150600  0.676200  1.0  0.2412
  C  C185  1  0.203500  0.786400  0.766400  1.0  -0.0629
  C  C186  1  0.232900  0.839400  0.692700  1.0  0.1783
  C  C187  1  0.081800  0.674500  0.873800  1.0  -0.0381
  C  C188  1  0.199000  0.621100  0.894200  1.0  0.2244
  C  C189  1  0.362300  0.995200  0.019100  1.0  0.7116
  C  C190  1  0.103400  0.110000  0.587200  1.0  -0.0382
  C  C191  1  0.079700  0.062000  0.661900  1.0  0.0333
  C  C192  1  0.217500  0.877800  0.783000  1.0  -0.0607
  C  C193  1  0.247500  0.928200  0.707400  1.0  0.0114
  C  C194  1  0.082300  0.733700  0.911600  1.0  0.0214
  C  C195  1  0.203600  0.683600  0.928100  1.0  -0.0168
  C  C196  1  0.352400  0.929400  0.981000  1.0  -0.1904
  C  C197  1  0.107200  0.089200  0.541800  1.0  -0.1758
  C  C198  1  0.085700  0.039100  0.617700  1.0  0.0495
  C  C199  1  0.059300  0.990000  0.696900  1.0  -0.2007
  C  C200  1  0.207800  0.896600  0.827000  1.0  -0.0796
  C  C201  1  0.237700  0.948600  0.753400  1.0  0.0054
  C  C202  1  0.266500  0.000500  0.673900  1.0  -0.2469
  C  C203  1  0.143900  0.738600  0.937800  1.0  0.0495
  C  C204  1  0.023800  0.787000  0.922000  1.0  -0.0946
  C  C205  1  0.270400  0.692400  0.954800  1.0  -0.1766
  C  C206  1  0.379100  0.955500  0.941300  1.0  -0.0783
  C  C207  1  0.318700  0.842000  0.985200  1.0  0.2436
  C  C208  1  0.096700  0.003200  0.527000  1.0  -0.1266
  C  C209  1  0.075700  0.948400  0.600400  1.0  -0.1309
  C  C210  1  0.989300  0.001300  0.719200  1.0  0.0081
  C  C211  1  0.216400  0.984900  0.842700  1.0  -0.1014
  C  C212  1  0.245200  0.039200  0.771300  1.0  -0.144
  C  C213  1  0.336500  0.992400  0.649700  1.0  0.0321
  C  C214  1  0.141000  0.797300  0.975100  1.0  -0.1337
  C  C215  1  0.024000  0.844000  0.957700  1.0  -0.1022
  C  C216  1  0.310900  0.783400  0.948800  1.0  0.0041
  C  C217  1  0.374100  0.897100  0.904000  1.0  0.0457
  C  C218  1  0.082400  0.930300  0.557500  1.0  -0.107
  C  C219  1  0.981100  0.994200  0.765100  1.0  -0.011
  C  C220  1  0.929100  0.008500  0.692500  1.0  0.2076
  C  C221  1  0.234300  0.055300  0.813200  1.0  -0.0872
  C  C222  1  0.342100  0.995100  0.604200  1.0  0.0182
  C  C223  1  0.398100  0.991700  0.674000  1.0  0.2837
  C  C224  1  0.080700  0.848000  0.984300  1.0  -0.0886
  C  C225  1  0.339700  0.810200  0.908700  1.0  0.0395
  C  C226  1  0.402900  0.922600  0.863100  1.0  -0.0689
  C  C227  1  0.038100  0.982900  0.793900  1.0  -0.1711
  C  C228  1  0.912900  0.999100  0.783400  1.0  0.0632
  C  C229  1  0.860500  0.017300  0.712300  1.0  -0.1259
  C  C230  1  0.283100  0.998500  0.574900  1.0  -0.1291
  C  C231  1  0.408800  0.998800  0.583300  1.0  0.0711
  C  C232  1  0.464500  0.990400  0.654300  1.0  -0.1834
  C  C233  1  0.339900  0.751400  0.871000  1.0  -0.1544
  C  C234  1  0.399000  0.867000  0.828200  1.0  -0.1469
  C  C235  1  0.026400  0.976000  0.838000  1.0  -0.0781
  C  C236  1  0.905000  0.991600  0.829900  1.0  -0.0676
  C  C237  1  0.854100  0.010100  0.755700  1.0  -0.0576
  C  C238  1  0.798000  0.024800  0.684900  1.0  0.6916
  C  C239  1  0.289900  0.009300  0.531700  1.0  -0.1179
  C  C240  1  0.414400  0.006700  0.538200  1.0  -0.0929
  C  C241  1  0.468500  0.994100  0.609700  1.0  -0.0702
  C  C242  1  0.530300  0.990000  0.681000  1.0  0.7299
  C  C243  1  0.368300  0.780700  0.832900  1.0  -0.0883
  C  C244  1  0.960200  0.979500  0.856300  1.0  -0.155
  C  C245  1  0.356100  0.014600  0.510900  1.0  -0.1279
  C  C246  1  0.864500  0.682900  0.160200  1.0  0.7353
  C  C247  1  0.806400  0.329400  0.207700  1.0  0.6962
  C  C248  1  0.864900  0.443600  0.327000  1.0  0.6909
  C  C249  1  0.883500  0.780100  0.145800  1.0  -0.1858
  C  C250  1  0.788100  0.232300  0.223000  1.0  -0.1521
  C  C251  1  0.861500  0.383000  0.365900  1.0  -0.2347
  C  C252  1  0.881600  0.802800  0.102100  1.0  -0.0652
  C  C253  1  0.904600  0.849400  0.176200  1.0  0.2419
  C  C254  1  0.796500  0.213600  0.266400  1.0  -0.0639
  C  C255  1  0.767100  0.160600  0.192700  1.0  0.178
  C  C256  1  0.918200  0.325500  0.373800  1.0  -0.0389
  C  C257  1  0.801000  0.378900  0.394200  1.0  0.2278
  C  C258  1  0.637700  0.004800  0.519100  1.0  0.7158
  C  C259  1  0.896600  0.890000  0.087200  1.0  -0.0376
  C  C260  1  0.920300  0.938000  0.161900  1.0  0.0312
  C  C261  1  0.782500  0.122200  0.283000  1.0  -0.0622
  C  C262  1  0.752500  0.071800  0.207400  1.0  0.011
  C  C263  1  0.917700  0.266300  0.411600  1.0  0.0219
  C  C264  1  0.796400  0.316400  0.428100  1.0  -0.0176
  C  C265  1  0.647600  0.070600  0.481000  1.0  -0.1902
  C  C266  1  0.892800  0.910800  0.041800  1.0  -0.1755
  C  C267  1  0.914300  0.960900  0.117700  1.0  0.0496
  C  C268  1  0.940700  0.010000  0.196900  1.0  -0.2017
  C  C269  1  0.792200  0.103400  0.327000  1.0  -0.0789
  C  C270  1  0.762300  0.051400  0.253400  1.0  0.0044
  C  C271  1  0.733500  0.999500  0.173900  1.0  -0.2457
  C  C272  1  0.856100  0.261400  0.437800  1.0  0.0488
  C  C273  1  0.976200  0.213000  0.422000  1.0  -0.0948
  C  C274  1  0.729600  0.307600  0.454800  1.0  -0.1785
  C  C275  1  0.620900  0.044500  0.441300  1.0  -0.081
  C  C276  1  0.681300  0.158000  0.485200  1.0  0.2428
  C  C277  1  0.903300  0.996800  0.027000  1.0  -0.1273
  C  C278  1  0.924300  0.051600  0.100400  1.0  -0.1322
  C  C279  1  0.010700  0.998700  0.219200  1.0  0.0099
  C  C280  1  0.783600  0.015100  0.342700  1.0  -0.1016
  C  C281  1  0.754800  0.960800  0.271300  1.0  -0.1438
  C  C282  1  0.663500  0.007600  0.149700  1.0  0.0335
  C  C283  1  0.859000  0.202700  0.475100  1.0  -0.1327
  C  C284  1  0.976000  0.156000  0.457700  1.0  -0.1015
  C  C285  1  0.689100  0.216600  0.448800  1.0  0.0016
  C  C286  1  0.625900  0.102900  0.404000  1.0  0.0462
  C  C287  1  0.917600  0.069700  0.057500  1.0  -0.1063
  C  C288  1  0.018900  0.005800  0.265100  1.0  -0.012
  C  C289  1  0.070900  0.991500  0.192500  1.0  0.2073
  C  C290  1  0.765700  0.944700  0.313200  1.0  -0.0937
  C  C291  1  0.657900  0.004900  0.104200  1.0  0.0193
  C  C292  1  0.601900  0.008300  0.174000  1.0  0.283
  C  C293  1  0.919300  0.152000  0.484300  1.0  -0.0893
  C  C294  1  0.660300  0.189800  0.408700  1.0  0.0381
  C  C295  1  0.597100  0.077400  0.363100  1.0  -0.0705
  C  C296  1  0.961900  0.017100  0.293900  1.0  -0.1729
  C  C297  1  0.087100  0.000900  0.283400  1.0  0.0622
  C  C298  1  0.139500  0.982700  0.212300  1.0  -0.1265
  C  C299  1  0.716900  0.001500  0.074900  1.0  -0.1298
  C  C300  1  0.591200  0.001200  0.083300  1.0  0.0701
  C  C301  1  0.535500  0.009600  0.154300  1.0  -0.183
  C  C302  1  0.660100  0.248600  0.371000  1.0  -0.1538
  C  C303  1  0.601000  0.133000  0.328200  1.0  -0.1477
  C  C304  1  0.973600  0.024000  0.338000  1.0  -0.077
  C  C305  1  0.095000  0.008400  0.329900  1.0  -0.0647
  C  C306  1  0.145900  0.989900  0.255700  1.0  -0.0577
  C  C307  1  0.202000  0.975200  0.184900  1.0  0.6927
  C  C308  1  0.710100  0.990700  0.031700  1.0  -0.1172
  C  C309  1  0.585600  0.993300  0.038200  1.0  -0.0939
  C  C310  1  0.531500  0.005900  0.109700  1.0  -0.0691
  C  C311  1  0.469700  0.010000  0.181000  1.0  0.7291
  C  C312  1  0.631700  0.219300  0.332900  1.0  -0.0883
  C  C313  1  0.039800  0.020500  0.356300  1.0  -0.155
  C  C314  1  0.643900  0.985400  0.010900  1.0  -0.1273
  C  C315  1  0.635500  0.182900  0.660200  1.0  0.7348
  C  C316  1  0.693600  0.829400  0.707700  1.0  0.6958
  C  C317  1  0.635100  0.943600  0.827000  1.0  0.6924
  C  C318  1  0.616500  0.280100  0.645800  1.0  -0.1865
  C  C319  1  0.711900  0.732300  0.723000  1.0  -0.152
  C  C320  1  0.638500  0.883000  0.865900  1.0  -0.2346
  C  C321  1  0.618400  0.302800  0.602100  1.0  -0.0653
  C  C322  1  0.595400  0.349400  0.676200  1.0  0.2416
  C  C323  1  0.703500  0.713600  0.766400  1.0  -0.0644
  C  C324  1  0.732900  0.660600  0.692700  1.0  0.1786
  C  C325  1  0.581800  0.825500  0.873800  1.0  -0.0378
  C  C326  1  0.699000  0.878900  0.894200  1.0  0.2258
  C  C327  1  0.862300  0.504800  0.019100  1.0  0.7147
  C  C328  1  0.603400  0.390000  0.587200  1.0  -0.0385
  C  C329  1  0.579700  0.438000  0.661900  1.0  0.0324
  C  C330  1  0.717500  0.622200  0.783000  1.0  -0.0616
  C  C331  1  0.747500  0.571800  0.707400  1.0  0.0111
  C  C332  1  0.582300  0.766300  0.911600  1.0  0.0215
  C  C333  1  0.703600  0.816400  0.928100  1.0  -0.0167
  C  C334  1  0.852400  0.570600  0.981000  1.0  -0.1902
  C  C335  1  0.607200  0.410800  0.541800  1.0  -0.1761
  C  C336  1  0.585700  0.460900  0.617700  1.0  0.0492
  C  C337  1  0.559300  0.510000  0.696900  1.0  -0.1999
  C  C338  1  0.707800  0.603400  0.827000  1.0  -0.0786
  C  C339  1  0.737700  0.551400  0.753400  1.0  0.0051
  C  C340  1  0.766500  0.499500  0.673900  1.0  -0.2466
  C  C341  1  0.643900  0.761400  0.937800  1.0  0.0493
  C  C342  1  0.523800  0.713000  0.922000  1.0  -0.0945
  C  C343  1  0.770400  0.807600  0.954800  1.0  -0.1773
  C  C344  1  0.879100  0.544500  0.941300  1.0  -0.0808
  C  C345  1  0.818700  0.658000  0.985200  1.0  0.2436
  C  C346  1  0.596700  0.496800  0.527000  1.0  -0.1274
  C  C347  1  0.575700  0.551600  0.600400  1.0  -0.1328
  C  C348  1  0.489300  0.498700  0.719200  1.0  0.008
  C  C349  1  0.716400  0.515100  0.842700  1.0  -0.1011
  C  C350  1  0.745200  0.460800  0.771300  1.0  -0.1434
  C  C351  1  0.836500  0.507600  0.649700  1.0  0.0324
  C  C352  1  0.641000  0.702700  0.975100  1.0  -0.134
  C  C353  1  0.524000  0.656000  0.957700  1.0  -0.1015
  C  C354  1  0.810900  0.716600  0.948800  1.0  0.0023
  C  C355  1  0.874100  0.602900  0.904000  1.0  0.0461
  C  C356  1  0.582400  0.569700  0.557500  1.0  -0.1063
  C  C357  1  0.481100  0.505800  0.765100  1.0  -0.0117
  C  C358  1  0.429100  0.491500  0.692500  1.0  0.2075
  C  C359  1  0.734300  0.444700  0.813200  1.0  -0.0943
  C  C360  1  0.842100  0.504900  0.604200  1.0  0.0186
  C  C361  1  0.898100  0.508300  0.674000  1.0  0.2837
  C  C362  1  0.580700  0.652000  0.984300  1.0  -0.089
  C  C363  1  0.839700  0.689800  0.908700  1.0  0.0386
  C  C364  1  0.902900  0.577400  0.863100  1.0  -0.0702
  C  C365  1  0.538100  0.517100  0.793900  1.0  -0.1711
  C  C366  1  0.412900  0.500900  0.783400  1.0  0.0627
  C  C367  1  0.360500  0.482700  0.712300  1.0  -0.1264
  C  C368  1  0.783100  0.501500  0.574900  1.0  -0.1295
  C  C369  1  0.908800  0.501200  0.583300  1.0  0.0716
  C  C370  1  0.964500  0.509600  0.654300  1.0  -0.1836
  C  C371  1  0.839900  0.748600  0.871000  1.0  -0.1542
  C  C372  1  0.899000  0.633000  0.828200  1.0  -0.1464
  C  C373  1  0.526400  0.524000  0.838000  1.0  -0.0763
  C  C374  1  0.405000  0.508400  0.829900  1.0  -0.0663
  C  C375  1  0.354100  0.489900  0.755700  1.0  -0.0574
  C  C376  1  0.298000  0.475200  0.684900  1.0  0.6924
  C  C377  1  0.789900  0.490700  0.531700  1.0  -0.1173
  C  C378  1  0.914400  0.493300  0.538200  1.0  -0.0932
  C  C379  1  0.968500  0.505900  0.609700  1.0  -0.0702
  C  C380  1  0.030300  0.510000  0.681000  1.0  0.7297
  C  C381  1  0.868300  0.719300  0.832900  1.0  -0.0891
  C  C382  1  0.460200  0.520500  0.856300  1.0  -0.1546
  C  C383  1  0.856100  0.485400  0.510900  1.0  -0.1277
  C  C384  1  0.364500  0.817100  0.160200  1.0  0.7347
  C  C385  1  0.306400  0.170600  0.207700  1.0  0.6965
  C  C386  1  0.364900  0.056400  0.327000  1.0  0.6893
  C  C387  1  0.383500  0.719900  0.145800  1.0  -0.1845
  C  C388  1  0.288100  0.267700  0.223000  1.0  -0.1515
  C  C389  1  0.361500  0.117000  0.365900  1.0  -0.2341
  C  C390  1  0.381600  0.697200  0.102100  1.0  -0.0648
  C  C391  1  0.404600  0.650600  0.176200  1.0  0.2414
  C  C392  1  0.296500  0.286400  0.266400  1.0  -0.0618
  C  C393  1  0.267100  0.339400  0.192700  1.0  0.1775
  C  C394  1  0.418200  0.174500  0.373800  1.0  -0.039
  C  C395  1  0.301000  0.121100  0.394200  1.0  0.2251
  C  C396  1  0.137700  0.495200  0.519100  1.0  0.7132
  C  C397  1  0.396600  0.610000  0.087200  1.0  -0.038
  C  C398  1  0.420300  0.562000  0.161900  1.0  0.0321
  C  C399  1  0.282500  0.377800  0.283000  1.0  -0.0613
  C  C400  1  0.252500  0.428200  0.207400  1.0  0.0113
  C  C401  1  0.417700  0.233700  0.411600  1.0  0.0217
  C  C402  1  0.296400  0.183600  0.428100  1.0  -0.0175
  C  C403  1  0.147600  0.429400  0.481000  1.0  -0.1902
  C  C404  1  0.392800  0.589200  0.041800  1.0  -0.1755
  C  C405  1  0.414300  0.539100  0.117700  1.0  0.05
  C  C406  1  0.440700  0.490000  0.196900  1.0  -0.201
  C  C407  1  0.292200  0.396600  0.327000  1.0  -0.0798
  C  C408  1  0.262300  0.448600  0.253400  1.0  0.0049
  C  C409  1  0.233500  0.500500  0.173900  1.0  -0.2448
  C  C410  1  0.356100  0.238600  0.437800  1.0  0.0488
  C  C411  1  0.476200  0.287000  0.422000  1.0  -0.0948
  C  C412  1  0.229600  0.192400  0.454800  1.0  -0.1777
  C  C413  1  0.120900  0.455500  0.441300  1.0  -0.0786
  C  C414  1  0.181300  0.342000  0.485200  1.0  0.2428
  C  C415  1  0.403300  0.503200  0.027000  1.0  -0.1263
  C  C416  1  0.424300  0.448400  0.100400  1.0  -0.1311
  C  C417  1  0.510700  0.501300  0.219200  1.0  0.01
  C  C418  1  0.283600  0.484900  0.342700  1.0  -0.1013
  C  C419  1  0.254800  0.539200  0.271300  1.0  -0.1445
  C  C420  1  0.163500  0.492400  0.149700  1.0  0.0334
  C  C421  1  0.359000  0.297300  0.475100  1.0  -0.1331
  C  C422  1  0.476000  0.344000  0.457700  1.0  -0.1023
  C  C423  1  0.189100  0.283400  0.448800  1.0  0.0033
  C  C424  1  0.125900  0.397100  0.404000  1.0  0.046
  C  C425  1  0.417600  0.430300  0.057500  1.0  -0.1077
  C  C426  1  0.518900  0.494200  0.265100  1.0  -0.0113
  C  C427  1  0.570900  0.508500  0.192500  1.0  0.2074
  C  C428  1  0.265700  0.555300  0.313200  1.0  -0.0885
  C  C429  1  0.157900  0.495100  0.104200  1.0  0.0192
  C  C430  1  0.101900  0.491700  0.174000  1.0  0.2829
  C  C431  1  0.419300  0.348000  0.484300  1.0  -0.0889
  C  C432  1  0.160300  0.310200  0.408700  1.0  0.0387
  C  C433  1  0.097100  0.422600  0.363100  1.0  -0.0705
  C  C434  1  0.461900  0.482900  0.293900  1.0  -0.1732
  C  C435  1  0.587100  0.499100  0.283400  1.0  0.0624
  C  C436  1  0.639500  0.517300  0.212300  1.0  -0.1261
  C  C437  1  0.216900  0.498500  0.074900  1.0  -0.1298
  C  C438  1  0.091200  0.498800  0.083300  1.0  0.0696
  C  C439  1  0.035500  0.490400  0.154300  1.0  -0.1829
  C  C440  1  0.160100  0.251400  0.371000  1.0  -0.1538
  C  C441  1  0.101000  0.367000  0.328200  1.0  -0.1478
  C  C442  1  0.473600  0.476000  0.338000  1.0  -0.0785
  C  C443  1  0.595000  0.491600  0.329900  1.0  -0.0654
  C  C444  1  0.645900  0.510100  0.255700  1.0  -0.0576
  C  C445  1  0.702000  0.524800  0.184900  1.0  0.6925
  C  C446  1  0.210100  0.509300  0.031700  1.0  -0.1179
  C  C447  1  0.085600  0.506700  0.038200  1.0  -0.0932
  C  C448  1  0.031500  0.494100  0.109700  1.0  -0.0689
  C  C449  1  0.969700  0.490000  0.181000  1.0  0.73
  C  C450  1  0.131700  0.280700  0.332900  1.0  -0.0879
  C  C451  1  0.539800  0.479500  0.356300  1.0  -0.1554
  C  C452  1  0.143900  0.514600  0.010900  1.0  -0.1272
  O  O453  1  0.120240  0.340400  0.699000  1.0  -0.6183
  O  O454  1  0.167800  0.616700  0.733850  1.0  -0.6385
  O  O455  1  0.082120  0.553100  0.803150  1.0  -0.6493
  O  O456  1  0.190600  0.508200  0.816400  1.0  -0.644
  O  O457  1  0.736600  0.029800  0.701560  1.0  -0.8178
  O  O458  1  0.527140  0.001700  0.721690  1.0  -0.6565
  O  O459  1  0.165900  0.368900  0.632100  1.0  -0.6427
  O  O460  1  0.208500  0.650300  0.667440  1.0  -0.6034
  O  O461  1  0.339000  0.967000  0.055990  1.0  -0.6518
  O  O462  1  0.802700  0.021000  0.643160  1.0  -0.6743
  O  O463  1  0.090400  0.169000  0.719350  1.0  -0.4992
  O  O464  1  0.239100  0.822200  0.649080  1.0  -0.5017
  O  O465  1  0.252200  0.561500  0.886610  1.0  -0.5264
  O  O466  1  0.388900  0.070700  0.013290  1.0  -0.434
  O  O467  1  0.292600  0.814500  0.024240  1.0  -0.5312
  O  O468  1  0.936100  0.006900  0.649210  1.0  -0.4836
  O  O469  1  0.391510  0.994100  0.718600  1.0  -0.4711
  O  O470  1  0.588520  0.978900  0.662440  1.0  -0.7892
  O  O471  1  0.879760  0.659600  0.199000  1.0  -0.619
  O  O472  1  0.832200  0.383300  0.233850  1.0  -0.638
  O  O473  1  0.917880  0.446900  0.303150  1.0  -0.6503
  O  O474  1  0.809400  0.491800  0.316400  1.0  -0.6413
  O  O475  1  0.263400  0.970200  0.201560  1.0  -0.8194
  O  O476  1  0.472860  0.998300  0.221690  1.0  -0.6565
  O  O477  1  0.834100  0.631100  0.132100  1.0  -0.642
  O  O478  1  0.791500  0.349700  0.167440  1.0  -0.6035
  O  O479  1  0.661000  0.033000  0.555990  1.0  -0.6524
  O  O480  1  0.197300  0.979000  0.143160  1.0  -0.6754
  O  O481  1  0.909600  0.831000  0.219350  1.0  -0.4967
  O  O482  1  0.760900  0.177800  0.149080  1.0  -0.504
  O  O483  1  0.747800  0.438500  0.386610  1.0  -0.5285
  O  O484  1  0.611100  0.929300  0.513290  1.0  -0.4357
  O  O485  1  0.707400  0.185500  0.524240  1.0  -0.5307
  O  O486  1  0.063900  0.993100  0.149210  1.0  -0.4815
  O  O487  1  0.608490  0.005900  0.218600  1.0  -0.4716
  O  O488  1  0.411480  0.021100  0.162440  1.0  -0.7884
  O  O489  1  0.620240  0.159600  0.699000  1.0  -0.6179
  O  O490  1  0.667800  0.883300  0.733850  1.0  -0.6384
  O  O491  1  0.582120  0.946900  0.803150  1.0  -0.6496
  O  O492  1  0.690600  0.991800  0.816400  1.0  -0.6426
  O  O493  1  0.236600  0.470200  0.701560  1.0  -0.8182
  O  O494  1  0.027140  0.498300  0.721690  1.0  -0.6554
  O  O495  1  0.665900  0.131100  0.632100  1.0  -0.6429
  O  O496  1  0.708500  0.849700  0.667440  1.0  -0.603
  O  O497  1  0.839000  0.533000  0.055990  1.0  -0.6518
  O  O498  1  0.302700  0.479000  0.643160  1.0  -0.674
  O  O499  1  0.590400  0.331000  0.719350  1.0  -0.4968
  O  O500  1  0.739100  0.677800  0.649080  1.0  -0.5041
  O  O501  1  0.752200  0.938500  0.886610  1.0  -0.5278
  O  O502  1  0.888900  0.429300  0.013290  1.0  -0.4353
  O  O503  1  0.792600  0.685500  0.024240  1.0  -0.5307
  O  O504  1  0.436100  0.493100  0.649210  1.0  -0.4838
  O  O505  1  0.891510  0.505900  0.718600  1.0  -0.4713
  O  O506  1  0.088520  0.521100  0.662440  1.0  -0.7894
  O  O507  1  0.379760  0.840400  0.199000  1.0  -0.6193
  O  O508  1  0.332200  0.116700  0.233850  1.0  -0.6381
  O  O509  1  0.417880  0.053100  0.303150  1.0  -0.6504
  O  O510  1  0.309400  0.008200  0.316400  1.0  -0.646
  O  O511  1  0.763400  0.529800  0.201560  1.0  -0.8193
  O  O512  1  0.972860  0.501700  0.221690  1.0  -0.6569
  O  O513  1  0.334100  0.868900  0.132100  1.0  -0.6423
  O  O514  1  0.291500  0.150300  0.167440  1.0  -0.6039
  O  O515  1  0.161000  0.467000  0.555990  1.0  -0.6528
  O  O516  1  0.697300  0.521000  0.143160  1.0  -0.6755
  O  O517  1  0.409600  0.669000  0.219350  1.0  -0.499
  O  O518  1  0.260900  0.322200  0.149080  1.0  -0.501
  O  O519  1  0.247800  0.061500  0.386610  1.0  -0.528
  O  O520  1  0.111100  0.570700  0.513290  1.0  -0.434
  O  O521  1  0.207400  0.314500  0.524240  1.0  -0.5308
  O  O522  1  0.563900  0.506900  0.149210  1.0  -0.4812
  O  O523  1  0.108490  0.494100  0.218600  1.0  -0.4715
  O  O524  1  0.911480  0.478900  0.162440  1.0  -0.7884
