# generated using pymatgen
data_Yb2H42(C23O6)3
_symmetry_space_group_name_H-M   'P 1'
_cell_length_a   19.08920000
_cell_length_b   14.38720000
_cell_length_c   30.54620000
_cell_angle_alpha   90.00000000
_cell_angle_beta   90.00000000
_cell_angle_gamma   90.00000000
_symmetry_Int_Tables_number   1
_chemical_formula_structural   Yb2H42(C23O6)3
_chemical_formula_sum   'Yb8 H168 C276 O72'
_cell_volume   8389.21259071
_cell_formula_units_Z   4
loop_
 _symmetry_equiv_pos_site_id
 _symmetry_equiv_pos_as_xyz
  1  'x, y, z'
loop_
 _atom_site_type_symbol
 _atom_site_label
 _atom_site_symmetry_multiplicity
 _atom_site_fract_x
 _atom_site_fract_y
 _atom_site_fract_z
 _atom_site_occupancy
 _atom_site_charge
  Yb  Yb1  1  0.141350  0.462690  0.370200  1.0  1.5406
  Yb  Yb2  1  0.189110  0.524190  0.494440  1.0  1.536
  Yb  Yb3  1  0.858650  0.537310  0.870200  1.0  1.5426
  Yb  Yb4  1  0.810890  0.475810  0.994440  1.0  1.5367
  Yb  Yb5  1  0.641350  0.037310  0.370200  1.0  1.5426
  Yb  Yb6  1  0.689110  0.975810  0.494440  1.0  1.5367
  Yb  Yb7  1  0.358650  0.962690  0.870200  1.0  1.5407
  Yb  Yb8  1  0.310890  0.024190  0.994440  1.0  1.536
  H  H9  1  0.188900  0.740100  0.332500  1.0  0.1081
  H  H10  1  0.042800  0.670400  0.261300  1.0  0.1112
  H  H11  1  0.132300  0.245800  0.535600  1.0  0.115
  H  H12  1  0.258000  0.769300  0.472500  1.0  0.4493
  H  H13  1  0.245300  0.534900  0.255000  1.0  0.4122
  H  H14  1  0.097500  0.226300  0.394000  1.0  0.3492
  H  H15  1  0.268000  0.059700  0.429400  1.0  0.1274
  H  H16  1  0.231300  0.001800  0.466000  1.0  0.1209
  H  H17  1  0.194700  0.847000  0.271500  1.0  0.1389
  H  H18  1  0.982900  0.779900  0.213100  1.0  0.1049
  H  H19  1  0.259900  0.685100  0.132800  1.0  0.1268
  H  H20  1  0.302300  0.642700  0.171800  1.0  0.1279
  H  H21  1  0.096500  0.992100  0.397500  1.0  0.1453
  H  H22  1  0.062900  0.929800  0.433800  1.0  0.1233
  H  H23  1  0.117400  0.135600  0.595800  1.0  0.1092
  H  H24  1  0.261000  0.087300  0.364800  1.0  0.135
  H  H25  1  0.214500  0.994600  0.245500  1.0  0.1127
  H  H26  1  0.981300  0.873900  0.152100  1.0  0.1288
  H  H27  1  0.177700  0.802100  0.123600  1.0  0.1106
  H  H28  1  0.065400  0.899800  0.497300  1.0  0.1419
  H  H29  1  0.099400  0.989300  0.620400  1.0  0.1302
  H  H30  1  0.240300  0.115300  0.294100  1.0  0.1171
  H  H31  1  0.080000  0.886700  0.109900  1.0  0.1125
  H  H32  1  0.076300  0.870600  0.570600  1.0  0.1145
  H  H33  1  0.431900  0.984400  0.388200  1.0  0.4021
  H  H34  1  0.237700  0.995600  0.531100  1.0  0.1414
  H  H35  1  0.292400  0.857700  0.075700  1.0  0.4123
  H  H36  1  0.319000  0.693500  0.245200  1.0  0.1132
  H  H37  1  0.898100  0.011100  0.479500  1.0  0.3943
  H  H38  1  0.084900  0.983600  0.333700  1.0  0.1111
  H  H39  1  0.512300  0.993500  0.522900  1.0  0.11
  H  H40  1  0.457400  0.007400  0.594800  1.0  0.1171
  H  H41  1  0.249400  0.010100  0.603300  1.0  0.102
  H  H42  1  0.401200  0.012600  0.178300  1.0  0.1229
  H  H43  1  0.367800  0.741700  0.308500  1.0  0.1078
  H  H44  1  0.424800  0.983400  0.256700  1.0  0.1297
  H  H45  1  0.810700  0.015400  0.347300  1.0  0.1189
  H  H46  1  0.861400  0.998500  0.273900  1.0  0.1109
  H  H47  1  0.065800  0.965900  0.259800  1.0  0.105
  H  H48  1  0.357800  0.017700  0.636700  1.0  0.1293
  H  H49  1  0.419100  0.886400  0.316200  1.0  0.141
  H  H50  1  0.954900  0.974800  0.230100  1.0  0.1295
  H  H51  1  0.811100  0.259900  0.832500  1.0  0.1081
  H  H52  1  0.957200  0.329600  0.761300  1.0  0.1111
  H  H53  1  0.867700  0.754200  0.035600  1.0  0.1151
  H  H54  1  0.742000  0.230700  0.972500  1.0  0.4523
  H  H55  1  0.754700  0.465100  0.755000  1.0  0.4148
  H  H56  1  0.902500  0.773700  0.894000  1.0  0.3503
  H  H57  1  0.732000  0.940300  0.929400  1.0  0.1282
  H  H58  1  0.768700  0.998200  0.966000  1.0  0.1209
  H  H59  1  0.805300  0.153000  0.771500  1.0  0.1382
  H  H60  1  0.017100  0.220100  0.713100  1.0  0.1052
  H  H61  1  0.740100  0.314900  0.632800  1.0  0.1267
  H  H62  1  0.697700  0.357300  0.671800  1.0  0.1284
  H  H63  1  0.903500  0.007900  0.897500  1.0  0.144
  H  H64  1  0.937100  0.070200  0.933800  1.0  0.1228
  H  H65  1  0.882600  0.864400  0.095800  1.0  0.1095
  H  H66  1  0.739000  0.912700  0.864800  1.0  0.1352
  H  H67  1  0.785500  0.005400  0.745500  1.0  0.1114
  H  H68  1  0.018700  0.126100  0.652100  1.0  0.1279
  H  H69  1  0.822300  0.197900  0.623600  1.0  0.1099
  H  H70  1  0.934600  0.100200  0.997300  1.0  0.1426
  H  H71  1  0.900600  0.010700  0.120400  1.0  0.1296
  H  H72  1  0.759700  0.884700  0.794100  1.0  0.1171
  H  H73  1  0.920000  0.113300  0.609900  1.0  0.1125
  H  H74  1  0.923700  0.129400  0.070600  1.0  0.1134
  H  H75  1  0.568100  0.015600  0.888200  1.0  0.4028
  H  H76  1  0.762300  0.004400  0.031100  1.0  0.1419
  H  H77  1  0.707600  0.142300  0.575700  1.0  0.413
  H  H78  1  0.681000  0.306500  0.745200  1.0  0.1131
  H  H79  1  0.101900  0.988900  0.979500  1.0  0.3939
  H  H80  1  0.915100  0.016400  0.833700  1.0  0.1109
  H  H81  1  0.487700  0.006500  0.022900  1.0  0.1099
  H  H82  1  0.542600  0.992600  0.094800  1.0  0.1172
  H  H83  1  0.750600  0.989900  0.103300  1.0  0.1024
  H  H84  1  0.598800  0.987400  0.678300  1.0  0.122
  H  H85  1  0.632200  0.258300  0.808500  1.0  0.1084
  H  H86  1  0.575200  0.016600  0.756700  1.0  0.1302
  H  H87  1  0.189300  0.984600  0.847300  1.0  0.1184
  H  H88  1  0.138600  0.001500  0.773900  1.0  0.1111
  H  H89  1  0.934200  0.034100  0.759800  1.0  0.1061
  H  H90  1  0.642200  0.982300  0.136700  1.0  0.1301
  H  H91  1  0.580900  0.113600  0.816200  1.0  0.1416
  H  H92  1  0.045100  0.025200  0.730100  1.0  0.1305
  H  H93  1  0.688900  0.759900  0.332500  1.0  0.1086
  H  H94  1  0.542800  0.829600  0.261300  1.0  0.1111
  H  H95  1  0.632300  0.254200  0.535600  1.0  0.1149
  H  H96  1  0.758000  0.730700  0.472500  1.0  0.4503
  H  H97  1  0.745300  0.965100  0.255000  1.0  0.4138
  H  H98  1  0.597500  0.273700  0.394000  1.0  0.3499
  H  H99  1  0.768000  0.440300  0.429400  1.0  0.1278
  H  H100  1  0.731300  0.498200  0.466000  1.0  0.1206
  H  H101  1  0.694700  0.653000  0.271500  1.0  0.1385
  H  H102  1  0.482900  0.720100  0.213100  1.0  0.105
  H  H103  1  0.759900  0.814900  0.132800  1.0  0.127
  H  H104  1  0.802300  0.857300  0.171800  1.0  0.1274
  H  H105  1  0.596500  0.507900  0.397500  1.0  0.1452
  H  H106  1  0.562900  0.570200  0.433800  1.0  0.1233
  H  H107  1  0.617400  0.364400  0.595800  1.0  0.1091
  H  H108  1  0.761000  0.412700  0.364800  1.0  0.1351
  H  H109  1  0.714500  0.505400  0.245500  1.0  0.1116
  H  H110  1  0.481300  0.626100  0.152100  1.0  0.1286
  H  H111  1  0.677700  0.697900  0.123600  1.0  0.1102
  H  H112  1  0.565400  0.600200  0.497300  1.0  0.142
  H  H113  1  0.599400  0.510700  0.620400  1.0  0.1299
  H  H114  1  0.740300  0.384700  0.294100  1.0  0.1171
  H  H115  1  0.580000  0.613300  0.109900  1.0  0.1122
  H  H116  1  0.576300  0.629400  0.570600  1.0  0.1134
  H  H117  1  0.931900  0.515600  0.388200  1.0  0.4025
  H  H118  1  0.737700  0.504400  0.531100  1.0  0.1416
  H  H119  1  0.792400  0.642300  0.075700  1.0  0.4125
  H  H120  1  0.819000  0.806500  0.245200  1.0  0.1134
  H  H121  1  0.398100  0.488900  0.479500  1.0  0.3947
  H  H122  1  0.584900  0.516400  0.333700  1.0  0.1111
  H  H123  1  0.012300  0.506500  0.522900  1.0  0.1099
  H  H124  1  0.957400  0.492600  0.594800  1.0  0.1169
  H  H125  1  0.749400  0.489900  0.603300  1.0  0.1023
  H  H126  1  0.901200  0.487400  0.178300  1.0  0.1221
  H  H127  1  0.867800  0.758300  0.308500  1.0  0.1081
  H  H128  1  0.924800  0.516600  0.256700  1.0  0.1301
  H  H129  1  0.310700  0.484600  0.347300  1.0  0.1183
  H  H130  1  0.361400  0.501500  0.273900  1.0  0.1111
  H  H131  1  0.565800  0.534100  0.259800  1.0  0.1062
  H  H132  1  0.857800  0.482300  0.636700  1.0  0.1298
  H  H133  1  0.919100  0.613600  0.316200  1.0  0.1413
  H  H134  1  0.454900  0.525200  0.230100  1.0  0.1304
  H  H135  1  0.311100  0.240100  0.832500  1.0  0.1079
  H  H136  1  0.457200  0.170400  0.761300  1.0  0.1113
  H  H137  1  0.367700  0.745800  0.035600  1.0  0.1152
  H  H138  1  0.242000  0.269300  0.972500  1.0  0.4501
  H  H139  1  0.254700  0.034900  0.755000  1.0  0.4135
  H  H140  1  0.402500  0.726300  0.894000  1.0  0.3495
  H  H141  1  0.232000  0.559700  0.929400  1.0  0.1282
  H  H142  1  0.268700  0.501800  0.966000  1.0  0.1208
  H  H143  1  0.305300  0.347000  0.771500  1.0  0.1388
  H  H144  1  0.517100  0.279900  0.713100  1.0  0.1052
  H  H145  1  0.240100  0.185100  0.632800  1.0  0.1265
  H  H146  1  0.197700  0.142700  0.671800  1.0  0.1282
  H  H147  1  0.403500  0.492100  0.897500  1.0  0.144
  H  H148  1  0.437100  0.429800  0.933800  1.0  0.1228
  H  H149  1  0.382600  0.635600  0.095800  1.0  0.1096
  H  H150  1  0.239000  0.587300  0.864800  1.0  0.1353
  H  H151  1  0.285500  0.494600  0.745500  1.0  0.1124
  H  H152  1  0.518700  0.373900  0.652100  1.0  0.1282
  H  H153  1  0.322300  0.302100  0.623600  1.0  0.1106
  H  H154  1  0.434600  0.399800  0.997300  1.0  0.1423
  H  H155  1  0.400600  0.489300  0.120400  1.0  0.13
  H  H156  1  0.259700  0.615300  0.794100  1.0  0.1174
  H  H157  1  0.420000  0.386700  0.609900  1.0  0.1127
  H  H158  1  0.423700  0.370600  0.070600  1.0  0.1143
  H  H159  1  0.068100  0.484400  0.888200  1.0  0.4027
  H  H160  1  0.262300  0.495600  0.031100  1.0  0.142
  H  H161  1  0.207600  0.357700  0.575700  1.0  0.4124
  H  H162  1  0.181000  0.193500  0.745200  1.0  0.1134
  H  H163  1  0.601900  0.511100  0.979500  1.0  0.3935
  H  H164  1  0.415100  0.483600  0.833700  1.0  0.1112
  H  H165  1  0.987700  0.493500  0.022900  1.0  0.1099
  H  H166  1  0.042600  0.507400  0.094800  1.0  0.1172
  H  H167  1  0.250600  0.510100  0.103300  1.0  0.1026
  H  H168  1  0.098800  0.512600  0.678300  1.0  0.1231
  H  H169  1  0.132200  0.241700  0.808500  1.0  0.1081
  H  H170  1  0.075200  0.483400  0.756700  1.0  0.1303
  H  H171  1  0.689300  0.515400  0.847300  1.0  0.1188
  H  H172  1  0.638600  0.498500  0.773900  1.0  0.1106
  H  H173  1  0.434200  0.465900  0.759800  1.0  0.105
  H  H174  1  0.142200  0.517700  0.136700  1.0  0.1295
  H  H175  1  0.080900  0.386400  0.816200  1.0  0.1412
  H  H176  1  0.545100  0.474800  0.730100  1.0  0.1293
  C  C177  1  0.195100  0.670300  0.410490  1.0  0.6983
  C  C178  1  0.135700  0.556300  0.291430  1.0  0.6964
  C  C179  1  0.136600  0.318300  0.457220  1.0  0.7291
  C  C180  1  0.211900  0.766000  0.395200  1.0  -0.2001
  C  C181  1  0.138600  0.617900  0.252140  1.0  -0.1994
  C  C182  1  0.116800  0.222000  0.471320  1.0  -0.2218
  C  C183  1  0.233300  0.838000  0.424730  1.0  0.2238
  C  C184  1  0.203800  0.786300  0.351600  1.0  -0.0671
  C  C185  1  0.082000  0.673100  0.243280  1.0  -0.0778
  C  C186  1  0.199100  0.620900  0.223740  1.0  0.1987
  C  C187  1  0.095900  0.152300  0.441950  1.0  0.2944
  C  C188  1  0.119600  0.200200  0.515560  1.0  -0.0606
  C  C189  1  0.248100  0.927100  0.410730  1.0  0.0182
  C  C190  1  0.217600  0.876400  0.335300  1.0  0.0319
  C  C191  1  0.082400  0.734800  0.206730  1.0  0.0082
  C  C192  1  0.203500  0.684000  0.190170  1.0  1e-04
  C  C193  1  0.079900  0.064700  0.455210  1.0  0.007
  C  C194  1  0.103700  0.111100  0.530480  1.0  0.0153
  C  C195  1  0.238400  0.947600  0.364930  1.0  0.0065
  C  C196  1  0.268100  0.999900  0.444110  1.0  -0.2169
  C  C197  1  0.208100  0.894300  0.290450  1.0  -0.1421
  C  C198  1  0.022700  0.784600  0.195600  1.0  -0.0825
  C  C199  1  0.143500  0.738900  0.179740  1.0  0.0572
  C  C200  1  0.271200  0.693000  0.163580  1.0  -0.1876
  C  C201  1  0.085400  0.040000  0.500260  1.0  0.0335
  C  C202  1  0.061000  0.990600  0.420190  1.0  -0.2262
  C  C203  1  0.107400  0.088700  0.575850  1.0  -0.1131
  C  C204  1  0.247300  0.038700  0.346600  1.0  -0.1375
  C  C205  1  0.336700  0.990600  0.467670  1.0  0.0446
  C  C206  1  0.218800  0.982200  0.275300  1.0  -0.0812
  C  C207  1  0.021500  0.840700  0.159300  1.0  -0.1559
  C  C208  1  0.139500  0.797600  0.142400  1.0  -0.1524
  C  C209  1  0.309900  0.783100  0.168910  1.0  0.031
  C  C210  1  0.075800  0.948000  0.516500  1.0  -0.1518
  C  C211  1  0.988900  0.001800  0.398400  1.0  0.0104
  C  C212  1  0.096900  0.002200  0.590600  1.0  -0.1401
  C  C213  1  0.236400  0.054900  0.304600  1.0  -0.0966
  C  C214  1  0.398800  0.989700  0.443950  1.0  0.2511
  C  C215  1  0.342300  0.994500  0.514310  1.0  -0.0201
  C  C216  1  0.080500  0.847000  0.133900  1.0  -0.1067
  C  C217  1  0.318700  0.842700  0.132470  1.0  0.2482
  C  C218  1  0.340200  0.811500  0.208330  1.0  0.0185
  C  C219  1  0.082000  0.931000  0.560400  1.0  -0.0909
  C  C220  1  0.928800  0.009100  0.423830  1.0  0.2314
  C  C221  1  0.981400  0.995700  0.352230  1.0  -0.0073
  C  C222  1  0.465900  0.989200  0.464410  1.0  -0.2219
  C  C223  1  0.409800  0.996500  0.534890  1.0  0.0112
  C  C224  1  0.282500  0.998700  0.543000  1.0  -0.1107
  C  C225  1  0.352300  0.930100  0.135830  1.0  -0.19
  C  C226  1  0.339600  0.752000  0.246690  1.0  -0.1452
  C  C227  1  0.374500  0.899200  0.212890  1.0  0.0414
  C  C228  1  0.861400  0.017700  0.404470  1.0  -0.2181
  C  C229  1  0.913500  0.001700  0.333550  1.0  0.0218
  C  C230  1  0.039400  0.984700  0.322800  1.0  -0.1617
  C  C231  1  0.531600  0.988300  0.437960  1.0  0.7459
  C  C232  1  0.468700  0.993100  0.509350  1.0  -0.0992
  C  C233  1  0.413800  0.005400  0.581360  1.0  -0.0884
  C  C234  1  0.289600  0.007000  0.586100  1.0  -0.1003
  C  C235  1  0.379000  0.955300  0.175830  1.0  -0.1026
  C  C236  1  0.361500  0.995800  0.098180  1.0  0.7347
  C  C237  1  0.368800  0.781400  0.284500  1.0  -0.0778
  C  C238  1  0.403400  0.925700  0.254000  1.0  -0.0844
  C  C239  1  0.854900  0.012100  0.359990  1.0  -0.0597
  C  C240  1  0.797300  0.025900  0.431860  1.0  0.7152
  C  C241  1  0.905800  0.994000  0.286200  1.0  -0.1075
  C  C242  1  0.027800  0.975700  0.278300  1.0  -0.0798
  C  C243  1  0.354600  0.011100  0.606500  1.0  -0.095
  C  C244  1  0.400500  0.868200  0.289400  1.0  -0.1349
  C  C245  1  0.961000  0.980700  0.260200  1.0  -0.1242
  C  C246  1  0.804900  0.329700  0.910490  1.0  0.6975
  C  C247  1  0.864300  0.443700  0.791430  1.0  0.6956
  C  C248  1  0.863400  0.681700  0.957220  1.0  0.7295
  C  C249  1  0.788100  0.234000  0.895200  1.0  -0.1995
  C  C250  1  0.861400  0.382100  0.752140  1.0  -0.1991
  C  C251  1  0.883200  0.778000  0.971320  1.0  -0.2213
  C  C252  1  0.766700  0.162000  0.924730  1.0  0.2229
  C  C253  1  0.796200  0.213700  0.851600  1.0  -0.0678
  C  C254  1  0.918000  0.326900  0.743280  1.0  -0.0765
  C  C255  1  0.800900  0.379100  0.723740  1.0  0.1989
  C  C256  1  0.904100  0.847700  0.941950  1.0  0.2957
  C  C257  1  0.880400  0.799800  0.015560  1.0  -0.0606
  C  C258  1  0.751900  0.072900  0.910730  1.0  0.019
  C  C259  1  0.782400  0.123600  0.835300  1.0  0.0316
  C  C260  1  0.917600  0.265200  0.706730  1.0  0.0097
  C  C261  1  0.796500  0.316000  0.690170  1.0  -0.0004
  C  C262  1  0.920100  0.935300  0.955210  1.0  0.0071
  C  C263  1  0.896300  0.888900  0.030480  1.0  0.0157
  C  C264  1  0.761600  0.052400  0.864930  1.0  0.0062
  C  C265  1  0.731900  0.000100  0.944110  1.0  -0.2153
  C  C266  1  0.791900  0.105700  0.790450  1.0  -0.1412
  C  C267  1  0.977300  0.215400  0.695600  1.0  -0.0833
  C  C268  1  0.856500  0.261100  0.679740  1.0  0.0571
  C  C269  1  0.728800  0.307000  0.663580  1.0  -0.1871
  C  C270  1  0.914600  0.960000  0.000260  1.0  0.0316
  C  C271  1  0.939000  0.009400  0.920190  1.0  -0.2267
  C  C272  1  0.892600  0.911300  0.075850  1.0  -0.114
  C  C273  1  0.752700  0.961300  0.846600  1.0  -0.1368
  C  C274  1  0.663300  0.009400  0.967670  1.0  0.0444
  C  C275  1  0.781200  0.017800  0.775300  1.0  -0.0819
  C  C276  1  0.978500  0.159300  0.659300  1.0  -0.1563
  C  C277  1  0.860500  0.202400  0.642400  1.0  -0.1537
  C  C278  1  0.690100  0.216900  0.668910  1.0  0.0303
  C  C279  1  0.924200  0.052000  0.016500  1.0  -0.1521
  C  C280  1  0.011100  0.998200  0.898400  1.0  0.0122
  C  C281  1  0.903100  0.997800  0.090600  1.0  -0.1408
  C  C282  1  0.763600  0.945100  0.804600  1.0  -0.099
  C  C283  1  0.601200  0.010300  0.943950  1.0  0.25
  C  C284  1  0.657700  0.005500  0.014310  1.0  -0.0201
  C  C285  1  0.919500  0.153000  0.633900  1.0  -0.1067
  C  C286  1  0.681300  0.157300  0.632470  1.0  0.2493
  C  C287  1  0.659800  0.188500  0.708330  1.0  0.0177
  C  C288  1  0.918000  0.069000  0.060400  1.0  -0.0859
  C  C289  1  0.071200  0.990900  0.923830  1.0  0.2309
  C  C290  1  0.018600  0.004300  0.852230  1.0  -0.0078
  C  C291  1  0.534100  0.010800  0.964410  1.0  -0.2209
  C  C292  1  0.590200  0.003500  0.034890  1.0  0.011
  C  C293  1  0.717500  0.001300  0.043000  1.0  -0.1108
  C  C294  1  0.647700  0.069900  0.635830  1.0  -0.1891
  C  C295  1  0.660400  0.248000  0.746690  1.0  -0.1451
  C  C296  1  0.625500  0.100800  0.712890  1.0  0.0425
  C  C297  1  0.138600  0.982300  0.904470  1.0  -0.2191
  C  C298  1  0.086500  0.998300  0.833550  1.0  0.022
  C  C299  1  0.960600  0.015300  0.822800  1.0  -0.1628
  C  C300  1  0.468400  0.011700  0.937960  1.0  0.7461
  C  C301  1  0.531300  0.006900  0.009350  1.0  -0.0992
  C  C302  1  0.586200  0.994600  0.081360  1.0  -0.0901
  C  C303  1  0.710400  0.993000  0.086100  1.0  -0.1002
  C  C304  1  0.621000  0.044700  0.675830  1.0  -0.1031
  C  C305  1  0.638500  0.004200  0.598180  1.0  0.7358
  C  C306  1  0.631200  0.218600  0.784500  1.0  -0.0781
  C  C307  1  0.596600  0.074300  0.754000  1.0  -0.0842
  C  C308  1  0.145100  0.987900  0.859990  1.0  -0.058
  C  C309  1  0.202700  0.974100  0.931860  1.0  0.7131
  C  C310  1  0.094200  0.006000  0.786200  1.0  -0.1063
  C  C311  1  0.972200  0.024300  0.778300  1.0  -0.0794
  C  C312  1  0.645400  0.988900  0.106500  1.0  -0.0945
  C  C313  1  0.599500  0.131800  0.789400  1.0  -0.1349
  C  C314  1  0.039000  0.019300  0.760200  1.0  -0.1238
  C  C315  1  0.695100  0.829700  0.410490  1.0  0.6982
  C  C316  1  0.635700  0.943700  0.291430  1.0  0.6966
  C  C317  1  0.636600  0.181700  0.457220  1.0  0.7295
  C  C318  1  0.711900  0.734000  0.395200  1.0  -0.199
  C  C319  1  0.638600  0.882100  0.252140  1.0  -0.1989
  C  C320  1  0.616800  0.278000  0.471320  1.0  -0.2214
  C  C321  1  0.733300  0.662000  0.424730  1.0  0.2234
  C  C322  1  0.703800  0.713700  0.351600  1.0  -0.067
  C  C323  1  0.582000  0.826900  0.243280  1.0  -0.0778
  C  C324  1  0.699100  0.879100  0.223740  1.0  0.1986
  C  C325  1  0.595900  0.347700  0.441950  1.0  0.2949
  C  C326  1  0.619600  0.299800  0.515560  1.0  -0.0601
  C  C327  1  0.748100  0.572900  0.410730  1.0  0.0187
  C  C328  1  0.717600  0.623600  0.335300  1.0  0.0315
  C  C329  1  0.582400  0.765200  0.206730  1.0  0.0081
  C  C330  1  0.703500  0.816000  0.190170  1.0  0.0
  C  C331  1  0.579900  0.435300  0.455210  1.0  0.0063
  C  C332  1  0.603700  0.388900  0.530480  1.0  0.015
  C  C333  1  0.738400  0.552400  0.364930  1.0  0.0064
  C  C334  1  0.768100  0.500100  0.444110  1.0  -0.2153
  C  C335  1  0.708100  0.605700  0.290450  1.0  -0.1411
  C  C336  1  0.522700  0.715400  0.195600  1.0  -0.0826
  C  C337  1  0.643500  0.761100  0.179740  1.0  0.0572
  C  C338  1  0.771200  0.807000  0.163580  1.0  -0.1867
  C  C339  1  0.585400  0.460000  0.500260  1.0  0.033
  C  C340  1  0.561000  0.509400  0.420190  1.0  -0.2246
  C  C341  1  0.607400  0.411300  0.575850  1.0  -0.113
  C  C342  1  0.747300  0.461300  0.346600  1.0  -0.1378
  C  C343  1  0.836700  0.509400  0.467670  1.0  0.0446
  C  C344  1  0.718800  0.517800  0.275300  1.0  -0.0817
  C  C345  1  0.521500  0.659300  0.159300  1.0  -0.1554
  C  C346  1  0.639500  0.702400  0.142400  1.0  -0.1531
  C  C347  1  0.809900  0.716900  0.168910  1.0  0.0304
  C  C348  1  0.575800  0.552000  0.516500  1.0  -0.1522
  C  C349  1  0.488900  0.498200  0.398400  1.0  0.0104
  C  C350  1  0.596900  0.497800  0.590600  1.0  -0.1408
  C  C351  1  0.736400  0.445100  0.304600  1.0  -0.1003
  C  C352  1  0.898800  0.510300  0.443950  1.0  0.2511
  C  C353  1  0.842300  0.505500  0.514310  1.0  -0.0198
  C  C354  1  0.580500  0.653000  0.133900  1.0  -0.1071
  C  C355  1  0.818700  0.657300  0.132470  1.0  0.2491
  C  C356  1  0.840200  0.688500  0.208330  1.0  0.0178
  C  C357  1  0.582000  0.569000  0.560400  1.0  -0.0864
  C  C358  1  0.428800  0.490900  0.423830  1.0  0.2316
  C  C359  1  0.481400  0.504300  0.352230  1.0  -0.0078
  C  C360  1  0.965900  0.510800  0.464410  1.0  -0.2217
  C  C361  1  0.909800  0.503500  0.534890  1.0  0.0119
  C  C362  1  0.782500  0.501300  0.543000  1.0  -0.1102
  C  C363  1  0.852300  0.569900  0.135830  1.0  -0.189
  C  C364  1  0.839600  0.748000  0.246690  1.0  -0.1452
  C  C365  1  0.874500  0.600800  0.212890  1.0  0.0424
  C  C366  1  0.361400  0.482300  0.404470  1.0  -0.2183
  C  C367  1  0.413500  0.498300  0.333550  1.0  0.0214
  C  C368  1  0.539400  0.515300  0.322800  1.0  -0.1616
  C  C369  1  0.031600  0.511700  0.437960  1.0  0.7447
  C  C370  1  0.968700  0.506900  0.509350  1.0  -0.099
  C  C371  1  0.913800  0.494600  0.581360  1.0  -0.0886
  C  C372  1  0.789600  0.493000  0.586100  1.0  -0.1002
  C  C373  1  0.879000  0.544700  0.175830  1.0  -0.1041
  C  C374  1  0.861500  0.504200  0.098180  1.0  0.7357
  C  C375  1  0.868800  0.718600  0.284500  1.0  -0.0781
  C  C376  1  0.903400  0.574300  0.254000  1.0  -0.0836
  C  C377  1  0.354900  0.487900  0.359990  1.0  -0.059
  C  C378  1  0.297300  0.474100  0.431860  1.0  0.7163
  C  C379  1  0.405800  0.506000  0.286200  1.0  -0.1074
  C  C380  1  0.527800  0.524300  0.278300  1.0  -0.0789
  C  C381  1  0.854600  0.488900  0.606500  1.0  -0.0946
  C  C382  1  0.900500  0.631800  0.289400  1.0  -0.1347
  C  C383  1  0.461000  0.519300  0.260200  1.0  -0.1246
  C  C384  1  0.304900  0.170300  0.910490  1.0  0.6979
  C  C385  1  0.364300  0.056300  0.791430  1.0  0.6952
  C  C386  1  0.363400  0.818300  0.957220  1.0  0.7291
  C  C387  1  0.288100  0.266000  0.895200  1.0  -0.2006
  C  C388  1  0.361400  0.117900  0.752140  1.0  -0.2
  C  C389  1  0.383200  0.722000  0.971320  1.0  -0.2218
  C  C390  1  0.266700  0.338000  0.924730  1.0  0.2233
  C  C391  1  0.296200  0.286300  0.851600  1.0  -0.0676
  C  C392  1  0.418000  0.173100  0.743280  1.0  -0.0767
  C  C393  1  0.300900  0.120900  0.723740  1.0  0.1988
  C  C394  1  0.404100  0.652300  0.941950  1.0  0.2953
  C  C395  1  0.380400  0.700200  0.015560  1.0  -0.0608
  C  C396  1  0.251900  0.427100  0.910730  1.0  0.0184
  C  C397  1  0.282400  0.376400  0.835300  1.0  0.0318
  C  C398  1  0.417600  0.234800  0.706730  1.0  0.0097
  C  C399  1  0.296500  0.184000  0.690170  1.0  0.0
  C  C400  1  0.420100  0.564700  0.955210  1.0  0.0075
  C  C401  1  0.396300  0.611100  0.030480  1.0  0.0155
  C  C402  1  0.261600  0.447600  0.864930  1.0  0.0066
  C  C403  1  0.231900  0.499900  0.944110  1.0  -0.2149
  C  C404  1  0.291900  0.394300  0.790450  1.0  -0.1419
  C  C405  1  0.477300  0.284600  0.695600  1.0  -0.0834
  C  C406  1  0.356500  0.238900  0.679740  1.0  0.0571
  C  C407  1  0.228800  0.193000  0.663580  1.0  -0.1877
  C  C408  1  0.414600  0.540000  0.000260  1.0  0.032
  C  C409  1  0.439000  0.490600  0.920190  1.0  -0.2268
  C  C410  1  0.392600  0.588700  0.075850  1.0  -0.1144
  C  C411  1  0.252700  0.538700  0.846600  1.0  -0.1368
  C  C412  1  0.163300  0.490600  0.967670  1.0  0.0447
  C  C413  1  0.281200  0.482200  0.775300  1.0  -0.0811
  C  C414  1  0.478500  0.340700  0.659300  1.0  -0.1562
  C  C415  1  0.360500  0.297600  0.642400  1.0  -0.1533
  C  C416  1  0.190100  0.283100  0.668910  1.0  0.031
  C  C417  1  0.424200  0.448000  0.016500  1.0  -0.1513
  C  C418  1  0.511100  0.501800  0.898400  1.0  0.0123
  C  C419  1  0.403100  0.502200  0.090600  1.0  -0.1402
  C  C420  1  0.263600  0.554900  0.804600  1.0  -0.0965
  C  C421  1  0.101200  0.489700  0.943950  1.0  0.2501
  C  C422  1  0.157700  0.494500  0.014310  1.0  -0.0204
  C  C423  1  0.419500  0.347000  0.633900  1.0  -0.1066
  C  C424  1  0.181300  0.342700  0.632470  1.0  0.2486
  C  C425  1  0.159800  0.311500  0.708330  1.0  0.0183
  C  C426  1  0.418000  0.431000  0.060400  1.0  -0.0911
  C  C427  1  0.571200  0.509100  0.923830  1.0  0.2307
  C  C428  1  0.518600  0.495700  0.852230  1.0  -0.0073
  C  C429  1  0.034100  0.489200  0.964410  1.0  -0.2211
  C  C430  1  0.090200  0.496500  0.034890  1.0  0.0105
  C  C431  1  0.217500  0.498700  0.043000  1.0  -0.1119
  C  C432  1  0.147700  0.430100  0.635830  1.0  -0.1902
  C  C433  1  0.160400  0.252000  0.746690  1.0  -0.1446
  C  C434  1  0.125500  0.399200  0.712890  1.0  0.0415
  C  C435  1  0.638600  0.517700  0.904470  1.0  -0.2189
  C  C436  1  0.586500  0.501700  0.833550  1.0  0.022
  C  C437  1  0.460600  0.484700  0.822800  1.0  -0.1632
  C  C438  1  0.968400  0.488300  0.937960  1.0  0.7461
  C  C439  1  0.031300  0.493100  0.009350  1.0  -0.099
  C  C440  1  0.086200  0.505400  0.081360  1.0  -0.0889
  C  C441  1  0.210400  0.507000  0.086100  1.0  -0.1001
  C  C442  1  0.121000  0.455300  0.675830  1.0  -0.102
  C  C443  1  0.138500  0.495800  0.598180  1.0  0.7347
  C  C444  1  0.131200  0.281400  0.784500  1.0  -0.0781
  C  C445  1  0.096600  0.425700  0.754000  1.0  -0.0862
  C  C446  1  0.645100  0.512100  0.859990  1.0  -0.0581
  C  C447  1  0.702700  0.525900  0.931860  1.0  0.7129
  C  C448  1  0.594200  0.494000  0.786200  1.0  -0.1068
  C  C449  1  0.472200  0.475700  0.778300  1.0  -0.0801
  C  C450  1  0.145400  0.511100  0.106500  1.0  -0.095
  C  C451  1  0.099500  0.368200  0.789400  1.0  -0.1348
  C  C452  1  0.539000  0.480700  0.760200  1.0  -0.1235
  O  O453  1  0.237220  0.469300  0.414510  1.0  -0.7812
  O  O454  1  0.166780  0.616100  0.384260  1.0  -0.6703
  O  O455  1  0.029430  0.499500  0.397460  1.0  -0.6359
  O  O456  1  0.190320  0.509100  0.302250  1.0  -0.633
  O  O457  1  0.082310  0.553100  0.314510  1.0  -0.6427
  O  O458  1  0.121450  0.342000  0.418960  1.0  -0.6373
  O  O459  1  0.161600  0.466800  0.561490  1.0  -0.6946
  O  O460  1  0.302080  0.477900  0.473380  1.0  -0.6529
  O  O461  1  0.210570  0.648500  0.450310  1.0  -0.6064
  O  O462  1  0.089360  0.521100  0.457810  1.0  -0.776
  O  O463  1  0.167180  0.370000  0.485220  1.0  -0.6407
  O  O464  1  0.240600  0.820800  0.468960  1.0  -0.5065
  O  O465  1  0.252500  0.562300  0.231930  1.0  -0.5318
  O  O466  1  0.090970  0.170700  0.398250  1.0  -0.5003
  O  O467  1  0.393170  0.992300  0.399200  1.0  -0.4791
  O  O468  1  0.291600  0.814200  0.093100  1.0  -0.5408
  O  O469  1  0.936620  0.007600  0.467780  1.0  -0.4829
  O  O470  1  0.389500  0.070300  0.103540  1.0  -0.4289
  O  O471  1  0.762780  0.530700  0.914510  1.0  -0.7808
  O  O472  1  0.833220  0.383900  0.884260  1.0  -0.6695
  O  O473  1  0.970570  0.500500  0.897460  1.0  -0.6377
  O  O474  1  0.809680  0.490900  0.802250  1.0  -0.6332
  O  O475  1  0.917690  0.446900  0.814510  1.0  -0.644
  O  O476  1  0.878550  0.658000  0.918960  1.0  -0.6386
  O  O477  1  0.838400  0.533200  0.061490  1.0  -0.6932
  O  O478  1  0.697920  0.522100  0.973380  1.0  -0.6538
  O  O479  1  0.789430  0.351500  0.950310  1.0  -0.6052
  O  O480  1  0.910640  0.478900  0.957810  1.0  -0.7747
  O  O481  1  0.832820  0.630000  0.985220  1.0  -0.6404
  O  O482  1  0.759400  0.179200  0.968960  1.0  -0.5107
  O  O483  1  0.747500  0.437700  0.731930  1.0  -0.5295
  O  O484  1  0.909030  0.829300  0.898250  1.0  -0.4986
  O  O485  1  0.606830  0.007700  0.899200  1.0  -0.4819
  O  O486  1  0.708400  0.185800  0.593100  1.0  -0.5395
  O  O487  1  0.063380  0.992400  0.967780  1.0  -0.4818
  O  O488  1  0.610500  0.929700  0.603540  1.0  -0.4306
  O  O489  1  0.737220  0.030700  0.414510  1.0  -0.7803
  O  O490  1  0.666780  0.883900  0.384260  1.0  -0.6704
  O  O491  1  0.529430  0.000500  0.397460  1.0  -0.6361
  O  O492  1  0.690320  0.990900  0.302250  1.0  -0.6331
  O  O493  1  0.582310  0.946900  0.314510  1.0  -0.6425
  O  O494  1  0.621450  0.158000  0.418960  1.0  -0.6375
  O  O495  1  0.661600  0.033200  0.561490  1.0  -0.6946
  O  O496  1  0.802080  0.022100  0.473380  1.0  -0.6521
  O  O497  1  0.710570  0.851500  0.450310  1.0  -0.6058
  O  O498  1  0.589360  0.978900  0.457810  1.0  -0.7748
  O  O499  1  0.667180  0.130000  0.485220  1.0  -0.6411
  O  O500  1  0.740600  0.679200  0.468960  1.0  -0.5103
  O  O501  1  0.752500  0.937700  0.231930  1.0  -0.5297
  O  O502  1  0.590970  0.329300  0.398250  1.0  -0.4983
  O  O503  1  0.893170  0.507700  0.399200  1.0  -0.4796
  O  O504  1  0.791600  0.685800  0.093100  1.0  -0.5399
  O  O505  1  0.436620  0.492400  0.467780  1.0  -0.4829
  O  O506  1  0.889500  0.429700  0.103540  1.0  -0.4296
  O  O507  1  0.262780  0.969300  0.914510  1.0  -0.7804
  O  O508  1  0.333220  0.116100  0.884260  1.0  -0.6696
  O  O509  1  0.470570  0.999500  0.897460  1.0  -0.6375
  O  O510  1  0.309680  0.009100  0.802250  1.0  -0.634
  O  O511  1  0.417690  0.053100  0.814510  1.0  -0.6446
  O  O512  1  0.378550  0.842000  0.918960  1.0  -0.6383
  O  O513  1  0.338400  0.966800  0.061490  1.0  -0.693
  O  O514  1  0.197920  0.977900  0.973380  1.0  -0.6546
  O  O515  1  0.289430  0.148500  0.950310  1.0  -0.6057
  O  O516  1  0.410640  0.021100  0.957810  1.0  -0.7756
  O  O517  1  0.332820  0.870000  0.985220  1.0  -0.6404
  O  O518  1  0.259400  0.320800  0.968960  1.0  -0.5077
  O  O519  1  0.247500  0.062300  0.731930  1.0  -0.531
  O  O520  1  0.409030  0.670700  0.898250  1.0  -0.5008
  O  O521  1  0.106830  0.492300  0.899200  1.0  -0.4818
  O  O522  1  0.208400  0.314200  0.593100  1.0  -0.5398
  O  O523  1  0.563380  0.507600  0.967780  1.0  -0.4818
  O  O524  1  0.110500  0.570300  0.603540  1.0  -0.4288
