# generated using pymatgen
data_Ho2H42(C23O6)3
_symmetry_space_group_name_H-M   'P 1'
_cell_length_a   19.09940000
_cell_length_b   14.41800000
_cell_length_c   30.59300000
_cell_angle_alpha   90.00000000
_cell_angle_beta   90.00000000
_cell_angle_gamma   90.00000000
_symmetry_Int_Tables_number   1
_chemical_formula_structural   Ho2H42(C23O6)3
_chemical_formula_sum   'Ho8 H168 C276 O72'
_cell_volume   8424.55193948
_cell_formula_units_Z   4
loop_
 _symmetry_equiv_pos_site_id
 _symmetry_equiv_pos_as_xyz
  1  'x, y, z'
loop_
 _atom_site_type_symbol
 _atom_site_label
 _atom_site_symmetry_multiplicity
 _atom_site_fract_x
 _atom_site_fract_y
 _atom_site_fract_z
 _atom_site_occupancy
 _atom_site_charge
  Ho  Ho1  1  0.311450  0.027250  0.370800  1.0  2.1772
  Ho  Ho2  1  0.357510  0.964800  0.246810  1.0  2.1881
  Ho  Ho3  1  0.688550  0.972750  0.870800  1.0  2.1787
  Ho  Ho4  1  0.642490  0.035200  0.746810  1.0  2.1882
  Ho  Ho5  1  0.811450  0.472750  0.370800  1.0  2.1786
  Ho  Ho6  1  0.857510  0.535200  0.246810  1.0  2.1877
  Ho  Ho7  1  0.188550  0.527250  0.870800  1.0  2.178
  Ho  Ho8  1  0.142490  0.464800  0.746810  1.0  2.1877
  H  H9  1  0.402800  0.727200  0.270700  1.0  0.3452
  H  H10  1  0.599600  0.504900  0.356900  1.0  0.3814
  H  H11  1  0.201100  0.359600  0.951900  1.0  0.3926
  H  H12  1  0.254400  0.031800  0.129100  1.0  0.3882
  H  H13  1  0.739800  0.224900  0.348300  1.0  0.4409
  H  H14  1  0.568900  0.001700  0.264600  1.0  0.3734
  H  H15  1  0.366600  0.746000  0.411700  1.0  0.0948
  H  H16  1  0.381900  0.636800  0.472800  1.0  0.1012
  H  H17  1  0.397100  0.489400  0.497300  1.0  0.1199
  H  H18  1  0.420300  0.370900  0.447300  1.0  0.105
  H  H19  1  0.432900  0.399200  0.375400  1.0  0.1244
  H  H20  1  0.436800  0.429800  0.311200  1.0  0.1214
  H  H21  1  0.403000  0.491300  0.274800  1.0  0.1326
  H  H22  1  0.415200  0.484500  0.211600  1.0  0.1049
  H  H23  1  0.433600  0.467900  0.138000  1.0  0.1038
  H  H24  1  0.545500  0.473600  0.108000  1.0  0.1259
  H  H25  1  0.638300  0.496400  0.152200  1.0  0.1023
  H  H26  1  0.688700  0.513700  0.225500  1.0  0.1122
  H  H27  1  0.485100  0.006200  0.397500  1.0  0.1076
  H  H28  1  0.538800  0.985900  0.469200  1.0  0.1032
  H  H29  1  0.635400  0.972800  0.512500  1.0  0.1231
  H  H30  1  0.746200  0.980900  0.480800  1.0  0.1004
  H  H31  1  0.759800  0.001900  0.408600  1.0  0.1089
  H  H32  1  0.734100  0.936600  0.307200  1.0  0.115
  H  H33  1  0.768900  0.997800  0.343300  1.0  0.1142
  H  H34  1  0.737800  0.908500  0.241900  1.0  0.1325
  H  H35  1  0.758600  0.880000  0.170300  1.0  0.1096
  H  H36  1  0.785000  0.998000  0.122200  1.0  0.1117
  H  H37  1  0.803000  0.146000  0.148500  1.0  0.1081
  H  H38  1  0.808200  0.254800  0.209100  1.0  0.1055
  H  H39  1  0.455600  0.171300  0.136000  1.0  0.1083
  H  H40  1  0.516000  0.282300  0.088500  1.0  0.097
  H  H41  1  0.515900  0.378900  0.030100  1.0  0.111
  H  H42  1  0.420800  0.385400  0.984600  1.0  0.1008
  H  H43  1  0.318800  0.304900  0.000600  1.0  0.105
  H  H44  1  0.237000  0.189500  0.009600  1.0  0.114
  H  H45  1  0.194900  0.147800  0.048800  1.0  0.1225
  H  H46  1  0.179500  0.198500  0.121900  1.0  0.1086
  H  H47  1  0.131700  0.247000  0.186000  1.0  0.0989
  H  H48  1  0.081900  0.392000  0.192900  1.0  0.1114
  H  H49  1  0.072200  0.487300  0.133500  1.0  0.127
  H  H50  1  0.099000  0.518300  0.055700  1.0  0.1137
  H  H51  1  0.597200  0.272800  0.770700  1.0  0.3446
  H  H52  1  0.400400  0.495100  0.856900  1.0  0.3824
  H  H53  1  0.798900  0.640400  0.451900  1.0  0.3932
  H  H54  1  0.745600  0.968200  0.629100  1.0  0.3876
  H  H55  1  0.260200  0.775100  0.848300  1.0  0.4394
  H  H56  1  0.431100  0.998300  0.764600  1.0  0.3713
  H  H57  1  0.633400  0.254000  0.911700  1.0  0.0945
  H  H58  1  0.618100  0.363200  0.972800  1.0  0.1011
  H  H59  1  0.602900  0.510600  0.997300  1.0  0.12
  H  H60  1  0.579700  0.629100  0.947300  1.0  0.1047
  H  H61  1  0.567100  0.600800  0.875400  1.0  0.1246
  H  H62  1  0.563200  0.570200  0.811200  1.0  0.1216
  H  H63  1  0.597000  0.508700  0.774800  1.0  0.1335
  H  H64  1  0.584800  0.515500  0.711600  1.0  0.1047
  H  H65  1  0.566400  0.532100  0.638000  1.0  0.1049
  H  H66  1  0.454500  0.526400  0.608000  1.0  0.1262
  H  H67  1  0.361700  0.503600  0.652200  1.0  0.1029
  H  H68  1  0.311300  0.486300  0.725500  1.0  0.112
  H  H69  1  0.514900  0.993800  0.897500  1.0  0.1078
  H  H70  1  0.461200  0.014100  0.969200  1.0  0.1034
  H  H71  1  0.364600  0.027200  0.012500  1.0  0.1227
  H  H72  1  0.253800  0.019100  0.980800  1.0  0.1009
  H  H73  1  0.240200  0.998100  0.908600  1.0  0.1083
  H  H74  1  0.265900  0.063400  0.807200  1.0  0.1172
  H  H75  1  0.231100  0.002200  0.843300  1.0  0.1143
  H  H76  1  0.262200  0.091500  0.741900  1.0  0.1323
  H  H77  1  0.241400  0.120000  0.670300  1.0  0.1094
  H  H78  1  0.215000  0.002000  0.622200  1.0  0.1133
  H  H79  1  0.197000  0.854000  0.648500  1.0  0.1081
  H  H80  1  0.191800  0.745200  0.709100  1.0  0.1053
  H  H81  1  0.544400  0.828700  0.636000  1.0  0.1081
  H  H82  1  0.484000  0.717700  0.588500  1.0  0.0968
  H  H83  1  0.484100  0.621100  0.530100  1.0  0.1108
  H  H84  1  0.579200  0.614600  0.484600  1.0  0.1006
  H  H85  1  0.681200  0.695100  0.500600  1.0  0.1052
  H  H86  1  0.763000  0.810500  0.509600  1.0  0.1152
  H  H87  1  0.805100  0.852200  0.548800  1.0  0.1213
  H  H88  1  0.820500  0.801500  0.621900  1.0  0.1083
  H  H89  1  0.868300  0.753000  0.686000  1.0  0.0986
  H  H90  1  0.918100  0.608000  0.692900  1.0  0.1114
  H  H91  1  0.927800  0.512700  0.633500  1.0  0.1271
  H  H92  1  0.901000  0.481700  0.555700  1.0  0.1139
  H  H93  1  0.902800  0.772800  0.270700  1.0  0.3447
  H  H94  1  0.099600  0.995100  0.356900  1.0  0.3814
  H  H95  1  0.701100  0.140400  0.951900  1.0  0.393
  H  H96  1  0.754400  0.468200  0.129100  1.0  0.388
  H  H97  1  0.239800  0.275100  0.348300  1.0  0.4389
  H  H98  1  0.068900  0.498300  0.264600  1.0  0.374
  H  H99  1  0.866600  0.754000  0.411700  1.0  0.0949
  H  H100  1  0.881900  0.863200  0.472800  1.0  0.1012
  H  H101  1  0.897100  0.010600  0.497300  1.0  0.1198
  H  H102  1  0.920300  0.129100  0.447300  1.0  0.1042
  H  H103  1  0.932900  0.100800  0.375400  1.0  0.1248
  H  H104  1  0.936800  0.070200  0.311200  1.0  0.1207
  H  H105  1  0.903000  0.008700  0.274800  1.0  0.1325
  H  H106  1  0.915200  0.015500  0.211600  1.0  0.1046
  H  H107  1  0.933600  0.032100  0.138000  1.0  0.1049
  H  H108  1  0.045500  0.026400  0.108000  1.0  0.1262
  H  H109  1  0.138300  0.003600  0.152200  1.0  0.1029
  H  H110  1  0.188700  0.986300  0.225500  1.0  0.1118
  H  H111  1  0.985100  0.493800  0.397500  1.0  0.1074
  H  H112  1  0.038800  0.514100  0.469200  1.0  0.1032
  H  H113  1  0.135400  0.527200  0.512500  1.0  0.1228
  H  H114  1  0.246200  0.519100  0.480800  1.0  0.1012
  H  H115  1  0.259800  0.498100  0.408600  1.0  0.1083
  H  H116  1  0.234100  0.563400  0.307200  1.0  0.118
  H  H117  1  0.268900  0.502200  0.343300  1.0  0.1142
  H  H118  1  0.237800  0.591500  0.241900  1.0  0.1324
  H  H119  1  0.258600  0.620000  0.170300  1.0  0.1098
  H  H120  1  0.285000  0.502000  0.122200  1.0  0.1134
  H  H121  1  0.303000  0.354000  0.148500  1.0  0.1084
  H  H122  1  0.308200  0.245200  0.209100  1.0  0.1052
  H  H123  1  0.955600  0.328700  0.136000  1.0  0.1082
  H  H124  1  0.016000  0.217700  0.088500  1.0  0.0969
  H  H125  1  0.015900  0.121100  0.030100  1.0  0.1107
  H  H126  1  0.920800  0.114600  0.984600  1.0  0.1006
  H  H127  1  0.818800  0.195100  0.000600  1.0  0.1043
  H  H128  1  0.737000  0.310500  0.009600  1.0  0.1142
  H  H129  1  0.694900  0.352200  0.048800  1.0  0.1221
  H  H130  1  0.679500  0.301500  0.121900  1.0  0.1083
  H  H131  1  0.631700  0.253000  0.186000  1.0  0.0989
  H  H132  1  0.581900  0.108000  0.192900  1.0  0.1117
  H  H133  1  0.572200  0.012700  0.133500  1.0  0.1269
  H  H134  1  0.599000  0.981700  0.055700  1.0  0.1135
  H  H135  1  0.097200  0.227200  0.770700  1.0  0.3451
  H  H136  1  0.900400  0.004900  0.856900  1.0  0.3824
  H  H137  1  0.298900  0.859600  0.451900  1.0  0.3934
  H  H138  1  0.245600  0.531800  0.629100  1.0  0.3877
  H  H139  1  0.760200  0.724900  0.848300  1.0  0.4404
  H  H140  1  0.931100  0.501700  0.764600  1.0  0.3711
  H  H141  1  0.133400  0.246000  0.911700  1.0  0.0946
  H  H142  1  0.118100  0.136800  0.972800  1.0  0.1013
  H  H143  1  0.102900  0.989400  0.997300  1.0  0.1202
  H  H144  1  0.079700  0.870900  0.947300  1.0  0.1053
  H  H145  1  0.067100  0.899200  0.875400  1.0  0.1243
  H  H146  1  0.063200  0.929800  0.811200  1.0  0.1221
  H  H147  1  0.097000  0.991300  0.774800  1.0  0.1338
  H  H148  1  0.084800  0.984500  0.711600  1.0  0.1046
  H  H149  1  0.066400  0.967900  0.638000  1.0  0.1038
  H  H150  1  0.954500  0.973600  0.608000  1.0  0.1259
  H  H151  1  0.861700  0.996400  0.652200  1.0  0.1024
  H  H152  1  0.811300  0.013700  0.725500  1.0  0.1124
  H  H153  1  0.014900  0.506200  0.897500  1.0  0.1077
  H  H154  1  0.961200  0.485900  0.969200  1.0  0.1033
  H  H155  1  0.864600  0.472800  0.012500  1.0  0.1227
  H  H156  1  0.753800  0.480900  0.980800  1.0  0.1005
  H  H157  1  0.740200  0.501900  0.908600  1.0  0.1089
  H  H158  1  0.765900  0.436600  0.807200  1.0  0.1154
  H  H159  1  0.731100  0.497800  0.843300  1.0  0.1142
  H  H160  1  0.762200  0.408500  0.741900  1.0  0.1321
  H  H161  1  0.741400  0.380000  0.670300  1.0  0.1094
  H  H162  1  0.715000  0.498000  0.622200  1.0  0.1125
  H  H163  1  0.697000  0.646000  0.648500  1.0  0.1082
  H  H164  1  0.691800  0.754800  0.709100  1.0  0.1058
  H  H165  1  0.044400  0.671300  0.636000  1.0  0.1082
  H  H166  1  0.984000  0.782300  0.588500  1.0  0.097
  H  H167  1  0.984100  0.878900  0.530100  1.0  0.1112
  H  H168  1  0.079200  0.885400  0.484600  1.0  0.1008
  H  H169  1  0.181200  0.804900  0.500600  1.0  0.1054
  H  H170  1  0.263000  0.689500  0.509600  1.0  0.115
  H  H171  1  0.305100  0.647800  0.548800  1.0  0.1222
  H  H172  1  0.320500  0.698500  0.621900  1.0  0.1086
  H  H173  1  0.368300  0.747000  0.686000  1.0  0.0986
  H  H174  1  0.418100  0.892000  0.692900  1.0  0.1112
  H  H175  1  0.427800  0.987300  0.633500  1.0  0.1268
  H  H176  1  0.401000  0.018300  0.555700  1.0  0.1135
  C  C177  1  0.363600  0.818400  0.334880  1.0  0.7361
  C  C178  1  0.382300  0.722600  0.348690  1.0  -0.1672
  C  C179  1  0.379300  0.700300  0.391830  1.0  -0.0566
  C  C180  1  0.394600  0.611300  0.407630  1.0  0.0104
  C  C181  1  0.391000  0.589600  0.452840  1.0  -0.1264
  C  C182  1  0.400300  0.502500  0.467600  1.0  -0.1627
  C  C183  1  0.415200  0.431300  0.437200  1.0  -0.0916
  C  C184  1  0.422000  0.447800  0.394200  1.0  -0.1617
  C  C185  1  0.412760  0.540400  0.376820  1.0  0.0038
  C  C186  1  0.418980  0.563900  0.332040  1.0  0.0007
  C  C187  1  0.403240  0.652500  0.318310  1.0  0.1894
  C  C188  1  0.438500  0.490400  0.297480  1.0  -0.2221
  C  C189  1  0.509600  0.501800  0.276020  1.0  0.0016
  C  C190  1  0.516700  0.496300  0.229220  1.0  -0.0406
  C  C191  1  0.460700  0.485600  0.200670  1.0  -0.1519
  C  C192  1  0.471900  0.476500  0.156300  1.0  -0.0869
  C  C193  1  0.539100  0.480000  0.137900  1.0  -0.1727
  C  C194  1  0.593800  0.492500  0.164360  1.0  -0.1183
  C  C195  1  0.586400  0.500300  0.210970  1.0  0.0163
  C  C196  1  0.644300  0.510400  0.237880  1.0  -0.0825
  C  C197  1  0.637400  0.515700  0.282730  1.0  -0.1953
  C  C198  1  0.569100  0.508300  0.301480  1.0  0.2384
  C  C199  1  0.701100  0.522800  0.310240  1.0  0.728
  C  C200  1  0.469200  0.011000  0.312720  1.0  0.7122
  C  C201  1  0.534200  0.009800  0.339500  1.0  -0.2412
  C  C202  1  0.529200  0.005500  0.384570  1.0  -0.0925
  C  C203  1  0.588200  0.000100  0.411100  1.0  0.0228
  C  C204  1  0.583000  0.988500  0.456500  1.0  -0.0757
  C  C205  1  0.640200  0.981000  0.482500  1.0  -0.1467
  C  C206  1  0.706700  0.985800  0.463200  1.0  -0.1242
  C  C207  1  0.714700  0.997200  0.419900  1.0  -0.1198
  C  C208  1  0.656100  0.002500  0.390400  1.0  -0.0187
  C  C209  1  0.662800  0.005200  0.344230  1.0  0.0354
  C  C210  1  0.601200  0.006300  0.319680  1.0  0.2435
  C  C211  1  0.732500  0.997000  0.321130  1.0  -0.2311
  C  C212  1  0.751200  0.068700  0.287060  1.0  -0.0058
  C  C213  1  0.760700  0.047500  0.241870  1.0  0.0154
  C  C214  1  0.751600  0.957000  0.223800  1.0  -0.1456
  C  C215  1  0.762800  0.940400  0.180700  1.0  -0.1175
  C  C216  1  0.780100  0.010500  0.151900  1.0  -0.111
  C  C217  1  0.790100  0.098700  0.167530  1.0  -0.1026
  C  C218  1  0.780900  0.117700  0.212230  1.0  0.0117
  C  C219  1  0.794000  0.208300  0.228260  1.0  -0.0737
  C  C220  1  0.786000  0.227600  0.271570  1.0  -0.1949
  C  C221  1  0.765500  0.157500  0.301570  1.0  0.2354
  C  C222  1  0.803600  0.325600  0.286670  1.0  0.7124
  C  C223  1  0.362900  0.059500  0.167350  1.0  0.7004
  C  C224  1  0.359800  0.120300  0.128220  1.0  -0.2091
  C  C225  1  0.416100  0.174600  0.118290  1.0  -0.1057
  C  C226  1  0.417100  0.235200  0.082500  1.0  0.0017
  C  C227  1  0.476000  0.286800  0.071300  1.0  -0.0938
  C  C228  1  0.476500  0.343400  0.036200  1.0  -0.1536
  C  C229  1  0.418900  0.348500  0.009500  1.0  -0.0877
  C  C230  1  0.357500  0.299800  0.018880  1.0  -0.1386
  C  C231  1  0.354600  0.242800  0.056380  1.0  0.0368
  C  C232  1  0.294300  0.187600  0.066570  1.0  -0.0366
  C  C233  1  0.299800  0.123700  0.100540  1.0  0.1637
  C  C234  1  0.226200  0.197600  0.040350  1.0  -0.1823
  C  C235  1  0.188000  0.287900  0.045660  1.0  -0.0141
  C  C236  1  0.158300  0.315500  0.086380  1.0  0.0301
  C  C237  1  0.159200  0.257000  0.123660  1.0  -0.1502
  C  C238  1  0.130600  0.286200  0.161850  1.0  -0.0783
  C  C239  1  0.099500  0.373100  0.165960  1.0  -0.0945
  C  C240  1  0.094700  0.430400  0.130900  1.0  -0.1462
  C  C241  1  0.124100  0.403000  0.090040  1.0  0.0296
  C  C242  1  0.120100  0.460400  0.053030  1.0  -0.0833
  C  C243  1  0.146100  0.434200  0.013370  1.0  -0.2105
  C  C244  1  0.180100  0.346900  0.009650  1.0  0.179
  C  C245  1  0.136800  0.500200  0.975790  1.0  0.7026
  C  C246  1  0.636400  0.181600  0.834880  1.0  0.7359
  C  C247  1  0.617700  0.277400  0.848690  1.0  -0.1671
  C  C248  1  0.620700  0.299700  0.891830  1.0  -0.0563
  C  C249  1  0.605400  0.388700  0.907630  1.0  0.0098
  C  C250  1  0.609000  0.410400  0.952840  1.0  -0.1267
  C  C251  1  0.599700  0.497500  0.967600  1.0  -0.1633
  C  C252  1  0.584800  0.568700  0.937200  1.0  -0.087
  C  C253  1  0.578000  0.552200  0.894200  1.0  -0.1635
  C  C254  1  0.587240  0.459600  0.876820  1.0  0.0038
  C  C255  1  0.581020  0.436100  0.832040  1.0  0.001
  C  C256  1  0.596760  0.347500  0.818310  1.0  0.1882
  C  C257  1  0.561500  0.509600  0.797480  1.0  -0.2203
  C  C258  1  0.490400  0.498200  0.776020  1.0  0.0009
  C  C259  1  0.483300  0.503700  0.729220  1.0  -0.041
  C  C260  1  0.539300  0.514400  0.700670  1.0  -0.1506
  C  C261  1  0.528100  0.523500  0.656300  1.0  -0.0856
  C  C262  1  0.460900  0.520000  0.637900  1.0  -0.1729
  C  C263  1  0.406200  0.507500  0.664360  1.0  -0.1197
  C  C264  1  0.413600  0.499700  0.710970  1.0  0.0158
  C  C265  1  0.355700  0.489600  0.737880  1.0  -0.083
  C  C266  1  0.362600  0.484300  0.782730  1.0  -0.1959
  C  C267  1  0.430900  0.491700  0.801480  1.0  0.2391
  C  C268  1  0.298900  0.477200  0.810240  1.0  0.7307
  C  C269  1  0.530800  0.989000  0.812720  1.0  0.7126
  C  C270  1  0.465800  0.990200  0.839500  1.0  -0.2428
  C  C271  1  0.470800  0.994500  0.884570  1.0  -0.0923
  C  C272  1  0.411800  0.999900  0.911100  1.0  0.0226
  C  C273  1  0.417000  0.011500  0.956500  1.0  -0.0739
  C  C274  1  0.359800  0.019000  0.982500  1.0  -0.1463
  C  C275  1  0.293300  0.014200  0.963200  1.0  -0.123
  C  C276  1  0.285300  0.002800  0.919900  1.0  -0.1184
  C  C277  1  0.343900  0.997500  0.890400  1.0  -0.0182
  C  C278  1  0.337200  0.994800  0.844230  1.0  0.0366
  C  C279  1  0.398800  0.993700  0.819680  1.0  0.244
  C  C280  1  0.267500  0.003000  0.821130  1.0  -0.2338
  C  C281  1  0.248800  0.931300  0.787060  1.0  -0.0055
  C  C282  1  0.239300  0.952500  0.741870  1.0  0.0149
  C  C283  1  0.248400  0.043000  0.723800  1.0  -0.1471
  C  C284  1  0.237200  0.059600  0.680700  1.0  -0.1148
  C  C285  1  0.219900  0.989500  0.651900  1.0  -0.11
  C  C286  1  0.209900  0.901300  0.667530  1.0  -0.1036
  C  C287  1  0.219100  0.882300  0.712230  1.0  0.0119
  C  C288  1  0.206000  0.791700  0.728260  1.0  -0.0742
  C  C289  1  0.214000  0.772400  0.771570  1.0  -0.195
  C  C290  1  0.234500  0.842500  0.801570  1.0  0.2346
  C  C291  1  0.196400  0.674400  0.786670  1.0  0.7138
  C  C292  1  0.637100  0.940500  0.667350  1.0  0.7003
  C  C293  1  0.640200  0.879700  0.628220  1.0  -0.207
  C  C294  1  0.583900  0.825400  0.618290  1.0  -0.1061
  C  C295  1  0.582900  0.764800  0.582500  1.0  0.0008
  C  C296  1  0.524000  0.713200  0.571300  1.0  -0.0931
  C  C297  1  0.523500  0.656600  0.536200  1.0  -0.1529
  C  C298  1  0.581100  0.651500  0.509500  1.0  -0.0879
  C  C299  1  0.642500  0.700200  0.518880  1.0  -0.1391
  C  C300  1  0.645400  0.757200  0.556380  1.0  0.0365
  C  C301  1  0.705700  0.812400  0.566570  1.0  -0.0366
  C  C302  1  0.700200  0.876300  0.600540  1.0  0.1629
  C  C303  1  0.773800  0.802400  0.540350  1.0  -0.1826
  C  C304  1  0.812000  0.712100  0.545660  1.0  -0.0141
  C  C305  1  0.841700  0.684500  0.586380  1.0  0.0295
  C  C306  1  0.840800  0.743000  0.623660  1.0  -0.1502
  C  C307  1  0.869400  0.713800  0.661850  1.0  -0.0784
  C  C308  1  0.900500  0.626900  0.665960  1.0  -0.093
  C  C309  1  0.905300  0.569600  0.630900  1.0  -0.1455
  C  C310  1  0.875900  0.597000  0.590040  1.0  0.0284
  C  C311  1  0.879900  0.539600  0.553030  1.0  -0.0867
  C  C312  1  0.853900  0.565800  0.513370  1.0  -0.2088
  C  C313  1  0.819900  0.653100  0.509650  1.0  0.1786
  C  C314  1  0.863200  0.499800  0.475790  1.0  0.7052
  C  C315  1  0.863600  0.681600  0.334880  1.0  0.7363
  C  C316  1  0.882300  0.777400  0.348690  1.0  -0.1661
  C  C317  1  0.879300  0.799700  0.391830  1.0  -0.0573
  C  C318  1  0.894600  0.888700  0.407630  1.0  0.0108
  C  C319  1  0.891000  0.910400  0.452840  1.0  -0.1266
  C  C320  1  0.900300  0.997500  0.467600  1.0  -0.1628
  C  C321  1  0.915200  0.068700  0.437200  1.0  -0.0871
  C  C322  1  0.922000  0.052200  0.394200  1.0  -0.1631
  C  C323  1  0.912760  0.959600  0.376820  1.0  0.0034
  C  C324  1  0.918980  0.936100  0.332040  1.0  0.0002
  C  C325  1  0.903240  0.847500  0.318310  1.0  0.1888
  C  C326  1  0.938500  0.009600  0.297480  1.0  -0.2229
  C  C327  1  0.009600  0.998200  0.276020  1.0  0.0018
  C  C328  1  0.016700  0.003700  0.229220  1.0  -0.0411
  C  C329  1  0.960700  0.014400  0.200670  1.0  -0.1516
  C  C330  1  0.971900  0.023500  0.156300  1.0  -0.0865
  C  C331  1  0.039100  0.020000  0.137900  1.0  -0.1724
  C  C332  1  0.093800  0.007500  0.164360  1.0  -0.1183
  C  C333  1  0.086400  0.999700  0.210970  1.0  0.0168
  C  C334  1  0.144300  0.989600  0.237880  1.0  -0.0827
  C  C335  1  0.137400  0.984300  0.282730  1.0  -0.1961
  C  C336  1  0.069100  0.991700  0.301480  1.0  0.2385
  C  C337  1  0.201100  0.977200  0.310240  1.0  0.7282
  C  C338  1  0.969200  0.489000  0.312720  1.0  0.7129
  C  C339  1  0.034200  0.490200  0.339500  1.0  -0.2411
  C  C340  1  0.029200  0.494500  0.384570  1.0  -0.0921
  C  C341  1  0.088200  0.499900  0.411100  1.0  0.0219
  C  C342  1  0.083000  0.511500  0.456500  1.0  -0.0746
  C  C343  1  0.140200  0.519000  0.482500  1.0  -0.1474
  C  C344  1  0.206700  0.514200  0.463200  1.0  -0.1243
  C  C345  1  0.214700  0.502800  0.419900  1.0  -0.1201
  C  C346  1  0.156100  0.497500  0.390400  1.0  -0.0187
  C  C347  1  0.162800  0.494800  0.344230  1.0  0.0358
  C  C348  1  0.101200  0.493700  0.319680  1.0  0.2435
  C  C349  1  0.232500  0.503000  0.321130  1.0  -0.2318
  C  C350  1  0.251200  0.431300  0.287060  1.0  -0.0059
  C  C351  1  0.260700  0.452500  0.241870  1.0  0.0156
  C  C352  1  0.251600  0.543000  0.223800  1.0  -0.1473
  C  C353  1  0.262800  0.559600  0.180700  1.0  -0.1142
  C  C354  1  0.280100  0.489500  0.151900  1.0  -0.1096
  C  C355  1  0.290100  0.401300  0.167530  1.0  -0.1029
  C  C356  1  0.280900  0.382300  0.212230  1.0  0.012
  C  C357  1  0.294000  0.291700  0.228260  1.0  -0.074
  C  C358  1  0.286000  0.272400  0.271570  1.0  -0.195
  C  C359  1  0.265500  0.342500  0.301570  1.0  0.2343
  C  C360  1  0.303600  0.174400  0.286670  1.0  0.7128
  C  C361  1  0.862900  0.440500  0.167350  1.0  0.6998
  C  C362  1  0.859800  0.379700  0.128220  1.0  -0.209
  C  C363  1  0.916100  0.325400  0.118290  1.0  -0.1058
  C  C364  1  0.917100  0.264800  0.082500  1.0  0.0016
  C  C365  1  0.976000  0.213200  0.071300  1.0  -0.0931
  C  C366  1  0.976500  0.156600  0.036200  1.0  -0.1534
  C  C367  1  0.918900  0.151500  0.009500  1.0  -0.0879
  C  C368  1  0.857500  0.200200  0.018880  1.0  -0.1386
  C  C369  1  0.854600  0.257200  0.056380  1.0  0.0371
  C  C370  1  0.794300  0.312400  0.066570  1.0  -0.0366
  C  C371  1  0.799800  0.376300  0.100540  1.0  0.1636
  C  C372  1  0.726200  0.302400  0.040350  1.0  -0.1818
  C  C373  1  0.688000  0.212100  0.045660  1.0  -0.015
  C  C374  1  0.658300  0.184500  0.086380  1.0  0.0292
  C  C375  1  0.659200  0.243000  0.123660  1.0  -0.1502
  C  C376  1  0.630600  0.213800  0.161850  1.0  -0.078
  C  C377  1  0.599500  0.126900  0.165960  1.0  -0.0943
  C  C378  1  0.594700  0.069600  0.130900  1.0  -0.1448
  C  C379  1  0.624100  0.097000  0.090040  1.0  0.0283
  C  C380  1  0.620100  0.039600  0.053030  1.0  -0.0856
  C  C381  1  0.646100  0.065800  0.013370  1.0  -0.2089
  C  C382  1  0.680100  0.153100  0.009650  1.0  0.1791
  C  C383  1  0.636800  0.999800  0.975790  1.0  0.7045
  C  C384  1  0.136400  0.318400  0.834880  1.0  0.7358
  C  C385  1  0.117700  0.222600  0.848690  1.0  -0.1681
  C  C386  1  0.120700  0.200300  0.891830  1.0  -0.0555
  C  C387  1  0.105400  0.111300  0.907630  1.0  0.0099
  C  C388  1  0.109000  0.089600  0.952840  1.0  -0.1264
  C  C389  1  0.099700  0.002500  0.967600  1.0  -0.1633
  C  C390  1  0.084800  0.931300  0.937200  1.0  -0.0915
  C  C391  1  0.078000  0.947800  0.894200  1.0  -0.162
  C  C392  1  0.087240  0.040400  0.876820  1.0  0.0041
  C  C393  1  0.081020  0.063900  0.832040  1.0  0.0017
  C  C394  1  0.096760  0.152500  0.818310  1.0  0.1889
  C  C395  1  0.061500  0.990400  0.797480  1.0  -0.2213
  C  C396  1  0.990400  0.001800  0.776020  1.0  0.0009
  C  C397  1  0.983300  0.996300  0.729220  1.0  -0.0406
  C  C398  1  0.039300  0.985600  0.700670  1.0  -0.1503
  C  C399  1  0.028100  0.976500  0.656300  1.0  -0.0858
  C  C400  1  0.960900  0.980000  0.637900  1.0  -0.1733
  C  C401  1  0.906200  0.992500  0.664360  1.0  -0.1198
  C  C402  1  0.913600  0.000300  0.710970  1.0  0.0156
  C  C403  1  0.855700  0.010400  0.737880  1.0  -0.0832
  C  C404  1  0.862600  0.015700  0.782730  1.0  -0.1951
  C  C405  1  0.930900  0.008300  0.801480  1.0  0.2389
  C  C406  1  0.798900  0.022800  0.810240  1.0  0.7296
  C  C407  1  0.030800  0.511000  0.812720  1.0  0.7124
  C  C408  1  0.965800  0.509800  0.839500  1.0  -0.243
  C  C409  1  0.970800  0.505500  0.884570  1.0  -0.0923
  C  C410  1  0.911800  0.500100  0.911100  1.0  0.0236
  C  C411  1  0.917000  0.488500  0.956500  1.0  -0.0745
  C  C412  1  0.859800  0.481000  0.982500  1.0  -0.1457
  C  C413  1  0.793300  0.485800  0.963200  1.0  -0.1228
  C  C414  1  0.785300  0.497200  0.919900  1.0  -0.1183
  C  C415  1  0.843900  0.502500  0.890400  1.0  -0.0181
  C  C416  1  0.837200  0.505200  0.844230  1.0  0.0368
  C  C417  1  0.898800  0.506300  0.819680  1.0  0.2441
  C  C418  1  0.767500  0.497000  0.821130  1.0  -0.2318
  C  C419  1  0.748800  0.568700  0.787060  1.0  -0.0053
  C  C420  1  0.739300  0.547500  0.741870  1.0  0.0151
  C  C421  1  0.748400  0.457000  0.723800  1.0  -0.1453
  C  C422  1  0.737200  0.440400  0.680700  1.0  -0.12
  C  C423  1  0.719900  0.510500  0.651900  1.0  -0.1108
  C  C424  1  0.709900  0.598700  0.667530  1.0  -0.1028
  C  C425  1  0.719100  0.617700  0.712230  1.0  0.0115
  C  C426  1  0.706000  0.708300  0.728260  1.0  -0.0735
  C  C427  1  0.714000  0.727600  0.771570  1.0  -0.1949
  C  C428  1  0.734500  0.657500  0.801570  1.0  0.2358
  C  C429  1  0.696400  0.825600  0.786670  1.0  0.7132
  C  C430  1  0.137100  0.559500  0.667350  1.0  0.6998
  C  C431  1  0.140200  0.620300  0.628220  1.0  -0.207
  C  C432  1  0.083900  0.674600  0.618290  1.0  -0.1058
  C  C433  1  0.082900  0.735200  0.582500  1.0  0.0009
  C  C434  1  0.024000  0.786800  0.571300  1.0  -0.0935
  C  C435  1  0.023500  0.843400  0.536200  1.0  -0.1534
  C  C436  1  0.081100  0.848500  0.509500  1.0  -0.088
  C  C437  1  0.142500  0.799800  0.518880  1.0  -0.1386
  C  C438  1  0.145400  0.742800  0.556380  1.0  0.0364
  C  C439  1  0.205700  0.687600  0.566570  1.0  -0.0368
  C  C440  1  0.200200  0.623700  0.600540  1.0  0.1629
  C  C441  1  0.273800  0.697600  0.540350  1.0  -0.1832
  C  C442  1  0.312000  0.787900  0.545660  1.0  -0.0134
  C  C443  1  0.341700  0.815500  0.586380  1.0  0.0307
  C  C444  1  0.340800  0.757000  0.623660  1.0  -0.1509
  C  C445  1  0.369400  0.786200  0.661850  1.0  -0.0786
  C  C446  1  0.400500  0.873100  0.665960  1.0  -0.0934
  C  C447  1  0.405300  0.930400  0.630900  1.0  -0.1451
  C  C448  1  0.375900  0.903000  0.590040  1.0  0.0295
  C  C449  1  0.379900  0.960400  0.553030  1.0  -0.0843
  C  C450  1  0.353900  0.934200  0.513370  1.0  -0.2104
  C  C451  1  0.319900  0.846900  0.509650  1.0  0.1787
  C  C452  1  0.363200  0.000200  0.475790  1.0  0.7031
  O  O453  1  0.377940  0.841460  0.295360  1.0  -0.6407
  O  O454  1  0.334280  0.870900  0.362470  1.0  -0.6316
  O  O455  1  0.408550  0.671400  0.274740  1.0  -0.5078
  O  O456  1  0.695540  0.518400  0.351400  1.0  -0.6942
  O  O457  1  0.761240  0.527580  0.293300  1.0  -0.8166
  O  O458  1  0.561040  0.505800  0.345170  1.0  -0.4916
  O  O459  1  0.109500  0.574600  0.980810  1.0  -0.4337
  O  O460  1  0.160600  0.470500  0.938280  1.0  -0.6634
  O  O461  1  0.206700  0.318400  0.970040  1.0  -0.5426
  O  O462  1  0.416220  0.055300  0.190320  1.0  -0.6379
  O  O463  1  0.308470  0.011800  0.177350  1.0  -0.6547
  O  O464  1  0.244810  0.066000  0.108560  1.0  -0.551
  O  O465  1  0.830270  0.379400  0.259810  1.0  -0.6787
  O  O466  1  0.790210  0.346700  0.326510  1.0  -0.6318
  O  O467  1  0.758920  0.174600  0.344780  1.0  -0.5112
  O  O468  1  0.410570  0.023000  0.330830  1.0  -0.8071
  O  O469  1  0.472970  0.999500  0.271890  1.0  -0.6679
  O  O470  1  0.607750  0.005800  0.275790  1.0  -0.484
  O  O471  1  0.622060  0.158540  0.795360  1.0  -0.6405
  O  O472  1  0.665720  0.129100  0.862470  1.0  -0.6308
  O  O473  1  0.591450  0.328600  0.774740  1.0  -0.5042
  O  O474  1  0.304460  0.481600  0.851400  1.0  -0.693
  O  O475  1  0.238760  0.472420  0.793300  1.0  -0.8157
  O  O476  1  0.438960  0.494200  0.845170  1.0  -0.4917
  O  O477  1  0.890500  0.425400  0.480810  1.0  -0.4316
  O  O478  1  0.839400  0.529500  0.438280  1.0  -0.663
  O  O479  1  0.793300  0.681600  0.470040  1.0  -0.5428
  O  O480  1  0.583780  0.944700  0.690320  1.0  -0.6391
  O  O481  1  0.691530  0.988200  0.677350  1.0  -0.6509
  O  O482  1  0.755190  0.934000  0.608560  1.0  -0.5491
  O  O483  1  0.169730  0.620600  0.759810  1.0  -0.6793
  O  O484  1  0.209790  0.653300  0.826510  1.0  -0.6311
  O  O485  1  0.241080  0.825400  0.844780  1.0  -0.5063
  O  O486  1  0.589430  0.977000  0.830830  1.0  -0.8061
  O  O487  1  0.527030  0.000500  0.771890  1.0  -0.6683
  O  O488  1  0.392250  0.994200  0.775790  1.0  -0.4828
  O  O489  1  0.877940  0.658540  0.295360  1.0  -0.641
  O  O490  1  0.834280  0.629100  0.362470  1.0  -0.6312
  O  O491  1  0.908550  0.828600  0.274740  1.0  -0.5039
  O  O492  1  0.195540  0.981600  0.351400  1.0  -0.6944
  O  O493  1  0.261240  0.972420  0.293300  1.0  -0.8165
  O  O494  1  0.061040  0.994200  0.345170  1.0  -0.4916
  O  O495  1  0.609500  0.925400  0.980810  1.0  -0.4323
  O  O496  1  0.660600  0.029500  0.938280  1.0  -0.6637
  O  O497  1  0.706700  0.181600  0.970040  1.0  -0.542
  O  O498  1  0.916220  0.444700  0.190320  1.0  -0.6387
  O  O499  1  0.808470  0.488200  0.177350  1.0  -0.6509
  O  O500  1  0.744810  0.434000  0.108560  1.0  -0.5474
  O  O501  1  0.330270  0.120600  0.259810  1.0  -0.6789
  O  O502  1  0.290210  0.153300  0.326510  1.0  -0.6321
  O  O503  1  0.258920  0.325400  0.344780  1.0  -0.5078
  O  O504  1  0.910570  0.477000  0.330830  1.0  -0.8057
  O  O505  1  0.972970  0.500500  0.271890  1.0  -0.6678
  O  O506  1  0.107750  0.494200  0.275790  1.0  -0.4836
  O  O507  1  0.122060  0.341460  0.795360  1.0  -0.6401
  O  O508  1  0.165720  0.370900  0.862470  1.0  -0.6309
  O  O509  1  0.091450  0.171400  0.774740  1.0  -0.5081
  O  O510  1  0.804460  0.018400  0.851400  1.0  -0.6929
  O  O511  1  0.738760  0.027580  0.793300  1.0  -0.8153
  O  O512  1  0.938960  0.005800  0.845170  1.0  -0.4919
  O  O513  1  0.390500  0.074600  0.480810  1.0  -0.434
  O  O514  1  0.339400  0.970500  0.438280  1.0  -0.6626
  O  O515  1  0.293300  0.818400  0.470040  1.0  -0.5439
  O  O516  1  0.083780  0.555300  0.690320  1.0  -0.6385
  O  O517  1  0.191530  0.511800  0.677350  1.0  -0.6531
  O  O518  1  0.255190  0.566000  0.608560  1.0  -0.5489
  O  O519  1  0.669730  0.879400  0.759810  1.0  -0.6792
  O  O520  1  0.709790  0.846700  0.826510  1.0  -0.6307
  O  O521  1  0.741080  0.674600  0.844780  1.0  -0.51
  O  O522  1  0.089430  0.523000  0.830830  1.0  -0.8077
  O  O523  1  0.027030  0.499500  0.771890  1.0  -0.6682
  O  O524  1  0.892250  0.505800  0.775790  1.0  -0.4835
