# generated using pymatgen
data_ZnH14(C17O2)2
_symmetry_space_group_name_H-M   'P 1'
_cell_length_a   33.26100000
_cell_length_b   33.26100000
_cell_length_c   33.26100000
_cell_angle_alpha   90.00000000
_cell_angle_beta   90.00000000
_cell_angle_gamma   90.00000000
_symmetry_Int_Tables_number   1
_chemical_formula_structural   ZnH14(C17O2)2
_chemical_formula_sum   'Zn12 H168 C408 O48'
_cell_volume   36796.44875858
_cell_formula_units_Z   12
loop_
 _symmetry_equiv_pos_site_id
 _symmetry_equiv_pos_as_xyz
  1  'x, y, z'
loop_
 _atom_site_type_symbol
 _atom_site_label
 _atom_site_symmetry_multiplicity
 _atom_site_fract_x
 _atom_site_fract_y
 _atom_site_fract_z
 _atom_site_occupancy
 _atom_site_charge
  Zn  Zn1  1  0.375000  0.625000  0.125000  1.0  0.9347
  Zn  Zn2  1  0.125000  0.375000  0.625000  1.0  0.9347
  Zn  Zn3  1  0.625000  0.125000  0.375000  1.0  0.9347
  Zn  Zn4  1  0.875000  0.875000  0.875000  1.0  0.9347
  Zn  Zn5  1  0.436920  0.563080  0.063080  1.0  0.932
  Zn  Zn6  1  0.063080  0.436920  0.563080  1.0  0.9278
  Zn  Zn7  1  0.563080  0.063080  0.436920  1.0  0.9247
  Zn  Zn8  1  0.936920  0.936920  0.936920  1.0  0.927
  Zn  Zn9  1  0.313080  0.686920  0.186920  1.0  0.9251
  Zn  Zn10  1  0.186920  0.313080  0.686920  1.0  0.9256
  Zn  Zn11  1  0.813080  0.813080  0.813080  1.0  0.9304
  Zn  Zn12  1  0.686920  0.186920  0.313080  1.0  0.93
  H  H13  1  0.322100  0.667900  0.029300  1.0  0.102
  H  H14  1  0.351100  0.568800  0.966700  1.0  0.1008
  H  H15  1  0.265800  0.643600  0.925200  1.0  0.1063
  H  H16  1  0.172600  0.737800  0.945700  1.0  0.1072
  H  H17  1  0.135900  0.828200  0.017000  1.0  0.108
  H  H18  1  0.187600  0.814000  0.061600  1.0  0.0951
  H  H19  1  0.231800  0.761700  0.048300  1.0  0.1017
  H  H20  1  0.177900  0.332100  0.529300  1.0  0.1023
  H  H21  1  0.148900  0.431200  0.466700  1.0  0.1016
  H  H22  1  0.234200  0.356400  0.425200  1.0  0.1071
  H  H23  1  0.327400  0.262200  0.445700  1.0  0.1041
  H  H24  1  0.364100  0.171800  0.517000  1.0  0.1079
  H  H25  1  0.312400  0.186000  0.561600  1.0  0.0967
  H  H26  1  0.268200  0.238300  0.548300  1.0  0.1034
  H  H27  1  0.677900  0.167900  0.470700  1.0  0.1033
  H  H28  1  0.648900  0.068800  0.533300  1.0  0.1012
  H  H29  1  0.734200  0.143600  0.574800  1.0  0.1093
  H  H30  1  0.827400  0.237800  0.554300  1.0  0.1061
  H  H31  1  0.864100  0.328200  0.483000  1.0  0.1079
  H  H32  1  0.812400  0.314000  0.438400  1.0  0.0938
  H  H33  1  0.768200  0.261700  0.451700  1.0  0.1026
  H  H34  1  0.822100  0.832100  0.970700  1.0  0.1027
  H  H35  1  0.851100  0.931200  0.033300  1.0  0.1009
  H  H36  1  0.765800  0.856400  0.074800  1.0  0.1082
  H  H37  1  0.672600  0.762200  0.054300  1.0  0.1072
  H  H38  1  0.635900  0.671800  0.983000  1.0  0.1069
  H  H39  1  0.687600  0.686000  0.938400  1.0  0.0935
  H  H40  1  0.731800  0.738300  0.951700  1.0  0.1029
  H  H41  1  0.029300  0.322100  0.667900  1.0  0.1041
  H  H42  1  0.966700  0.351100  0.568800  1.0  0.1024
  H  H43  1  0.925200  0.265800  0.643600  1.0  0.1074
  H  H44  1  0.945700  0.172600  0.737800  1.0  0.1069
  H  H45  1  0.017000  0.135900  0.828200  1.0  0.1078
  H  H46  1  0.061600  0.187600  0.814000  1.0  0.0936
  H  H47  1  0.048300  0.231800  0.761700  1.0  0.1024
  H  H48  1  0.529300  0.177900  0.332100  1.0  0.1032
  H  H49  1  0.466700  0.148900  0.431200  1.0  0.1033
  H  H50  1  0.425200  0.234200  0.356400  1.0  0.108
  H  H51  1  0.445700  0.327400  0.262200  1.0  0.1038
  H  H52  1  0.517000  0.364100  0.171800  1.0  0.1081
  H  H53  1  0.561600  0.312400  0.186000  1.0  0.0945
  H  H54  1  0.548300  0.268200  0.238300  1.0  0.1024
  H  H55  1  0.470700  0.677900  0.167900  1.0  0.1036
  H  H56  1  0.533300  0.648900  0.068800  1.0  0.1025
  H  H57  1  0.574800  0.734200  0.143600  1.0  0.1075
  H  H58  1  0.554300  0.827400  0.237800  1.0  0.1036
  H  H59  1  0.483000  0.864100  0.328200  1.0  0.108
  H  H60  1  0.438400  0.812400  0.314000  1.0  0.0944
  H  H61  1  0.451700  0.768200  0.261700  1.0  0.1027
  H  H62  1  0.970700  0.822100  0.832100  1.0  0.1037
  H  H63  1  0.033300  0.851100  0.931200  1.0  0.1023
  H  H64  1  0.074800  0.765800  0.856400  1.0  0.1071
  H  H65  1  0.054300  0.672600  0.762200  1.0  0.1061
  H  H66  1  0.983000  0.635900  0.671800  1.0  0.1084
  H  H67  1  0.938400  0.687600  0.686000  1.0  0.0926
  H  H68  1  0.951700  0.731800  0.738300  1.0  0.1032
  H  H69  1  0.667900  0.029300  0.322100  1.0  0.1021
  H  H70  1  0.568800  0.966700  0.351100  1.0  0.1018
  H  H71  1  0.643600  0.925200  0.265800  1.0  0.1065
  H  H72  1  0.737800  0.945700  0.172600  1.0  0.1086
  H  H73  1  0.828200  0.017000  0.135900  1.0  0.1087
  H  H74  1  0.814000  0.061600  0.187600  1.0  0.0957
  H  H75  1  0.761700  0.048300  0.231800  1.0  0.1014
  H  H76  1  0.332100  0.529300  0.177900  1.0  0.1022
  H  H77  1  0.431200  0.466700  0.148900  1.0  0.1015
  H  H78  1  0.356400  0.425200  0.234200  1.0  0.1085
  H  H79  1  0.262200  0.445700  0.327400  1.0  0.1052
  H  H80  1  0.171800  0.517000  0.364100  1.0  0.1087
  H  H81  1  0.186000  0.561600  0.312400  1.0  0.0961
  H  H82  1  0.238300  0.548300  0.268200  1.0  0.1016
  H  H83  1  0.167900  0.470700  0.677900  1.0  0.1022
  H  H84  1  0.068800  0.533300  0.648900  1.0  0.1011
  H  H85  1  0.143600  0.574800  0.734200  1.0  0.1084
  H  H86  1  0.237800  0.554300  0.827400  1.0  0.106
  H  H87  1  0.328200  0.483000  0.864100  1.0  0.1088
  H  H88  1  0.314000  0.438400  0.812400  1.0  0.0957
  H  H89  1  0.261700  0.451700  0.768200  1.0  0.102
  H  H90  1  0.832100  0.970700  0.822100  1.0  0.1023
  H  H91  1  0.931200  0.033300  0.851100  1.0  0.1022
  H  H92  1  0.856400  0.074800  0.765800  1.0  0.1069
  H  H93  1  0.762200  0.054300  0.672600  1.0  0.1078
  H  H94  1  0.671800  0.983000  0.635900  1.0  0.1081
  H  H95  1  0.686000  0.938400  0.687600  1.0  0.0951
  H  H96  1  0.738300  0.951700  0.731800  1.0  0.1021
  H  H97  1  0.417900  0.572100  0.220700  1.0  0.1029
  H  H98  1  0.318800  0.601100  0.283300  1.0  0.1014
  H  H99  1  0.393600  0.515800  0.324800  1.0  0.108
  H  H100  1  0.487800  0.422600  0.304300  1.0  0.1062
  H  H101  1  0.578200  0.385900  0.233000  1.0  0.1091
  H  H102  1  0.564000  0.437600  0.188400  1.0  0.0943
  H  H103  1  0.511700  0.481800  0.201700  1.0  0.1023
  H  H104  1  0.082100  0.427900  0.720700  1.0  0.1026
  H  H105  1  0.181200  0.398900  0.783300  1.0  0.1017
  H  H106  1  0.106400  0.484200  0.824800  1.0  0.1081
  H  H107  1  0.012200  0.577400  0.804300  1.0  0.107
  H  H108  1  0.921800  0.614100  0.733000  1.0  0.1091
  H  H109  1  0.936000  0.562400  0.688400  1.0  0.0932
  H  H110  1  0.988300  0.518200  0.701700  1.0  0.1012
  H  H111  1  0.917900  0.927900  0.779300  1.0  0.1018
  H  H112  1  0.818800  0.898900  0.716700  1.0  0.1017
  H  H113  1  0.893600  0.984200  0.675200  1.0  0.1067
  H  H114  1  0.987800  0.077400  0.695700  1.0  0.1049
  H  H115  1  0.078200  0.114100  0.767000  1.0  0.1086
  H  H116  1  0.064000  0.062400  0.811600  1.0  0.0954
  H  H117  1  0.011700  0.018200  0.798300  1.0  0.1014
  H  H118  1  0.582100  0.072100  0.279300  1.0  0.1017
  H  H119  1  0.681200  0.101100  0.216700  1.0  0.1017
  H  H120  1  0.606400  0.015800  0.175200  1.0  0.106
  H  H121  1  0.512200  0.922600  0.195700  1.0  0.1056
  H  H122  1  0.421800  0.885900  0.267000  1.0  0.1087
  H  H123  1  0.436000  0.937600  0.311600  1.0  0.0958
  H  H124  1  0.488300  0.981800  0.298300  1.0  0.1015
  H  H125  1  0.072100  0.279300  0.582100  1.0  0.1025
  H  H126  1  0.101100  0.216700  0.681200  1.0  0.1022
  H  H127  1  0.015800  0.175200  0.606400  1.0  0.1074
  H  H128  1  0.922600  0.195700  0.512200  1.0  0.1055
  H  H129  1  0.885900  0.267000  0.421800  1.0  0.1085
  H  H130  1  0.937600  0.311600  0.436000  1.0  0.0957
  H  H131  1  0.981800  0.298300  0.488300  1.0  0.1036
  H  H132  1  0.927900  0.779300  0.917900  1.0  0.1032
  H  H133  1  0.898900  0.716700  0.818800  1.0  0.1023
  H  H134  1  0.984200  0.675200  0.893600  1.0  0.108
  H  H135  1  0.077400  0.695700  0.987800  1.0  0.1042
  H  H136  1  0.114100  0.767000  0.078200  1.0  0.1087
  H  H137  1  0.062400  0.811600  0.064000  1.0  0.0962
  H  H138  1  0.018200  0.798300  0.011700  1.0  0.1039
  H  H139  1  0.427900  0.720700  0.082100  1.0  0.1028
  H  H140  1  0.398900  0.783300  0.181200  1.0  0.1024
  H  H141  1  0.484200  0.824800  0.106400  1.0  0.1079
  H  H142  1  0.577400  0.804300  0.012200  1.0  0.1055
  H  H143  1  0.614100  0.733000  0.921800  1.0  0.1088
  H  H144  1  0.562400  0.688400  0.936000  1.0  0.0929
  H  H145  1  0.518200  0.701700  0.988300  1.0  0.1035
  H  H146  1  0.572100  0.220700  0.417900  1.0  0.1032
  H  H147  1  0.601100  0.283300  0.318800  1.0  0.1021
  H  H148  1  0.515800  0.324800  0.393600  1.0  0.1078
  H  H149  1  0.422600  0.304300  0.487800  1.0  0.1049
  H  H150  1  0.385900  0.233000  0.578200  1.0  0.1081
  H  H151  1  0.437600  0.188400  0.564000  1.0  0.0952
  H  H152  1  0.481800  0.201700  0.511700  1.0  0.1037
  H  H153  1  0.779300  0.917900  0.927900  1.0  0.1036
  H  H154  1  0.716700  0.818800  0.898900  1.0  0.1011
  H  H155  1  0.675200  0.893600  0.984200  1.0  0.1081
  H  H156  1  0.695700  0.987800  0.077400  1.0  0.1039
  H  H157  1  0.767000  0.078200  0.114100  1.0  0.1082
  H  H158  1  0.811600  0.064000  0.062400  1.0  0.097
  H  H159  1  0.798300  0.011700  0.018200  1.0  0.1014
  H  H160  1  0.279300  0.582100  0.072100  1.0  0.1035
  H  H161  1  0.216700  0.681200  0.101100  1.0  0.102
  H  H162  1  0.175200  0.606400  0.015800  1.0  0.107
  H  H163  1  0.195700  0.512200  0.922600  1.0  0.1044
  H  H164  1  0.267000  0.421800  0.885900  1.0  0.1075
  H  H165  1  0.311600  0.436000  0.937600  1.0  0.0962
  H  H166  1  0.298300  0.488300  0.981800  1.0  0.1011
  H  H167  1  0.220700  0.417900  0.572100  1.0  0.1035
  H  H168  1  0.283300  0.318800  0.601100  1.0  0.1014
  H  H169  1  0.324800  0.393600  0.515800  1.0  0.1068
  H  H170  1  0.304300  0.487800  0.422600  1.0  0.1043
  H  H171  1  0.233000  0.578200  0.385900  1.0  0.1083
  H  H172  1  0.188400  0.564000  0.437600  1.0  0.0966
  H  H173  1  0.201700  0.511700  0.481800  1.0  0.1011
  H  H174  1  0.720700  0.082100  0.427900  1.0  0.1036
  H  H175  1  0.783300  0.181200  0.398900  1.0  0.101
  H  H176  1  0.824800  0.106400  0.484200  1.0  0.1073
  H  H177  1  0.804300  0.012200  0.577400  1.0  0.1049
  H  H178  1  0.733000  0.921800  0.614100  1.0  0.1075
  H  H179  1  0.688400  0.936000  0.562400  1.0  0.095
  H  H180  1  0.701700  0.988300  0.518200  1.0  0.1021
  C  C181  1  0.318400  0.651400  0.007010  1.0  -0.1287
  C  C182  1  0.341270  0.616700  0.002800  1.0  -0.1629
  C  C183  1  0.335800  0.592010  0.969500  1.0  -0.0687
  C  C184  1  0.307500  0.602100  0.940400  1.0  -0.0521
  C  C185  1  0.284700  0.636800  0.944600  1.0  -0.0029
  C  C186  1  0.290200  0.661500  0.977900  1.0  0.08
  C  C187  1  0.373700  0.602200  0.031700  1.0  0.6592
  C  C188  1  0.263400  0.692600  0.983700  1.0  0.0557
  C  C189  1  0.240100  0.719700  0.985800  1.0  0.0292
  C  C190  1  0.175600  0.753100  0.968900  1.0  -0.0597
  C  C191  1  0.149100  0.784400  0.976900  1.0  -0.0073
  C  C192  1  0.153600  0.807200  0.011700  1.0  -0.0745
  C  C193  1  0.184600  0.798700  0.038400  1.0  -0.1097
  C  C194  1  0.211100  0.767400  0.030400  1.0  -0.0622
  C  C195  1  0.206600  0.744600  0.995700  1.0  -0.0113
  C  C196  1  0.299600  0.553300  0.877800  1.0  0.0318
  C  C197  1  0.303100  0.576100  0.904800  1.0  -0.0915
  C  C198  1  0.181600  0.348600  0.507010  1.0  -0.1268
  C  C199  1  0.158730  0.383300  0.502800  1.0  -0.1612
  C  C200  1  0.164200  0.407990  0.469500  1.0  -0.069
  C  C201  1  0.192500  0.397900  0.440400  1.0  -0.0498
  C  C202  1  0.215300  0.363200  0.444600  1.0  -0.0055
  C  C203  1  0.209800  0.338500  0.477900  1.0  0.0768
  C  C204  1  0.126300  0.397800  0.531700  1.0  0.6594
  C  C205  1  0.236600  0.307400  0.483700  1.0  0.0584
  C  C206  1  0.259900  0.280300  0.485800  1.0  0.0253
  C  C207  1  0.324400  0.246900  0.468900  1.0  -0.0603
  C  C208  1  0.350900  0.215600  0.476900  1.0  -0.0068
  C  C209  1  0.346400  0.192800  0.511700  1.0  -0.0714
  C  C210  1  0.315400  0.201300  0.538400  1.0  -0.1091
  C  C211  1  0.288900  0.232600  0.530400  1.0  -0.0625
  C  C212  1  0.293400  0.255400  0.495700  1.0  -0.0097
  C  C213  1  0.200400  0.446700  0.377800  1.0  0.0295
  C  C214  1  0.196900  0.423900  0.404800  1.0  -0.0928
  C  C215  1  0.681600  0.151400  0.492990  1.0  -0.1273
  C  C216  1  0.658730  0.116700  0.497200  1.0  -0.1618
  C  C217  1  0.664200  0.092010  0.530500  1.0  -0.0672
  C  C218  1  0.692500  0.102100  0.559600  1.0  -0.0526
  C  C219  1  0.715300  0.136800  0.555400  1.0  -0.0041
  C  C220  1  0.709800  0.161500  0.522100  1.0  0.0793
  C  C221  1  0.626300  0.102200  0.468300  1.0  0.6586
  C  C222  1  0.736600  0.192600  0.516300  1.0  0.0574
  C  C223  1  0.759900  0.219700  0.514200  1.0  0.0276
  C  C224  1  0.824400  0.253100  0.531100  1.0  -0.0604
  C  C225  1  0.850900  0.284400  0.523100  1.0  -0.0064
  C  C226  1  0.846400  0.307200  0.488300  1.0  -0.0692
  C  C227  1  0.815400  0.298700  0.461600  1.0  -0.1072
  C  C228  1  0.788900  0.267400  0.469600  1.0  -0.0616
  C  C229  1  0.793400  0.244600  0.504300  1.0  -0.0094
  C  C230  1  0.700400  0.053300  0.622200  1.0  0.0294
  C  C231  1  0.696900  0.076100  0.595200  1.0  -0.0924
  C  C232  1  0.818400  0.848600  0.992990  1.0  -0.1282
  C  C233  1  0.841270  0.883300  0.997200  1.0  -0.1629
  C  C234  1  0.835800  0.907990  0.030500  1.0  -0.0684
  C  C235  1  0.807500  0.897900  0.059600  1.0  -0.0519
  C  C236  1  0.784700  0.863200  0.055400  1.0  -0.0046
  C  C237  1  0.790200  0.838500  0.022100  1.0  0.0795
  C  C238  1  0.873700  0.897800  0.968300  1.0  0.659
  C  C239  1  0.763400  0.807400  0.016300  1.0  0.0546
  C  C240  1  0.740100  0.780300  0.014200  1.0  0.0253
  C  C241  1  0.675600  0.746900  0.031100  1.0  -0.0621
  C  C242  1  0.649100  0.715600  0.023100  1.0  -0.0066
  C  C243  1  0.653600  0.692800  0.988300  1.0  -0.0717
  C  C244  1  0.684600  0.701300  0.961600  1.0  -0.1092
  C  C245  1  0.711100  0.732600  0.969600  1.0  -0.0608
  C  C246  1  0.706600  0.755400  0.004300  1.0  -0.011
  C  C247  1  0.799600  0.946700  0.122200  1.0  0.0286
  C  C248  1  0.803100  0.923900  0.095200  1.0  -0.0921
  C  C249  1  0.007010  0.318400  0.651400  1.0  -0.1254
  C  C250  1  0.002800  0.341270  0.616700  1.0  -0.1574
  C  C251  1  0.969500  0.335800  0.592010  1.0  -0.0708
  C  C252  1  0.940400  0.307500  0.602100  1.0  -0.0547
  C  C253  1  0.944600  0.284700  0.636800  1.0  -0.0044
  C  C254  1  0.977900  0.290200  0.661500  1.0  0.0814
  C  C255  1  0.031700  0.373700  0.602200  1.0  0.6586
  C  C256  1  0.983700  0.263400  0.692600  1.0  0.057
  C  C257  1  0.985800  0.240100  0.719700  1.0  0.0289
  C  C258  1  0.968900  0.175600  0.753100  1.0  -0.0658
  C  C259  1  0.976900  0.149100  0.784400  1.0  -0.0065
  C  C260  1  0.011700  0.153600  0.807200  1.0  -0.0736
  C  C261  1  0.038400  0.184600  0.798700  1.0  -0.1089
  C  C262  1  0.030400  0.211100  0.767400  1.0  -0.0619
  C  C263  1  0.995700  0.206600  0.744600  1.0  -0.0053
  C  C264  1  0.877800  0.299600  0.553300  1.0  0.0295
  C  C265  1  0.904800  0.303100  0.576100  1.0  -0.0925
  C  C266  1  0.507010  0.181600  0.348600  1.0  -0.1263
  C  C267  1  0.502800  0.158730  0.383300  1.0  -0.1598
  C  C268  1  0.469500  0.164200  0.407990  1.0  -0.0705
  C  C269  1  0.440400  0.192500  0.397900  1.0  -0.0543
  C  C270  1  0.444600  0.215300  0.363200  1.0  -0.0059
  C  C271  1  0.477900  0.209800  0.338500  1.0  0.0814
  C  C272  1  0.531700  0.126300  0.397800  1.0  0.6569
  C  C273  1  0.483700  0.236600  0.307400  1.0  0.0572
  C  C274  1  0.485800  0.259900  0.280300  1.0  0.0255
  C  C275  1  0.468900  0.324400  0.246900  1.0  -0.0664
  C  C276  1  0.476900  0.350900  0.215600  1.0  -0.0074
  C  C277  1  0.511700  0.346400  0.192800  1.0  -0.0695
  C  C278  1  0.538400  0.315400  0.201300  1.0  -0.1096
  C  C279  1  0.530400  0.288900  0.232600  1.0  -0.063
  C  C280  1  0.495700  0.293400  0.255400  1.0  -0.0081
  C  C281  1  0.377800  0.200400  0.446700  1.0  0.0304
  C  C282  1  0.404800  0.196900  0.423900  1.0  -0.0939
  C  C283  1  0.492990  0.681600  0.151400  1.0  -0.1276
  C  C284  1  0.497200  0.658730  0.116700  1.0  -0.1598
  C  C285  1  0.530500  0.664200  0.092010  1.0  -0.0717
  C  C286  1  0.559600  0.692500  0.102100  1.0  -0.0536
  C  C287  1  0.555400  0.715300  0.136800  1.0  -0.0051
  C  C288  1  0.522100  0.709800  0.161500  1.0  0.0832
  C  C289  1  0.468300  0.626300  0.102200  1.0  0.6582
  C  C290  1  0.516300  0.736600  0.192600  1.0  0.0562
  C  C291  1  0.514200  0.759900  0.219700  1.0  0.0321
  C  C292  1  0.531100  0.824400  0.253100  1.0  -0.0647
  C  C293  1  0.523100  0.850900  0.284400  1.0  -0.0093
  C  C294  1  0.488300  0.846400  0.307200  1.0  -0.0718
  C  C295  1  0.461600  0.815400  0.298700  1.0  -0.1073
  C  C296  1  0.469600  0.788900  0.267400  1.0  -0.0628
  C  C297  1  0.504300  0.793400  0.244600  1.0  -0.0083
  C  C298  1  0.622200  0.700400  0.053300  1.0  0.0291
  C  C299  1  0.595200  0.696900  0.076100  1.0  -0.0895
  C  C300  1  0.992990  0.818400  0.848600  1.0  -0.1277
  C  C301  1  0.997200  0.841270  0.883300  1.0  -0.1569
  C  C302  1  0.030500  0.835800  0.907990  1.0  -0.0721
  C  C303  1  0.059600  0.807500  0.897900  1.0  -0.0535
  C  C304  1  0.055400  0.784700  0.863200  1.0  -0.007
  C  C305  1  0.022100  0.790200  0.838500  1.0  0.0818
  C  C306  1  0.968300  0.873700  0.897800  1.0  0.659
  C  C307  1  0.016300  0.763400  0.807400  1.0  0.0566
  C  C308  1  0.014200  0.740100  0.780300  1.0  0.0293
  C  C309  1  0.031100  0.675600  0.746900  1.0  -0.0629
  C  C310  1  0.023100  0.649100  0.715600  1.0  -0.0101
  C  C311  1  0.988300  0.653600  0.692800  1.0  -0.0724
  C  C312  1  0.961600  0.684600  0.701300  1.0  -0.1087
  C  C313  1  0.969600  0.711100  0.732600  1.0  -0.0625
  C  C314  1  0.004300  0.706600  0.755400  1.0  -0.0067
  C  C315  1  0.122200  0.799600  0.946700  1.0  0.0295
  C  C316  1  0.095200  0.803100  0.923900  1.0  -0.0913
  C  C317  1  0.651400  0.007010  0.318400  1.0  -0.1262
  C  C318  1  0.616700  0.002800  0.341270  1.0  -0.1585
  C  C319  1  0.592010  0.969500  0.335800  1.0  -0.0714
  C  C320  1  0.602100  0.940400  0.307500  1.0  -0.0513
  C  C321  1  0.636800  0.944600  0.284700  1.0  -0.0061
  C  C322  1  0.661500  0.977900  0.290200  1.0  0.0786
  C  C323  1  0.602200  0.031700  0.373700  1.0  0.6569
  C  C324  1  0.692600  0.983700  0.263400  1.0  0.0572
  C  C325  1  0.719700  0.985800  0.240100  1.0  0.0279
  C  C326  1  0.753100  0.968900  0.175600  1.0  -0.0637
  C  C327  1  0.784400  0.976900  0.149100  1.0  -0.0092
  C  C328  1  0.807200  0.011700  0.153600  1.0  -0.0707
  C  C329  1  0.798700  0.038400  0.184600  1.0  -0.1103
  C  C330  1  0.767400  0.030400  0.211100  1.0  -0.0616
  C  C331  1  0.744600  0.995700  0.206600  1.0  -0.0107
  C  C332  1  0.553300  0.877800  0.299600  1.0  0.0321
  C  C333  1  0.576100  0.904800  0.303100  1.0  -0.0899
  C  C334  1  0.348600  0.507010  0.181600  1.0  -0.1285
  C  C335  1  0.383300  0.502800  0.158730  1.0  -0.1578
  C  C336  1  0.407990  0.469500  0.164200  1.0  -0.0734
  C  C337  1  0.397900  0.440400  0.192500  1.0  -0.0517
  C  C338  1  0.363200  0.444600  0.215300  1.0  -0.0057
  C  C339  1  0.338500  0.477900  0.209800  1.0  0.0754
  C  C340  1  0.397800  0.531700  0.126300  1.0  0.6554
  C  C341  1  0.307400  0.483700  0.236600  1.0  0.0557
  C  C342  1  0.280300  0.485800  0.259900  1.0  0.0238
  C  C343  1  0.246900  0.468900  0.324400  1.0  -0.0615
  C  C344  1  0.215600  0.476900  0.350900  1.0  -0.0097
  C  C345  1  0.192800  0.511700  0.346400  1.0  -0.0683
  C  C346  1  0.201300  0.538400  0.315400  1.0  -0.1111
  C  C347  1  0.232600  0.530400  0.288900  1.0  -0.0606
  C  C348  1  0.255400  0.495700  0.293400  1.0  -0.0078
  C  C349  1  0.446700  0.377800  0.200400  1.0  0.0313
  C  C350  1  0.423900  0.404800  0.196900  1.0  -0.094
  C  C351  1  0.151400  0.492990  0.681600  1.0  -0.1269
  C  C352  1  0.116700  0.497200  0.658730  1.0  -0.1595
  C  C353  1  0.092010  0.530500  0.664200  1.0  -0.0717
  C  C354  1  0.102100  0.559600  0.692500  1.0  -0.0508
  C  C355  1  0.136800  0.555400  0.715300  1.0  -0.0056
  C  C356  1  0.161500  0.522100  0.709800  1.0  0.0799
  C  C357  1  0.102200  0.468300  0.626300  1.0  0.6562
  C  C358  1  0.192600  0.516300  0.736600  1.0  0.0566
  C  C359  1  0.219700  0.514200  0.759900  1.0  0.0283
  C  C360  1  0.253100  0.531100  0.824400  1.0  -0.0633
  C  C361  1  0.284400  0.523100  0.850900  1.0  -0.0095
  C  C362  1  0.307200  0.488300  0.846400  1.0  -0.0664
  C  C363  1  0.298700  0.461600  0.815400  1.0  -0.1115
  C  C364  1  0.267400  0.469600  0.788900  1.0  -0.0608
  C  C365  1  0.244600  0.504300  0.793400  1.0  -0.0078
  C  C366  1  0.053300  0.622200  0.700400  1.0  0.0333
  C  C367  1  0.076100  0.595200  0.696900  1.0  -0.0923
  C  C368  1  0.848600  0.992990  0.818400  1.0  -0.1276
  C  C369  1  0.883300  0.997200  0.841270  1.0  -0.1576
  C  C370  1  0.907990  0.030500  0.835800  1.0  -0.0697
  C  C371  1  0.897900  0.059600  0.807500  1.0  -0.0516
  C  C372  1  0.863200  0.055400  0.784700  1.0  -0.0049
  C  C373  1  0.838500  0.022100  0.790200  1.0  0.077
  C  C374  1  0.897800  0.968300  0.873700  1.0  0.6556
  C  C375  1  0.807400  0.016300  0.763400  1.0  0.0562
  C  C376  1  0.780300  0.014200  0.740100  1.0  0.025
  C  C377  1  0.746900  0.031100  0.675600  1.0  -0.0618
  C  C378  1  0.715600  0.023100  0.649100  1.0  -0.0066
  C  C379  1  0.692800  0.988300  0.653600  1.0  -0.0696
  C  C380  1  0.701300  0.961600  0.684600  1.0  -0.1149
  C  C381  1  0.732600  0.969600  0.711100  1.0  -0.0611
  C  C382  1  0.755400  0.004300  0.706600  1.0  -0.0084
  C  C383  1  0.946700  0.122200  0.799600  1.0  0.0344
  C  C384  1  0.923900  0.095200  0.803100  1.0  -0.0944
  C  C385  1  0.401400  0.568400  0.242990  1.0  -0.1272
  C  C386  1  0.366700  0.591270  0.247200  1.0  -0.1562
  C  C387  1  0.342010  0.585800  0.280500  1.0  -0.0718
  C  C388  1  0.352100  0.557500  0.309600  1.0  -0.0497
  C  C389  1  0.386800  0.534700  0.305400  1.0  -0.0039
  C  C390  1  0.411500  0.540200  0.272100  1.0  0.0796
  C  C391  1  0.352200  0.623700  0.218300  1.0  0.6565
  C  C392  1  0.442600  0.513400  0.266300  1.0  0.0563
  C  C393  1  0.469700  0.490100  0.264200  1.0  0.026
  C  C394  1  0.503100  0.425600  0.281100  1.0  -0.0647
  C  C395  1  0.534400  0.399100  0.273100  1.0  -0.0074
  C  C396  1  0.557200  0.403600  0.238300  1.0  -0.0702
  C  C397  1  0.548700  0.434600  0.211600  1.0  -0.1086
  C  C398  1  0.517400  0.461100  0.219600  1.0  -0.0617
  C  C399  1  0.494600  0.456600  0.254300  1.0  -0.0071
  C  C400  1  0.303300  0.549600  0.372200  1.0  0.0314
  C  C401  1  0.326100  0.553100  0.345200  1.0  -0.0907
  C  C402  1  0.098600  0.431600  0.742990  1.0  -0.1281
  C  C403  1  0.133300  0.408730  0.747200  1.0  -0.1585
  C  C404  1  0.157990  0.414200  0.780500  1.0  -0.0728
  C  C405  1  0.147900  0.442500  0.809600  1.0  -0.0524
  C  C406  1  0.113200  0.465300  0.805400  1.0  -0.0034
  C  C407  1  0.088500  0.459800  0.772100  1.0  0.0756
  C  C408  1  0.147800  0.376300  0.718300  1.0  0.6551
  C  C409  1  0.057400  0.486600  0.766300  1.0  0.0548
  C  C410  1  0.030300  0.509900  0.764200  1.0  0.0238
  C  C411  1  0.996900  0.574400  0.781100  1.0  -0.0627
  C  C412  1  0.965600  0.600900  0.773100  1.0  -0.0073
  C  C413  1  0.942800  0.596400  0.738300  1.0  -0.0711
  C  C414  1  0.951300  0.565400  0.711600  1.0  -0.1111
  C  C415  1  0.982600  0.538900  0.719600  1.0  -0.0616
  C  C416  1  0.005400  0.543400  0.754300  1.0  -0.0075
  C  C417  1  0.196700  0.450400  0.872200  1.0  0.0306
  C  C418  1  0.173900  0.446900  0.845200  1.0  -0.0937
  C  C419  1  0.901400  0.931600  0.757010  1.0  -0.1269
  C  C420  1  0.866700  0.908730  0.752800  1.0  -0.1595
  C  C421  1  0.842010  0.914200  0.719500  1.0  -0.0727
  C  C422  1  0.852100  0.942500  0.690400  1.0  -0.0497
  C  C423  1  0.886800  0.965300  0.694600  1.0  -0.0037
  C  C424  1  0.911500  0.959800  0.727900  1.0  0.0773
  C  C425  1  0.852200  0.876300  0.781700  1.0  0.6569
  C  C426  1  0.942600  0.986600  0.733700  1.0  0.0574
  C  C427  1  0.969700  0.009900  0.735800  1.0  0.0305
  C  C428  1  0.003100  0.074400  0.718900  1.0  -0.0634
  C  C429  1  0.034400  0.100900  0.726900  1.0  -0.0077
  C  C430  1  0.057200  0.096400  0.761700  1.0  -0.0689
  C  C431  1  0.048700  0.065400  0.788400  1.0  -0.1108
  C  C432  1  0.017400  0.038900  0.780400  1.0  -0.0626
  C  C433  1  0.994600  0.043400  0.745700  1.0  -0.0104
  C  C434  1  0.803300  0.950400  0.627800  1.0  0.0315
  C  C435  1  0.826100  0.946900  0.654800  1.0  -0.0906
  C  C436  1  0.598600  0.068400  0.257010  1.0  -0.1266
  C  C437  1  0.633300  0.091270  0.252800  1.0  -0.1555
  C  C438  1  0.657990  0.085800  0.219500  1.0  -0.0735
  C  C439  1  0.647900  0.057500  0.190400  1.0  -0.0516
  C  C440  1  0.613200  0.034700  0.194600  1.0  -0.0021
  C  C441  1  0.588500  0.040200  0.227900  1.0  0.0735
  C  C442  1  0.647800  0.123700  0.281700  1.0  0.6572
  C  C443  1  0.557400  0.013400  0.233700  1.0  0.0563
  C  C444  1  0.530300  0.990100  0.235800  1.0  0.0294
  C  C445  1  0.496900  0.925600  0.218900  1.0  -0.0613
  C  C446  1  0.465600  0.899100  0.226900  1.0  -0.0079
  C  C447  1  0.442800  0.903600  0.261700  1.0  -0.0711
  C  C448  1  0.451300  0.934600  0.288400  1.0  -0.1119
  C  C449  1  0.482600  0.961100  0.280400  1.0  -0.0614
  C  C450  1  0.505400  0.956600  0.245700  1.0  -0.0049
  C  C451  1  0.696700  0.049600  0.127800  1.0  0.0323
  C  C452  1  0.673900  0.053100  0.154800  1.0  -0.0935
  C  C453  1  0.068400  0.257010  0.598600  1.0  -0.1267
  C  C454  1  0.091270  0.252800  0.633300  1.0  -0.1623
  C  C455  1  0.085800  0.219500  0.657990  1.0  -0.0711
  C  C456  1  0.057500  0.190400  0.647900  1.0  -0.0518
  C  C457  1  0.034700  0.194600  0.613200  1.0  -0.0054
  C  C458  1  0.040200  0.227900  0.588500  1.0  0.0806
  C  C459  1  0.123700  0.281700  0.647800  1.0  0.6586
  C  C460  1  0.013400  0.233700  0.557400  1.0  0.0562
  C  C461  1  0.990100  0.235800  0.530300  1.0  0.0304
  C  C462  1  0.925600  0.218900  0.496900  1.0  -0.0611
  C  C463  1  0.899100  0.226900  0.465600  1.0  -0.0087
  C  C464  1  0.903600  0.261700  0.442800  1.0  -0.0714
  C  C465  1  0.934600  0.288400  0.451300  1.0  -0.1046
  C  C466  1  0.961100  0.280400  0.482600  1.0  -0.0604
  C  C467  1  0.956600  0.245700  0.505400  1.0  -0.0105
  C  C468  1  0.049600  0.127800  0.696700  1.0  0.0322
  C  C469  1  0.053100  0.154800  0.673900  1.0  -0.0923
  C  C470  1  0.931600  0.757010  0.901400  1.0  -0.1248
  C  C471  1  0.908730  0.752800  0.866700  1.0  -0.161
  C  C472  1  0.914200  0.719500  0.842010  1.0  -0.0706
  C  C473  1  0.942500  0.690400  0.852100  1.0  -0.0533
  C  C474  1  0.965300  0.694600  0.886800  1.0  -0.0072
  C  C475  1  0.959800  0.727900  0.911500  1.0  0.0802
  C  C476  1  0.876300  0.781700  0.852200  1.0  0.6585
  C  C477  1  0.986600  0.733700  0.942600  1.0  0.0578
  C  C478  1  0.009900  0.735800  0.969700  1.0  0.0306
  C  C479  1  0.074400  0.718900  0.003100  1.0  -0.0612
  C  C480  1  0.100900  0.726900  0.034400  1.0  -0.007
  C  C481  1  0.096400  0.761700  0.057200  1.0  -0.0715
  C  C482  1  0.065400  0.788400  0.048700  1.0  -0.1046
  C  C483  1  0.038900  0.780400  0.017400  1.0  -0.0606
  C  C484  1  0.043400  0.745700  0.994600  1.0  -0.0104
  C  C485  1  0.950400  0.627800  0.803300  1.0  0.0298
  C  C486  1  0.946900  0.654800  0.826100  1.0  -0.0927
  C  C487  1  0.431600  0.742990  0.098600  1.0  -0.1239
  C  C488  1  0.408730  0.747200  0.133300  1.0  -0.1612
  C  C489  1  0.414200  0.780500  0.157990  1.0  -0.0708
  C  C490  1  0.442500  0.809600  0.147900  1.0  -0.0519
  C  C491  1  0.465300  0.805400  0.113200  1.0  -0.0059
  C  C492  1  0.459800  0.772100  0.088500  1.0  0.0803
  C  C493  1  0.376300  0.718300  0.147800  1.0  0.6574
  C  C494  1  0.486600  0.766300  0.057400  1.0  0.0578
  C  C495  1  0.509900  0.764200  0.030300  1.0  0.0249
  C  C496  1  0.574400  0.781100  0.996900  1.0  -0.0625
  C  C497  1  0.600900  0.773100  0.965600  1.0  -0.006
  C  C498  1  0.596400  0.738300  0.942800  1.0  -0.0699
  C  C499  1  0.565400  0.711600  0.951300  1.0  -0.1056
  C  C500  1  0.538900  0.719600  0.982600  1.0  -0.0605
  C  C501  1  0.543400  0.754300  0.005400  1.0  -0.0078
  C  C502  1  0.450400  0.872200  0.196700  1.0  0.0324
  C  C503  1  0.446900  0.845200  0.173900  1.0  -0.0953
  C  C504  1  0.568400  0.242990  0.401400  1.0  -0.1255
  C  C505  1  0.591270  0.247200  0.366700  1.0  -0.1621
  C  C506  1  0.585800  0.280500  0.342010  1.0  -0.0708
  C  C507  1  0.557500  0.309600  0.352100  1.0  -0.0518
  C  C508  1  0.534700  0.305400  0.386800  1.0  -0.0043
  C  C509  1  0.540200  0.272100  0.411500  1.0  0.082
  C  C510  1  0.623700  0.218300  0.352200  1.0  0.6569
  C  C511  1  0.513400  0.266300  0.442600  1.0  0.0552
  C  C512  1  0.490100  0.264200  0.469700  1.0  0.029
  C  C513  1  0.425600  0.281100  0.503100  1.0  -0.0625
  C  C514  1  0.399100  0.273100  0.534400  1.0  -0.0066
  C  C515  1  0.403600  0.238300  0.557200  1.0  -0.0729
  C  C516  1  0.434600  0.211600  0.548700  1.0  -0.1056
  C  C517  1  0.461100  0.219600  0.517400  1.0  -0.0596
  C  C518  1  0.456600  0.254300  0.494600  1.0  -0.0097
  C  C519  1  0.549600  0.372200  0.303300  1.0  0.0338
  C  C520  1  0.553100  0.345200  0.326100  1.0  -0.0927
  C  C521  1  0.757010  0.901400  0.931600  1.0  -0.128
  C  C522  1  0.752800  0.866700  0.908730  1.0  -0.1589
  C  C523  1  0.719500  0.842010  0.914200  1.0  -0.0673
  C  C524  1  0.690400  0.852100  0.942500  1.0  -0.0536
  C  C525  1  0.694600  0.886800  0.965300  1.0  -0.0045
  C  C526  1  0.727900  0.911500  0.959800  1.0  0.0816
  C  C527  1  0.781700  0.852200  0.876300  1.0  0.6588
  C  C528  1  0.733700  0.942600  0.986600  1.0  0.0567
  C  C529  1  0.735800  0.969700  0.009900  1.0  0.0322
  C  C530  1  0.718900  0.003100  0.074400  1.0  -0.064
  C  C531  1  0.726900  0.034400  0.100900  1.0  -0.0085
  C  C532  1  0.761700  0.057200  0.096400  1.0  -0.0667
  C  C533  1  0.788400  0.048700  0.065400  1.0  -0.1119
  C  C534  1  0.780400  0.017400  0.038900  1.0  -0.0638
  C  C535  1  0.745700  0.994600  0.043400  1.0  -0.0082
  C  C536  1  0.627800  0.803300  0.950400  1.0  0.0284
  C  C537  1  0.654800  0.826100  0.946900  1.0  -0.0936
  C  C538  1  0.257010  0.598600  0.068400  1.0  -0.1288
  C  C539  1  0.252800  0.633300  0.091270  1.0  -0.16
  C  C540  1  0.219500  0.657990  0.085800  1.0  -0.067
  C  C541  1  0.190400  0.647900  0.057500  1.0  -0.0535
  C  C542  1  0.194600  0.613200  0.034700  1.0  -0.0047
  C  C543  1  0.227900  0.588500  0.040200  1.0  0.0801
  C  C544  1  0.281700  0.647800  0.123700  1.0  0.6585
  C  C545  1  0.233700  0.557400  0.013400  1.0  0.0573
  C  C546  1  0.235800  0.530300  0.990100  1.0  0.031
  C  C547  1  0.218900  0.496900  0.925600  1.0  -0.0654
  C  C548  1  0.226900  0.465600  0.899100  1.0  -0.0094
  C  C549  1  0.261700  0.442800  0.903600  1.0  -0.0681
  C  C550  1  0.288400  0.451300  0.934600  1.0  -0.1121
  C  C551  1  0.280400  0.482600  0.961100  1.0  -0.0641
  C  C552  1  0.245700  0.505400  0.956600  1.0  -0.0102
  C  C553  1  0.127800  0.696700  0.049600  1.0  0.0288
  C  C554  1  0.154800  0.673900  0.053100  1.0  -0.0929
  C  C555  1  0.242990  0.401400  0.568400  1.0  -0.1294
  C  C556  1  0.247200  0.366700  0.591270  1.0  -0.1587
  C  C557  1  0.280500  0.342010  0.585800  1.0  -0.0663
  C  C558  1  0.309600  0.352100  0.557500  1.0  -0.0533
  C  C559  1  0.305400  0.386800  0.534700  1.0  -0.006
  C  C560  1  0.272100  0.411500  0.540200  1.0  0.0832
  C  C561  1  0.218300  0.352200  0.623700  1.0  0.6605
  C  C562  1  0.266300  0.442600  0.513400  1.0  0.0566
  C  C563  1  0.264200  0.469700  0.490100  1.0  0.0331
  C  C564  1  0.281100  0.503100  0.425600  1.0  -0.063
  C  C565  1  0.273100  0.534400  0.399100  1.0  -0.0119
  C  C566  1  0.238300  0.557200  0.403600  1.0  -0.0684
  C  C567  1  0.211600  0.548700  0.434600  1.0  -0.1108
  C  C568  1  0.219600  0.517400  0.461100  1.0  -0.0641
  C  C569  1  0.254300  0.494600  0.456600  1.0  -0.0102
  C  C570  1  0.372200  0.303300  0.549600  1.0  0.0299
  C  C571  1  0.345200  0.326100  0.553100  1.0  -0.089
  C  C572  1  0.742990  0.098600  0.431600  1.0  -0.1296
  C  C573  1  0.747200  0.133300  0.408730  1.0  -0.1598
  C  C574  1  0.780500  0.157990  0.414200  1.0  -0.0692
  C  C575  1  0.809600  0.147900  0.442500  1.0  -0.0526
  C  C576  1  0.805400  0.113200  0.465300  1.0  -0.0066
  C  C577  1  0.772100  0.088500  0.459800  1.0  0.081
  C  C578  1  0.718300  0.147800  0.376300  1.0  0.6591
  C  C579  1  0.766300  0.057400  0.486600  1.0  0.0558
  C  C580  1  0.764200  0.030300  0.509900  1.0  0.0282
  C  C581  1  0.781100  0.996900  0.574400  1.0  -0.0625
  C  C582  1  0.773100  0.965600  0.600900  1.0  -0.0125
  C  C583  1  0.738300  0.942800  0.596400  1.0  -0.0694
  C  C584  1  0.711600  0.951300  0.565400  1.0  -0.1111
  C  C585  1  0.719600  0.982600  0.538900  1.0  -0.0632
  C  C586  1  0.754300  0.005400  0.543400  1.0  -0.0096
  C  C587  1  0.872200  0.196700  0.450400  1.0  0.0278
  C  C588  1  0.845200  0.173900  0.446900  1.0  -0.0909
  O  O589  1  0.373640  0.626490  0.060790  1.0  -0.655
  O  O590  1  0.394400  0.574400  0.026300  1.0  -0.5583
  O  O591  1  0.126360  0.373510  0.560790  1.0  -0.6553
  O  O592  1  0.105600  0.425600  0.526300  1.0  -0.5589
  O  O593  1  0.626360  0.126490  0.439210  1.0  -0.6543
  O  O594  1  0.605600  0.074400  0.473700  1.0  -0.559
  O  O595  1  0.873640  0.873510  0.939210  1.0  -0.6544
  O  O596  1  0.894400  0.925600  0.973700  1.0  -0.5572
  O  O597  1  0.060790  0.373640  0.626490  1.0  -0.6536
  O  O598  1  0.026300  0.394400  0.574400  1.0  -0.5642
  O  O599  1  0.560790  0.126360  0.373510  1.0  -0.6524
  O  O600  1  0.526300  0.105600  0.425600  1.0  -0.5635
  O  O601  1  0.439210  0.626360  0.126490  1.0  -0.6537
  O  O602  1  0.473700  0.605600  0.074400  1.0  -0.5624
  O  O603  1  0.939210  0.873640  0.873510  1.0  -0.6527
  O  O604  1  0.973700  0.894400  0.925600  1.0  -0.5599
  O  O605  1  0.626490  0.060790  0.373640  1.0  -0.6519
  O  O606  1  0.574400  0.026300  0.394400  1.0  -0.559
  O  O607  1  0.373510  0.560790  0.126360  1.0  -0.6514
  O  O608  1  0.425600  0.526300  0.105600  1.0  -0.559
  O  O609  1  0.126490  0.439210  0.626360  1.0  -0.6515
  O  O610  1  0.074400  0.473700  0.605600  1.0  -0.5597
  O  O611  1  0.873510  0.939210  0.873640  1.0  -0.6524
  O  O612  1  0.925600  0.973700  0.894400  1.0  -0.5575
  O  O613  1  0.376490  0.623640  0.189210  1.0  -0.6539
  O  O614  1  0.324400  0.644400  0.223700  1.0  -0.5576
  O  O615  1  0.123510  0.376360  0.689210  1.0  -0.6534
  O  O616  1  0.175600  0.355600  0.723700  1.0  -0.5599
  O  O617  1  0.876490  0.876360  0.810790  1.0  -0.654
  O  O618  1  0.824400  0.855600  0.776300  1.0  -0.5578
  O  O619  1  0.623510  0.123640  0.310790  1.0  -0.6546
  O  O620  1  0.675600  0.144400  0.276300  1.0  -0.5572
  O  O621  1  0.123640  0.310790  0.623510  1.0  -0.6526
  O  O622  1  0.144400  0.276300  0.675600  1.0  -0.5609
  O  O623  1  0.876360  0.810790  0.876490  1.0  -0.6537
  O  O624  1  0.855600  0.776300  0.824400  1.0  -0.5623
  O  O625  1  0.376360  0.689210  0.123510  1.0  -0.653
  O  O626  1  0.355600  0.723700  0.175600  1.0  -0.5596
  O  O627  1  0.623640  0.189210  0.376490  1.0  -0.6544
  O  O628  1  0.644400  0.223700  0.324400  1.0  -0.5608
  O  O629  1  0.810790  0.876490  0.876360  1.0  -0.6522
  O  O630  1  0.776300  0.824400  0.855600  1.0  -0.5606
  O  O631  1  0.310790  0.623510  0.123640  1.0  -0.6525
  O  O632  1  0.276300  0.675600  0.144400  1.0  -0.5602
  O  O633  1  0.189210  0.376490  0.623640  1.0  -0.6532
  O  O634  1  0.223700  0.324400  0.644400  1.0  -0.5619
  O  O635  1  0.689210  0.123510  0.376360  1.0  -0.6527
  O  O636  1  0.723700  0.175600  0.355600  1.0  -0.5609
