# generated using pymatgen
data_MnH6C12S2(NO2)2
_symmetry_space_group_name_H-M   'P 1'
_cell_length_a   22.73900000
_cell_length_b   16.03800000
_cell_length_c   9.70460000
_cell_angle_alpha   90.00000000
_cell_angle_beta   94.00000000
_cell_angle_gamma   90.00000000
_symmetry_Int_Tables_number   1
_chemical_formula_structural   MnH6C12S2(NO2)2
_chemical_formula_sum   'Mn8 H48 C96 S16 N16 O32'
_cell_volume   3530.53076428
_cell_formula_units_Z   8
loop_
 _symmetry_equiv_pos_site_id
 _symmetry_equiv_pos_as_xyz
  1  'x, y, z'
loop_
 _atom_site_type_symbol
 _atom_site_label
 _atom_site_symmetry_multiplicity
 _atom_site_fract_x
 _atom_site_fract_y
 _atom_site_fract_z
 _atom_site_occupancy
 _atom_site_charge
  Mn  Mn1  1  0.000000  0.000000  0.000000  1.0  1.1532
  Mn  Mn2  1  0.500000  0.500000  0.000000  1.0  1.1532
  Mn  Mn3  1  0.000000  0.000000  0.500000  1.0  1.1532
  Mn  Mn4  1  0.500000  0.500000  0.500000  1.0  1.1532
  Mn  Mn5  1  0.000000  0.169220  0.250000  1.0  1.1404
  Mn  Mn6  1  0.500000  0.669220  0.250000  1.0  1.1404
  Mn  Mn7  1  0.000000  0.830780  0.750000  1.0  1.1457
  Mn  Mn8  1  0.500000  0.330780  0.750000  1.0  1.1457
  H  H9  1  0.942300  0.173100  0.680600  1.0  0.0864
  H  H10  1  0.848300  0.412800  0.812600  1.0  0.1091
  H  H11  1  0.882900  0.316800  0.981800  1.0  0.1078
  H  H12  1  0.647900  0.390200  0.583500  1.0  0.0918
  H  H13  1  0.665900  0.597300  0.815600  1.0  0.0951
  H  H14  1  0.761800  0.612900  0.748500  1.0  0.123
  H  H15  1  0.442300  0.673100  0.680600  1.0  0.0864
  H  H16  1  0.348300  0.912800  0.812600  1.0  0.1091
  H  H17  1  0.382900  0.816800  0.981800  1.0  0.1078
  H  H18  1  0.147900  0.890200  0.583500  1.0  0.0918
  H  H19  1  0.165900  0.097300  0.815600  1.0  0.0951
  H  H20  1  0.261800  0.112900  0.748500  1.0  0.123
  H  H21  1  0.057700  0.173100  0.819400  1.0  0.0862
  H  H22  1  0.151700  0.412800  0.687400  1.0  0.1092
  H  H23  1  0.117100  0.316800  0.518200  1.0  0.1082
  H  H24  1  0.352100  0.390200  0.916500  1.0  0.092
  H  H25  1  0.334100  0.597300  0.684400  1.0  0.0952
  H  H26  1  0.238200  0.612900  0.751500  1.0  0.1232
  H  H27  1  0.557700  0.673100  0.819400  1.0  0.0862
  H  H28  1  0.651700  0.912800  0.687400  1.0  0.1092
  H  H29  1  0.617100  0.816800  0.518200  1.0  0.1082
  H  H30  1  0.852100  0.890200  0.916500  1.0  0.092
  H  H31  1  0.834100  0.097300  0.684400  1.0  0.0952
  H  H32  1  0.738200  0.112900  0.751500  1.0  0.1232
  H  H33  1  0.057700  0.826900  0.319400  1.0  0.0861
  H  H34  1  0.151700  0.587200  0.187400  1.0  0.1092
  H  H35  1  0.117100  0.683200  0.018200  1.0  0.1084
  H  H36  1  0.352100  0.609800  0.416500  1.0  0.0917
  H  H37  1  0.334100  0.402700  0.184400  1.0  0.0949
  H  H38  1  0.238200  0.387100  0.251500  1.0  0.1224
  H  H39  1  0.557700  0.326900  0.319400  1.0  0.0861
  H  H40  1  0.651700  0.087200  0.187400  1.0  0.1092
  H  H41  1  0.617100  0.183200  0.018200  1.0  0.1084
  H  H42  1  0.852100  0.109800  0.416500  1.0  0.0917
  H  H43  1  0.834100  0.902700  0.184400  1.0  0.0949
  H  H44  1  0.738200  0.887100  0.251500  1.0  0.1224
  H  H45  1  0.942300  0.826900  0.180600  1.0  0.086
  H  H46  1  0.848300  0.587200  0.312600  1.0  0.1092
  H  H47  1  0.882900  0.683200  0.481800  1.0  0.1081
  H  H48  1  0.647900  0.609800  0.083500  1.0  0.0917
  H  H49  1  0.665900  0.402700  0.315600  1.0  0.0954
  H  H50  1  0.761800  0.387100  0.248500  1.0  0.1223
  H  H51  1  0.442300  0.326900  0.180600  1.0  0.086
  H  H52  1  0.348300  0.087200  0.312600  1.0  0.1092
  H  H53  1  0.382900  0.183200  0.481800  1.0  0.1081
  H  H54  1  0.147900  0.109800  0.083500  1.0  0.0917
  H  H55  1  0.165900  0.902700  0.315600  1.0  0.0954
  H  H56  1  0.261800  0.887100  0.248500  1.0  0.1223
  C  C57  1  0.942710  0.174280  0.953200  1.0  0.706
  C  C58  1  0.917420  0.235480  0.848200  1.0  -0.1684
  C  C59  1  0.924040  0.223120  0.708400  1.0  0.1774
  C  C60  1  0.879360  0.347450  0.651900  1.0  0.1658
  C  C61  1  0.868740  0.363900  0.788200  1.0  -0.1161
  C  C62  1  0.888780  0.307000  0.887200  1.0  -0.003
  C  C63  1  0.759790  0.506320  0.636600  1.0  0.1866
  C  C64  1  0.671610  0.434600  0.620700  1.0  0.1659
  C  C65  1  0.647280  0.491240  0.707800  1.0  -0.1671
  C  C66  1  0.681700  0.557480  0.755900  1.0  0.0008
  C  C67  1  0.738330  0.566420  0.718500  1.0  -0.1172
  C  C68  1  0.586340  0.477080  0.753400  1.0  0.6706
  C  C69  1  0.442710  0.674280  0.953200  1.0  0.706
  C  C70  1  0.417420  0.735480  0.848200  1.0  -0.1684
  C  C71  1  0.424040  0.723120  0.708400  1.0  0.1774
  C  C72  1  0.379360  0.847450  0.651900  1.0  0.1658
  C  C73  1  0.368740  0.863900  0.788200  1.0  -0.1161
  C  C74  1  0.388780  0.807000  0.887200  1.0  -0.003
  C  C75  1  0.259790  0.006320  0.636600  1.0  0.1866
  C  C76  1  0.171610  0.934600  0.620700  1.0  0.1659
  C  C77  1  0.147280  0.991240  0.707800  1.0  -0.1671
  C  C78  1  0.181700  0.057480  0.755900  1.0  0.0008
  C  C79  1  0.238330  0.066420  0.718500  1.0  -0.1172
  C  C80  1  0.086340  0.977080  0.753400  1.0  0.6706
  C  C81  1  0.057290  0.174280  0.546800  1.0  0.7074
  C  C82  1  0.082580  0.235480  0.651800  1.0  -0.1697
  C  C83  1  0.075960  0.223120  0.791600  1.0  0.1758
  C  C84  1  0.120640  0.347450  0.848100  1.0  0.1654
  C  C85  1  0.131260  0.363900  0.711800  1.0  -0.1157
  C  C86  1  0.111220  0.307000  0.612800  1.0  -0.0017
  C  C87  1  0.240210  0.506320  0.863400  1.0  0.1883
  C  C88  1  0.328390  0.434600  0.879300  1.0  0.1646
  C  C89  1  0.352720  0.491240  0.792200  1.0  -0.1656
  C  C90  1  0.318300  0.557480  0.744100  1.0  0.0009
  C  C91  1  0.261670  0.566420  0.781500  1.0  -0.1167
  C  C92  1  0.413660  0.477080  0.746600  1.0  0.6706
  C  C93  1  0.557290  0.674280  0.546800  1.0  0.7074
  C  C94  1  0.582580  0.735480  0.651800  1.0  -0.1697
  C  C95  1  0.575960  0.723120  0.791600  1.0  0.1758
  C  C96  1  0.620640  0.847450  0.848100  1.0  0.1654
  C  C97  1  0.631260  0.863900  0.711800  1.0  -0.1157
  C  C98  1  0.611220  0.807000  0.612800  1.0  -0.0017
  C  C99  1  0.740210  0.006320  0.863400  1.0  0.1883
  C  C100  1  0.828390  0.934600  0.879300  1.0  0.1646
  C  C101  1  0.852720  0.991240  0.792200  1.0  -0.1656
  C  C102  1  0.818300  0.057480  0.744100  1.0  0.0009
  C  C103  1  0.761670  0.066420  0.781500  1.0  -0.1167
  C  C104  1  0.913660  0.977080  0.746600  1.0  0.6706
  C  C105  1  0.057290  0.825720  0.046800  1.0  0.706
  C  C106  1  0.082580  0.764520  0.151800  1.0  -0.169
  C  C107  1  0.075960  0.776880  0.291600  1.0  0.1773
  C  C108  1  0.120640  0.652550  0.348100  1.0  0.1659
  C  C109  1  0.131260  0.636100  0.211800  1.0  -0.1149
  C  C110  1  0.111220  0.693000  0.112800  1.0  -0.0022
  C  C111  1  0.240210  0.493680  0.363400  1.0  0.188
  C  C112  1  0.328390  0.565400  0.379300  1.0  0.1648
  C  C113  1  0.352720  0.508760  0.292200  1.0  -0.1654
  C  C114  1  0.318300  0.442520  0.244100  1.0  0.0004
  C  C115  1  0.261670  0.433580  0.281500  1.0  -0.1164
  C  C116  1  0.413660  0.522920  0.246600  1.0  0.6716
  C  C117  1  0.557290  0.325720  0.046800  1.0  0.706
  C  C118  1  0.582580  0.264520  0.151800  1.0  -0.169
  C  C119  1  0.575960  0.276880  0.291600  1.0  0.1773
  C  C120  1  0.620640  0.152550  0.348100  1.0  0.1659
  C  C121  1  0.631260  0.136100  0.211800  1.0  -0.1149
  C  C122  1  0.611220  0.193000  0.112800  1.0  -0.0022
  C  C123  1  0.740210  0.993680  0.363400  1.0  0.188
  C  C124  1  0.828390  0.065400  0.379300  1.0  0.1648
  C  C125  1  0.852720  0.008760  0.292200  1.0  -0.1654
  C  C126  1  0.818300  0.942520  0.244100  1.0  0.0004
  C  C127  1  0.761670  0.933580  0.281500  1.0  -0.1164
  C  C128  1  0.913660  0.022920  0.246600  1.0  0.6716
  C  C129  1  0.942710  0.825720  0.453200  1.0  0.7063
  C  C130  1  0.917420  0.764520  0.348200  1.0  -0.1679
  C  C131  1  0.924040  0.776880  0.208400  1.0  0.1776
  C  C132  1  0.879360  0.652550  0.151900  1.0  0.1653
  C  C133  1  0.868740  0.636100  0.288200  1.0  -0.1152
  C  C134  1  0.888780  0.693000  0.387200  1.0  -0.0024
  C  C135  1  0.759790  0.493680  0.136600  1.0  0.186
  C  C136  1  0.671610  0.565400  0.120700  1.0  0.1654
  C  C137  1  0.647280  0.508760  0.207800  1.0  -0.1662
  C  C138  1  0.681700  0.442520  0.255900  1.0  0.0005
  C  C139  1  0.738330  0.433580  0.218500  1.0  -0.1164
  C  C140  1  0.586340  0.522920  0.253400  1.0  0.6708
  C  C141  1  0.442710  0.325720  0.453200  1.0  0.7063
  C  C142  1  0.417420  0.264520  0.348200  1.0  -0.1679
  C  C143  1  0.424040  0.276880  0.208400  1.0  0.1776
  C  C144  1  0.379360  0.152550  0.151900  1.0  0.1653
  C  C145  1  0.368740  0.136100  0.288200  1.0  -0.1152
  C  C146  1  0.388780  0.193000  0.387200  1.0  -0.0024
  C  C147  1  0.259790  0.993680  0.136600  1.0  0.186
  C  C148  1  0.171610  0.065400  0.120700  1.0  0.1654
  C  C149  1  0.147280  0.008760  0.207800  1.0  -0.1662
  C  C150  1  0.181700  0.942520  0.255900  1.0  0.0005
  C  C151  1  0.238330  0.933580  0.218500  1.0  -0.1164
  C  C152  1  0.086340  0.022920  0.253400  1.0  0.6708
  S  S153  1  0.858870  0.414360  0.510290  1.0  -0.0387
  S  S154  1  0.835040  0.521860  0.600110  1.0  -0.0056
  S  S155  1  0.358870  0.914360  0.510290  1.0  -0.0387
  S  S156  1  0.335040  0.021860  0.600110  1.0  -0.0056
  S  S157  1  0.141130  0.414360  0.989710  1.0  -0.0378
  S  S158  1  0.164960  0.521860  0.899890  1.0  -0.003
  S  S159  1  0.641130  0.914360  0.989710  1.0  -0.0378
  S  S160  1  0.664960  0.021860  0.899890  1.0  -0.003
  S  S161  1  0.141130  0.585640  0.489710  1.0  -0.0378
  S  S162  1  0.164960  0.478140  0.399890  1.0  -0.0025
  S  S163  1  0.641130  0.085640  0.489710  1.0  -0.0378
  S  S164  1  0.664960  0.978140  0.399890  1.0  -0.0025
  S  S165  1  0.858870  0.585640  0.010290  1.0  -0.0388
  S  S166  1  0.835040  0.478140  0.100110  1.0  -0.0048
  S  S167  1  0.358870  0.085640  0.010290  1.0  -0.0388
  S  S168  1  0.335040  0.978140  0.100110  1.0  -0.0048
  N  N169  1  0.906030  0.278150  0.611400  1.0  -0.2924
  N  N170  1  0.728500  0.440480  0.586500  1.0  -0.3999
  N  N171  1  0.406030  0.778150  0.611400  1.0  -0.2924
  N  N172  1  0.228500  0.940480  0.586500  1.0  -0.3999
  N  N173  1  0.093970  0.278150  0.888600  1.0  -0.2889
  N  N174  1  0.271500  0.440480  0.913500  1.0  -0.4
  N  N175  1  0.593970  0.778150  0.888600  1.0  -0.2889
  N  N176  1  0.771500  0.940480  0.913500  1.0  -0.4
  N  N177  1  0.093970  0.721850  0.388600  1.0  -0.2898
  N  N178  1  0.271500  0.559520  0.413500  1.0  -0.4034
  N  N179  1  0.593970  0.221850  0.388600  1.0  -0.2898
  N  N180  1  0.771500  0.059520  0.413500  1.0  -0.4034
  N  N181  1  0.906030  0.721850  0.111400  1.0  -0.2924
  N  N182  1  0.728500  0.559520  0.086500  1.0  -0.4042
  N  N183  1  0.406030  0.221850  0.111400  1.0  -0.2924
  N  N184  1  0.228500  0.059520  0.086500  1.0  -0.4042
  O  O185  1  0.967200  0.111140  0.907800  1.0  -0.5941
  O  O186  1  0.939140  0.192440  0.078000  1.0  -0.6506
  O  O187  1  0.552140  0.433100  0.671170  1.0  -0.6704
  O  O188  1  0.574220  0.506410  0.866840  1.0  -0.6128
  O  O189  1  0.467200  0.611140  0.907800  1.0  -0.5941
  O  O190  1  0.439140  0.692440  0.078000  1.0  -0.6506
  O  O191  1  0.052140  0.933100  0.671170  1.0  -0.6704
  O  O192  1  0.074220  0.006410  0.866840  1.0  -0.6128
  O  O193  1  0.032800  0.111140  0.592200  1.0  -0.594
  O  O194  1  0.060860  0.192440  0.422000  1.0  -0.6548
  O  O195  1  0.447860  0.433100  0.828830  1.0  -0.6697
  O  O196  1  0.425780  0.506410  0.633160  1.0  -0.6131
  O  O197  1  0.532800  0.611140  0.592200  1.0  -0.594
  O  O198  1  0.560860  0.692440  0.422000  1.0  -0.6548
  O  O199  1  0.947860  0.933100  0.828830  1.0  -0.6697
  O  O200  1  0.925780  0.006410  0.633160  1.0  -0.6131
  O  O201  1  0.032800  0.888860  0.092200  1.0  -0.5943
  O  O202  1  0.060860  0.807560  0.922000  1.0  -0.6531
  O  O203  1  0.447860  0.566900  0.328830  1.0  -0.6692
  O  O204  1  0.425780  0.493590  0.133160  1.0  -0.6127
  O  O205  1  0.532800  0.388860  0.092200  1.0  -0.5943
  O  O206  1  0.560860  0.307560  0.922000  1.0  -0.6531
  O  O207  1  0.947860  0.066900  0.328830  1.0  -0.6692
  O  O208  1  0.925780  0.993590  0.133160  1.0  -0.6127
  O  O209  1  0.967200  0.888860  0.407800  1.0  -0.5933
  O  O210  1  0.939140  0.807560  0.578000  1.0  -0.6563
  O  O211  1  0.552140  0.566900  0.171170  1.0  -0.6688
  O  O212  1  0.574220  0.493590  0.366840  1.0  -0.6124
  O  O213  1  0.467200  0.388860  0.407800  1.0  -0.5933
  O  O214  1  0.439140  0.307560  0.578000  1.0  -0.6563
  O  O215  1  0.052140  0.066900  0.171170  1.0  -0.6688
  O  O216  1  0.074220  0.993590  0.366840  1.0  -0.6124
