# generated using pymatgen
data_TbAgH8C14(NO4)2
_symmetry_space_group_name_H-M   'P 1'
_cell_length_a   9.09900000
_cell_length_b   9.67320000
_cell_length_c   22.29900000
_cell_angle_alpha   90.00000000
_cell_angle_beta   90.00000000
_cell_angle_gamma   117.87400000
_symmetry_Int_Tables_number   1
_chemical_formula_structural   TbAgH8C14(NO4)2
_chemical_formula_sum   'Tb4 Ag4 H32 C56 N8 O32'
_cell_volume   1734.96459591
_cell_formula_units_Z   4
loop_
 _symmetry_equiv_pos_site_id
 _symmetry_equiv_pos_as_xyz
  1  'x, y, z'
loop_
 _atom_site_type_symbol
 _atom_site_label
 _atom_site_symmetry_multiplicity
 _atom_site_fract_x
 _atom_site_fract_y
 _atom_site_fract_z
 _atom_site_occupancy
 _atom_site_charge
  Tb  Tb1  1  0.355880  0.117510  0.008530  1.0  2.2398
  Tb  Tb2  1  0.644120  0.382490  0.508530  1.0  2.2391
  Tb  Tb3  1  0.644120  0.882490  0.991470  1.0  2.2407
  Tb  Tb4  1  0.355880  0.617510  0.491470  1.0  2.2415
  Ag  Ag5  1  0.320530  0.980930  0.351570  1.0  0.3804
  Ag  Ag6  1  0.679470  0.519070  0.851570  1.0  0.3816
  Ag  Ag7  1  0.679470  0.019070  0.648430  1.0  0.3806
  Ag  Ag8  1  0.320530  0.480930  0.148430  1.0  0.3795
  H  H9  1  0.598800  0.895300  0.332000  1.0  0.0894
  H  H10  1  0.749700  0.868400  0.256800  1.0  0.1104
  H  H11  1  0.694000  0.899100  0.158500  1.0  0.1045
  H  H12  1  0.359100  0.012300  0.217600  1.0  0.0624
  H  H13  1  0.816600  0.285600  0.837400  1.0  0.0675
  H  H14  1  0.032700  0.248300  0.867500  1.0  0.1127
  H  H15  1  0.229100  0.444400  0.927900  1.0  0.0785
  H  H16  1  0.966700  0.677500  0.932800  1.0  0.0908
  H  H17  1  0.401200  0.604700  0.832000  1.0  0.0893
  H  H18  1  0.250300  0.631600  0.756800  1.0  0.1056
  H  H19  1  0.306000  0.600900  0.658500  1.0  0.1039
  H  H20  1  0.640900  0.487700  0.717600  1.0  0.0621
  H  H21  1  0.183400  0.214400  0.337400  1.0  0.0672
  H  H22  1  0.967300  0.251700  0.367500  1.0  0.1124
  H  H23  1  0.770900  0.055600  0.427900  1.0  0.0781
  H  H24  1  0.033300  0.822500  0.432800  1.0  0.091
  H  H25  1  0.401200  0.104700  0.668000  1.0  0.0893
  H  H26  1  0.250300  0.131600  0.743200  1.0  0.106
  H  H27  1  0.306000  0.100900  0.841500  1.0  0.1038
  H  H28  1  0.640900  0.987700  0.782400  1.0  0.0621
  H  H29  1  0.183400  0.714400  0.162600  1.0  0.067
  H  H30  1  0.967300  0.751700  0.132500  1.0  0.1125
  H  H31  1  0.770900  0.555600  0.072100  1.0  0.0784
  H  H32  1  0.033300  0.322500  0.067200  1.0  0.091
  H  H33  1  0.598800  0.395300  0.168000  1.0  0.0891
  H  H34  1  0.749700  0.368400  0.243200  1.0  0.1107
  H  H35  1  0.694000  0.399100  0.341500  1.0  0.1043
  H  H36  1  0.359100  0.512300  0.282400  1.0  0.0623
  H  H37  1  0.816600  0.785600  0.662600  1.0  0.0678
  H  H38  1  0.032700  0.748300  0.632500  1.0  0.113
  H  H39  1  0.229100  0.944400  0.572100  1.0  0.0786
  H  H40  1  0.966700  0.177500  0.567200  1.0  0.091
  C  C41  1  0.578100  0.913200  0.292700  1.0  0.1746
  C  C42  1  0.666667  0.895400  0.247900  1.0  -0.1357
  C  C43  1  0.636000  0.916600  0.189400  1.0  -0.1151
  C  C44  1  0.521300  0.963000  0.177200  1.0  -0.1155
  C  C45  1  0.439200  0.980300  0.225100  1.0  0.1319
  C  C46  1  0.481700  0.992200  0.114800  1.0  0.7119
  C  C47  1  0.896100  0.357900  0.863000  1.0  0.1717
  C  C48  1  0.021400  0.335000  0.879300  1.0  -0.1304
  C  C49  1  0.135400  0.452000  0.915800  1.0  -0.0662
  C  C50  1  0.117300  0.584800  0.935800  1.0  -0.1203
  C  C51  1  0.985200  0.596000  0.919300  1.0  0.1594
  C  C52  1  0.243100  0.719700  0.973200  1.0  0.6876
  C  C53  1  0.480100  0.503300  0.033200  1.0  0.526
  C  C54  1  0.991800  0.992200  0.034600  1.0  0.6872
  C  C55  1  0.421900  0.586800  0.792700  1.0  0.1732
  C  C56  1  0.333400  0.604600  0.747900  1.0  -0.1373
  C  C57  1  0.364000  0.583400  0.689400  1.0  -0.1151
  C  C58  1  0.478700  0.537000  0.677200  1.0  -0.1157
  C  C59  1  0.560800  0.519700  0.725100  1.0  0.1302
  C  C60  1  0.518300  0.507800  0.614800  1.0  0.7122
  C  C61  1  0.103900  0.142100  0.363000  1.0  0.1731
  C  C62  1  0.978600  0.165000  0.379300  1.0  -0.1312
  C  C63  1  0.864600  0.048000  0.415800  1.0  -0.0645
  C  C64  1  0.882700  0.915200  0.435800  1.0  -0.1209
  C  C65  1  0.014800  0.904000  0.419300  1.0  0.1597
  C  C66  1  0.756900  0.780300  0.473200  1.0  0.6882
  C  C67  1  0.519900  0.996700  0.533200  1.0  0.5267
  C  C68  1  0.008200  0.507800  0.534600  1.0  0.6868
  C  C69  1  0.421900  0.086800  0.707300  1.0  0.1715
  C  C70  1  0.333400  0.104600  0.752100  1.0  -0.1368
  C  C71  1  0.364000  0.083400  0.810600  1.0  -0.1144
  C  C72  1  0.478700  0.037000  0.822800  1.0  -0.1137
  C  C73  1  0.560800  0.019700  0.774900  1.0  0.1292
  C  C74  1  0.518300  0.007800  0.885200  1.0  0.7135
  C  C75  1  0.103900  0.642100  0.137000  1.0  0.1736
  C  C76  1  0.978600  0.665000  0.120700  1.0  -0.1316
  C  C77  1  0.864600  0.548000  0.084200  1.0  -0.0635
  C  C78  1  0.882700  0.415200  0.064200  1.0  -0.1204
  C  C79  1  0.014800  0.404000  0.080700  1.0  0.1602
  C  C80  1  0.756900  0.280300  0.026800  1.0  0.6866
  C  C81  1  0.519900  0.496700  0.966800  1.0  0.527
  C  C82  1  0.008200  0.007800  0.965400  1.0  0.6854
  C  C83  1  0.578100  0.413200  0.207300  1.0  0.1722
  C  C84  1  0.666667  0.395400  0.252100  1.0  -0.1358
  C  C85  1  0.636000  0.416600  0.310600  1.0  -0.1146
  C  C86  1  0.521300  0.463000  0.322800  1.0  -0.1137
  C  C87  1  0.439200  0.480300  0.274900  1.0  0.1306
  C  C88  1  0.481700  0.492200  0.385200  1.0  0.7123
  C  C89  1  0.896100  0.857900  0.637000  1.0  0.1714
  C  C90  1  0.021400  0.835000  0.620700  1.0  -0.1301
  C  C91  1  0.135400  0.952000  0.584200  1.0  -0.0653
  C  C92  1  0.117300  0.084800  0.564200  1.0  -0.1201
  C  C93  1  0.985200  0.096000  0.580700  1.0  0.1593
  C  C94  1  0.243100  0.219700  0.526800  1.0  0.6863
  C  C95  1  0.480100  0.003300  0.466800  1.0  0.5265
  C  C96  1  0.991800  0.492200  0.465400  1.0  0.6857
  N  N97  1  0.464700  0.954800  0.282100  1.0  -0.3239
  N  N98  1  0.876500  0.485000  0.882100  1.0  -0.3513
  N  N99  1  0.535300  0.545200  0.782100  1.0  -0.3235
  N  N100  1  0.123500  0.015000  0.382100  1.0  -0.3535
  N  N101  1  0.535300  0.045200  0.717900  1.0  -0.326
  N  N102  1  0.123500  0.515000  0.117900  1.0  -0.3518
  N  N103  1  0.464700  0.454800  0.217900  1.0  -0.3243
  N  N104  1  0.876500  0.985000  0.617900  1.0  -0.3516
  O  O105  1  0.541400  0.954900  0.072090  1.0  -0.7261
  O  O106  1  0.391100  0.054400  0.109090  1.0  -0.6193
  O  O107  1  0.210900  0.823200  0.998490  1.0  -0.6582
  O  O108  1  0.370600  0.717800  0.975000  1.0  -0.6617
  O  O109  1  0.383500  0.365700  0.056480  1.0  -0.6874
  O  O110  1  0.542700  0.639000  0.059100  1.0  -0.7078
  O  O111  1  0.117100  0.048400  0.063690  1.0  -0.5778
  O  O112  1  0.856400  0.923600  0.055910  1.0  -0.5823
  O  O113  1  0.458600  0.545100  0.572090  1.0  -0.7256
  O  O114  1  0.608900  0.445600  0.609090  1.0  -0.6197
  O  O115  1  0.789100  0.676800  0.498490  1.0  -0.6606
  O  O116  1  0.629400  0.782200  0.475000  1.0  -0.6636
  O  O117  1  0.616500  0.134300  0.556480  1.0  -0.6896
  O  O118  1  0.457300  0.861000  0.559100  1.0  -0.7056
  O  O119  1  0.882900  0.451600  0.563690  1.0  -0.5775
  O  O120  1  0.143600  0.576400  0.555910  1.0  -0.5827
  O  O121  1  0.458600  0.045100  0.927910  1.0  -0.7258
  O  O122  1  0.608900  0.945600  0.890910  1.0  -0.6179
  O  O123  1  0.789100  0.176800  0.001510  1.0  -0.6611
  O  O124  1  0.629400  0.282200  0.025000  1.0  -0.6642
  O  O125  1  0.616500  0.634300  0.943520  1.0  -0.6898
  O  O126  1  0.457300  0.361000  0.940900  1.0  -0.7074
  O  O127  1  0.882900  0.951600  0.936310  1.0  -0.5765
  O  O128  1  0.143600  0.076400  0.944090  1.0  -0.5844
  O  O129  1  0.541400  0.454900  0.427910  1.0  -0.7257
  O  O130  1  0.391100  0.554400  0.390910  1.0  -0.6177
  O  O131  1  0.210900  0.323200  0.501510  1.0  -0.6588
  O  O132  1  0.370600  0.217800  0.525000  1.0  -0.6623
  O  O133  1  0.383500  0.865700  0.443520  1.0  -0.6884
  O  O134  1  0.542700  0.139000  0.440900  1.0  -0.7079
  O  O135  1  0.117100  0.548400  0.436310  1.0  -0.5771
  O  O136  1  0.856400  0.423600  0.444090  1.0  -0.5834
