# generated using pymatgen
data_LaAgH8C14(NO4)2
_symmetry_space_group_name_H-M   'P 1'
_cell_length_a   9.28640000
_cell_length_b   9.88400000
_cell_length_c   22.44600000
_cell_angle_alpha   90.00000000
_cell_angle_beta   90.00000000
_cell_angle_gamma   116.56400000
_symmetry_Int_Tables_number   1
_chemical_formula_structural   LaAgH8C14(NO4)2
_chemical_formula_sum   'La4 Ag4 H32 C56 N8 O32'
_cell_volume   1842.75695511
_cell_formula_units_Z   4
loop_
 _symmetry_equiv_pos_site_id
 _symmetry_equiv_pos_as_xyz
  1  'x, y, z'
loop_
 _atom_site_type_symbol
 _atom_site_label
 _atom_site_symmetry_multiplicity
 _atom_site_fract_x
 _atom_site_fract_y
 _atom_site_fract_z
 _atom_site_occupancy
 _atom_site_charge
  La  La1  1  0.359770  0.115620  0.008840  1.0  2.126
  La  La2  1  0.640230  0.384380  0.508840  1.0  2.1257
  La  La3  1  0.640230  0.884380  0.991160  1.0  2.1278
  La  La4  1  0.359770  0.615620  0.491160  1.0  2.128
  Ag  Ag5  1  0.317790  0.974500  0.353460  1.0  0.3436
  Ag  Ag6  1  0.682210  0.525500  0.853460  1.0  0.3438
  Ag  Ag7  1  0.682210  0.025500  0.646540  1.0  0.3431
  Ag  Ag8  1  0.317790  0.474500  0.146540  1.0  0.3429
  H  H9  1  0.598800  0.890100  0.331900  1.0  0.0929
  H  H10  1  0.738000  0.860800  0.255100  1.0  0.1176
  H  H11  1  0.681900  0.898200  0.157600  1.0  0.1131
  H  H12  1  0.357300  0.010300  0.222200  1.0  0.0678
  H  H13  1  0.811000  0.289100  0.840300  1.0  0.072
  H  H14  1  0.021800  0.245600  0.869700  1.0  0.1361
  H  H15  1  0.216600  0.435700  0.926900  1.0  0.0896
  H  H16  1  0.969900  0.678900  0.929200  1.0  0.1032
  H  H17  1  0.401200  0.609900  0.831900  1.0  0.0927
  H  H18  1  0.262000  0.639200  0.755100  1.0  0.1168
  H  H19  1  0.318100  0.601800  0.657600  1.0  0.1124
  H  H20  1  0.642700  0.489700  0.722200  1.0  0.0678
  H  H21  1  0.189000  0.210900  0.340300  1.0  0.0716
  H  H22  1  0.978200  0.254400  0.369700  1.0  0.137
  H  H23  1  0.783400  0.064300  0.426900  1.0  0.0889
  H  H24  1  0.030100  0.821100  0.429200  1.0  0.1033
  H  H25  1  0.401200  0.109900  0.668100  1.0  0.0919
  H  H26  1  0.262000  0.139200  0.744900  1.0  0.1172
  H  H27  1  0.318100  0.101800  0.842400  1.0  0.1125
  H  H28  1  0.642700  0.989700  0.777800  1.0  0.0678
  H  H29  1  0.189000  0.710900  0.159700  1.0  0.0717
  H  H30  1  0.978200  0.754400  0.130300  1.0  0.1373
  H  H31  1  0.783400  0.564300  0.073100  1.0  0.0895
  H  H32  1  0.030100  0.321100  0.070800  1.0  0.103
  H  H33  1  0.598800  0.390100  0.168100  1.0  0.0918
  H  H34  1  0.738000  0.360800  0.244900  1.0  0.118
  H  H35  1  0.681900  0.398200  0.342400  1.0  0.1128
  H  H36  1  0.357300  0.510300  0.277800  1.0  0.0679
  H  H37  1  0.811000  0.789100  0.659700  1.0  0.0725
  H  H38  1  0.021800  0.745600  0.630300  1.0  0.1363
  H  H39  1  0.216600  0.935700  0.573100  1.0  0.0899
  H  H40  1  0.969900  0.178900  0.570800  1.0  0.103
  C  C41  1  0.575800  0.908700  0.293300  1.0  0.1729
  C  C42  1  0.657700  0.890400  0.247500  1.0  -0.1851
  C  C43  1  0.626500  0.914300  0.189200  1.0  0.0298
  C  C44  1  0.513400  0.961400  0.179900  1.0  -0.2054
  C  C45  1  0.436100  0.978200  0.228400  1.0  0.1691
  C  C46  1  0.470300  0.997000  0.119600  1.0  0.7401
  C  C47  1  0.890700  0.359400  0.864500  1.0  0.1655
  C  C48  1  0.013100  0.332500  0.880500  1.0  -0.1533
  C  C49  1  0.126100  0.445800  0.914900  1.0  0.0447
  C  C50  1  0.112100  0.580800  0.933600  1.0  -0.213
  C  C51  1  0.985000  0.596100  0.917100  1.0  0.175
  C  C52  1  0.238100  0.713100  0.969500  1.0  0.7468
  C  C53  1  0.475100  0.498100  0.033400  1.0  0.5258
  C  C54  1  0.992600  0.992000  0.033520  1.0  0.545
  C  C55  1  0.424200  0.591300  0.793300  1.0  0.1719
  C  C56  1  0.342300  0.609600  0.747500  1.0  -0.1865
  C  C57  1  0.373500  0.585700  0.689200  1.0  0.0318
  C  C58  1  0.486600  0.538600  0.679900  1.0  -0.2052
  C  C59  1  0.563900  0.521800  0.728400  1.0  0.1686
  C  C60  1  0.529700  0.503000  0.619600  1.0  0.7402
  C  C61  1  0.109300  0.140600  0.364500  1.0  0.1667
  C  C62  1  0.986900  0.167500  0.380500  1.0  -0.1544
  C  C63  1  0.873900  0.054200  0.414900  1.0  0.0451
  C  C64  1  0.887900  0.919200  0.433600  1.0  -0.2142
  C  C65  1  0.015000  0.903900  0.417100  1.0  0.176
  C  C66  1  0.761900  0.786900  0.469500  1.0  0.7476
  C  C67  1  0.524900  0.001900  0.533400  1.0  0.5254
  C  C68  1  0.007400  0.508000  0.533520  1.0  0.5449
  C  C69  1  0.424200  0.091300  0.706700  1.0  0.1711
  C  C70  1  0.342300  0.109600  0.752500  1.0  -0.186
  C  C71  1  0.373500  0.085700  0.810800  1.0  0.0335
  C  C72  1  0.486600  0.038600  0.820100  1.0  -0.2027
  C  C73  1  0.563900  0.021800  0.771600  1.0  0.1678
  C  C74  1  0.529700  0.003000  0.880400  1.0  0.7399
  C  C75  1  0.109300  0.640600  0.135500  1.0  0.1668
  C  C76  1  0.986900  0.667500  0.119500  1.0  -0.1538
  C  C77  1  0.873900  0.554200  0.085100  1.0  0.046
  C  C78  1  0.887900  0.419200  0.066400  1.0  -0.2145
  C  C79  1  0.015000  0.403900  0.082900  1.0  0.1762
  C  C80  1  0.761900  0.286900  0.030500  1.0  0.7467
  C  C81  1  0.524900  0.501900  0.966600  1.0  0.525
  C  C82  1  0.007400  0.008000  0.966480  1.0  0.5455
  C  C83  1  0.575800  0.408700  0.206700  1.0  0.1712
  C  C84  1  0.657700  0.390400  0.252500  1.0  -0.1852
  C  C85  1  0.626500  0.414300  0.310800  1.0  0.0306
  C  C86  1  0.513400  0.461400  0.320100  1.0  -0.2034
  C  C87  1  0.436100  0.478200  0.271600  1.0  0.1679
  C  C88  1  0.470300  0.497000  0.380400  1.0  0.7395
  C  C89  1  0.890700  0.859400  0.635500  1.0  0.1647
  C  C90  1  0.013100  0.832500  0.619500  1.0  -0.1518
  C  C91  1  0.126100  0.945800  0.585100  1.0  0.0455
  C  C92  1  0.112100  0.080800  0.566400  1.0  -0.2129
  C  C93  1  0.985000  0.096100  0.582900  1.0  0.1754
  C  C94  1  0.238100  0.213100  0.530500  1.0  0.7462
  C  C95  1  0.475100  0.998100  0.466600  1.0  0.5258
  C  C96  1  0.992600  0.492000  0.466480  1.0  0.5459
  N  N97  1  0.464000  0.952200  0.284300  1.0  -0.2868
  N  N98  1  0.875800  0.486500  0.881800  1.0  -0.3131
  N  N99  1  0.536000  0.547800  0.784300  1.0  -0.2852
  N  N100  1  0.124200  0.013500  0.381800  1.0  -0.3143
  N  N101  1  0.536000  0.047800  0.715700  1.0  -0.2874
  N  N102  1  0.124200  0.513500  0.118200  1.0  -0.3121
  N  N103  1  0.464000  0.452200  0.215700  1.0  -0.2881
  N  N104  1  0.875800  0.986500  0.618200  1.0  -0.3131
  O  O105  1  0.520100  0.960600  0.073370  1.0  -0.7743
  O  O106  1  0.383700  0.062200  0.118040  1.0  -0.6265
  O  O107  1  0.208700  0.817400  0.993450  1.0  -0.7225
  O  O108  1  0.362100  0.707000  0.971000  1.0  -0.6623
  O  O109  1  0.381800  0.372800  0.055190  1.0  -0.5677
  O  O110  1  0.539000  0.635500  0.059030  1.0  -0.655
  O  O111  1  0.114600  0.051200  0.064150  1.0  -0.603
  O  O112  1  0.859300  0.921900  0.055900  1.0  -0.609
  O  O113  1  0.479900  0.539400  0.573370  1.0  -0.7742
  O  O114  1  0.616300  0.437800  0.618040  1.0  -0.6261
  O  O115  1  0.791300  0.682600  0.493450  1.0  -0.7219
  O  O116  1  0.637900  0.793000  0.471000  1.0  -0.663
  O  O117  1  0.618200  0.127200  0.555190  1.0  -0.5681
  O  O118  1  0.461000  0.864500  0.559030  1.0  -0.6529
  O  O119  1  0.885400  0.448800  0.564150  1.0  -0.603
  O  O120  1  0.140700  0.578100  0.555900  1.0  -0.609
  O  O121  1  0.479900  0.039400  0.926630  1.0  -0.7754
  O  O122  1  0.616300  0.937800  0.881960  1.0  -0.6263
  O  O123  1  0.791300  0.182600  0.006550  1.0  -0.7227
  O  O124  1  0.637900  0.293000  0.029000  1.0  -0.6631
  O  O125  1  0.618200  0.627200  0.944810  1.0  -0.5672
  O  O126  1  0.461000  0.364500  0.940970  1.0  -0.6536
  O  O127  1  0.885400  0.948800  0.935850  1.0  -0.6039
  O  O128  1  0.140700  0.078100  0.944100  1.0  -0.6093
  O  O129  1  0.520100  0.460600  0.426630  1.0  -0.7746
  O  O130  1  0.383700  0.562200  0.381960  1.0  -0.6271
  O  O131  1  0.208700  0.317400  0.506550  1.0  -0.7236
  O  O132  1  0.362100  0.207000  0.529000  1.0  -0.6622
  O  O133  1  0.381800  0.872800  0.444810  1.0  -0.5685
  O  O134  1  0.539000  0.135500  0.440970  1.0  -0.6542
  O  O135  1  0.114600  0.551200  0.435850  1.0  -0.6035
  O  O136  1  0.859300  0.421900  0.444100  1.0  -0.6089
