# generated using pymatgen
data_Zr3H14(C3O2)8
_symmetry_space_group_name_H-M   'P 1'
_cell_length_a   14.66750000
_cell_length_b   14.66750000
_cell_length_c   14.66750000
_cell_angle_alpha   60.00000000
_cell_angle_beta   60.00000000
_cell_angle_gamma   60.00000000
_symmetry_Int_Tables_number   1
_chemical_formula_structural   Zr3H14(C3O2)8
_chemical_formula_sum   'Zr6 H28 C48 O32'
_cell_volume   2231.27599342
_cell_formula_units_Z   2
loop_
 _symmetry_equiv_pos_site_id
 _symmetry_equiv_pos_as_xyz
  1  'x, y, z'
loop_
 _atom_site_type_symbol
 _atom_site_label
 _atom_site_symmetry_multiplicity
 _atom_site_fract_x
 _atom_site_fract_y
 _atom_site_fract_z
 _atom_site_occupancy
 _atom_site_charge
  Zr  Zr1  1  0.879600  0.120400  0.120400  1.0  1.8533
  Zr  Zr2  1  0.120400  0.879600  0.879600  1.0  1.8495
  Zr  Zr3  1  0.120400  0.879600  0.120400  1.0  1.8515
  Zr  Zr4  1  0.879600  0.120400  0.879600  1.0  1.8517
  Zr  Zr5  1  0.120400  0.120400  0.879600  1.0  1.8483
  Zr  Zr6  1  0.879600  0.879600  0.120400  1.0  1.8547
  H  H7  1  0.852490  0.147510  0.409540  1.0  0.1448
  H  H8  1  0.147510  0.852490  0.590460  1.0  0.1461
  H  H9  1  0.409540  0.590460  0.852490  1.0  0.1438
  H  H10  1  0.590460  0.409540  0.147510  1.0  0.144
  H  H11  1  0.409540  0.852490  0.147510  1.0  0.1471
  H  H12  1  0.590460  0.147510  0.852490  1.0  0.1472
  H  H13  1  0.852490  0.409540  0.590460  1.0  0.144
  H  H14  1  0.147510  0.590460  0.409540  1.0  0.1442
  H  H15  1  0.147510  0.409540  0.852490  1.0  0.1452
  H  H16  1  0.852490  0.590460  0.147510  1.0  0.1445
  H  H17  1  0.590460  0.852490  0.409540  1.0  0.145
  H  H18  1  0.409540  0.147510  0.590460  1.0  0.1442
  H  H19  1  0.147510  0.852490  0.409540  1.0  0.1455
  H  H20  1  0.852490  0.147510  0.590460  1.0  0.1448
  H  H21  1  0.590460  0.409540  0.852490  1.0  0.1435
  H  H22  1  0.409540  0.590460  0.147510  1.0  0.1441
  H  H23  1  0.852490  0.409540  0.147510  1.0  0.1435
  H  H24  1  0.147510  0.590460  0.852490  1.0  0.1454
  H  H25  1  0.409540  0.852490  0.590460  1.0  0.1478
  H  H26  1  0.590460  0.147510  0.409540  1.0  0.1463
  H  H27  1  0.409540  0.147510  0.852490  1.0  0.1445
  H  H28  1  0.590460  0.852490  0.147510  1.0  0.1454
  H  H29  1  0.852490  0.590460  0.409540  1.0  0.1446
  H  H30  1  0.147510  0.409540  0.590460  1.0  0.1436
  H  H31  1  0.092000  0.092000  0.092000  1.0  -0.025
  H  H32  1  0.092000  0.092000  0.724000  1.0  -0.0224
  H  H33  1  0.092000  0.724000  0.092000  1.0  -0.0197
  H  H34  1  0.724000  0.092000  0.092000  1.0  -0.0188
  C  C35  1  0.919800  0.080200  0.448400  1.0  -0.0089
  C  C36  1  0.080200  0.919800  0.551600  1.0  -0.0089
  C  C37  1  0.448400  0.551600  0.919800  1.0  -0.0055
  C  C38  1  0.551600  0.448400  0.080200  1.0  -0.0048
  C  C39  1  0.448400  0.919800  0.080200  1.0  -0.0098
  C  C40  1  0.551600  0.080200  0.919800  1.0  -0.0093
  C  C41  1  0.919800  0.448400  0.551600  1.0  -0.007
  C  C42  1  0.080200  0.551600  0.448400  1.0  -0.0082
  C  C43  1  0.080200  0.448400  0.919800  1.0  -0.006
  C  C44  1  0.919800  0.551600  0.080200  1.0  -0.005
  C  C45  1  0.551600  0.919800  0.448400  1.0  -0.0108
  C  C46  1  0.448400  0.080200  0.551600  1.0  -0.0096
  C  C47  1  0.080200  0.919800  0.448400  1.0  -0.0084
  C  C48  1  0.919800  0.080200  0.551600  1.0  -0.01
  C  C49  1  0.551600  0.448400  0.919800  1.0  -0.0062
  C  C50  1  0.448400  0.551600  0.080200  1.0  -0.0047
  C  C51  1  0.919800  0.448400  0.080200  1.0  -0.0067
  C  C52  1  0.080200  0.551600  0.919800  1.0  -0.0081
  C  C53  1  0.448400  0.919800  0.551600  1.0  -0.0115
  C  C54  1  0.551600  0.080200  0.448400  1.0  -0.0094
  C  C55  1  0.448400  0.080200  0.919800  1.0  -0.0093
  C  C56  1  0.551600  0.919800  0.080200  1.0  -0.0103
  C  C57  1  0.919800  0.551600  0.448400  1.0  -0.0049
  C  C58  1  0.080200  0.448400  0.551600  1.0  -0.0054
  C  C59  1  0.000000  0.000000  0.294600  1.0  0.6081
  C  C60  1  0.000000  0.000000  0.403800  1.0  -0.0327
  C  C61  1  0.000000  0.000000  0.705400  1.0  0.6109
  C  C62  1  0.000000  0.000000  0.596200  1.0  -0.0317
  C  C63  1  0.294600  0.705400  0.000000  1.0  0.6128
  C  C64  1  0.403800  0.596200  0.000000  1.0  -0.0315
  C  C65  1  0.705400  0.294600  0.000000  1.0  0.6116
  C  C66  1  0.596200  0.403800  0.000000  1.0  -0.0317
  C  C67  1  0.294600  0.000000  0.000000  1.0  0.6139
  C  C68  1  0.403800  0.000000  0.000000  1.0  -0.0335
  C  C69  1  0.705400  0.000000  0.000000  1.0  0.6134
  C  C70  1  0.596200  0.000000  0.000000  1.0  -0.0319
  C  C71  1  0.000000  0.294600  0.705400  1.0  0.6131
  C  C72  1  0.000000  0.403800  0.596200  1.0  -0.0317
  C  C73  1  0.000000  0.705400  0.294600  1.0  0.6097
  C  C74  1  0.000000  0.596200  0.403800  1.0  -0.0316
  C  C75  1  0.000000  0.294600  0.000000  1.0  0.6126
  C  C76  1  0.000000  0.403800  0.000000  1.0  -0.0317
  C  C77  1  0.000000  0.705400  0.000000  1.0  0.611
  C  C78  1  0.000000  0.596200  0.000000  1.0  -0.0317
  C  C79  1  0.705400  0.000000  0.294600  1.0  0.6126
  C  C80  1  0.596200  0.000000  0.403800  1.0  -0.0322
  C  C81  1  0.294600  0.000000  0.705400  1.0  0.6146
  C  C82  1  0.403800  0.000000  0.596200  1.0  -0.0335
  O  O83  1  0.923400  0.076600  0.268600  1.0  -0.6154
  O  O84  1  0.076600  0.923400  0.731400  1.0  -0.6122
  O  O85  1  0.268600  0.731400  0.923400  1.0  -0.6124
  O  O86  1  0.731400  0.268600  0.076600  1.0  -0.6141
  O  O87  1  0.268600  0.923400  0.076600  1.0  -0.6145
  O  O88  1  0.731400  0.076600  0.923400  1.0  -0.6153
  O  O89  1  0.923400  0.268600  0.731400  1.0  -0.6139
  O  O90  1  0.076600  0.731400  0.268600  1.0  -0.6116
  O  O91  1  0.076600  0.268600  0.923400  1.0  -0.6118
  O  O92  1  0.923400  0.731400  0.076600  1.0  -0.6131
  O  O93  1  0.731400  0.923400  0.268600  1.0  -0.6135
  O  O94  1  0.268600  0.076600  0.731400  1.0  -0.6164
  O  O95  1  0.076600  0.923400  0.268600  1.0  -0.6136
  O  O96  1  0.923400  0.076600  0.731400  1.0  -0.6141
  O  O97  1  0.731400  0.268600  0.923400  1.0  -0.6133
  O  O98  1  0.268600  0.731400  0.076600  1.0  -0.6129
  O  O99  1  0.923400  0.268600  0.076600  1.0  -0.6147
  O  O100  1  0.076600  0.731400  0.923400  1.0  -0.6127
  O  O101  1  0.268600  0.923400  0.731400  1.0  -0.614
  O  O102  1  0.731400  0.076600  0.268600  1.0  -0.615
  O  O103  1  0.268600  0.076600  0.923400  1.0  -0.6138
  O  O104  1  0.731400  0.923400  0.076600  1.0  -0.6135
  O  O105  1  0.923400  0.731400  0.268600  1.0  -0.6127
  O  O106  1  0.076600  0.268600  0.731400  1.0  -0.6127
  O  O107  1  0.943900  0.168300  0.943900  1.0  -0.8765
  O  O108  1  0.056100  0.831700  0.056100  1.0  -0.762
  O  O109  1  0.168300  0.943900  0.943900  1.0  -0.8765
  O  O110  1  0.831700  0.056100  0.056100  1.0  -0.7615
  O  O111  1  0.943900  0.943900  0.943900  1.0  -0.8741
  O  O112  1  0.056100  0.056100  0.056100  1.0  -0.7595
  O  O113  1  0.943900  0.943900  0.168300  1.0  -0.8755
  O  O114  1  0.056100  0.056100  0.831700  1.0  -0.7605
