# generated using pymatgen
data_Zr3H14(C3O2)8
_symmetry_space_group_name_H-M   'P 1'
_cell_length_a   20.74650000
_cell_length_b   20.74650000
_cell_length_c   20.74650000
_cell_angle_alpha   90.00000000
_cell_angle_beta   90.00000000
_cell_angle_gamma   90.00000000
_symmetry_Int_Tables_number   1
_chemical_formula_structural   Zr3H14(C3O2)8
_chemical_formula_sum   'Zr24 H112 C192 O128'
_cell_volume   8929.65173127
_cell_formula_units_Z   8
loop_
 _symmetry_equiv_pos_site_id
 _symmetry_equiv_pos_as_xyz
  1  'x, y, z'
loop_
 _atom_site_type_symbol
 _atom_site_label
 _atom_site_symmetry_multiplicity
 _atom_site_fract_x
 _atom_site_fract_y
 _atom_site_fract_z
 _atom_site_occupancy
 _atom_site_charge
  Zr  Zr1  1  0.000000  0.114660  0.000000  1.0  1.8053
  Zr  Zr2  1  0.114660  0.000000  0.000000  1.0  1.8031
  Zr  Zr3  1  0.885340  0.000000  0.000000  1.0  1.8075
  Zr  Zr4  1  0.000000  0.000000  0.114660  1.0  1.8142
  Zr  Zr5  1  0.000000  0.000000  0.885340  1.0  1.8092
  Zr  Zr6  1  0.000000  0.885340  0.000000  1.0  1.8081
  Zr  Zr7  1  0.500000  0.614660  0.000000  1.0  1.8053
  Zr  Zr8  1  0.614660  0.500000  0.000000  1.0  1.8031
  Zr  Zr9  1  0.385340  0.500000  0.000000  1.0  1.8075
  Zr  Zr10  1  0.500000  0.500000  0.114660  1.0  1.8142
  Zr  Zr11  1  0.500000  0.500000  0.885340  1.0  1.8092
  Zr  Zr12  1  0.500000  0.385340  0.000000  1.0  1.8081
  Zr  Zr13  1  0.000000  0.614660  0.500000  1.0  1.8052
  Zr  Zr14  1  0.114660  0.500000  0.500000  1.0  1.8031
  Zr  Zr15  1  0.885340  0.500000  0.500000  1.0  1.8074
  Zr  Zr16  1  0.000000  0.500000  0.614660  1.0  1.8142
  Zr  Zr17  1  0.000000  0.500000  0.385340  1.0  1.8093
  Zr  Zr18  1  0.000000  0.385340  0.500000  1.0  1.808
  Zr  Zr19  1  0.500000  0.114660  0.500000  1.0  1.8052
  Zr  Zr20  1  0.614660  0.000000  0.500000  1.0  1.8031
  Zr  Zr21  1  0.385340  0.000000  0.500000  1.0  1.8074
  Zr  Zr22  1  0.500000  0.000000  0.614660  1.0  1.8142
  Zr  Zr23  1  0.500000  0.000000  0.385340  1.0  1.8093
  Zr  Zr24  1  0.500000  0.885340  0.500000  1.0  1.808
  H  H25  1  0.085700  0.085700  0.085700  1.0  0.3569
  H  H26  1  0.914300  0.085700  0.914300  1.0  0.3598
  H  H27  1  0.914300  0.914300  0.085700  1.0  0.3561
  H  H28  1  0.085700  0.914300  0.914300  1.0  0.3559
  H  H29  1  0.585700  0.585700  0.085700  1.0  0.3569
  H  H30  1  0.414300  0.585700  0.914300  1.0  0.3598
  H  H31  1  0.414300  0.414300  0.085700  1.0  0.3561
  H  H32  1  0.585700  0.414300  0.914300  1.0  0.3559
  H  H33  1  0.085700  0.585700  0.585700  1.0  0.357
  H  H34  1  0.914300  0.585700  0.414300  1.0  0.356
  H  H35  1  0.914300  0.414300  0.585700  1.0  0.356
  H  H36  1  0.085700  0.414300  0.414300  1.0  0.3593
  H  H37  1  0.585700  0.085700  0.585700  1.0  0.357
  H  H38  1  0.414300  0.085700  0.414300  1.0  0.356
  H  H39  1  0.414300  0.914300  0.585700  1.0  0.356
  H  H40  1  0.585700  0.914300  0.414300  1.0  0.3593
  H  H41  1  0.281820  0.134830  0.996610  1.0  0.1346
  H  H42  1  0.134830  0.281820  0.996610  1.0  0.1334
  H  H43  1  0.218180  0.365170  0.996610  1.0  0.1364
  H  H44  1  0.365170  0.218180  0.996610  1.0  0.1347
  H  H45  1  0.281820  0.634830  0.496610  1.0  0.1357
  H  H46  1  0.134830  0.781820  0.496610  1.0  0.1341
  H  H47  1  0.218180  0.865170  0.496610  1.0  0.1352
  H  H48  1  0.365170  0.718180  0.496610  1.0  0.1341
  H  H49  1  0.865170  0.718180  0.996610  1.0  0.1347
  H  H50  1  0.718180  0.865170  0.996610  1.0  0.1364
  H  H51  1  0.634830  0.781820  0.996610  1.0  0.1334
  H  H52  1  0.781820  0.634830  0.996610  1.0  0.1346
  H  H53  1  0.865170  0.218180  0.496610  1.0  0.1341
  H  H54  1  0.718180  0.365170  0.496610  1.0  0.1352
  H  H55  1  0.634830  0.281820  0.496610  1.0  0.1341
  H  H56  1  0.781820  0.134830  0.496610  1.0  0.1357
  H  H57  1  0.865170  0.281820  0.003390  1.0  0.1358
  H  H58  1  0.718180  0.134830  0.003390  1.0  0.1354
  H  H59  1  0.634830  0.218180  0.003390  1.0  0.1352
  H  H60  1  0.781820  0.365170  0.003390  1.0  0.1359
  H  H61  1  0.865170  0.781820  0.503390  1.0  0.1363
  H  H62  1  0.718180  0.634830  0.503390  1.0  0.1347
  H  H63  1  0.634830  0.718180  0.503390  1.0  0.1353
  H  H64  1  0.781820  0.865170  0.503390  1.0  0.1368
  H  H65  1  0.134830  0.218180  0.503390  1.0  0.1353
  H  H66  1  0.281820  0.365170  0.503390  1.0  0.1368
  H  H67  1  0.365170  0.281820  0.503390  1.0  0.1363
  H  H68  1  0.218180  0.134830  0.503390  1.0  0.1347
  H  H69  1  0.134830  0.718180  0.003390  1.0  0.1352
  H  H70  1  0.281820  0.865170  0.003390  1.0  0.1359
  H  H71  1  0.365170  0.781820  0.003390  1.0  0.1358
  H  H72  1  0.218180  0.634830  0.003390  1.0  0.1354
  H  H73  1  0.996640  0.281820  0.134830  1.0  0.1348
  H  H74  1  0.996580  0.134830  0.281820  1.0  0.1373
  H  H75  1  0.996580  0.218180  0.365170  1.0  0.1345
  H  H76  1  0.996640  0.365170  0.218180  1.0  0.1353
  H  H77  1  0.496600  0.365170  0.718180  1.0  0.1331
  H  H78  1  0.496620  0.218180  0.865170  1.0  0.1345
  H  H79  1  0.496620  0.134830  0.781820  1.0  0.1385
  H  H80  1  0.496600  0.281820  0.634830  1.0  0.1362
  H  H81  1  0.996600  0.865170  0.718180  1.0  0.1331
  H  H82  1  0.996620  0.718180  0.865170  1.0  0.1345
  H  H83  1  0.996620  0.634830  0.781820  1.0  0.1385
  H  H84  1  0.996600  0.781820  0.634830  1.0  0.1362
  H  H85  1  0.496640  0.781820  0.134830  1.0  0.1348
  H  H86  1  0.496580  0.634830  0.281820  1.0  0.1373
  H  H87  1  0.496580  0.718180  0.365170  1.0  0.1345
  H  H88  1  0.496640  0.865170  0.218180  1.0  0.1353
  H  H89  1  0.003380  0.865170  0.281820  1.0  0.1396
  H  H90  1  0.003400  0.718180  0.134830  1.0  0.1363
  H  H91  1  0.003400  0.634830  0.218180  1.0  0.1324
  H  H92  1  0.003380  0.781820  0.365170  1.0  0.1343
  H  H93  1  0.503420  0.781820  0.865170  1.0  0.1343
  H  H94  1  0.503360  0.634830  0.718180  1.0  0.1356
  H  H95  1  0.503360  0.718180  0.634830  1.0  0.1353
  H  H96  1  0.503420  0.865170  0.781820  1.0  0.1389
  H  H97  1  0.503380  0.365170  0.281820  1.0  0.1396
  H  H98  1  0.503400  0.218180  0.134830  1.0  0.1363
  H  H99  1  0.503400  0.134830  0.218180  1.0  0.1324
  H  H100  1  0.503380  0.281820  0.365170  1.0  0.1343
  H  H101  1  0.003420  0.281820  0.865170  1.0  0.1343
  H  H102  1  0.003360  0.134830  0.718180  1.0  0.1356
  H  H103  1  0.003360  0.218180  0.634830  1.0  0.1353
  H  H104  1  0.003420  0.365170  0.781820  1.0  0.1389
  H  H105  1  0.134830  0.996610  0.281820  1.0  0.1363
  H  H106  1  0.281820  0.996610  0.134830  1.0  0.1341
  H  H107  1  0.365170  0.996610  0.218180  1.0  0.1344
  H  H108  1  0.218180  0.996610  0.365170  1.0  0.1348
  H  H109  1  0.365170  0.496600  0.718180  1.0  0.1341
  H  H110  1  0.218180  0.496620  0.865170  1.0  0.1351
  H  H111  1  0.134830  0.496620  0.781820  1.0  0.136
  H  H112  1  0.281820  0.496600  0.634830  1.0  0.133
  H  H113  1  0.865170  0.996600  0.718180  1.0  0.1341
  H  H114  1  0.718180  0.996620  0.865170  1.0  0.1351
  H  H115  1  0.634830  0.996620  0.781820  1.0  0.136
  H  H116  1  0.781820  0.996600  0.634830  1.0  0.133
  H  H117  1  0.634830  0.496610  0.281820  1.0  0.1363
  H  H118  1  0.781820  0.496610  0.134830  1.0  0.1341
  H  H119  1  0.865170  0.496610  0.218180  1.0  0.1344
  H  H120  1  0.718180  0.496610  0.365170  1.0  0.1348
  H  H121  1  0.134830  0.003390  0.718180  1.0  0.1344
  H  H122  1  0.281820  0.003390  0.865170  1.0  0.1346
  H  H123  1  0.365170  0.003390  0.781820  1.0  0.1367
  H  H124  1  0.218180  0.003390  0.634830  1.0  0.1337
  H  H125  1  0.365170  0.503380  0.281820  1.0  0.1365
  H  H126  1  0.218180  0.503400  0.134830  1.0  0.1323
  H  H127  1  0.134830  0.503400  0.218180  1.0  0.1339
  H  H128  1  0.281820  0.503380  0.365170  1.0  0.135
  H  H129  1  0.865170  0.003380  0.281820  1.0  0.1365
  H  H130  1  0.718180  0.003400  0.134830  1.0  0.1323
  H  H131  1  0.634830  0.003400  0.218180  1.0  0.1339
  H  H132  1  0.781820  0.003380  0.365170  1.0  0.135
  H  H133  1  0.634830  0.503390  0.718180  1.0  0.1344
  H  H134  1  0.781820  0.503390  0.865170  1.0  0.1346
  H  H135  1  0.865170  0.503390  0.781820  1.0  0.1367
  H  H136  1  0.718180  0.503390  0.634830  1.0  0.1337
  C  C137  1  0.851130  0.148870  0.002490  1.0  0.6303
  C  C138  1  0.148870  0.148870  0.997500  1.0  0.6294
  C  C139  1  0.997500  0.148870  0.148870  1.0  0.6304
  C  C140  1  0.002500  0.148870  0.851130  1.0  0.6283
  C  C141  1  0.148870  0.851130  0.002500  1.0  0.6381
  C  C142  1  0.851130  0.851130  0.997500  1.0  0.6299
  C  C143  1  0.148870  0.997510  0.148870  1.0  0.6306
  C  C144  1  0.148870  0.002490  0.851130  1.0  0.6292
  C  C145  1  0.851130  0.997500  0.851130  1.0  0.6288
  C  C146  1  0.851130  0.002500  0.148870  1.0  0.6304
  C  C147  1  0.002490  0.851130  0.148870  1.0  0.6297
  C  C148  1  0.997510  0.851130  0.851130  1.0  0.6288
  C  C149  1  0.351130  0.648870  0.002490  1.0  0.6303
  C  C150  1  0.648870  0.648870  0.997500  1.0  0.6294
  C  C151  1  0.497500  0.648870  0.148870  1.0  0.6304
  C  C152  1  0.502500  0.648870  0.851130  1.0  0.6283
  C  C153  1  0.648870  0.351130  0.002500  1.0  0.6381
  C  C154  1  0.351130  0.351130  0.997500  1.0  0.6299
  C  C155  1  0.648870  0.497510  0.148870  1.0  0.6306
  C  C156  1  0.648870  0.502490  0.851130  1.0  0.6292
  C  C157  1  0.351130  0.497500  0.851130  1.0  0.6288
  C  C158  1  0.351130  0.502500  0.148870  1.0  0.6304
  C  C159  1  0.502490  0.351130  0.148870  1.0  0.6297
  C  C160  1  0.497510  0.351130  0.851130  1.0  0.6288
  C  C161  1  0.851130  0.648870  0.502500  1.0  0.6376
  C  C162  1  0.148870  0.648870  0.497500  1.0  0.6294
  C  C163  1  0.997510  0.648870  0.648870  1.0  0.6301
  C  C164  1  0.002490  0.648870  0.351130  1.0  0.628
  C  C165  1  0.148870  0.351130  0.502490  1.0  0.6301
  C  C166  1  0.851130  0.351130  0.497500  1.0  0.6299
  C  C167  1  0.148870  0.497500  0.648870  1.0  0.6303
  C  C168  1  0.148870  0.502500  0.351130  1.0  0.629
  C  C169  1  0.851130  0.497510  0.351130  1.0  0.6287
  C  C170  1  0.851130  0.502490  0.648870  1.0  0.6307
  C  C171  1  0.002500  0.351130  0.648870  1.0  0.6297
  C  C172  1  0.997500  0.351130  0.351130  1.0  0.6292
  C  C173  1  0.351130  0.148870  0.502500  1.0  0.6376
  C  C174  1  0.648870  0.148870  0.497500  1.0  0.6294
  C  C175  1  0.497510  0.148870  0.648870  1.0  0.6301
  C  C176  1  0.502490  0.148870  0.351130  1.0  0.628
  C  C177  1  0.648870  0.851130  0.502490  1.0  0.6301
  C  C178  1  0.351130  0.851130  0.497500  1.0  0.6299
  C  C179  1  0.648870  0.997500  0.648870  1.0  0.6303
  C  C180  1  0.648870  0.002500  0.351130  1.0  0.629
  C  C181  1  0.351130  0.997510  0.351130  1.0  0.6287
  C  C182  1  0.351130  0.002490  0.648870  1.0  0.6307
  C  C183  1  0.502500  0.851130  0.648870  1.0  0.6297
  C  C184  1  0.497500  0.851130  0.351130  1.0  0.6292
  C  C185  1  0.266940  0.184850  0.996530  1.0  -0.0467
  C  C186  1  0.200700  0.200700  0.996680  1.0  -0.0934
  C  C187  1  0.184850  0.266940  0.996530  1.0  -0.0505
  C  C188  1  0.233060  0.315150  0.996530  1.0  -0.0477
  C  C189  1  0.299300  0.299300  0.996680  1.0  -0.0949
  C  C190  1  0.315150  0.233060  0.996530  1.0  -0.0439
  C  C191  1  0.266940  0.684850  0.496530  1.0  -0.047
  C  C192  1  0.200700  0.700700  0.496680  1.0  -0.0945
  C  C193  1  0.184850  0.766940  0.496530  1.0  -0.0454
  C  C194  1  0.233060  0.815150  0.496530  1.0  -0.0474
  C  C195  1  0.299300  0.799300  0.496680  1.0  -0.0931
  C  C196  1  0.315150  0.733060  0.496530  1.0  -0.0492
  C  C197  1  0.815150  0.733060  0.996530  1.0  -0.0441
  C  C198  1  0.799300  0.799300  0.996680  1.0  -0.0949
  C  C199  1  0.733060  0.815150  0.996530  1.0  -0.0484
  C  C200  1  0.684850  0.766940  0.996530  1.0  -0.0507
  C  C201  1  0.700700  0.700700  0.996680  1.0  -0.0934
  C  C202  1  0.766940  0.684850  0.996530  1.0  -0.0464
  C  C203  1  0.815150  0.233060  0.496530  1.0  -0.0494
  C  C204  1  0.799300  0.299300  0.496680  1.0  -0.0931
  C  C205  1  0.733060  0.315150  0.496530  1.0  -0.0479
  C  C206  1  0.684850  0.266940  0.496530  1.0  -0.0449
  C  C207  1  0.700700  0.200700  0.496680  1.0  -0.0945
  C  C208  1  0.766940  0.184850  0.496530  1.0  -0.0468
  C  C209  1  0.815150  0.266940  0.003470  1.0  -0.0487
  C  C210  1  0.799300  0.200700  0.003320  1.0  -0.0911
  C  C211  1  0.733060  0.184850  0.003470  1.0  -0.0492
  C  C212  1  0.684850  0.233060  0.003470  1.0  -0.0464
  C  C213  1  0.700700  0.299300  0.003320  1.0  -0.0853
  C  C214  1  0.766940  0.315150  0.003470  1.0  -0.0467
  C  C215  1  0.815150  0.766940  0.503470  1.0  -0.0478
  C  C216  1  0.799300  0.700700  0.503320  1.0  -0.087
  C  C217  1  0.733060  0.684850  0.503470  1.0  -0.0477
  C  C218  1  0.684850  0.733060  0.503470  1.0  -0.047
  C  C219  1  0.700700  0.799300  0.503320  1.0  -0.0887
  C  C220  1  0.766940  0.815150  0.503470  1.0  -0.0486
  C  C221  1  0.184850  0.233060  0.503470  1.0  -0.0482
  C  C222  1  0.200700  0.299300  0.503320  1.0  -0.0887
  C  C223  1  0.266940  0.315150  0.503470  1.0  -0.049
  C  C224  1  0.315150  0.266940  0.503470  1.0  -0.0477
  C  C225  1  0.299300  0.200700  0.503320  1.0  -0.087
  C  C226  1  0.233060  0.184850  0.503470  1.0  -0.0471
  C  C227  1  0.184850  0.733060  0.003470  1.0  -0.048
  C  C228  1  0.200700  0.799300  0.003320  1.0  -0.0853
  C  C229  1  0.266940  0.815150  0.003470  1.0  -0.0472
  C  C230  1  0.315150  0.766940  0.003470  1.0  -0.0485
  C  C231  1  0.299300  0.700700  0.003320  1.0  -0.0911
  C  C232  1  0.233060  0.684850  0.003470  1.0  -0.0479
  C  C233  1  0.996550  0.266940  0.184850  1.0  -0.0432
  C  C234  1  0.996680  0.200700  0.200700  1.0  -0.0897
  C  C235  1  0.996520  0.184850  0.266940  1.0  -0.0441
  C  C236  1  0.996520  0.233060  0.315150  1.0  -0.0425
  C  C237  1  0.996680  0.299300  0.299300  1.0  -0.088
  C  C238  1  0.996550  0.315150  0.233060  1.0  -0.0449
  C  C239  1  0.496530  0.315150  0.733060  1.0  -0.0466
  C  C240  1  0.496680  0.299300  0.799300  1.0  -0.0863
  C  C241  1  0.496540  0.233060  0.815150  1.0  -0.0451
  C  C242  1  0.496540  0.184850  0.766940  1.0  -0.0448
  C  C243  1  0.496680  0.200700  0.700700  1.0  -0.0878
  C  C244  1  0.496530  0.266940  0.684850  1.0  -0.0436
  C  C245  1  0.996530  0.815150  0.733060  1.0  -0.0466
  C  C246  1  0.996680  0.799300  0.799300  1.0  -0.0863
  C  C247  1  0.996540  0.733060  0.815150  1.0  -0.0466
  C  C248  1  0.996540  0.684850  0.766940  1.0  -0.0443
  C  C249  1  0.996680  0.700700  0.700700  1.0  -0.0878
  C  C250  1  0.996530  0.766940  0.684850  1.0  -0.0436
  C  C251  1  0.496550  0.766940  0.184850  1.0  -0.0403
  C  C252  1  0.496680  0.700700  0.200700  1.0  -0.0897
  C  C253  1  0.496520  0.684850  0.266940  1.0  -0.0441
  C  C254  1  0.496520  0.733060  0.315150  1.0  -0.0425
  C  C255  1  0.496680  0.799300  0.299300  1.0  -0.088
  C  C256  1  0.496550  0.815150  0.233060  1.0  -0.041
  C  C257  1  0.003460  0.815150  0.266940  1.0  -0.0452
  C  C258  1  0.003320  0.799300  0.200700  1.0  -0.0866
  C  C259  1  0.003470  0.733060  0.184850  1.0  -0.0445
  C  C260  1  0.003470  0.684850  0.233060  1.0  -0.0445
  C  C261  1  0.003320  0.700700  0.299300  1.0  -0.0874
  C  C262  1  0.003460  0.766940  0.315150  1.0  -0.0466
  C  C263  1  0.503480  0.766940  0.815150  1.0  -0.0431
  C  C264  1  0.503320  0.700700  0.799300  1.0  -0.0889
  C  C265  1  0.503450  0.684850  0.733060  1.0  -0.043
  C  C266  1  0.503450  0.733060  0.684850  1.0  -0.0388
  C  C267  1  0.503320  0.799300  0.700700  1.0  -0.0886
  C  C268  1  0.503480  0.815150  0.766940  1.0  -0.0422
  C  C269  1  0.503460  0.315150  0.266940  1.0  -0.0459
  C  C270  1  0.503320  0.299300  0.200700  1.0  -0.0866
  C  C271  1  0.503470  0.233060  0.184850  1.0  -0.0448
  C  C272  1  0.503470  0.184850  0.233060  1.0  -0.0445
  C  C273  1  0.503320  0.200700  0.299300  1.0  -0.0874
  C  C274  1  0.503460  0.266940  0.315150  1.0  -0.0449
  C  C275  1  0.003480  0.266940  0.815150  1.0  -0.043
  C  C276  1  0.003320  0.200700  0.799300  1.0  -0.0889
  C  C277  1  0.003450  0.184850  0.733060  1.0  -0.0442
  C  C278  1  0.003450  0.233060  0.684850  1.0  -0.043
  C  C279  1  0.003320  0.299300  0.700700  1.0  -0.0886
  C  C280  1  0.003480  0.315150  0.766940  1.0  -0.0441
  C  C281  1  0.184850  0.996540  0.266940  1.0  -0.0462
  C  C282  1  0.200700  0.996680  0.200700  1.0  -0.0925
  C  C283  1  0.266940  0.996530  0.184850  1.0  -0.0493
  C  C284  1  0.315150  0.996530  0.233060  1.0  -0.0487
  C  C285  1  0.299300  0.996680  0.299300  1.0  -0.0897
  C  C286  1  0.233060  0.996540  0.315150  1.0  -0.0428
  C  C287  1  0.315150  0.496530  0.733060  1.0  -0.0488
  C  C288  1  0.299300  0.496680  0.799300  1.0  -0.0904
  C  C289  1  0.233060  0.496540  0.815150  1.0  -0.0497
  C  C290  1  0.184850  0.496540  0.766940  1.0  -0.0458
  C  C291  1  0.200700  0.496680  0.700700  1.0  -0.0899
  C  C292  1  0.266940  0.496530  0.684850  1.0  -0.0495
  C  C293  1  0.815150  0.996530  0.733060  1.0  -0.0488
  C  C294  1  0.799300  0.996680  0.799300  1.0  -0.0904
  C  C295  1  0.733060  0.996540  0.815150  1.0  -0.0497
  C  C296  1  0.684850  0.996540  0.766940  1.0  -0.0458
  C  C297  1  0.700700  0.996680  0.700700  1.0  -0.0899
  C  C298  1  0.766940  0.996530  0.684850  1.0  -0.0495
  C  C299  1  0.684850  0.496540  0.266940  1.0  -0.0462
  C  C300  1  0.700700  0.496680  0.200700  1.0  -0.0925
  C  C301  1  0.766940  0.496530  0.184850  1.0  -0.0492
  C  C302  1  0.815150  0.496530  0.233060  1.0  -0.0487
  C  C303  1  0.799300  0.496680  0.299300  1.0  -0.0897
  C  C304  1  0.733060  0.496540  0.315150  1.0  -0.0428
  C  C305  1  0.184850  0.003470  0.733060  1.0  -0.0497
  C  C306  1  0.200700  0.003320  0.799300  1.0  -0.089
  C  C307  1  0.266940  0.003460  0.815150  1.0  -0.0426
  C  C308  1  0.315150  0.003460  0.766940  1.0  -0.0457
  C  C309  1  0.299300  0.003320  0.700700  1.0  -0.0936
  C  C310  1  0.233060  0.003470  0.684850  1.0  -0.0493
  C  C311  1  0.315150  0.503460  0.266940  1.0  -0.0453
  C  C312  1  0.299300  0.503320  0.200700  1.0  -0.0905
  C  C313  1  0.233060  0.503470  0.184850  1.0  -0.0498
  C  C314  1  0.184850  0.503470  0.233060  1.0  -0.0489
  C  C315  1  0.200700  0.503320  0.299300  1.0  -0.0901
  C  C316  1  0.266940  0.503460  0.315150  1.0  -0.0475
  C  C317  1  0.815150  0.003460  0.266940  1.0  -0.0451
  C  C318  1  0.799300  0.003320  0.200700  1.0  -0.0905
  C  C319  1  0.733060  0.003470  0.184850  1.0  -0.0498
  C  C320  1  0.684850  0.003470  0.233060  1.0  -0.0489
  C  C321  1  0.700700  0.003320  0.299300  1.0  -0.0901
  C  C322  1  0.766940  0.003460  0.315150  1.0  -0.0475
  C  C323  1  0.684850  0.503470  0.733060  1.0  -0.0494
  C  C324  1  0.700700  0.503320  0.799300  1.0  -0.089
  C  C325  1  0.766940  0.503460  0.815150  1.0  -0.0425
  C  C326  1  0.815150  0.503460  0.766940  1.0  -0.0457
  C  C327  1  0.799300  0.503320  0.700700  1.0  -0.0936
  C  C328  1  0.733060  0.503470  0.684850  1.0  -0.0493
  O  O329  1  0.832680  0.088660  0.001760  1.0  -0.5769
  O  O330  1  0.167320  0.088660  0.998240  1.0  -0.5709
  O  O331  1  0.998240  0.167320  0.088660  1.0  -0.5859
  O  O332  1  0.001760  0.167320  0.911340  1.0  -0.5781
  O  O333  1  0.001760  0.088660  0.832680  1.0  -0.5829
  O  O334  1  0.998240  0.088660  0.167320  1.0  -0.5777
  O  O335  1  0.088660  0.167320  0.998240  1.0  -0.5843
  O  O336  1  0.911340  0.167320  0.001760  1.0  -0.5814
  O  O337  1  0.058630  0.058630  0.941370  1.0  -0.9344
  O  O338  1  0.941370  0.058630  0.058630  1.0  -0.9306
  O  O339  1  0.058200  0.058200  0.058200  1.0  -0.8197
  O  O340  1  0.941800  0.058200  0.941800  1.0  -0.8211
  O  O341  1  0.167320  0.911340  0.001760  1.0  -0.5702
  O  O342  1  0.832680  0.911340  0.998240  1.0  -0.5749
  O  O343  1  0.088660  0.998240  0.167320  1.0  -0.5763
  O  O344  1  0.088660  0.001760  0.832680  1.0  -0.5799
  O  O345  1  0.911340  0.998240  0.832680  1.0  -0.5767
  O  O346  1  0.911340  0.001760  0.167320  1.0  -0.5805
  O  O347  1  0.001760  0.832680  0.088660  1.0  -0.5793
  O  O348  1  0.998240  0.832680  0.911340  1.0  -0.5866
  O  O349  1  0.001760  0.911340  0.167320  1.0  -0.5807
  O  O350  1  0.998240  0.911340  0.832680  1.0  -0.5767
  O  O351  1  0.167320  0.998240  0.088660  1.0  -0.5761
  O  O352  1  0.832680  0.001760  0.088660  1.0  -0.5769
  O  O353  1  0.832680  0.998240  0.911340  1.0  -0.5795
  O  O354  1  0.167320  0.001760  0.911340  1.0  -0.5771
  O  O355  1  0.088660  0.832680  0.001760  1.0  -0.5824
  O  O356  1  0.911340  0.832680  0.998240  1.0  -0.5774
  O  O357  1  0.941370  0.941370  0.941370  1.0  -0.9323
  O  O358  1  0.058630  0.941370  0.058630  1.0  -0.9227
  O  O359  1  0.941800  0.941800  0.058200  1.0  -0.8217
  O  O360  1  0.058200  0.941800  0.941800  1.0  -0.8209
  O  O361  1  0.332680  0.588660  0.001760  1.0  -0.5769
  O  O362  1  0.667320  0.588660  0.998240  1.0  -0.5709
  O  O363  1  0.498240  0.667320  0.088660  1.0  -0.5859
  O  O364  1  0.501760  0.667320  0.911340  1.0  -0.5781
  O  O365  1  0.501760  0.588660  0.832680  1.0  -0.5829
  O  O366  1  0.498240  0.588660  0.167320  1.0  -0.5777
  O  O367  1  0.588660  0.667320  0.998240  1.0  -0.5843
  O  O368  1  0.411340  0.667320  0.001760  1.0  -0.5814
  O  O369  1  0.558630  0.558630  0.941370  1.0  -0.9344
  O  O370  1  0.441370  0.558630  0.058630  1.0  -0.9306
  O  O371  1  0.558200  0.558200  0.058200  1.0  -0.8197
  O  O372  1  0.441800  0.558200  0.941800  1.0  -0.8211
  O  O373  1  0.667320  0.411340  0.001760  1.0  -0.5702
  O  O374  1  0.332680  0.411340  0.998240  1.0  -0.5749
  O  O375  1  0.588660  0.498240  0.167320  1.0  -0.5763
  O  O376  1  0.588660  0.501760  0.832680  1.0  -0.5799
  O  O377  1  0.411340  0.498240  0.832680  1.0  -0.5767
  O  O378  1  0.411340  0.501760  0.167320  1.0  -0.5805
  O  O379  1  0.501760  0.332680  0.088660  1.0  -0.5793
  O  O380  1  0.498240  0.332680  0.911340  1.0  -0.5866
  O  O381  1  0.501760  0.411340  0.167320  1.0  -0.5807
  O  O382  1  0.498240  0.411340  0.832680  1.0  -0.5767
  O  O383  1  0.667320  0.498240  0.088660  1.0  -0.5761
  O  O384  1  0.332680  0.501760  0.088660  1.0  -0.5769
  O  O385  1  0.332680  0.498240  0.911340  1.0  -0.5795
  O  O386  1  0.667320  0.501760  0.911340  1.0  -0.5771
  O  O387  1  0.588660  0.332680  0.001760  1.0  -0.5824
  O  O388  1  0.411340  0.332680  0.998240  1.0  -0.5774
  O  O389  1  0.441370  0.441370  0.941370  1.0  -0.9323
  O  O390  1  0.558630  0.441370  0.058630  1.0  -0.9227
  O  O391  1  0.441800  0.441800  0.058200  1.0  -0.8217
  O  O392  1  0.558200  0.441800  0.941800  1.0  -0.8209
  O  O393  1  0.832680  0.588660  0.501760  1.0  -0.5706
  O  O394  1  0.167320  0.588660  0.498240  1.0  -0.5754
  O  O395  1  0.998240  0.667320  0.588660  1.0  -0.5796
  O  O396  1  0.001760  0.667320  0.411340  1.0  -0.5854
  O  O397  1  0.001760  0.588660  0.332680  1.0  -0.5785
  O  O398  1  0.998240  0.588660  0.667320  1.0  -0.582
  O  O399  1  0.088660  0.667320  0.498240  1.0  -0.5792
  O  O400  1  0.911340  0.667320  0.501760  1.0  -0.5809
  O  O401  1  0.058630  0.558630  0.441370  1.0  -0.9344
  O  O402  1  0.941370  0.558630  0.558630  1.0  -0.9177
  O  O403  1  0.058200  0.558200  0.558200  1.0  -0.8197
  O  O404  1  0.941800  0.558200  0.441800  1.0  -0.8211
  O  O405  1  0.167320  0.411340  0.501760  1.0  -0.5775
  O  O406  1  0.832680  0.411340  0.498240  1.0  -0.5723
  O  O407  1  0.088660  0.498240  0.667320  1.0  -0.5792
  O  O408  1  0.088660  0.501760  0.332680  1.0  -0.5778
  O  O409  1  0.911340  0.498240  0.332680  1.0  -0.5797
  O  O410  1  0.911340  0.501760  0.667320  1.0  -0.5774
  O  O411  1  0.001760  0.332680  0.588660  1.0  -0.5852
  O  O412  1  0.998240  0.332680  0.411340  1.0  -0.5796
  O  O413  1  0.001760  0.411340  0.667320  1.0  -0.5758
  O  O414  1  0.998240  0.411340  0.332680  1.0  -0.5821
  O  O415  1  0.167320  0.498240  0.588660  1.0  -0.577
  O  O416  1  0.832680  0.501760  0.588660  1.0  -0.5761
  O  O417  1  0.832680  0.498240  0.411340  1.0  -0.5755
  O  O418  1  0.167320  0.501760  0.411340  1.0  -0.5807
  O  O419  1  0.088660  0.332680  0.501760  1.0  -0.5807
  O  O420  1  0.911340  0.332680  0.498240  1.0  -0.5831
  O  O421  1  0.941370  0.441370  0.441370  1.0  -0.9323
  O  O422  1  0.058630  0.441370  0.558630  1.0  -0.9353
  O  O423  1  0.941800  0.441800  0.558200  1.0  -0.8217
  O  O424  1  0.058200  0.441800  0.441800  1.0  -0.8209
  O  O425  1  0.332680  0.088660  0.501760  1.0  -0.5706
  O  O426  1  0.667320  0.088660  0.498240  1.0  -0.5754
  O  O427  1  0.498240  0.167320  0.588660  1.0  -0.5796
  O  O428  1  0.501760  0.167320  0.411340  1.0  -0.5854
  O  O429  1  0.501760  0.088660  0.332680  1.0  -0.5785
  O  O430  1  0.498240  0.088660  0.667320  1.0  -0.582
  O  O431  1  0.588660  0.167320  0.498240  1.0  -0.5792
  O  O432  1  0.411340  0.167320  0.501760  1.0  -0.5809
  O  O433  1  0.558630  0.058630  0.441370  1.0  -0.9344
  O  O434  1  0.441370  0.058630  0.558630  1.0  -0.9177
  O  O435  1  0.558200  0.058200  0.558200  1.0  -0.8197
  O  O436  1  0.441800  0.058200  0.441800  1.0  -0.8211
  O  O437  1  0.667320  0.911340  0.501760  1.0  -0.5775
  O  O438  1  0.332680  0.911340  0.498240  1.0  -0.5723
  O  O439  1  0.588660  0.998240  0.667320  1.0  -0.5792
  O  O440  1  0.588660  0.001760  0.332680  1.0  -0.5778
  O  O441  1  0.411340  0.998240  0.332680  1.0  -0.5797
  O  O442  1  0.411340  0.001760  0.667320  1.0  -0.5774
  O  O443  1  0.501760  0.832680  0.588660  1.0  -0.5852
  O  O444  1  0.498240  0.832680  0.411340  1.0  -0.5796
  O  O445  1  0.501760  0.911340  0.667320  1.0  -0.5758
  O  O446  1  0.498240  0.911340  0.332680  1.0  -0.5821
  O  O447  1  0.667320  0.998240  0.588660  1.0  -0.577
  O  O448  1  0.332680  0.001760  0.588660  1.0  -0.5761
  O  O449  1  0.332680  0.998240  0.411340  1.0  -0.5755
  O  O450  1  0.667320  0.001760  0.411340  1.0  -0.5807
  O  O451  1  0.588660  0.832680  0.501760  1.0  -0.5807
  O  O452  1  0.411340  0.832680  0.498240  1.0  -0.5831
  O  O453  1  0.441370  0.941370  0.441370  1.0  -0.9323
  O  O454  1  0.558630  0.941370  0.558630  1.0  -0.9353
  O  O455  1  0.441800  0.941800  0.558200  1.0  -0.8217
  O  O456  1  0.558200  0.941800  0.441800  1.0  -0.8209
