# generated using pymatgen
data_Zr3H14(C3O2)8
_symmetry_space_group_name_H-M   'P 1'
_cell_length_a   14.81740000
_cell_length_b   14.81740000
_cell_length_c   14.81740000
_cell_angle_alpha   60.00000000
_cell_angle_beta   60.00000000
_cell_angle_gamma   60.00000000
_symmetry_Int_Tables_number   1
_chemical_formula_structural   Zr3H14(C3O2)8
_chemical_formula_sum   'Zr6 H28 C48 O32'
_cell_volume   2300.38759518
_cell_formula_units_Z   2
loop_
 _symmetry_equiv_pos_site_id
 _symmetry_equiv_pos_as_xyz
  1  'x, y, z'
loop_
 _atom_site_type_symbol
 _atom_site_label
 _atom_site_symmetry_multiplicity
 _atom_site_fract_x
 _atom_site_fract_y
 _atom_site_fract_z
 _atom_site_occupancy
 _atom_site_charge
  Zr  Zr1  1  0.876300  0.876300  0.123700  1.0  1.838
  Zr  Zr2  1  0.123700  0.123700  0.876300  1.0  1.834
  Zr  Zr3  1  0.123700  0.876300  0.876300  1.0  1.8376
  Zr  Zr4  1  0.876300  0.123700  0.123700  1.0  1.8391
  Zr  Zr5  1  0.876300  0.123700  0.876300  1.0  1.8375
  Zr  Zr6  1  0.123700  0.876300  0.123700  1.0  1.8385
  H  H7  1  0.590770  0.144130  0.409230  1.0  0.1297
  H  H8  1  0.144130  0.590770  0.855870  1.0  0.1286
  H  H9  1  0.409230  0.855870  0.590770  1.0  0.1295
  H  H10  1  0.855870  0.409230  0.144130  1.0  0.1277
  H  H11  1  0.409230  0.590770  0.144130  1.0  0.1245
  H  H12  1  0.855870  0.144130  0.590770  1.0  0.1285
  H  H13  1  0.590770  0.409230  0.855870  1.0  0.1256
  H  H14  1  0.144130  0.855870  0.409230  1.0  0.1271
  H  H15  1  0.144130  0.409230  0.590770  1.0  0.1265
  H  H16  1  0.590770  0.855870  0.144130  1.0  0.1262
  H  H17  1  0.855870  0.590770  0.409230  1.0  0.1279
  H  H18  1  0.409230  0.144130  0.855870  1.0  0.1289
  H  H19  1  0.144130  0.590770  0.409230  1.0  0.1274
  H  H20  1  0.590770  0.144130  0.855870  1.0  0.1303
  H  H21  1  0.855870  0.409230  0.590770  1.0  0.1287
  H  H22  1  0.409230  0.855870  0.144130  1.0  0.1289
  H  H23  1  0.590770  0.409230  0.144130  1.0  0.1236
  H  H24  1  0.144130  0.855870  0.590770  1.0  0.1273
  H  H25  1  0.409230  0.590770  0.855870  1.0  0.1265
  H  H26  1  0.855870  0.144130  0.409230  1.0  0.1285
  H  H27  1  0.409230  0.144130  0.590770  1.0  0.1286
  H  H28  1  0.855870  0.590770  0.144130  1.0  0.1285
  H  H29  1  0.590770  0.855870  0.409230  1.0  0.126
  H  H30  1  0.144130  0.409230  0.855870  1.0  0.1275
  H  H31  1  0.906400  0.906400  0.280790  1.0  0.3517
  H  H32  1  0.906400  0.906400  0.906400  1.0  0.3528
  H  H33  1  0.280790  0.906400  0.906400  1.0  0.3529
  H  H34  1  0.906400  0.280790  0.906400  1.0  0.3546
  C  C35  1  0.552300  0.077500  0.447700  1.0  -0.0253
  C  C36  1  0.077500  0.552300  0.922500  1.0  -0.0229
  C  C37  1  0.447700  0.922500  0.552300  1.0  -0.0263
  C  C38  1  0.922500  0.447700  0.077500  1.0  -0.0227
  C  C39  1  0.447700  0.552300  0.077500  1.0  -0.024
  C  C40  1  0.922500  0.077500  0.552300  1.0  -0.023
  C  C41  1  0.552300  0.447700  0.922500  1.0  -0.0249
  C  C42  1  0.077500  0.922500  0.447700  1.0  -0.0252
  C  C43  1  0.077500  0.447700  0.552300  1.0  -0.024
  C  C44  1  0.552300  0.922500  0.077500  1.0  -0.0271
  C  C45  1  0.922500  0.552300  0.447700  1.0  -0.0219
  C  C46  1  0.447700  0.077500  0.922500  1.0  -0.0268
  C  C47  1  0.077500  0.552300  0.447700  1.0  -0.0219
  C  C48  1  0.552300  0.077500  0.922500  1.0  -0.0257
  C  C49  1  0.922500  0.447700  0.552300  1.0  -0.0219
  C  C50  1  0.447700  0.922500  0.077500  1.0  -0.0256
  C  C51  1  0.552300  0.447700  0.077500  1.0  -0.0246
  C  C52  1  0.077500  0.922500  0.552300  1.0  -0.0244
  C  C53  1  0.447700  0.552300  0.922500  1.0  -0.0238
  C  C54  1  0.922500  0.077500  0.447700  1.0  -0.0225
  C  C55  1  0.447700  0.077500  0.552300  1.0  -0.0258
  C  C56  1  0.922500  0.552300  0.077500  1.0  -0.0208
  C  C57  1  0.552300  0.922500  0.447700  1.0  -0.028
  C  C58  1  0.077500  0.447700  0.922500  1.0  -0.0255
  C  C59  1  0.687400  0.000000  0.312600  1.0  0.6871
  C  C60  1  0.593400  0.000000  0.406600  1.0  0.1679
  C  C61  1  0.000000  0.687400  0.000000  1.0  0.6839
  C  C62  1  0.000000  0.593400  0.000000  1.0  0.1683
  C  C63  1  0.312600  0.000000  0.687400  1.0  0.6827
  C  C64  1  0.406600  0.000000  0.593400  1.0  0.1664
  C  C65  1  0.000000  0.312600  0.000000  1.0  0.6815
  C  C66  1  0.000000  0.406600  0.000000  1.0  0.1685
  C  C67  1  0.312600  0.687400  0.000000  1.0  0.6832
  C  C68  1  0.406600  0.593400  0.000000  1.0  0.1668
  C  C69  1  0.000000  0.000000  0.687400  1.0  0.6878
  C  C70  1  0.000000  0.000000  0.593400  1.0  0.1676
  C  C71  1  0.687400  0.312600  0.000000  1.0  0.6841
  C  C72  1  0.593400  0.406600  0.000000  1.0  0.1681
  C  C73  1  0.000000  0.000000  0.312600  1.0  0.6868
  C  C74  1  0.000000  0.000000  0.406600  1.0  0.1679
  C  C75  1  0.000000  0.312600  0.687400  1.0  0.6817
  C  C76  1  0.000000  0.406600  0.593400  1.0  0.1683
  C  C77  1  0.687400  0.000000  0.000000  1.0  0.6867
  C  C78  1  0.593400  0.000000  0.000000  1.0  0.168
  C  C79  1  0.000000  0.687400  0.312600  1.0  0.6842
  C  C80  1  0.000000  0.593400  0.406600  1.0  0.1682
  C  C81  1  0.312600  0.000000  0.000000  1.0  0.6825
  C  C82  1  0.406600  0.000000  0.000000  1.0  0.1664
  O  O83  1  0.726900  0.924500  0.273100  1.0  -0.7447
  O  O84  1  0.924500  0.726900  0.075500  1.0  -0.7426
  O  O85  1  0.273100  0.075500  0.726900  1.0  -0.745
  O  O86  1  0.075500  0.273100  0.924500  1.0  -0.742
  O  O87  1  0.273100  0.726900  0.924500  1.0  -0.7418
  O  O88  1  0.075500  0.924500  0.726900  1.0  -0.7439
  O  O89  1  0.726900  0.273100  0.075500  1.0  -0.743
  O  O90  1  0.924500  0.075500  0.273100  1.0  -0.7441
  O  O91  1  0.924500  0.273100  0.726900  1.0  -0.7403
  O  O92  1  0.726900  0.075500  0.924500  1.0  -0.743
  O  O93  1  0.075500  0.726900  0.273100  1.0  -0.7406
  O  O94  1  0.273100  0.924500  0.075500  1.0  -0.7436
  O  O95  1  0.924500  0.726900  0.273100  1.0  -0.7411
  O  O96  1  0.726900  0.924500  0.075500  1.0  -0.7453
  O  O97  1  0.075500  0.273100  0.726900  1.0  -0.7442
  O  O98  1  0.273100  0.075500  0.924500  1.0  -0.7428
  O  O99  1  0.726900  0.273100  0.924500  1.0  -0.7414
  O  O100  1  0.924500  0.075500  0.726900  1.0  -0.7435
  O  O101  1  0.273100  0.726900  0.075500  1.0  -0.742
  O  O102  1  0.075500  0.924500  0.273100  1.0  -0.7448
  O  O103  1  0.273100  0.924500  0.726900  1.0  -0.7432
  O  O104  1  0.075500  0.726900  0.924500  1.0  -0.7407
  O  O105  1  0.726900  0.075500  0.273100  1.0  -0.7429
  O  O106  1  0.924500  0.273100  0.075500  1.0  -0.7416
  O  O107  1  0.786400  0.071200  0.071200  1.0  -0.9536
  O  O108  1  0.071200  0.786400  0.071200  1.0  -0.9546
  O  O109  1  0.071200  0.071200  0.786400  1.0  -0.9546
  O  O110  1  0.071200  0.071200  0.071200  1.0  -0.9538
  O  O111  1  0.928800  0.928800  0.213600  1.0  -0.8761
  O  O112  1  0.928800  0.928800  0.928800  1.0  -0.8745
  O  O113  1  0.213600  0.928800  0.928800  1.0  -0.8713
  O  O114  1  0.928800  0.213600  0.928800  1.0  -0.8727
