# generated using pymatgen
data_ZnH36Pt2Au2C20S4(NO2)4
_symmetry_space_group_name_H-M   'P 1'
_cell_length_a   12.45800000
_cell_length_b   12.45800000
_cell_length_c   24.67300000
_cell_angle_alpha   90.00000000
_cell_angle_beta   90.00000000
_cell_angle_gamma   120.00000000
_symmetry_Int_Tables_number   1
_chemical_formula_structural   ZnH36Pt2Au2C20S4(NO2)4
_chemical_formula_sum   'Zn3 H108 Pt6 Au6 C60 S12 N12 O24'
_cell_volume   3316.26512320
_cell_formula_units_Z   3
loop_
 _symmetry_equiv_pos_site_id
 _symmetry_equiv_pos_as_xyz
  1  'x, y, z'
loop_
 _atom_site_type_symbol
 _atom_site_label
 _atom_site_symmetry_multiplicity
 _atom_site_fract_x
 _atom_site_fract_y
 _atom_site_fract_z
 _atom_site_occupancy
 _atom_site_charge
  Zn  Zn1  1  0.000000  0.000000  0.666667  1.0  1.1073
  Zn  Zn2  1  0.000000  0.000000  0.333333  1.0  1.1071
  Zn  Zn3  1  0.000000  0.000000  0.000000  1.0  1.1073
  H  H4  1  0.352200  0.077100  0.755300  1.0  0.3174
  H  H5  1  0.328300  0.025100  0.699600  1.0  0.3108
  H  H6  1  0.233000  0.891300  0.795000  1.0  0.0962
  H  H7  1  0.133600  0.665700  0.794500  1.0  0.1246
  H  H8  1  0.118500  0.590900  0.739600  1.0  0.1228
  H  H9  1  0.037200  0.656000  0.749200  1.0  0.1408
  H  H10  1  0.207100  0.705700  0.652400  1.0  0.1193
  H  H11  1  0.270800  0.853500  0.651500  1.0  0.1234
  H  H12  1  0.123700  0.769600  0.658000  1.0  0.1377
  H  H13  1  0.724900  0.647800  0.421970  1.0  0.3179
  H  H14  1  0.696800  0.671700  0.366270  1.0  0.309
  H  H15  1  0.658300  0.767000  0.461670  1.0  0.0964
  H  H16  1  0.532100  0.866400  0.461170  1.0  0.1243
  H  H17  1  0.472400  0.881500  0.406270  1.0  0.1231
  H  H18  1  0.618800  0.962800  0.415870  1.0  0.1339
  H  H19  1  0.498600  0.792900  0.319070  1.0  0.1182
  H  H20  1  0.582700  0.729200  0.318170  1.0  0.1238
  H  H21  1  0.645900  0.876300  0.324670  1.0  0.1372
  H  H22  1  0.922900  0.275100  0.088630  1.0  0.3183
  H  H23  1  0.974900  0.303200  0.032930  1.0  0.3111
  H  H24  1  0.108700  0.341700  0.128330  1.0  0.0961
  H  H25  1  0.334300  0.467900  0.127830  1.0  0.1238
  H  H26  1  0.409100  0.527600  0.072930  1.0  0.1226
  H  H27  1  0.344000  0.381200  0.082530  1.0  0.1352
  H  H28  1  0.294300  0.501400  0.985730  1.0  0.1204
  H  H29  1  0.146500  0.417300  0.984830  1.0  0.1236
  H  H30  1  0.230400  0.354100  0.991330  1.0  0.138
  H  H31  1  0.647800  0.922900  0.755300  1.0  0.3184
  H  H32  1  0.671700  0.974900  0.699600  1.0  0.3103
  H  H33  1  0.767000  0.108700  0.795000  1.0  0.0959
  H  H34  1  0.866400  0.334300  0.794500  1.0  0.1241
  H  H35  1  0.881500  0.409100  0.739600  1.0  0.1232
  H  H36  1  0.962800  0.344000  0.749200  1.0  0.1394
  H  H37  1  0.792900  0.294300  0.652400  1.0  0.1189
  H  H38  1  0.729200  0.146500  0.651500  1.0  0.1226
  H  H39  1  0.876300  0.230400  0.658000  1.0  0.1376
  H  H40  1  0.275100  0.352200  0.421970  1.0  0.3178
  H  H41  1  0.303200  0.328300  0.366270  1.0  0.311
  H  H42  1  0.341700  0.233000  0.461670  1.0  0.0961
  H  H43  1  0.467900  0.133600  0.461170  1.0  0.1235
  H  H44  1  0.527600  0.118500  0.406270  1.0  0.1233
  H  H45  1  0.381200  0.037200  0.415870  1.0  0.1353
  H  H46  1  0.501400  0.207100  0.319070  1.0  0.1191
  H  H47  1  0.417300  0.270800  0.318170  1.0  0.123
  H  H48  1  0.354100  0.123700  0.324670  1.0  0.1373
  H  H49  1  0.077100  0.724900  0.088630  1.0  0.3174
  H  H50  1  0.025100  0.696800  0.032930  1.0  0.3115
  H  H51  1  0.891300  0.658300  0.128330  1.0  0.096
  H  H52  1  0.665700  0.532100  0.127830  1.0  0.1243
  H  H53  1  0.590900  0.472400  0.072930  1.0  0.1225
  H  H54  1  0.656000  0.618800  0.082530  1.0  0.1357
  H  H55  1  0.705700  0.498600  0.985730  1.0  0.1201
  H  H56  1  0.853500  0.582700  0.984830  1.0  0.1245
  H  H57  1  0.769600  0.645900  0.991330  1.0  0.1375
  H  H58  1  0.275100  0.922900  0.911370  1.0  0.3178
  H  H59  1  0.303200  0.974900  0.967070  1.0  0.3107
  H  H60  1  0.341700  0.108700  0.871670  1.0  0.0962
  H  H61  1  0.467900  0.334300  0.872170  1.0  0.1245
  H  H62  1  0.527600  0.409100  0.927070  1.0  0.1235
  H  H63  1  0.381200  0.344000  0.917470  1.0  0.14
  H  H64  1  0.501400  0.294300  0.014270  1.0  0.1181
  H  H65  1  0.417300  0.146500  0.015170  1.0  0.1229
  H  H66  1  0.354100  0.230400  0.008670  1.0  0.1352
  H  H67  1  0.077100  0.352200  0.244700  1.0  0.3181
  H  H68  1  0.025100  0.328300  0.300400  1.0  0.31
  H  H69  1  0.891300  0.233000  0.205000  1.0  0.0963
  H  H70  1  0.665700  0.133600  0.205500  1.0  0.1243
  H  H71  1  0.590900  0.118500  0.260400  1.0  0.1224
  H  H72  1  0.656000  0.037200  0.250800  1.0  0.1352
  H  H73  1  0.705700  0.207100  0.347600  1.0  0.1183
  H  H74  1  0.853500  0.270800  0.348500  1.0  0.123
  H  H75  1  0.769600  0.123700  0.342000  1.0  0.1378
  H  H76  1  0.647800  0.724900  0.578030  1.0  0.3187
  H  H77  1  0.671700  0.696800  0.633730  1.0  0.3114
  H  H78  1  0.767000  0.658300  0.538330  1.0  0.0962
  H  H79  1  0.866400  0.532100  0.538830  1.0  0.1243
  H  H80  1  0.881500  0.472400  0.593730  1.0  0.1226
  H  H81  1  0.962800  0.618800  0.584130  1.0  0.1355
  H  H82  1  0.792900  0.498600  0.680930  1.0  0.1209
  H  H83  1  0.729200  0.582700  0.681830  1.0  0.1244
  H  H84  1  0.876300  0.645900  0.675330  1.0  0.1385
  H  H85  1  0.724900  0.077100  0.911370  1.0  0.3176
  H  H86  1  0.696800  0.025100  0.967070  1.0  0.3104
  H  H87  1  0.658300  0.891300  0.871670  1.0  0.0961
  H  H88  1  0.532100  0.665700  0.872170  1.0  0.1239
  H  H89  1  0.472400  0.590900  0.927070  1.0  0.1223
  H  H90  1  0.618800  0.656000  0.917470  1.0  0.1411
  H  H91  1  0.498600  0.705700  0.014270  1.0  0.1188
  H  H92  1  0.582700  0.853500  0.015170  1.0  0.123
  H  H93  1  0.645900  0.769600  0.008670  1.0  0.1393
  H  H94  1  0.922900  0.647800  0.244700  1.0  0.3182
  H  H95  1  0.974900  0.671700  0.300400  1.0  0.3104
  H  H96  1  0.108700  0.767000  0.205000  1.0  0.0966
  H  H97  1  0.334300  0.866400  0.205500  1.0  0.124
  H  H98  1  0.409100  0.881500  0.260400  1.0  0.1243
  H  H99  1  0.344000  0.962800  0.250800  1.0  0.1325
  H  H100  1  0.294300  0.792900  0.347600  1.0  0.1194
  H  H101  1  0.146500  0.729200  0.348500  1.0  0.1238
  H  H102  1  0.230400  0.876300  0.342000  1.0  0.1381
  H  H103  1  0.352200  0.275100  0.578030  1.0  0.3175
  H  H104  1  0.328300  0.303200  0.633730  1.0  0.3111
  H  H105  1  0.233000  0.341700  0.538330  1.0  0.0961
  H  H106  1  0.133600  0.467900  0.538830  1.0  0.1242
  H  H107  1  0.118500  0.527600  0.593730  1.0  0.1226
  H  H108  1  0.037200  0.381200  0.584130  1.0  0.1339
  H  H109  1  0.207100  0.501400  0.680930  1.0  0.1198
  H  H110  1  0.270800  0.417300  0.681830  1.0  0.1239
  H  H111  1  0.123700  0.354100  0.675330  1.0  0.1387
  Pt  Pt112  1  0.500000  0.000000  0.738340  1.0  -0.0682
  Pt  Pt113  1  0.500000  0.500000  0.405010  1.0  -0.0684
  Pt  Pt114  1  0.000000  0.500000  0.071670  1.0  -0.0682
  Pt  Pt115  1  0.500000  0.000000  0.928330  1.0  -0.0686
  Pt  Pt116  1  0.000000  0.500000  0.261660  1.0  -0.0686
  Pt  Pt117  1  0.500000  0.500000  0.594990  1.0  -0.0687
  Au  Au118  1  0.393110  0.786220  0.833330  1.0  -0.0226
  Au  Au119  1  0.393110  0.606900  0.500000  1.0  -0.0244
  Au  Au120  1  0.213790  0.606900  0.166670  1.0  -0.0249
  Au  Au121  1  0.606890  0.213780  0.833330  1.0  -0.0233
  Au  Au122  1  0.606890  0.393100  0.500000  1.0  -0.0244
  Au  Au123  1  0.786210  0.393100  0.166670  1.0  -0.0241
  C  C124  1  0.218300  0.780100  0.729200  1.0  0.2124
  C  C125  1  0.227400  0.896400  0.754700  1.0  -0.0743
  C  C126  1  0.118100  0.662900  0.755500  1.0  -0.3873
  C  C127  1  0.203600  0.776900  0.667100  1.0  -0.3842
  C  C128  1  0.112400  0.906400  0.741000  1.0  0.636
  C  C129  1  0.561800  0.781700  0.395870  1.0  0.2113
  C  C130  1  0.669000  0.772600  0.421370  1.0  -0.0752
  C  C131  1  0.544800  0.881900  0.422170  1.0  -0.3867
  C  C132  1  0.573300  0.796400  0.333770  1.0  -0.3855
  C  C133  1  0.794000  0.887600  0.407670  1.0  0.6366
  C  C134  1  0.219900  0.438200  0.062530  1.0  0.2119
  C  C135  1  0.103600  0.331000  0.088030  1.0  -0.0742
  C  C136  1  0.337100  0.455200  0.088830  1.0  -0.3846
  C  C137  1  0.223100  0.426700  0.000430  1.0  -0.384
  C  C138  1  0.093600  0.206000  0.074330  1.0  0.6366
  C  C139  1  0.781700  0.219900  0.729200  1.0  0.2118
  C  C140  1  0.772600  0.103600  0.754700  1.0  -0.0736
  C  C141  1  0.881900  0.337100  0.755500  1.0  -0.3868
  C  C142  1  0.796400  0.223100  0.667100  1.0  -0.3853
  C  C143  1  0.887600  0.093600  0.741000  1.0  0.638
  C  C144  1  0.438200  0.218300  0.395870  1.0  0.2111
  C  C145  1  0.331000  0.227400  0.421370  1.0  -0.0744
  C  C146  1  0.455200  0.118100  0.422170  1.0  -0.3865
  C  C147  1  0.426700  0.203600  0.333770  1.0  -0.3849
  C  C148  1  0.206000  0.112400  0.407670  1.0  0.6366
  C  C149  1  0.780100  0.561800  0.062530  1.0  0.2119
  C  C150  1  0.896400  0.669000  0.088030  1.0  -0.0736
  C  C151  1  0.662900  0.544800  0.088830  1.0  -0.3856
  C  C152  1  0.776900  0.573300  0.000430  1.0  -0.3836
  C  C153  1  0.906400  0.794000  0.074330  1.0  0.6381
  C  C154  1  0.438200  0.219900  0.937470  1.0  0.2107
  C  C155  1  0.331000  0.103600  0.911970  1.0  -0.073
  C  C156  1  0.455200  0.337100  0.911170  1.0  -0.3868
  C  C157  1  0.426700  0.223100  0.999570  1.0  -0.3843
  C  C158  1  0.206000  0.093600  0.925670  1.0  0.6366
  C  C159  1  0.780100  0.218300  0.270800  1.0  0.21
  C  C160  1  0.896400  0.227400  0.245300  1.0  -0.0736
  C  C161  1  0.662900  0.118100  0.244500  1.0  -0.3862
  C  C162  1  0.776900  0.203600  0.332900  1.0  -0.3851
  C  C163  1  0.906400  0.112400  0.259000  1.0  0.6381
  C  C164  1  0.781700  0.561800  0.604130  1.0  0.2104
  C  C165  1  0.772600  0.669000  0.578630  1.0  -0.0727
  C  C166  1  0.881900  0.544800  0.577830  1.0  -0.3855
  C  C167  1  0.796400  0.573300  0.666230  1.0  -0.3846
  C  C168  1  0.887600  0.794000  0.592330  1.0  0.6378
  C  C169  1  0.561800  0.780100  0.937470  1.0  0.2107
  C  C170  1  0.669000  0.896400  0.911970  1.0  -0.0724
  C  C171  1  0.544800  0.662900  0.911170  1.0  -0.3877
  C  C172  1  0.573300  0.776900  0.999570  1.0  -0.385
  C  C173  1  0.794000  0.906400  0.925670  1.0  0.6388
  C  C174  1  0.219900  0.781700  0.270800  1.0  0.2088
  C  C175  1  0.103600  0.772600  0.245300  1.0  -0.073
  C  C176  1  0.337100  0.881900  0.244500  1.0  -0.3871
  C  C177  1  0.223100  0.796400  0.332900  1.0  -0.3861
  C  C178  1  0.093600  0.887600  0.259000  1.0  0.6383
  C  C179  1  0.218300  0.438200  0.604130  1.0  0.2105
  C  C180  1  0.227400  0.331000  0.578630  1.0  -0.0721
  C  C181  1  0.118100  0.455200  0.577830  1.0  -0.3854
  C  C182  1  0.203600  0.426700  0.666230  1.0  -0.3835
  C  C183  1  0.112400  0.206000  0.592330  1.0  0.6378
  S  S184  1  0.370510  0.788420  0.741100  1.0  -0.129
  S  S185  1  0.417910  0.629490  0.407770  1.0  -0.1316
  S  S186  1  0.211580  0.582090  0.074430  1.0  -0.1277
  S  S187  1  0.629490  0.211580  0.741100  1.0  -0.1283
  S  S188  1  0.582090  0.370510  0.407770  1.0  -0.1313
  S  S189  1  0.788420  0.417910  0.074430  1.0  -0.1291
  S  S190  1  0.582090  0.211580  0.925570  1.0  -0.1283
  S  S191  1  0.788420  0.370510  0.258900  1.0  -0.1318
  S  S192  1  0.629490  0.417910  0.592230  1.0  -0.1291
  S  S193  1  0.417910  0.788420  0.925570  1.0  -0.1283
  S  S194  1  0.211580  0.629490  0.258900  1.0  -0.1313
  S  S195  1  0.370510  0.582090  0.592230  1.0  -0.1285
  N  N196  1  0.341200  0.010600  0.734900  1.0  -0.3913
  N  N197  1  0.669400  0.658800  0.401570  1.0  -0.3857
  N  N198  1  0.989400  0.330600  0.068230  1.0  -0.3863
  N  N199  1  0.658800  0.989400  0.734900  1.0  -0.3905
  N  N200  1  0.330600  0.341200  0.401570  1.0  -0.3896
  N  N201  1  0.010600  0.669400  0.068230  1.0  -0.3842
  N  N202  1  0.330600  0.989400  0.931770  1.0  -0.389
  N  N203  1  0.010600  0.341200  0.265100  1.0  -0.3854
  N  N204  1  0.658800  0.669400  0.598430  1.0  -0.3843
  N  N205  1  0.669400  0.010600  0.931770  1.0  -0.3902
  N  N206  1  0.989400  0.658800  0.265100  1.0  -0.3863
  N  N207  1  0.341200  0.330600  0.598430  1.0  -0.3847
  O  O208  1  0.124400  0.972000  0.699400  1.0  -0.6531
  O  O209  1  0.018800  0.849400  0.768500  1.0  -0.5553
  O  O210  1  0.847600  0.875600  0.366070  1.0  -0.6498
  O  O211  1  0.830600  0.981200  0.435170  1.0  -0.5554
  O  O212  1  0.028000  0.152400  0.032730  1.0  -0.6507
  O  O213  1  0.150600  0.169400  0.101830  1.0  -0.556
  O  O214  1  0.875600  0.028000  0.699400  1.0  -0.6506
  O  O215  1  0.981200  0.150600  0.768500  1.0  -0.5582
  O  O216  1  0.152400  0.124400  0.366070  1.0  -0.6506
  O  O217  1  0.169400  0.018800  0.435170  1.0  -0.5543
  O  O218  1  0.972000  0.847600  0.032730  1.0  -0.652
  O  O219  1  0.849400  0.830600  0.101830  1.0  -0.5569
  O  O220  1  0.152400  0.028000  0.967270  1.0  -0.6501
  O  O221  1  0.169400  0.150600  0.898170  1.0  -0.5569
  O  O222  1  0.972000  0.124400  0.300600  1.0  -0.6483
  O  O223  1  0.849400  0.018800  0.231500  1.0  -0.5553
  O  O224  1  0.875600  0.847600  0.633930  1.0  -0.6508
  O  O225  1  0.981200  0.830600  0.564830  1.0  -0.5566
  O  O226  1  0.847600  0.972000  0.967270  1.0  -0.6511
  O  O227  1  0.830600  0.849400  0.898170  1.0  -0.557
  O  O228  1  0.028000  0.875600  0.300600  1.0  -0.6485
  O  O229  1  0.150600  0.981200  0.231500  1.0  -0.5564
  O  O230  1  0.124400  0.152400  0.633930  1.0  -0.6478
  O  O231  1  0.018800  0.169400  0.564830  1.0  -0.5567
