# generated using pymatgen
data_Ag4H3C8N2O2F3
_symmetry_space_group_name_H-M   'P 1'
_cell_length_a   15.52390000
_cell_length_b   16.06130000
_cell_length_c   17.23220000
_cell_angle_alpha   90.00000000
_cell_angle_beta   90.00000000
_cell_angle_gamma   90.00000000
_symmetry_Int_Tables_number   1
_chemical_formula_structural   Ag4H3C8N2O2F3
_chemical_formula_sum   'Ag32 H24 C64 N16 O16 F24'
_cell_volume   4296.57361449
_cell_formula_units_Z   8
loop_
 _symmetry_equiv_pos_site_id
 _symmetry_equiv_pos_as_xyz
  1  'x, y, z'
loop_
 _atom_site_type_symbol
 _atom_site_label
 _atom_site_symmetry_multiplicity
 _atom_site_fract_x
 _atom_site_fract_y
 _atom_site_fract_z
 _atom_site_occupancy
 _atom_site_charge
  Ag  Ag1  1  0.741510  0.546720  0.597530  1.0  0.2691
  Ag  Ag2  1  0.281000  0.797190  0.481710  1.0  0.1277
  Ag  Ag3  1  0.311570  0.684340  0.816650  1.0  0.44
  Ag  Ag4  1  0.690100  0.824170  0.641680  1.0  0.2147
  Ag  Ag5  1  0.758490  0.453280  0.097530  1.0  0.2686
  Ag  Ag6  1  0.219000  0.202810  0.981710  1.0  0.1282
  Ag  Ag7  1  0.188430  0.315660  0.316650  1.0  0.4405
  Ag  Ag8  1  0.809900  0.175830  0.141680  1.0  0.2155
  Ag  Ag9  1  0.258490  0.046720  0.902470  1.0  0.2687
  Ag  Ag10  1  0.719000  0.297190  0.018290  1.0  0.1295
  Ag  Ag11  1  0.688430  0.184340  0.683350  1.0  0.4406
  Ag  Ag12  1  0.309900  0.324170  0.858320  1.0  0.215
  Ag  Ag13  1  0.241510  0.953280  0.402470  1.0  0.2693
  Ag  Ag14  1  0.781000  0.702810  0.518290  1.0  0.1284
  Ag  Ag15  1  0.811570  0.815660  0.183350  1.0  0.4406
  Ag  Ag16  1  0.190100  0.675830  0.358320  1.0  0.2144
  Ag  Ag17  1  0.258490  0.453280  0.402470  1.0  0.2686
  Ag  Ag18  1  0.719000  0.202810  0.518290  1.0  0.134
  Ag  Ag19  1  0.688430  0.315660  0.183350  1.0  0.4408
  Ag  Ag20  1  0.309900  0.175830  0.358320  1.0  0.2152
  Ag  Ag21  1  0.241510  0.546720  0.902470  1.0  0.2695
  Ag  Ag22  1  0.781000  0.797190  0.018290  1.0  0.1332
  Ag  Ag23  1  0.811570  0.684340  0.683350  1.0  0.4402
  Ag  Ag24  1  0.190100  0.824170  0.858320  1.0  0.2145
  Ag  Ag25  1  0.741510  0.953280  0.097530  1.0  0.269
  Ag  Ag26  1  0.281000  0.702810  0.981710  1.0  0.1274
  Ag  Ag27  1  0.311570  0.815660  0.316650  1.0  0.4403
  Ag  Ag28  1  0.690100  0.675830  0.141680  1.0  0.2147
  Ag  Ag29  1  0.758490  0.046720  0.597530  1.0  0.2684
  Ag  Ag30  1  0.219000  0.297190  0.481710  1.0  0.1285
  Ag  Ag31  1  0.188430  0.184340  0.816650  1.0  0.4404
  Ag  Ag32  1  0.809900  0.324170  0.641680  1.0  0.2152
  H  H33  1  0.497600  0.742400  0.518500  1.0  0.0727
  H  H34  1  0.290400  0.742300  0.644500  1.0  0.053
  H  H35  1  0.503500  0.667500  0.739800  1.0  0.0784
  H  H36  1  0.002400  0.257600  0.018500  1.0  0.0728
  H  H37  1  0.209600  0.257700  0.144500  1.0  0.0525
  H  H38  1  0.996500  0.332500  0.239800  1.0  0.0787
  H  H39  1  0.502400  0.242400  0.981500  1.0  0.0734
  H  H40  1  0.709600  0.242300  0.855500  1.0  0.053
  H  H41  1  0.496500  0.167500  0.760200  1.0  0.077
  H  H42  1  0.997600  0.757600  0.481500  1.0  0.0729
  H  H43  1  0.790400  0.757700  0.355500  1.0  0.0533
  H  H44  1  0.003500  0.832500  0.260200  1.0  0.0772
  H  H45  1  0.502400  0.257600  0.481500  1.0  0.0731
  H  H46  1  0.709600  0.257700  0.355500  1.0  0.0527
  H  H47  1  0.496500  0.332500  0.260200  1.0  0.0773
  H  H48  1  0.997600  0.742400  0.981500  1.0  0.0733
  H  H49  1  0.790400  0.742300  0.855500  1.0  0.0533
  H  H50  1  0.003500  0.667500  0.760200  1.0  0.077
  H  H51  1  0.497600  0.757600  0.018500  1.0  0.0727
  H  H52  1  0.290400  0.757700  0.144500  1.0  0.0531
  H  H53  1  0.503500  0.832500  0.239800  1.0  0.0785
  H  H54  1  0.002400  0.242400  0.518500  1.0  0.0726
  H  H55  1  0.209600  0.242300  0.644500  1.0  0.0528
  H  H56  1  0.996500  0.167500  0.739800  1.0  0.0784
  C  C57  1  0.686800  0.670400  0.620500  1.0  -0.2115
  C  C58  1  0.610500  0.688600  0.622600  1.0  -0.0199
  C  C59  1  0.518700  0.702600  0.628300  1.0  -0.0519
  C  C60  1  0.470100  0.732500  0.565600  1.0  0.1478
  C  C61  1  0.349200  0.732000  0.640100  1.0  0.3903
  C  C62  1  0.473900  0.688200  0.697000  1.0  0.1544
  C  C63  1  0.927200  0.507700  0.635000  1.0  0.6399
  C  C64  1  0.011500  0.459700  0.633100  1.0  0.4335
  C  C65  1  0.813200  0.329600  0.120500  1.0  -0.2126
  C  C66  1  0.889500  0.311400  0.122600  1.0  -0.022
  C  C67  1  0.981300  0.297400  0.128300  1.0  -0.0511
  C  C68  1  0.029900  0.267500  0.065600  1.0  0.1472
  C  C69  1  0.150800  0.268000  0.140100  1.0  0.3934
  C  C70  1  0.026100  0.311800  0.197000  1.0  0.1527
  C  C71  1  0.572800  0.492300  0.135000  1.0  0.6409
  C  C72  1  0.488500  0.540300  0.133100  1.0  0.4324
  C  C73  1  0.313200  0.170400  0.879500  1.0  -0.2079
  C  C74  1  0.389500  0.188600  0.877400  1.0  -0.0218
  C  C75  1  0.481300  0.202600  0.871700  1.0  -0.0519
  C  C76  1  0.529900  0.232500  0.934400  1.0  0.1441
  C  C77  1  0.650800  0.232000  0.859900  1.0  0.3929
  C  C78  1  0.526100  0.188200  0.803000  1.0  0.1544
  C  C79  1  0.072800  0.007700  0.865000  1.0  0.6413
  C  C80  1  0.988500  0.959700  0.866900  1.0  0.4316
  C  C81  1  0.186800  0.829600  0.379500  1.0  -0.2062
  C  C82  1  0.110500  0.811400  0.377400  1.0  -0.0201
  C  C83  1  0.018700  0.797400  0.371700  1.0  -0.0518
  C  C84  1  0.970100  0.767500  0.434400  1.0  0.1453
  C  C85  1  0.849200  0.768000  0.359900  1.0  0.3905
  C  C86  1  0.973900  0.811800  0.303000  1.0  0.1552
  C  C87  1  0.427200  0.992300  0.365000  1.0  0.6398
  C  C88  1  0.511500  0.040300  0.366900  1.0  0.4321
  C  C89  1  0.313200  0.329600  0.379500  1.0  -0.2138
  C  C90  1  0.389500  0.311400  0.377400  1.0  -0.0223
  C  C91  1  0.481300  0.297400  0.371700  1.0  -0.0509
  C  C92  1  0.529900  0.267500  0.434400  1.0  0.1444
  C  C93  1  0.650800  0.268000  0.359900  1.0  0.3931
  C  C94  1  0.526100  0.311800  0.303000  1.0  0.1547
  C  C95  1  0.072800  0.492300  0.365000  1.0  0.6409
  C  C96  1  0.988500  0.540300  0.366900  1.0  0.4313
  C  C97  1  0.186800  0.670400  0.879500  1.0  -0.213
  C  C98  1  0.110500  0.688600  0.877400  1.0  -0.0197
  C  C99  1  0.018700  0.702600  0.871700  1.0  -0.052
  C  C100  1  0.970100  0.732500  0.934400  1.0  0.1449
  C  C101  1  0.849200  0.732000  0.859900  1.0  0.3903
  C  C102  1  0.973900  0.688200  0.803000  1.0  0.1549
  C  C103  1  0.427200  0.507700  0.865000  1.0  0.6402
  C  C104  1  0.511500  0.459700  0.866900  1.0  0.4324
  C  C105  1  0.686800  0.829600  0.120500  1.0  -0.2048
  C  C106  1  0.610500  0.811400  0.122600  1.0  -0.0201
  C  C107  1  0.518700  0.797400  0.128300  1.0  -0.052
  C  C108  1  0.470100  0.767500  0.065600  1.0  0.1479
  C  C109  1  0.349200  0.768000  0.140100  1.0  0.3905
  C  C110  1  0.473900  0.811800  0.197000  1.0  0.1539
  C  C111  1  0.927200  0.992300  0.135000  1.0  0.6395
  C  C112  1  0.011500  0.040300  0.133100  1.0  0.433
  C  C113  1  0.813200  0.170400  0.620500  1.0  -0.2066
  C  C114  1  0.889500  0.188600  0.622600  1.0  -0.0217
  C  C115  1  0.981300  0.202600  0.628300  1.0  -0.0519
  C  C116  1  0.029900  0.232500  0.565600  1.0  0.1472
  C  C117  1  0.150800  0.232000  0.640100  1.0  0.3931
  C  C118  1  0.026100  0.188200  0.697000  1.0  0.1534
  C  C119  1  0.572800  0.007700  0.635000  1.0  0.6412
  C  C120  1  0.488500  0.959700  0.633100  1.0  0.4327
  N  N121  1  0.385700  0.747200  0.571200  1.0  -0.3956
  N  N122  1  0.389400  0.703300  0.703300  1.0  -0.3625
  N  N123  1  0.114300  0.252800  0.071200  1.0  -0.3994
  N  N124  1  0.110600  0.296700  0.203300  1.0  -0.3629
  N  N125  1  0.614300  0.247200  0.928800  1.0  -0.3976
  N  N126  1  0.610600  0.203300  0.796700  1.0  -0.3653
  N  N127  1  0.885700  0.752800  0.428800  1.0  -0.3984
  N  N128  1  0.889400  0.796700  0.296700  1.0  -0.3637
  N  N129  1  0.614300  0.252800  0.428800  1.0  -0.3989
  N  N130  1  0.610600  0.296700  0.296700  1.0  -0.3644
  N  N131  1  0.885700  0.747200  0.928800  1.0  -0.3975
  N  N132  1  0.889400  0.703300  0.796700  1.0  -0.3648
  N  N133  1  0.385700  0.752800  0.071200  1.0  -0.3979
  N  N134  1  0.389400  0.796700  0.203300  1.0  -0.3626
  N  N135  1  0.114300  0.247200  0.571200  1.0  -0.3974
  N  N136  1  0.110600  0.203300  0.703300  1.0  -0.3623
  O  O137  1  0.934200  0.582900  0.643500  1.0  -0.6128
  O  O138  1  0.861650  0.464800  0.628900  1.0  -0.6432
  O  O139  1  0.565800  0.417100  0.143500  1.0  -0.614
  O  O140  1  0.638350  0.535200  0.128900  1.0  -0.6431
  O  O141  1  0.065800  0.082900  0.856500  1.0  -0.6128
  O  O142  1  0.138350  0.964800  0.871100  1.0  -0.6429
  O  O143  1  0.434200  0.917100  0.356500  1.0  -0.6133
  O  O144  1  0.361650  0.035200  0.371100  1.0  -0.6433
  O  O145  1  0.065800  0.417100  0.356500  1.0  -0.6129
  O  O146  1  0.138350  0.535200  0.371100  1.0  -0.6427
  O  O147  1  0.434200  0.582900  0.856500  1.0  -0.6117
  O  O148  1  0.361650  0.464800  0.871100  1.0  -0.6433
  O  O149  1  0.934200  0.917100  0.143500  1.0  -0.613
  O  O150  1  0.861650  0.035200  0.128900  1.0  -0.6435
  O  O151  1  0.565800  0.082900  0.643500  1.0  -0.6123
  O  O152  1  0.638350  0.964800  0.628900  1.0  -0.643
  F  F153  1  0.020600  0.426500  0.560400  1.0  -0.3037
  F  F154  1  0.078100  0.502400  0.625800  1.0  -0.223
  F  F155  1  0.013100  0.393200  0.676000  1.0  -0.1947
  F  F156  1  0.479400  0.573500  0.060400  1.0  -0.3036
  F  F157  1  0.421900  0.497600  0.125800  1.0  -0.2233
  F  F158  1  0.486900  0.606800  0.176000  1.0  -0.1939
  F  F159  1  0.979400  0.926500  0.939600  1.0  -0.3076
  F  F160  1  0.921900  0.002400  0.874200  1.0  -0.2227
  F  F161  1  0.986900  0.893200  0.824000  1.0  -0.195
  F  F162  1  0.520600  0.073500  0.439600  1.0  -0.3074
  F  F163  1  0.578100  0.997600  0.374200  1.0  -0.2243
  F  F164  1  0.513100  0.106800  0.324000  1.0  -0.1934
  F  F165  1  0.979400  0.573500  0.439600  1.0  -0.3078
  F  F166  1  0.921900  0.497600  0.374200  1.0  -0.2232
  F  F167  1  0.986900  0.606800  0.324000  1.0  -0.1935
  F  F168  1  0.520600  0.426500  0.939600  1.0  -0.3073
  F  F169  1  0.578100  0.502400  0.874200  1.0  -0.2229
  F  F170  1  0.513100  0.393200  0.824000  1.0  -0.1947
  F  F171  1  0.020600  0.073500  0.060400  1.0  -0.3037
  F  F172  1  0.078100  0.997600  0.125800  1.0  -0.2239
  F  F173  1  0.013100  0.106800  0.176000  1.0  -0.1937
  F  F174  1  0.479400  0.926500  0.560400  1.0  -0.3034
  F  F175  1  0.421900  0.002400  0.625800  1.0  -0.2223
  F  F176  1  0.486900  0.893200  0.676000  1.0  -0.1949
