# generated using pymatgen
data_Ni3P4H14C14(NO7)2
_symmetry_space_group_name_H-M   'P 1'
_cell_length_a   18.79580000
_cell_length_b   8.26220000
_cell_length_c   18.85500000
_cell_angle_alpha   90.00000000
_cell_angle_beta   90.00000000
_cell_angle_gamma   90.00000000
_symmetry_Int_Tables_number   1
_chemical_formula_structural   Ni3P4H14C14(NO7)2
_chemical_formula_sum   'Ni12 P16 H56 C56 N8 O56'
_cell_volume   2928.08079092
_cell_formula_units_Z   4
loop_
 _symmetry_equiv_pos_site_id
 _symmetry_equiv_pos_as_xyz
  1  'x, y, z'
loop_
 _atom_site_type_symbol
 _atom_site_label
 _atom_site_symmetry_multiplicity
 _atom_site_fract_x
 _atom_site_fract_y
 _atom_site_fract_z
 _atom_site_occupancy
 _atom_site_charge
  Ni  Ni1  1  0.063640  0.986360  0.247430  1.0  0.8828
  Ni  Ni2  1  0.436360  0.013640  0.747430  1.0  0.8833
  Ni  Ni3  1  0.936360  0.486360  0.252570  1.0  0.8829
  Ni  Ni4  1  0.563640  0.513640  0.752570  1.0  0.8825
  Ni  Ni5  1  0.936360  0.013640  0.752570  1.0  0.883
  Ni  Ni6  1  0.563640  0.986360  0.252570  1.0  0.8823
  Ni  Ni7  1  0.063640  0.513640  0.747430  1.0  0.883
  Ni  Ni8  1  0.436360  0.486360  0.247430  1.0  0.8832
  Ni  Ni9  1  0.000000  0.000000  0.500000  1.0  0.7317
  Ni  Ni10  1  0.500000  0.000000  0.000000  1.0  0.7317
  Ni  Ni11  1  0.000000  0.500000  0.000000  1.0  0.7317
  Ni  Ni12  1  0.500000  0.500000  0.500000  1.0  0.7317
  P  P13  1  0.973210  0.798400  0.360170  1.0  1.4616
  P  P14  1  0.958900  0.162900  0.346090  1.0  1.5077
  P  P15  1  0.526790  0.201600  0.860170  1.0  1.4574
  P  P16  1  0.541100  0.837100  0.846090  1.0  1.5079
  P  P17  1  0.026790  0.298400  0.139830  1.0  1.4578
  P  P18  1  0.041100  0.662900  0.153910  1.0  1.5049
  P  P19  1  0.473210  0.701600  0.639830  1.0  1.4592
  P  P20  1  0.458900  0.337100  0.653910  1.0  1.5053
  P  P21  1  0.026790  0.201600  0.639830  1.0  1.4575
  P  P22  1  0.041100  0.837100  0.653910  1.0  1.5051
  P  P23  1  0.473210  0.798400  0.139830  1.0  1.4594
  P  P24  1  0.458900  0.162900  0.153910  1.0  1.5053
  P  P25  1  0.973210  0.701600  0.860170  1.0  1.4612
  P  P26  1  0.958900  0.337100  0.846090  1.0  1.5091
  P  P27  1  0.526790  0.298400  0.360170  1.0  1.4582
  P  P28  1  0.541100  0.662900  0.346090  1.0  1.5065
  H  H29  1  0.939300  0.862700  0.223200  1.0  0.3844
  H  H30  1  0.842100  0.035200  0.351400  1.0  0.1911
  H  H31  1  0.825700  0.876400  0.360300  1.0  0.1789
  H  H32  1  0.863000  0.147100  0.205900  1.0  0.1357
  H  H33  1  0.773400  0.244800  0.128500  1.0  0.1305
  H  H34  1  0.654300  0.180300  0.149000  1.0  0.1373
  H  H35  1  0.709000  0.911700  0.314800  1.0  0.1208
  H  H36  1  0.560700  0.137300  0.723200  1.0  0.3859
  H  H37  1  0.657900  0.964800  0.851400  1.0  0.1908
  H  H38  1  0.674300  0.123600  0.860300  1.0  0.1787
  H  H39  1  0.637000  0.852900  0.705900  1.0  0.136
  H  H40  1  0.726600  0.755200  0.628500  1.0  0.1305
  H  H41  1  0.845700  0.819700  0.649000  1.0  0.1375
  H  H42  1  0.791000  0.088300  0.814800  1.0  0.1213
  H  H43  1  0.060700  0.362700  0.276800  1.0  0.3851
  H  H44  1  0.157900  0.535200  0.148600  1.0  0.1908
  H  H45  1  0.174300  0.376400  0.139700  1.0  0.1794
  H  H46  1  0.137000  0.647100  0.294100  1.0  0.1359
  H  H47  1  0.226600  0.744800  0.371500  1.0  0.1291
  H  H48  1  0.345700  0.680300  0.351000  1.0  0.1377
  H  H49  1  0.291000  0.411700  0.185200  1.0  0.1201
  H  H50  1  0.439300  0.637300  0.776800  1.0  0.3847
  H  H51  1  0.342100  0.464800  0.648600  1.0  0.1925
  H  H52  1  0.325700  0.623600  0.639700  1.0  0.1803
  H  H53  1  0.363000  0.352900  0.794100  1.0  0.1362
  H  H54  1  0.273400  0.255200  0.871500  1.0  0.1294
  H  H55  1  0.154300  0.319700  0.851000  1.0  0.1372
  H  H56  1  0.209000  0.588300  0.685200  1.0  0.1202
  H  H57  1  0.060700  0.137300  0.776800  1.0  0.3849
  H  H58  1  0.157900  0.964800  0.648600  1.0  0.1907
  H  H59  1  0.174300  0.123600  0.639700  1.0  0.1815
  H  H60  1  0.137000  0.852900  0.794100  1.0  0.136
  H  H61  1  0.226600  0.755200  0.871500  1.0  0.1292
  H  H62  1  0.345700  0.819700  0.851000  1.0  0.138
  H  H63  1  0.291000  0.088300  0.685200  1.0  0.12
  H  H64  1  0.439300  0.862700  0.276800  1.0  0.3847
  H  H65  1  0.342100  0.035200  0.148600  1.0  0.1923
  H  H66  1  0.325700  0.876400  0.139700  1.0  0.1781
  H  H67  1  0.363000  0.147100  0.294100  1.0  0.136
  H  H68  1  0.273400  0.244800  0.371500  1.0  0.1294
  H  H69  1  0.154300  0.180300  0.351000  1.0  0.1371
  H  H70  1  0.209000  0.911700  0.185200  1.0  0.1203
  H  H71  1  0.939300  0.637300  0.723200  1.0  0.3855
  H  H72  1  0.842100  0.464800  0.851400  1.0  0.1908
  H  H73  1  0.825700  0.623600  0.860300  1.0  0.1799
  H  H74  1  0.863000  0.352900  0.705900  1.0  0.1357
  H  H75  1  0.773400  0.255200  0.628500  1.0  0.1306
  H  H76  1  0.654300  0.319700  0.649000  1.0  0.137
  H  H77  1  0.709000  0.588300  0.814800  1.0  0.1211
  H  H78  1  0.560700  0.362700  0.223200  1.0  0.3851
  H  H79  1  0.657900  0.535200  0.351400  1.0  0.191
  H  H80  1  0.674300  0.376400  0.360300  1.0  0.1786
  H  H81  1  0.637000  0.647100  0.205900  1.0  0.1361
  H  H82  1  0.726600  0.744800  0.128500  1.0  0.1305
  H  H83  1  0.845700  0.680300  0.149000  1.0  0.1374
  H  H84  1  0.791000  0.411700  0.314800  1.0  0.121
  C  C85  1  0.925170  0.963100  0.314620  1.0  -0.1755
  C  C86  1  0.844510  0.940400  0.322090  1.0  -0.0788
  C  C87  1  0.794290  0.018900  0.269170  1.0  0.1532
  C  C88  1  0.814030  0.118700  0.213290  1.0  -0.0884
  C  C89  1  0.760850  0.176900  0.167900  1.0  -0.0943
  C  C90  1  0.690320  0.137000  0.179710  1.0  0.1671
  C  C91  1  0.722720  0.981900  0.276600  1.0  0.1408
  C  C92  1  0.574830  0.036900  0.814620  1.0  -0.1763
  C  C93  1  0.655490  0.059600  0.822090  1.0  -0.0807
  C  C94  1  0.705710  0.981100  0.769170  1.0  0.1515
  C  C95  1  0.685970  0.881300  0.713290  1.0  -0.0875
  C  C96  1  0.739150  0.823100  0.667900  1.0  -0.0933
  C  C97  1  0.809680  0.863000  0.679710  1.0  0.1661
  C  C98  1  0.777280  0.018100  0.776600  1.0  0.1421
  C  C99  1  0.074830  0.463100  0.185380  1.0  -0.1727
  C  C100  1  0.155490  0.440400  0.177910  1.0  -0.0853
  C  C101  1  0.205710  0.518900  0.230830  1.0  0.1521
  C  C102  1  0.185970  0.618700  0.286710  1.0  -0.0887
  C  C103  1  0.239150  0.676900  0.332100  1.0  -0.0903
  C  C104  1  0.309680  0.637000  0.320290  1.0  0.1657
  C  C105  1  0.277280  0.481900  0.223400  1.0  0.1409
  C  C106  1  0.425170  0.536900  0.685380  1.0  -0.1733
  C  C107  1  0.344510  0.559600  0.677910  1.0  -0.0828
  C  C108  1  0.294290  0.481100  0.730830  1.0  0.1535
  C  C109  1  0.314030  0.381300  0.786710  1.0  -0.0875
  C  C110  1  0.260850  0.323100  0.832100  1.0  -0.0889
  C  C111  1  0.190320  0.363000  0.820290  1.0  0.1656
  C  C112  1  0.222720  0.518100  0.723400  1.0  0.1405
  C  C113  1  0.074830  0.036900  0.685380  1.0  -0.1731
  C  C114  1  0.155490  0.059600  0.677910  1.0  -0.0836
  C  C115  1  0.205710  0.981100  0.730830  1.0  0.152
  C  C116  1  0.185970  0.881300  0.786710  1.0  -0.0886
  C  C117  1  0.239150  0.823100  0.832100  1.0  -0.0902
  C  C118  1  0.309680  0.863000  0.820290  1.0  0.1658
  C  C119  1  0.277280  0.018100  0.723400  1.0  0.1406
  C  C120  1  0.425170  0.963100  0.185380  1.0  -0.1729
  C  C121  1  0.344510  0.940400  0.177910  1.0  -0.0844
  C  C122  1  0.294290  0.018900  0.230830  1.0  0.1536
  C  C123  1  0.314030  0.118700  0.286710  1.0  -0.0876
  C  C124  1  0.260850  0.176900  0.332100  1.0  -0.0892
  C  C125  1  0.190320  0.137000  0.320290  1.0  0.1654
  C  C126  1  0.222720  0.981900  0.223400  1.0  0.1408
  C  C127  1  0.925170  0.536900  0.814620  1.0  -0.1759
  C  C128  1  0.844510  0.559600  0.822090  1.0  -0.0797
  C  C129  1  0.794290  0.481100  0.769170  1.0  0.1531
  C  C130  1  0.814030  0.381300  0.713290  1.0  -0.0882
  C  C131  1  0.760850  0.323100  0.667900  1.0  -0.0938
  C  C132  1  0.690320  0.363000  0.679710  1.0  0.1671
  C  C133  1  0.722720  0.518100  0.776600  1.0  0.1409
  C  C134  1  0.574830  0.463100  0.314620  1.0  -0.176
  C  C135  1  0.655490  0.440400  0.322090  1.0  -0.0799
  C  C136  1  0.705710  0.518900  0.269170  1.0  0.1516
  C  C137  1  0.685970  0.618700  0.213290  1.0  -0.0878
  C  C138  1  0.739150  0.676900  0.167900  1.0  -0.0933
  C  C139  1  0.809680  0.637000  0.179710  1.0  0.1661
  C  C140  1  0.777280  0.481900  0.276600  1.0  0.1422
  N  N141  1  0.671200  0.038600  0.233470  1.0  -0.3129
  N  N142  1  0.828800  0.961400  0.733470  1.0  -0.3109
  N  N143  1  0.328800  0.538600  0.266530  1.0  -0.3105
  N  N144  1  0.171200  0.461400  0.766530  1.0  -0.3125
  N  N145  1  0.328800  0.961400  0.766530  1.0  -0.3106
  N  N146  1  0.171200  0.038600  0.266530  1.0  -0.3123
  N  N147  1  0.671200  0.461400  0.733470  1.0  -0.3128
  N  N148  1  0.828800  0.538600  0.233470  1.0  -0.311
  O  O149  1  0.940000  0.639900  0.338000  1.0  -0.7752
  O  O150  1  0.964100  0.815400  0.440800  1.0  -0.7423
  O  O151  1  0.049800  0.826200  0.336000  1.0  -0.7855
  O  O152  1  0.911800  0.298500  0.319700  1.0  -0.7426
  O  O153  1  0.034500  0.169400  0.315500  1.0  -0.8145
  O  O154  1  0.959000  0.159700  0.426700  1.0  -0.7581
  O  O155  1  0.949580  0.954000  0.241270  1.0  -0.5873
  O  O156  1  0.560000  0.360100  0.838000  1.0  -0.7755
  O  O157  1  0.535900  0.184600  0.940800  1.0  -0.7412
  O  O158  1  0.450200  0.173800  0.836000  1.0  -0.7856
  O  O159  1  0.588200  0.701500  0.819700  1.0  -0.7422
  O  O160  1  0.465500  0.830600  0.815500  1.0  -0.8134
  O  O161  1  0.541000  0.840300  0.926700  1.0  -0.7611
  O  O162  1  0.550420  0.046000  0.741270  1.0  -0.5886
  O  O163  1  0.060000  0.139900  0.162000  1.0  -0.7753
  O  O164  1  0.035900  0.315400  0.059200  1.0  -0.7397
  O  O165  1  0.950200  0.326200  0.164000  1.0  -0.7834
  O  O166  1  0.088200  0.798500  0.180300  1.0  -0.739
  O  O167  1  0.965500  0.669400  0.184500  1.0  -0.8145
  O  O168  1  0.041000  0.659700  0.073300  1.0  -0.7631
  O  O169  1  0.050420  0.454000  0.258730  1.0  -0.5902
  O  O170  1  0.440000  0.860100  0.662000  1.0  -0.7759
  O  O171  1  0.464100  0.684600  0.559200  1.0  -0.742
  O  O172  1  0.549800  0.673800  0.664000  1.0  -0.7829
  O  O173  1  0.411800  0.201500  0.680300  1.0  -0.7416
  O  O174  1  0.534500  0.330600  0.684500  1.0  -0.8144
  O  O175  1  0.459000  0.340300  0.573300  1.0  -0.7607
  O  O176  1  0.449580  0.546000  0.758730  1.0  -0.5884
  O  O177  1  0.060000  0.360100  0.662000  1.0  -0.775
  O  O178  1  0.035900  0.184600  0.559200  1.0  -0.7409
  O  O179  1  0.950200  0.173800  0.664000  1.0  -0.7835
  O  O180  1  0.088200  0.701500  0.680300  1.0  -0.741
  O  O181  1  0.965500  0.830600  0.684500  1.0  -0.8142
  O  O182  1  0.041000  0.840300  0.573300  1.0  -0.7609
  O  O183  1  0.050420  0.046000  0.758730  1.0  -0.5892
  O  O184  1  0.440000  0.639900  0.162000  1.0  -0.776
  O  O185  1  0.464100  0.815400  0.059200  1.0  -0.7394
  O  O186  1  0.549800  0.826200  0.164000  1.0  -0.7832
  O  O187  1  0.411800  0.298500  0.180300  1.0  -0.7392
  O  O188  1  0.534500  0.169400  0.184500  1.0  -0.8149
  O  O189  1  0.459000  0.159700  0.073300  1.0  -0.7629
  O  O190  1  0.449580  0.954000  0.258730  1.0  -0.5898
  O  O191  1  0.940000  0.860100  0.838000  1.0  -0.7763
  O  O192  1  0.964100  0.684600  0.940800  1.0  -0.7418
  O  O193  1  0.049800  0.673800  0.836000  1.0  -0.7857
  O  O194  1  0.911800  0.201500  0.819700  1.0  -0.7424
  O  O195  1  0.034500  0.330600  0.815500  1.0  -0.8134
  O  O196  1  0.959000  0.340300  0.926700  1.0  -0.7607
  O  O197  1  0.949580  0.546000  0.741270  1.0  -0.588
  O  O198  1  0.560000  0.139900  0.338000  1.0  -0.7746
  O  O199  1  0.535900  0.315400  0.440800  1.0  -0.7412
  O  O200  1  0.450200  0.326200  0.336000  1.0  -0.785
  O  O201  1  0.588200  0.798500  0.319700  1.0  -0.7424
  O  O202  1  0.465500  0.669400  0.315500  1.0  -0.8145
  O  O203  1  0.541000  0.659700  0.426700  1.0  -0.7583
  O  O204  1  0.550420  0.454000  0.241270  1.0  -0.5874
