# generated using pymatgen
data_CaH4(C3O2)3
_symmetry_space_group_name_H-M   'P 1'
_cell_length_a   6.85300000
_cell_length_b   9.00700000
_cell_length_c   9.98700000
_cell_angle_alpha   102.13000000
_cell_angle_beta   100.53000000
_cell_angle_gamma   110.21000000
_symmetry_Int_Tables_number   1
_chemical_formula_structural   CaH4(C3O2)3
_chemical_formula_sum   'Ca2 H8 C18 O12'
_cell_volume   543.23349480
_cell_formula_units_Z   2
loop_
 _symmetry_equiv_pos_site_id
 _symmetry_equiv_pos_as_xyz
  1  'x, y, z'
loop_
 _atom_site_type_symbol
 _atom_site_label
 _atom_site_symmetry_multiplicity
 _atom_site_fract_x
 _atom_site_fract_y
 _atom_site_fract_z
 _atom_site_occupancy
 _atom_site_charge
  Ca  Ca1  1  0.685200  0.415320  0.390090  1.0  1.5691
  Ca  Ca2  1  0.314800  0.584680  0.609910  1.0  1.5694
  H  H3  1  0.494800  0.229100  0.041600  1.0  0.4144
  H  H4  1  0.704400  0.491200  0.909300  1.0  0.1175
  H  H5  1  0.126700  0.884800  0.243100  1.0  0.1211
  H  H6  1  0.155900  0.875800  0.838500  1.0  0.1215
  H  H7  1  0.505200  0.770900  0.958400  1.0  0.4153
  H  H8  1  0.295600  0.508800  0.090700  1.0  0.1179
  H  H9  1  0.873300  0.115200  0.756900  1.0  0.1206
  H  H10  1  0.844100  0.124200  0.161500  1.0  0.1216
  C  C11  1  0.915300  0.672300  0.850700  1.0  -0.1524
  C  C12  1  0.822600  0.596300  0.945000  1.0  0.0062
  C  C13  1  0.903700  0.674500  0.091500  1.0  -0.1337
  C  C14  1  0.073800  0.830100  0.143500  1.0  0.0152
  C  C15  1  0.166500  0.905600  0.049200  1.0  -0.183
  C  C16  1  0.089600  0.825700  0.902400  1.0  0.0013
  C  C17  1  0.832200  0.589800  0.693300  1.0  0.764
  C  C18  1  0.806300  0.591400  0.193100  1.0  0.6821
  C  C19  1  0.344200  0.074200  0.105800  1.0  0.684
  C  C20  1  0.084700  0.327700  0.149300  1.0  -0.1534
  C  C21  1  0.177400  0.403700  0.055000  1.0  0.0055
  C  C22  1  0.096300  0.325500  0.908500  1.0  -0.1336
  C  C23  1  0.926200  0.169900  0.856500  1.0  0.0161
  C  C24  1  0.833500  0.094400  0.950800  1.0  -0.1832
  C  C25  1  0.910400  0.174300  0.097600  1.0  0.0017
  C  C26  1  0.167800  0.410200  0.306700  1.0  0.7629
  C  C27  1  0.193700  0.408600  0.806900  1.0  0.6819
  C  C28  1  0.655800  0.925800  0.894200  1.0  0.6873
  O  O29  1  0.966900  0.591500  0.622300  1.0  -0.7617
  O  O30  1  0.631300  0.520900  0.634700  1.0  -0.7648
  O  O31  1  0.674500  0.442200  0.147000  1.0  -0.7011
  O  O32  1  0.859800  0.672200  0.323600  1.0  -0.6704
  O  O33  1  0.406300  0.136600  0.005100  1.0  -0.5077
  O  O34  1  0.421700  0.147500  0.233100  1.0  -0.6204
  O  O35  1  0.033100  0.408500  0.377700  1.0  -0.7595
  O  O36  1  0.368700  0.479100  0.365300  1.0  -0.7624
  O  O37  1  0.325500  0.557800  0.853000  1.0  -0.7013
  O  O38  1  0.140200  0.327800  0.676400  1.0  -0.6723
  O  O39  1  0.593700  0.863400  0.994900  1.0  -0.5101
  O  O40  1  0.578300  0.852500  0.766900  1.0  -0.6255
