# generated using pymatgen
data_CaH4(C3O2)3
_symmetry_space_group_name_H-M   'P 1'
_cell_length_a   6.86560000
_cell_length_b   9.12870000
_cell_length_c   9.92090000
_cell_angle_alpha   101.34100000
_cell_angle_beta   99.68300000
_cell_angle_gamma   111.95000000
_symmetry_Int_Tables_number   1
_chemical_formula_structural   CaH4(C3O2)3
_chemical_formula_sum   'Ca2 H8 C18 O12'
_cell_volume   545.11141004
_cell_formula_units_Z   2
loop_
 _symmetry_equiv_pos_site_id
 _symmetry_equiv_pos_as_xyz
  1  'x, y, z'
loop_
 _atom_site_type_symbol
 _atom_site_label
 _atom_site_symmetry_multiplicity
 _atom_site_fract_x
 _atom_site_fract_y
 _atom_site_fract_z
 _atom_site_occupancy
 _atom_site_charge
  Ca  Ca1  1  0.686820  0.421970  0.891640  1.0  1.5721
  Ca  Ca2  1  0.313180  0.578030  0.108360  1.0  1.5717
  H  H3  1  0.508100  0.249200  0.539700  1.0  0.4208
  H  H4  1  0.141300  0.889700  0.736700  1.0  0.1123
  H  H5  1  0.163800  0.891200  0.335700  1.0  0.1192
  H  H6  1  0.716500  0.504200  0.409600  1.0  0.1095
  H  H7  1  0.491900  0.750800  0.460300  1.0  0.4206
  H  H8  1  0.858700  0.110300  0.263300  1.0  0.1133
  H  H9  1  0.836200  0.108800  0.664300  1.0  0.1182
  H  H10  1  0.283500  0.495800  0.590400  1.0  0.1096
  C  C11  1  0.916700  0.682500  0.590200  1.0  -0.1516
  C  C12  1  0.926800  0.685300  0.348800  1.0  -0.1549
  C  C13  1  0.087400  0.837800  0.639300  1.0  0.0319
  C  C14  1  0.357500  0.084700  0.601600  1.0  0.6919
  C  C15  1  0.100100  0.839500  0.399100  1.0  0.0117
  C  C16  1  0.822000  0.598000  0.694200  1.0  0.6809
  C  C17  1  0.843900  0.604800  0.191200  1.0  0.7498
  C  C18  1  0.834000  0.607100  0.443800  1.0  0.0153
  C  C19  1  0.178500  0.916600  0.545100  1.0  -0.1992
  C  C20  1  0.083300  0.317500  0.409800  1.0  -0.1516
  C  C21  1  0.073200  0.314700  0.651200  1.0  -0.1571
  C  C22  1  0.912600  0.162200  0.360700  1.0  0.0348
  C  C23  1  0.642500  0.915300  0.398400  1.0  0.6942
  C  C24  1  0.899900  0.160500  0.600900  1.0  0.0111
  C  C25  1  0.178000  0.402000  0.305800  1.0  0.6792
  C  C26  1  0.156100  0.395200  0.808800  1.0  0.7524
  C  C27  1  0.166000  0.392900  0.556200  1.0  0.0159
  C  C28  1  0.821500  0.083400  0.454900  1.0  -0.2006
  O  O29  1  0.676400  0.452920  0.648850  1.0  -0.7077
  O  O30  1  0.978400  0.602700  0.120800  1.0  -0.7431
  O  O31  1  0.418200  0.153650  0.502350  1.0  -0.5072
  O  O32  1  0.642200  0.541000  0.133540  1.0  -0.7667
  O  O33  1  0.438200  0.151750  0.728960  1.0  -0.6137
  O  O34  1  0.888900  0.672900  0.824560  1.0  -0.6724
  O  O35  1  0.323600  0.547080  0.351150  1.0  -0.7073
  O  O36  1  0.021600  0.397300  0.879200  1.0  -0.743
  O  O37  1  0.581800  0.846350  0.497650  1.0  -0.5067
  O  O38  1  0.357800  0.459000  0.866460  1.0  -0.7662
  O  O39  1  0.561800  0.848250  0.271040  1.0  -0.6159
  O  O40  1  0.111100  0.327100  0.175440  1.0  -0.6718
