# generated using pymatgen
data_Zn5H38C36(NO9)2
_symmetry_space_group_name_H-M   'P 1'
_cell_length_a   13.65460000
_cell_length_b   14.21260000
_cell_length_c   14.63770000
_cell_angle_alpha   76.05700000
_cell_angle_beta   86.39000000
_cell_angle_gamma   67.91000000
_symmetry_Int_Tables_number   1
_chemical_formula_structural   Zn5H38C36(NO9)2
_chemical_formula_sum   'Zn10 H76 C72 N4 O36'
_cell_volume   2553.41385701
_cell_formula_units_Z   2
loop_
 _symmetry_equiv_pos_site_id
 _symmetry_equiv_pos_as_xyz
  1  'x, y, z'
loop_
 _atom_site_type_symbol
 _atom_site_label
 _atom_site_symmetry_multiplicity
 _atom_site_fract_x
 _atom_site_fract_y
 _atom_site_fract_z
 _atom_site_occupancy
 _atom_site_charge
  Zn  Zn1  1  0.665310  0.142370  0.229250  1.0  1.0057
  Zn  Zn2  1  0.015810  0.370620  0.141250  1.0  0.8958
  Zn  Zn3  1  0.850430  0.243470  0.224100  1.0  0.9787
  Zn  Zn4  1  0.261430  0.233100  0.108120  1.0  0.8939
  Zn  Zn5  1  0.511640  0.052990  0.127420  1.0  0.8677
  Zn  Zn6  1  0.334690  0.857630  0.770750  1.0  1.0067
  Zn  Zn7  1  0.984190  0.629380  0.858750  1.0  0.8963
  Zn  Zn8  1  0.149570  0.756530  0.775900  1.0  0.9781
  Zn  Zn9  1  0.738570  0.766900  0.891880  1.0  0.8942
  Zn  Zn10  1  0.488360  0.947010  0.872580  1.0  0.8611
  H  H11  1  0.867000  0.548000  0.029200  1.0  0.3655
  H  H12  1  0.637000  0.929000  0.016000  1.0  0.3501
  H  H13  1  0.654500  0.536900  0.076100  1.0  0.1041
  H  H14  1  0.752500  0.960600  0.511000  1.0  0.106
  H  H15  1  0.132500  0.531200  0.090400  1.0  0.0731
  H  H16  1  0.245800  0.449700  0.125900  1.0  0.0916
  H  H17  1  0.167100  0.067700  0.938900  1.0  0.1048
  H  H18  1  0.355200  0.939700  0.108300  1.0  0.0832
  H  H19  1  0.261800  0.012000  0.157700  1.0  0.1002
  H  H20  1  0.929300  0.922200  0.734500  1.0  0.1066
  H  H21  1  0.183400  0.391700  0.270600  1.0  0.0774
  H  H22  1  0.140500  0.514100  0.251300  1.0  0.0799
  H  H23  1  0.713000  0.841100  0.182600  1.0  0.0799
  H  H24  1  0.695400  0.785500  0.107800  1.0  0.0834
  H  H25  1  0.920200  0.310400  0.382900  1.0  0.1068
  H  H26  1  0.852100  0.417700  0.316300  1.0  0.0891
  H  H27  1  0.462700  0.058000  0.344600  1.0  0.0921
  H  H28  1  0.580300  0.027400  0.376700  1.0  0.093
  H  H29  1  0.809000  0.174500  0.884100  1.0  0.0971
  H  H30  1  0.534100  0.880900  0.375500  1.0  0.0792
  H  H31  1  0.635900  0.881200  0.319200  1.0  0.0679
  H  H32  1  0.870400  0.256700  0.966800  1.0  0.1026
  H  H33  1  0.914800  0.145700  0.505400  1.0  0.1091
  H  H34  1  0.352900  0.738000  0.036800  1.0  0.1172
  H  H35  1  0.980700  0.055900  0.653700  1.0  0.1099
  H  H36  1  0.922100  0.024800  0.840900  1.0  0.1114
  H  H37  1  0.366600  0.978300  0.287500  1.0  0.0769
  H  H38  1  0.388800  0.868900  0.266600  1.0  0.0822
  H  H39  1  0.421800  0.439100  0.170200  1.0  0.1159
  H  H40  1  0.521400  0.815100  0.153200  1.0  0.0726
  H  H41  1  0.592600  0.763700  0.245800  1.0  0.0814
  H  H42  1  0.809200  0.545800  0.192300  1.0  0.0786
  H  H43  1  0.815100  0.645100  0.119700  1.0  0.079
  H  H44  1  0.919000  0.595400  0.260200  1.0  0.0772
  H  H45  1  0.980000  0.611100  0.167000  1.0  0.0801
  H  H46  1  0.984900  0.448200  0.374100  1.0  0.0749
  H  H47  1  0.070400  0.343900  0.357000  1.0  0.0904
  H  H48  1  0.300600  0.604300  0.119200  1.0  0.0978
  H  H49  1  0.133000  0.452000  0.970800  1.0  0.3659
  H  H50  1  0.363000  0.071000  0.984000  1.0  0.3527
  H  H51  1  0.345500  0.463100  0.923900  1.0  0.1034
  H  H52  1  0.247500  0.039400  0.489000  1.0  0.1063
  H  H53  1  0.867500  0.468800  0.909600  1.0  0.0732
  H  H54  1  0.754200  0.550300  0.874100  1.0  0.0886
  H  H55  1  0.832900  0.932300  0.061100  1.0  0.1052
  H  H56  1  0.644800  0.060300  0.891700  1.0  0.0829
  H  H57  1  0.738200  0.988000  0.842300  1.0  0.1008
  H  H58  1  0.070700  0.077800  0.265500  1.0  0.1073
  H  H59  1  0.816600  0.608300  0.729400  1.0  0.0793
  H  H60  1  0.859500  0.485900  0.748700  1.0  0.0797
  H  H61  1  0.287000  0.158900  0.817400  1.0  0.0796
  H  H62  1  0.304600  0.214500  0.892200  1.0  0.0848
  H  H63  1  0.079800  0.689600  0.617100  1.0  0.1051
  H  H64  1  0.147900  0.582300  0.683700  1.0  0.0885
  H  H65  1  0.537300  0.942000  0.655400  1.0  0.0916
  H  H66  1  0.419700  0.972600  0.623300  1.0  0.0916
  H  H67  1  0.191000  0.825500  0.115900  1.0  0.0974
  H  H68  1  0.465900  0.119100  0.624500  1.0  0.0772
  H  H69  1  0.364100  0.118800  0.680800  1.0  0.0669
  H  H70  1  0.129600  0.743300  0.033200  1.0  0.1024
  H  H71  1  0.085200  0.854300  0.494600  1.0  0.1086
  H  H72  1  0.647100  0.262000  0.963200  1.0  0.1163
  H  H73  1  0.019300  0.944100  0.346300  1.0  0.1096
  H  H74  1  0.077900  0.975200  0.159100  1.0  0.1117
  H  H75  1  0.633400  0.021700  0.712500  1.0  0.077
  H  H76  1  0.611200  0.131100  0.733400  1.0  0.0841
  H  H77  1  0.578200  0.560900  0.829800  1.0  0.1169
  H  H78  1  0.478600  0.184900  0.846800  1.0  0.0733
  H  H79  1  0.407400  0.236300  0.754200  1.0  0.0817
  H  H80  1  0.190800  0.454200  0.807700  1.0  0.08
  H  H81  1  0.184900  0.354900  0.880300  1.0  0.078
  H  H82  1  0.081000  0.404600  0.739800  1.0  0.0786
  H  H83  1  0.020000  0.388900  0.833000  1.0  0.0791
  H  H84  1  0.015100  0.551800  0.625900  1.0  0.0739
  H  H85  1  0.929600  0.656100  0.643000  1.0  0.0902
  H  H86  1  0.699400  0.395700  0.880800  1.0  0.0967
  C  C87  1  0.131900  0.938500  0.850400  1.0  0.6982
  C  C88  1  0.067000  0.226800  0.016300  1.0  0.6422
  C  C89  1  0.582600  0.550400  0.083000  1.0  -0.0473
  C  C90  1  0.796700  0.981100  0.540700  1.0  -0.0011
  C  C91  1  0.629900  0.361500  0.162500  1.0  0.6787
  C  C92  1  0.171000  0.461900  0.128600  1.0  0.0634
  C  C93  1  0.094700  0.087800  0.929300  1.0  -0.0219
  C  C94  1  0.337300  0.989400  0.147700  1.0  0.0567
  C  C95  1  0.902700  0.957700  0.673700  1.0  -0.0812
  C  C96  1  0.833100  0.930300  0.632100  1.0  -0.1652
  C  C97  1  0.136300  0.455900  0.230400  1.0  -0.0186
  C  C98  1  0.661500  0.841600  0.139600  1.0  0.0669
  C  C99  1  0.920600  0.360800  0.325000  1.0  0.0547
  C  C100  1  0.535800  0.027700  0.327500  1.0  0.0938
  C  C101  1  0.056100  0.032300  0.883100  1.0  -0.1379
  C  C102  1  0.881200  0.150400  0.897700  1.0  -0.0871
  C  C103  1  0.560000  0.917500  0.320800  1.0  -0.0198
  C  C104  1  0.917800  0.201000  0.944500  1.0  -0.0919
  C  C105  1  0.826600  0.063400  0.492800  1.0  -0.1664
  C  C106  1  0.508900  0.650800  0.048300  1.0  -0.1396
  C  C107  1  0.794600  0.847400  0.688700  1.0  0.6674
  C  C108  1  0.025500  0.171700  0.960200  1.0  -0.1471
  C  C109  1  0.550000  0.472500  0.126600  1.0  -0.1648
  C  C110  1  0.894900  0.090800  0.536700  1.0  -0.062
  C  C111  1  0.402800  0.671500  0.060300  1.0  -0.0604
  C  C112  1  0.933300  0.037900  0.625300  1.0  -0.0966
  C  C113  1  0.948700  0.062600  0.869100  1.0  -0.0892
  C  C114  1  0.396500  0.935500  0.242600  1.0  -0.0296
  C  C115  1  0.444000  0.492700  0.139800  1.0  -0.0188
  C  C116  1  0.567400  0.825400  0.194500  1.0  -0.019
  C  C117  1  0.855500  0.573100  0.150800  1.0  0.064
  C  C118  1  0.945700  0.567300  0.205500  1.0  -0.0426
  C  C119  1  0.787400  0.118800  0.392400  1.0  0.6906
  C  C120  1  0.546000  0.734900  0.996500  1.0  0.6797
  C  C121  1  0.005900  0.401800  0.331400  1.0  -0.006
  C  C122  1  0.371900  0.590900  0.108300  1.0  -0.1021
  C  C123  1  0.868100  0.061500  0.149600  1.0  0.6991
  C  C124  1  0.933000  0.773200  0.983700  1.0  0.6399
  C  C125  1  0.417400  0.449600  0.917000  1.0  -0.0449
  C  C126  1  0.203300  0.018900  0.459300  1.0  -0.0019
  C  C127  1  0.370100  0.638500  0.837500  1.0  0.68
  C  C128  1  0.829000  0.538100  0.871400  1.0  0.0659
  C  C129  1  0.905300  0.912200  0.070700  1.0  -0.0201
  C  C130  1  0.662700  0.010600  0.852300  1.0  0.0576
  C  C131  1  0.097300  0.042300  0.326300  1.0  -0.0811
  C  C132  1  0.166900  0.069700  0.367900  1.0  -0.1643
  C  C133  1  0.863700  0.544100  0.769600  1.0  -0.0183
  C  C134  1  0.338500  0.158400  0.860400  1.0  0.0673
  C  C135  1  0.079400  0.639200  0.675000  1.0  0.0592
  C  C136  1  0.464200  0.972300  0.672500  1.0  0.0927
  C  C137  1  0.943900  0.967700  0.116900  1.0  -0.1365
  C  C138  1  0.118800  0.849600  0.102300  1.0  -0.0857
  C  C139  1  0.440000  0.082500  0.679200  1.0  -0.0192
  C  C140  1  0.082200  0.799000  0.055500  1.0  -0.0915
  C  C141  1  0.173400  0.936600  0.507200  1.0  -0.165
  C  C142  1  0.491100  0.349200  0.951700  1.0  -0.1401
  C  C143  1  0.205400  0.152600  0.311300  1.0  0.6652
  C  C144  1  0.974500  0.828300  0.039800  1.0  -0.1441
  C  C145  1  0.450000  0.527500  0.873400  1.0  -0.1708
  C  C146  1  0.105100  0.909200  0.463300  1.0  -0.0612
  C  C147  1  0.597200  0.328500  0.939700  1.0  -0.0619
  C  C148  1  0.066700  0.962100  0.374700  1.0  -0.0972
  C  C149  1  0.051300  0.937400  0.130900  1.0  -0.0884
  C  C150  1  0.603500  0.064500  0.757400  1.0  -0.0278
  C  C151  1  0.556000  0.507300  0.860200  1.0  -0.0194
  C  C152  1  0.432600  0.174600  0.805500  1.0  -0.0205
  C  C153  1  0.144500  0.426900  0.849200  1.0  0.0633
  C  C154  1  0.054300  0.432700  0.794500  1.0  -0.0421
  C  C155  1  0.212600  0.881200  0.607600  1.0  0.6913
  C  C156  1  0.454000  0.265100  0.003500  1.0  0.6787
  C  C157  1  0.994100  0.598200  0.668600  1.0  -0.0061
  C  C158  1  0.628100  0.409100  0.891700  1.0  -0.1006
  N  N159  1  0.507800  0.918800  0.232400  1.0  -0.1267
  N  N160  1  0.026500  0.459000  0.238000  1.0  -0.1018
  N  N161  1  0.492200  0.081200  0.767600  1.0  -0.1255
  N  N162  1  0.973500  0.541000  0.762000  1.0  -0.1023
  O  O163  1  0.817300  0.818500  0.776100  1.0  -0.6074
  O  O164  1  0.361800  0.077300  0.100200  1.0  -0.6691
  O  O165  1  0.644100  0.715500  0.992500  1.0  -0.595
  O  O166  1  0.151200  0.385300  0.091600  1.0  -0.6373
  O  O167  1  0.742400  0.814600  0.644900  1.0  -0.5911
  O  O168  1  0.897600  0.511400  0.081700  1.0  -0.6
  O  O169  1  0.939700  0.311800  0.246400  1.0  -0.6358
  O  O170  1  0.995400  0.288100  0.059600  1.0  -0.6217
  O  O171  1  0.474300  0.820900  0.958900  1.0  -0.6012
  O  O172  1  0.093600  0.884600  0.820200  1.0  -0.5984
  O  O173  1  0.593100  0.292500  0.198000  1.0  -0.6164
  O  O174  1  0.161800  0.208600  0.018300  1.0  -0.5792
  O  O175  1  0.623700  0.940800  0.071200  1.0  -0.5928
  O  O176  1  0.552600  0.090100  0.241400  1.0  -0.6515
  O  O177  1  0.811000  0.195900  0.355400  1.0  -0.6271
  O  O178  1  0.726000  0.348700  0.152700  1.0  -0.6084
  O  O179  1  0.229400  0.921100  0.856000  1.0  -0.6028
  O  O180  1  0.736200  0.080600  0.352900  1.0  -0.6084
  O  O181  1  0.182700  0.181500  0.223900  1.0  -0.6076
  O  O182  1  0.638200  0.922700  0.899800  1.0  -0.6696
  O  O183  1  0.355900  0.284500  0.007500  1.0  -0.5947
  O  O184  1  0.848800  0.614700  0.908400  1.0  -0.6381
  O  O185  1  0.257600  0.185400  0.355100  1.0  -0.5902
  O  O186  1  0.102400  0.488600  0.918300  1.0  -0.5976
  O  O187  1  0.060300  0.688200  0.753600  1.0  -0.6344
  O  O188  1  0.004600  0.711900  0.940400  1.0  -0.6218
  O  O189  1  0.525700  0.179100  0.041100  1.0  -0.5998
  O  O190  1  0.906400  0.115400  0.179800  1.0  -0.5983
  O  O191  1  0.406900  0.707500  0.802000  1.0  -0.6161
  O  O192  1  0.838200  0.791400  0.981700  1.0  -0.5787
  O  O193  1  0.376300  0.059200  0.928800  1.0  -0.5982
  O  O194  1  0.447400  0.909900  0.758600  1.0  -0.6524
  O  O195  1  0.189000  0.804100  0.644600  1.0  -0.6259
  O  O196  1  0.274000  0.651300  0.847300  1.0  -0.6092
  O  O197  1  0.770600  0.078900  0.144000  1.0  -0.6034
  O  O198  1  0.263800  0.919400  0.647100  1.0  -0.6081
