# generated using pymatgen
data_CoH8C13NO5
_symmetry_space_group_name_H-M   'P 1'
_cell_length_a   11.34070000
_cell_length_b   11.38470000
_cell_length_c   13.19080000
_cell_angle_alpha   88.86800000
_cell_angle_beta   69.33900000
_cell_angle_gamma   85.72600000
_symmetry_Int_Tables_number   1
_chemical_formula_structural   CoH8C13NO5
_chemical_formula_sum   'Co4 H32 C52 N4 O20'
_cell_volume   1589.06582003
_cell_formula_units_Z   4
loop_
 _symmetry_equiv_pos_site_id
 _symmetry_equiv_pos_as_xyz
  1  'x, y, z'
loop_
 _atom_site_type_symbol
 _atom_site_label
 _atom_site_symmetry_multiplicity
 _atom_site_fract_x
 _atom_site_fract_y
 _atom_site_fract_z
 _atom_site_occupancy
 _atom_site_charge
  Co  Co1  1  0.990620  0.116580  0.251750  1.0  1.2277
  Co  Co2  1  0.009380  0.883420  0.748250  1.0  1.2296
  Co  Co3  1  0.000000  0.000000  0.500000  1.0  1.192
  Co  Co4  1  0.000000  0.000000  0.000000  1.0  1.1796
  H  H5  1  0.280300  0.946900  0.290200  1.0  0.12
  H  H6  1  0.414000  0.791600  0.187900  1.0  0.0906
  H  H7  1  0.337500  0.644200  0.119100  1.0  0.118
  H  H8  1  0.120400  0.648500  0.149200  1.0  0.1038
  H  H9  1  0.901000  0.658000  0.352700  1.0  0.1186
  H  H10  1  0.684300  0.662400  0.377500  1.0  0.1198
  H  H11  1  0.595300  0.817900  0.306600  1.0  0.1012
  H  H12  1  0.722700  0.962800  0.206400  1.0  0.1012
  H  H13  1  0.143400  0.537200  0.827200  1.0  0.1147
  H  H14  1  0.888400  0.656000  0.111500  1.0  0.0793
  H  H15  1  0.598800  0.094900  0.100500  1.0  0.1005
  H  H16  1  0.616100  0.867200  0.861100  1.0  0.1113
  H  H17  1  0.141600  0.442000  0.328400  1.0  0.1147
  H  H18  1  0.135700  0.634100  0.392700  1.0  0.1001
  H  H19  1  0.592300  0.142500  0.373000  1.0  0.1102
  H  H20  1  0.616500  0.902100  0.596000  1.0  0.1195
  H  H21  1  0.719700  0.053100  0.709800  1.0  0.1201
  H  H22  1  0.586000  0.208400  0.812100  1.0  0.0902
  H  H23  1  0.662500  0.355800  0.880900  1.0  0.1182
  H  H24  1  0.879600  0.351500  0.850800  1.0  0.1036
  H  H25  1  0.099000  0.342000  0.647300  1.0  0.1181
  H  H26  1  0.315700  0.337600  0.622500  1.0  0.1205
  H  H27  1  0.404700  0.182100  0.693400  1.0  0.1005
  H  H28  1  0.277300  0.037200  0.793600  1.0  0.1014
  H  H29  1  0.856600  0.462800  0.172800  1.0  0.1142
  H  H30  1  0.111600  0.344000  0.888500  1.0  0.0795
  H  H31  1  0.401200  0.905100  0.899500  1.0  0.1005
  H  H32  1  0.383900  0.132800  0.138900  1.0  0.1118
  H  H33  1  0.858400  0.558000  0.671600  1.0  0.1146
  H  H34  1  0.864300  0.365900  0.607300  1.0  0.1002
  H  H35  1  0.407700  0.857500  0.627000  1.0  0.1099
  H  H36  1  0.383500  0.097900  0.404000  1.0  0.1196
  C  C37  1  0.247800  0.886500  0.261200  1.0  0.0294
  C  C38  1  0.326000  0.793700  0.200700  1.0  -0.0688
  C  C39  1  0.281700  0.706700  0.159700  1.0  -0.1426
  C  C40  1  0.152900  0.709500  0.177400  1.0  -0.1343
  C  C41  1  0.071600  0.801800  0.236600  1.0  0.1218
  C  C42  1  0.931900  0.806500  0.264100  1.0  0.2324
  C  C43  1  0.862700  0.719700  0.322700  1.0  -0.1441
  C  C44  1  0.734600  0.722800  0.338100  1.0  -0.1432
  C  C45  1  0.682900  0.813400  0.296000  1.0  -0.1183
  C  C46  1  0.758400  0.899900  0.237200  1.0  1e-04
  C  C47  1  0.033300  0.741200  0.928000  1.0  0.7059
  C  C48  1  0.017800  0.615500  0.964300  1.0  -0.1471
  C  C49  1  0.084900  0.522600  0.897500  1.0  -0.0863
  C  C50  1  0.934200  0.592300  0.065600  1.0  -0.015
  C  C51  1  0.771300  0.957800  0.949300  1.0  0.6816
  C  C52  1  0.630600  0.977000  0.977300  1.0  -0.1587
  C  C53  1  0.558700  0.056200  0.059700  1.0  -0.0402
  C  C54  1  0.569000  0.921000  0.917500  1.0  -0.0649
  C  C55  1  0.013900  0.259400  0.428100  1.0  0.6902
  C  C56  1  0.006500  0.385400  0.463900  1.0  -0.1233
  C  C57  1  0.084700  0.465000  0.398500  1.0  -0.0558
  C  C58  1  0.079700  0.579800  0.436100  1.0  -0.061
  C  C59  1  0.758800  0.050600  0.454100  1.0  0.6751
  C  C60  1  0.623100  0.027300  0.480300  1.0  -0.089
  C  C61  1  0.554900  0.084400  0.424600  1.0  -0.0301
  C  C62  1  0.569300  0.941700  0.557000  1.0  -0.0548
  C  C63  1  0.752200  0.113500  0.738800  1.0  0.0299
  C  C64  1  0.674000  0.206300  0.799300  1.0  -0.0678
  C  C65  1  0.718300  0.293300  0.840300  1.0  -0.1392
  C  C66  1  0.847100  0.290500  0.822600  1.0  -0.1369
  C  C67  1  0.928400  0.198200  0.763400  1.0  0.1219
  C  C68  1  0.068100  0.193500  0.735900  1.0  0.2329
  C  C69  1  0.137300  0.280300  0.677300  1.0  -0.1436
  C  C70  1  0.265400  0.277200  0.661900  1.0  -0.1419
  C  C71  1  0.317100  0.186600  0.704000  1.0  -0.1157
  C  C72  1  0.241600  0.100100  0.762800  1.0  -0.0015
  C  C73  1  0.966700  0.258800  0.072000  1.0  0.7067
  C  C74  1  0.982200  0.384500  0.035700  1.0  -0.1486
  C  C75  1  0.915100  0.477400  0.102500  1.0  -0.0814
  C  C76  1  0.065800  0.407700  0.934400  1.0  -0.0143
  C  C77  1  0.228700  0.042200  0.050700  1.0  0.6822
  C  C78  1  0.369400  0.023000  0.022700  1.0  -0.1593
  C  C79  1  0.441300  0.943800  0.940300  1.0  -0.0401
  C  C80  1  0.431000  0.079000  0.082500  1.0  -0.0642
  C  C81  1  0.986100  0.740600  0.571900  1.0  0.6899
  C  C82  1  0.993500  0.614600  0.536100  1.0  -0.1228
  C  C83  1  0.915300  0.535000  0.601500  1.0  -0.0595
  C  C84  1  0.920300  0.420200  0.563900  1.0  -0.0627
  C  C85  1  0.241200  0.949400  0.545900  1.0  0.6753
  C  C86  1  0.376900  0.972700  0.519700  1.0  -0.0884
  C  C87  1  0.445100  0.915600  0.575400  1.0  -0.03
  C  C88  1  0.430700  0.058300  0.443000  1.0  -0.0573
  N  N89  1  0.123100  0.886900  0.277000  1.0  0.2284
  N  N90  1  0.878400  0.895100  0.224200  1.0  0.2825
  N  N91  1  0.876900  0.113100  0.723000  1.0  0.2279
  N  N92  1  0.121600  0.104900  0.775800  1.0  0.282
  O  O93  1  0.045500  0.976800  0.333000  1.0  -0.6788
  O  O94  1  0.948500  0.980000  0.167800  1.0  -0.6502
  O  O95  1  0.998700  0.817800  0.001100  1.0  -0.5902
  O  O96  1  0.084600  0.759300  0.827700  1.0  -0.6146
  O  O97  1  0.816500  0.007000  0.009600  1.0  -0.5814
  O  O98  1  0.828600  0.893400  0.868400  1.0  -0.5937
  O  O99  1  0.051000  0.241300  0.325500  1.0  -0.599
  O  O100  1  0.984900  0.183100  0.499500  1.0  -0.5935
  O  O101  1  0.814100  0.003300  0.515100  1.0  -0.5962
  O  O102  1  0.812100  0.111000  0.370500  1.0  -0.6133
  O  O103  1  0.954500  0.023200  0.667000  1.0  -0.6784
  O  O104  1  0.051500  0.020000  0.832200  1.0  -0.6491
  O  O105  1  0.001300  0.182200  0.998900  1.0  -0.5906
  O  O106  1  0.915400  0.240700  0.172300  1.0  -0.6135
  O  O107  1  0.183500  0.993000  0.990400  1.0  -0.5811
  O  O108  1  0.171400  0.106600  0.131600  1.0  -0.5916
  O  O109  1  0.949000  0.758700  0.674500  1.0  -0.5991
  O  O110  1  0.015100  0.816900  0.500500  1.0  -0.5921
  O  O111  1  0.185900  0.996700  0.484900  1.0  -0.5964
  O  O112  1  0.187900  0.889000  0.629500  1.0  -0.6155
