# generated using pymatgen
data_Cu5H31C36N9O13
_symmetry_space_group_name_H-M   'P 1'
_cell_length_a   27.31300000
_cell_length_b   22.01700000
_cell_length_c   15.83600000
_cell_angle_alpha   90.00000000
_cell_angle_beta   103.21800000
_cell_angle_gamma   90.00000000
_symmetry_Int_Tables_number   1
_chemical_formula_structural   Cu5H31C36N9O13
_chemical_formula_sum   'Cu20 H124 C144 N36 O52'
_cell_volume   9270.69238405
_cell_formula_units_Z   4
loop_
 _symmetry_equiv_pos_site_id
 _symmetry_equiv_pos_as_xyz
  1  'x, y, z'
loop_
 _atom_site_type_symbol
 _atom_site_label
 _atom_site_symmetry_multiplicity
 _atom_site_fract_x
 _atom_site_fract_y
 _atom_site_fract_z
 _atom_site_occupancy
 _atom_site_charge
  Cu  Cu1  1  0.810650  0.424140  0.752860  1.0  0.8665
  Cu  Cu2  1  0.310650  0.924140  0.752860  1.0  0.8666
  Cu  Cu3  1  0.189350  0.424140  0.247140  1.0  0.8672
  Cu  Cu4  1  0.689350  0.924140  0.247140  1.0  0.8672
  Cu  Cu5  1  0.189350  0.575860  0.247140  1.0  0.8675
  Cu  Cu6  1  0.689350  0.075860  0.247140  1.0  0.8675
  Cu  Cu7  1  0.810650  0.575860  0.752860  1.0  0.8667
  Cu  Cu8  1  0.310650  0.075860  0.752860  1.0  0.8667
  Cu  Cu9  1  0.739270  0.500000  0.848910  1.0  0.723
  Cu  Cu10  1  0.961820  0.500000  0.542030  1.0  0.8462
  Cu  Cu11  1  0.239270  0.000000  0.848910  1.0  0.7154
  Cu  Cu12  1  0.461820  0.000000  0.542030  1.0  0.8462
  Cu  Cu13  1  0.260730  0.500000  0.151090  1.0  0.7241
  Cu  Cu14  1  0.038180  0.500000  0.457970  1.0  0.8461
  Cu  Cu15  1  0.760730  0.000000  0.151090  1.0  0.716
  Cu  Cu16  1  0.538180  0.000000  0.457970  1.0  0.8461
  Cu  Cu17  1  0.750000  0.250000  0.000000  1.0  0.8048
  Cu  Cu18  1  0.250000  0.250000  0.000000  1.0  0.8047
  Cu  Cu19  1  0.250000  0.750000  0.000000  1.0  0.8047
  Cu  Cu20  1  0.750000  0.750000  0.000000  1.0  0.8048
  H  H21  1  0.695900  0.435600  0.987000  1.0  0.1454
  H  H22  1  0.721400  0.384200  0.050400  1.0  0.1453
  H  H23  1  0.673000  0.370000  0.978300  1.0  0.1414
  H  H24  1  0.835700  0.288200  0.815000  1.0  0.1522
  H  H25  1  0.786400  0.249200  0.796900  1.0  0.1524
  H  H26  1  0.822500  0.249100  0.889400  1.0  0.1464
  H  H27  1  0.880200  0.379800  0.557800  1.0  0.1593
  H  H28  1  0.879900  0.360800  0.653000  1.0  0.1455
  H  H29  1  0.929700  0.383900  0.630700  1.0  0.1436
  H  H30  1  0.692500  0.324300  0.475400  1.0  0.1016
  H  H31  1  0.816400  0.259100  0.618600  1.0  0.1233
  H  H32  1  0.808500  0.334900  0.253500  1.0  0.1066
  H  H33  1  0.928400  0.305100  0.154800  1.0  0.1371
  H  H34  1  0.859600  0.387400  0.373200  1.0  0.1218
  H  H35  1  0.976000  0.362800  0.269900  1.0  0.1049
  H  H36  1  0.195900  0.935600  0.987000  1.0  0.1454
  H  H37  1  0.221400  0.884200  0.050400  1.0  0.1453
  H  H38  1  0.173000  0.870000  0.978300  1.0  0.1414
  H  H39  1  0.335700  0.788200  0.815000  1.0  0.1522
  H  H40  1  0.286400  0.749200  0.796900  1.0  0.1524
  H  H41  1  0.322500  0.749100  0.889400  1.0  0.1464
  H  H42  1  0.380200  0.879800  0.557800  1.0  0.1593
  H  H43  1  0.379900  0.860800  0.653000  1.0  0.1455
  H  H44  1  0.429700  0.883900  0.630700  1.0  0.1436
  H  H45  1  0.192500  0.824300  0.475400  1.0  0.1002
  H  H46  1  0.316400  0.759100  0.618600  1.0  0.1233
  H  H47  1  0.308500  0.834900  0.253500  1.0  0.1066
  H  H48  1  0.428400  0.805100  0.154800  1.0  0.1372
  H  H49  1  0.359600  0.887400  0.373200  1.0  0.1218
  H  H50  1  0.476000  0.862800  0.269900  1.0  0.1049
  H  H51  1  0.304100  0.435600  0.013000  1.0  0.147
  H  H52  1  0.278600  0.384200  0.949600  1.0  0.1445
  H  H53  1  0.327000  0.370000  0.021700  1.0  0.1419
  H  H54  1  0.164300  0.288200  0.185000  1.0  0.1521
  H  H55  1  0.213600  0.249200  0.203100  1.0  0.1529
  H  H56  1  0.177500  0.249100  0.110600  1.0  0.1457
  H  H57  1  0.119800  0.379800  0.442200  1.0  0.1592
  H  H58  1  0.120100  0.360800  0.347000  1.0  0.1453
  H  H59  1  0.070300  0.383900  0.369300  1.0  0.147
  H  H60  1  0.307500  0.324300  0.524600  1.0  0.1015
  H  H61  1  0.183600  0.259100  0.381400  1.0  0.1223
  H  H62  1  0.191500  0.334900  0.746500  1.0  0.1051
  H  H63  1  0.071600  0.305100  0.845200  1.0  0.1375
  H  H64  1  0.140400  0.387400  0.626800  1.0  0.1218
  H  H65  1  0.024000  0.362800  0.730100  1.0  0.1055
  H  H66  1  0.804100  0.935600  0.013000  1.0  0.147
  H  H67  1  0.778600  0.884200  0.949600  1.0  0.1445
  H  H68  1  0.827000  0.870000  0.021700  1.0  0.1419
  H  H69  1  0.664300  0.788200  0.185000  1.0  0.1521
  H  H70  1  0.713600  0.749200  0.203100  1.0  0.1529
  H  H71  1  0.677500  0.749100  0.110600  1.0  0.1457
  H  H72  1  0.619800  0.879800  0.442200  1.0  0.1592
  H  H73  1  0.620100  0.860800  0.347000  1.0  0.1453
  H  H74  1  0.570300  0.883900  0.369300  1.0  0.147
  H  H75  1  0.807500  0.824300  0.524600  1.0  0.1002
  H  H76  1  0.683600  0.759100  0.381400  1.0  0.1223
  H  H77  1  0.691500  0.834900  0.746500  1.0  0.1051
  H  H78  1  0.571600  0.805100  0.845200  1.0  0.1375
  H  H79  1  0.640400  0.887400  0.626800  1.0  0.1218
  H  H80  1  0.524000  0.862800  0.730100  1.0  0.1055
  H  H81  1  0.304100  0.564400  0.013000  1.0  0.1477
  H  H82  1  0.278600  0.615800  0.949600  1.0  0.1447
  H  H83  1  0.327000  0.630000  0.021700  1.0  0.1436
  H  H84  1  0.164300  0.711800  0.185000  1.0  0.152
  H  H85  1  0.213600  0.750800  0.203100  1.0  0.1519
  H  H86  1  0.177500  0.750900  0.110600  1.0  0.1462
  H  H87  1  0.119800  0.620200  0.442200  1.0  0.1594
  H  H88  1  0.120100  0.639200  0.347000  1.0  0.1456
  H  H89  1  0.070300  0.616100  0.369300  1.0  0.1467
  H  H90  1  0.307500  0.675700  0.524600  1.0  0.1011
  H  H91  1  0.183600  0.740900  0.381400  1.0  0.1228
  H  H92  1  0.191500  0.665100  0.746500  1.0  0.1053
  H  H93  1  0.071600  0.694900  0.845200  1.0  0.1371
  H  H94  1  0.140400  0.612600  0.626800  1.0  0.1216
  H  H95  1  0.024000  0.637200  0.730100  1.0  0.1057
  H  H96  1  0.804100  0.064400  0.013000  1.0  0.1477
  H  H97  1  0.778600  0.115800  0.949600  1.0  0.1447
  H  H98  1  0.827000  0.130000  0.021700  1.0  0.1436
  H  H99  1  0.664300  0.211800  0.185000  1.0  0.152
  H  H100  1  0.713600  0.250800  0.203100  1.0  0.1519
  H  H101  1  0.677500  0.250900  0.110600  1.0  0.1461
  H  H102  1  0.619800  0.120200  0.442200  1.0  0.1594
  H  H103  1  0.620100  0.139200  0.347000  1.0  0.1456
  H  H104  1  0.570300  0.116100  0.369300  1.0  0.1467
  H  H105  1  0.807500  0.175700  0.524600  1.0  0.0998
  H  H106  1  0.683600  0.240900  0.381400  1.0  0.1228
  H  H107  1  0.691500  0.165100  0.746500  1.0  0.1053
  H  H108  1  0.571600  0.194900  0.845200  1.0  0.1371
  H  H109  1  0.640400  0.112600  0.626800  1.0  0.1216
  H  H110  1  0.524000  0.137200  0.730100  1.0  0.1057
  H  H111  1  0.695900  0.564400  0.987000  1.0  0.1464
  H  H112  1  0.721400  0.615800  0.050400  1.0  0.1453
  H  H113  1  0.673000  0.630000  0.978300  1.0  0.1417
  H  H114  1  0.835700  0.711800  0.815000  1.0  0.152
  H  H115  1  0.786400  0.750800  0.796900  1.0  0.1525
  H  H116  1  0.822500  0.750900  0.889400  1.0  0.1468
  H  H117  1  0.880200  0.620200  0.557800  1.0  0.1591
  H  H118  1  0.879900  0.639200  0.653000  1.0  0.1451
  H  H119  1  0.929700  0.616100  0.630700  1.0  0.1453
  H  H120  1  0.692500  0.675700  0.475400  1.0  0.1003
  H  H121  1  0.816400  0.740900  0.618600  1.0  0.1231
  H  H122  1  0.808500  0.665100  0.253500  1.0  0.1067
  H  H123  1  0.928400  0.694900  0.154800  1.0  0.1372
  H  H124  1  0.859600  0.612600  0.373200  1.0  0.122
  H  H125  1  0.976000  0.637200  0.269900  1.0  0.1049
  H  H126  1  0.195900  0.064400  0.987000  1.0  0.1464
  H  H127  1  0.221400  0.115800  0.050400  1.0  0.1453
  H  H128  1  0.173000  0.130000  0.978300  1.0  0.1417
  H  H129  1  0.335700  0.211800  0.815000  1.0  0.152
  H  H130  1  0.286400  0.250800  0.796900  1.0  0.1525
  H  H131  1  0.322500  0.250900  0.889400  1.0  0.1468
  H  H132  1  0.380200  0.120200  0.557800  1.0  0.1591
  H  H133  1  0.379900  0.139200  0.653000  1.0  0.1451
  H  H134  1  0.429700  0.116100  0.630700  1.0  0.1453
  H  H135  1  0.192500  0.175700  0.475400  1.0  0.0991
  H  H136  1  0.316400  0.240900  0.618600  1.0  0.1231
  H  H137  1  0.308500  0.165100  0.253500  1.0  0.1067
  H  H138  1  0.428400  0.194900  0.154800  1.0  0.1373
  H  H139  1  0.359600  0.112600  0.373200  1.0  0.122
  H  H140  1  0.476000  0.137200  0.269900  1.0  0.1049
  H  H141  1  0.833300  0.500000  0.863000  1.0  0.3897
  H  H142  1  0.333333  0.000000  0.863000  1.0  0.3896
  H  H143  1  0.166700  0.500000  0.137000  1.0  0.3896
  H  H144  1  0.666667  0.000000  0.137000  1.0  0.3895
  C  C145  1  0.703600  0.393000  0.992100  1.0  -0.4495
  C  C146  1  0.735200  0.376800  0.931700  1.0  0.3845
  C  C147  1  0.780700  0.326100  0.864900  1.0  0.3787
  C  C148  1  0.808900  0.273400  0.839200  1.0  -0.4293
  C  C149  1  0.881000  0.451700  0.637200  1.0  0.2856
  C  C150  1  0.893800  0.388500  0.618000  1.0  -0.4334
  C  C151  1  0.757900  0.356100  0.612600  1.0  0.7125
  C  C152  1  0.754600  0.299900  0.554900  1.0  -0.1255
  C  C153  1  0.716700  0.293800  0.486500  1.0  -0.0321
  C  C154  1  0.789200  0.256600  0.571200  1.0  -0.1261
  C  C155  1  0.831000  0.286900  0.112600  1.0  0.6868
  C  C156  1  0.861600  0.318200  0.191300  1.0  -0.1385
  C  C157  1  0.842500  0.340600  0.255500  1.0  -0.0385
  C  C158  1  0.913500  0.323200  0.195700  1.0  -0.1012
  C  C159  1  0.953000  0.422600  0.396900  1.0  0.686
  C  C160  1  0.921200  0.382900  0.328000  1.0  -0.1004
  C  C161  1  0.873200  0.373400  0.328000  1.0  -0.0847
  C  C162  1  0.941700  0.357500  0.266100  1.0  -0.0509
  C  C163  1  0.203600  0.893000  0.992100  1.0  -0.4495
  C  C164  1  0.235200  0.876800  0.931700  1.0  0.3845
  C  C165  1  0.280700  0.826100  0.864900  1.0  0.3787
  C  C166  1  0.308900  0.773400  0.839200  1.0  -0.4293
  C  C167  1  0.381000  0.951700  0.637200  1.0  0.2856
  C  C168  1  0.393800  0.888500  0.618000  1.0  -0.4334
  C  C169  1  0.257900  0.856100  0.612600  1.0  0.7125
  C  C170  1  0.254600  0.799900  0.554900  1.0  -0.1255
  C  C171  1  0.216700  0.793800  0.486500  1.0  -0.0321
  C  C172  1  0.289200  0.756600  0.571200  1.0  -0.1261
  C  C173  1  0.331000  0.786900  0.112600  1.0  0.6868
  C  C174  1  0.361600  0.818200  0.191300  1.0  -0.1385
  C  C175  1  0.342500  0.840600  0.255500  1.0  -0.0385
  C  C176  1  0.413500  0.823200  0.195700  1.0  -0.1012
  C  C177  1  0.453000  0.922600  0.396900  1.0  0.686
  C  C178  1  0.421200  0.882900  0.328000  1.0  -0.1004
  C  C179  1  0.373200  0.873400  0.328000  1.0  -0.0847
  C  C180  1  0.441700  0.857500  0.266100  1.0  -0.0509
  C  C181  1  0.296400  0.393000  0.007900  1.0  -0.4497
  C  C182  1  0.264800  0.376800  0.068300  1.0  0.3837
  C  C183  1  0.219300  0.326100  0.135100  1.0  0.3792
  C  C184  1  0.191100  0.273400  0.160800  1.0  -0.4278
  C  C185  1  0.119000  0.451700  0.362800  1.0  0.2861
  C  C186  1  0.106200  0.388500  0.382000  1.0  -0.4331
  C  C187  1  0.242100  0.356100  0.387400  1.0  0.7125
  C  C188  1  0.245400  0.299900  0.445100  1.0  -0.1275
  C  C189  1  0.283300  0.293800  0.513500  1.0  -0.0301
  C  C190  1  0.210800  0.256600  0.428800  1.0  -0.1279
  C  C191  1  0.169000  0.286900  0.887400  1.0  0.6861
  C  C192  1  0.138400  0.318200  0.808700  1.0  -0.1365
  C  C193  1  0.157500  0.340600  0.744500  1.0  -0.0362
  C  C194  1  0.086500  0.323200  0.804300  1.0  -0.1027
  C  C195  1  0.047000  0.422600  0.603100  1.0  0.6866
  C  C196  1  0.078800  0.382900  0.672000  1.0  -0.1019
  C  C197  1  0.126800  0.373400  0.672000  1.0  -0.085
  C  C198  1  0.058300  0.357500  0.733900  1.0  -0.0521
  C  C199  1  0.796400  0.893000  0.007900  1.0  -0.4497
  C  C200  1  0.764800  0.876800  0.068300  1.0  0.3837
  C  C201  1  0.719300  0.826100  0.135100  1.0  0.3792
  C  C202  1  0.691100  0.773400  0.160800  1.0  -0.4278
  C  C203  1  0.619000  0.951700  0.362800  1.0  0.2861
  C  C204  1  0.606200  0.888500  0.382000  1.0  -0.4331
  C  C205  1  0.742100  0.856100  0.387400  1.0  0.7125
  C  C206  1  0.745400  0.799900  0.445100  1.0  -0.1275
  C  C207  1  0.783300  0.793800  0.513500  1.0  -0.0301
  C  C208  1  0.710800  0.756600  0.428800  1.0  -0.1279
  C  C209  1  0.669000  0.786900  0.887400  1.0  0.6861
  C  C210  1  0.638400  0.818200  0.808700  1.0  -0.1365
  C  C211  1  0.657500  0.840600  0.744500  1.0  -0.0362
  C  C212  1  0.586500  0.823200  0.804300  1.0  -0.1027
  C  C213  1  0.547000  0.922600  0.603100  1.0  0.6866
  C  C214  1  0.578800  0.882900  0.672000  1.0  -0.1019
  C  C215  1  0.626800  0.873400  0.672000  1.0  -0.085
  C  C216  1  0.558300  0.857500  0.733900  1.0  -0.0521
  C  C217  1  0.296400  0.607000  0.007900  1.0  -0.4493
  C  C218  1  0.264800  0.623200  0.068300  1.0  0.3839
  C  C219  1  0.219300  0.673900  0.135100  1.0  0.3796
  C  C220  1  0.191100  0.726600  0.160800  1.0  -0.4271
  C  C221  1  0.119000  0.548300  0.362800  1.0  0.282
  C  C222  1  0.106200  0.611500  0.382000  1.0  -0.4316
  C  C223  1  0.242100  0.643900  0.387400  1.0  0.7132
  C  C224  1  0.245400  0.700100  0.445100  1.0  -0.128
  C  C225  1  0.283300  0.706200  0.513500  1.0  -0.0299
  C  C226  1  0.210800  0.743400  0.428800  1.0  -0.128
  C  C227  1  0.169000  0.713100  0.887400  1.0  0.6865
  C  C228  1  0.138400  0.681800  0.808700  1.0  -0.1366
  C  C229  1  0.157500  0.659400  0.744500  1.0  -0.0364
  C  C230  1  0.086500  0.676800  0.804300  1.0  -0.1024
  C  C231  1  0.047000  0.577400  0.603100  1.0  0.6863
  C  C232  1  0.078800  0.617100  0.672000  1.0  -0.1011
  C  C233  1  0.126800  0.626600  0.672000  1.0  -0.0847
  C  C234  1  0.058300  0.642500  0.733900  1.0  -0.053
  C  C235  1  0.796400  0.107000  0.007900  1.0  -0.4493
  C  C236  1  0.764800  0.123200  0.068300  1.0  0.3839
  C  C237  1  0.719300  0.173900  0.135100  1.0  0.3796
  C  C238  1  0.691100  0.226600  0.160800  1.0  -0.4271
  C  C239  1  0.619000  0.048300  0.362800  1.0  0.282
  C  C240  1  0.606200  0.111500  0.382000  1.0  -0.4316
  C  C241  1  0.742100  0.143900  0.387400  1.0  0.7132
  C  C242  1  0.745400  0.200100  0.445100  1.0  -0.128
  C  C243  1  0.783300  0.206200  0.513500  1.0  -0.0299
  C  C244  1  0.710800  0.243400  0.428800  1.0  -0.128
  C  C245  1  0.669000  0.213100  0.887400  1.0  0.6865
  C  C246  1  0.638400  0.181800  0.808700  1.0  -0.1366
  C  C247  1  0.657500  0.159400  0.744500  1.0  -0.0364
  C  C248  1  0.586500  0.176800  0.804300  1.0  -0.1024
  C  C249  1  0.547000  0.077400  0.603100  1.0  0.6863
  C  C250  1  0.578800  0.117100  0.672000  1.0  -0.1011
  C  C251  1  0.626800  0.126600  0.672000  1.0  -0.0847
  C  C252  1  0.558300  0.142500  0.733900  1.0  -0.053
  C  C253  1  0.703600  0.607000  0.992100  1.0  -0.4487
  C  C254  1  0.735200  0.623200  0.931700  1.0  0.3845
  C  C255  1  0.780700  0.673900  0.864900  1.0  0.379
  C  C256  1  0.808900  0.726600  0.839200  1.0  -0.4288
  C  C257  1  0.881000  0.548300  0.637200  1.0  0.2814
  C  C258  1  0.893800  0.611500  0.618000  1.0  -0.4319
  C  C259  1  0.757900  0.643900  0.612600  1.0  0.7134
  C  C260  1  0.754600  0.700100  0.554900  1.0  -0.1267
  C  C261  1  0.716700  0.706200  0.486500  1.0  -0.0305
  C  C262  1  0.789200  0.743400  0.571200  1.0  -0.1258
  C  C263  1  0.831000  0.713100  0.112600  1.0  0.6871
  C  C264  1  0.861600  0.681800  0.191300  1.0  -0.1386
  C  C265  1  0.842500  0.659400  0.255500  1.0  -0.0384
  C  C266  1  0.913500  0.676800  0.195700  1.0  -0.1016
  C  C267  1  0.953000  0.577400  0.396900  1.0  0.6859
  C  C268  1  0.921200  0.617100  0.328000  1.0  -0.1006
  C  C269  1  0.873200  0.626600  0.328000  1.0  -0.0842
  C  C270  1  0.941700  0.642500  0.266100  1.0  -0.0513
  C  C271  1  0.203600  0.107000  0.992100  1.0  -0.4487
  C  C272  1  0.235200  0.123200  0.931700  1.0  0.3845
  C  C273  1  0.280700  0.173900  0.864900  1.0  0.379
  C  C274  1  0.308900  0.226600  0.839200  1.0  -0.4288
  C  C275  1  0.381000  0.048300  0.637200  1.0  0.2814
  C  C276  1  0.393800  0.111500  0.618000  1.0  -0.4319
  C  C277  1  0.257900  0.143900  0.612600  1.0  0.7134
  C  C278  1  0.254600  0.200100  0.554900  1.0  -0.1267
  C  C279  1  0.216700  0.206200  0.486500  1.0  -0.0305
  C  C280  1  0.289200  0.243400  0.571200  1.0  -0.1258
  C  C281  1  0.331000  0.213100  0.112600  1.0  0.6871
  C  C282  1  0.361600  0.181800  0.191300  1.0  -0.1386
  C  C283  1  0.342500  0.159400  0.255500  1.0  -0.0384
  C  C284  1  0.413500  0.176800  0.195700  1.0  -0.1016
  C  C285  1  0.453000  0.077400  0.396900  1.0  0.6859
  C  C286  1  0.421200  0.117100  0.328000  1.0  -0.1006
  C  C287  1  0.373200  0.126600  0.328000  1.0  -0.0842
  C  C288  1  0.441700  0.142500  0.266100  1.0  -0.0513
  N  N289  1  0.748000  0.413900  0.875100  1.0  -0.3129
  N  N290  1  0.777400  0.381900  0.832900  1.0  -0.2487
  N  N291  1  0.755300  0.321900  0.929000  1.0  -0.4076
  N  N292  1  0.847700  0.468500  0.682300  1.0  -0.3419
  N  N293  1  0.248000  0.913900  0.875100  1.0  -0.3129
  N  N294  1  0.277400  0.881900  0.832900  1.0  -0.2486
  N  N295  1  0.255300  0.821900  0.929000  1.0  -0.4076
  N  N296  1  0.347700  0.968500  0.682300  1.0  -0.3419
  N  N297  1  0.252000  0.413900  0.124900  1.0  -0.3143
  N  N298  1  0.222600  0.381900  0.167100  1.0  -0.2482
  N  N299  1  0.244700  0.321900  0.071000  1.0  -0.4074
  N  N300  1  0.152300  0.468500  0.317700  1.0  -0.3422
  N  N301  1  0.752000  0.913900  0.124900  1.0  -0.3143
  N  N302  1  0.722600  0.881900  0.167100  1.0  -0.2481
  N  N303  1  0.744700  0.821900  0.071000  1.0  -0.4074
  N  N304  1  0.652300  0.968500  0.317700  1.0  -0.3422
  N  N305  1  0.252000  0.586100  0.124900  1.0  -0.3134
  N  N306  1  0.222600  0.618100  0.167100  1.0  -0.2481
  N  N307  1  0.244700  0.678100  0.071000  1.0  -0.4072
  N  N308  1  0.152300  0.531500  0.317700  1.0  -0.342
  N  N309  1  0.752000  0.086100  0.124900  1.0  -0.3134
  N  N310  1  0.722600  0.118100  0.167100  1.0  -0.248
  N  N311  1  0.744700  0.178100  0.071000  1.0  -0.4072
  N  N312  1  0.652300  0.031500  0.317700  1.0  -0.3421
  N  N313  1  0.748000  0.586100  0.875100  1.0  -0.313
  N  N314  1  0.777400  0.618100  0.832900  1.0  -0.2487
  N  N315  1  0.755300  0.678100  0.929000  1.0  -0.4075
  N  N316  1  0.847700  0.531500  0.682300  1.0  -0.3419
  N  N317  1  0.248000  0.086100  0.875100  1.0  -0.313
  N  N318  1  0.277400  0.118100  0.832900  1.0  -0.2486
  N  N319  1  0.255300  0.178100  0.929000  1.0  -0.4075
  N  N320  1  0.347700  0.031500  0.682300  1.0  -0.3419
  N  N321  1  0.902900  0.500000  0.606200  1.0  -0.5363
  N  N322  1  0.402900  0.000000  0.606200  1.0  -0.5363
  N  N323  1  0.097100  0.500000  0.393800  1.0  -0.5347
  N  N324  1  0.597100  0.000000  0.393800  1.0  -0.5347
  O  O325  1  0.797600  0.355900  0.673200  1.0  -0.5895
  O  O326  1  0.725700  0.394800  0.599600  1.0  -0.4406
  O  O327  1  0.933200  0.438400  0.455500  1.0  -0.5624
  O  O328  1  0.996700  0.438800  0.385800  1.0  -0.5871
  O  O329  1  0.784600  0.295000  0.104300  1.0  -0.5977
  O  O330  1  0.848100  0.256400  0.063400  1.0  -0.509
  O  O331  1  0.297600  0.855900  0.673200  1.0  -0.5895
  O  O332  1  0.225700  0.894800  0.599600  1.0  -0.4406
  O  O333  1  0.433200  0.938400  0.455500  1.0  -0.5624
  O  O334  1  0.496700  0.938800  0.385800  1.0  -0.5871
  O  O335  1  0.284600  0.795000  0.104300  1.0  -0.5977
  O  O336  1  0.348100  0.756400  0.063400  1.0  -0.509
  O  O337  1  0.202400  0.355900  0.326800  1.0  -0.5898
  O  O338  1  0.274300  0.394800  0.400400  1.0  -0.4417
  O  O339  1  0.066800  0.438400  0.544500  1.0  -0.5626
  O  O340  1  0.003300  0.438800  0.614200  1.0  -0.5877
  O  O341  1  0.215400  0.295000  0.895700  1.0  -0.5975
  O  O342  1  0.151900  0.256400  0.936600  1.0  -0.507
  O  O343  1  0.702400  0.855900  0.326800  1.0  -0.5898
  O  O344  1  0.774300  0.894800  0.400400  1.0  -0.4417
  O  O345  1  0.566800  0.938400  0.544500  1.0  -0.5626
  O  O346  1  0.503300  0.938800  0.614200  1.0  -0.5877
  O  O347  1  0.715400  0.795000  0.895700  1.0  -0.5975
  O  O348  1  0.651900  0.756400  0.936600  1.0  -0.507
  O  O349  1  0.202400  0.644100  0.326800  1.0  -0.5899
  O  O350  1  0.274300  0.605200  0.400400  1.0  -0.4411
  O  O351  1  0.066800  0.561600  0.544500  1.0  -0.5618
  O  O352  1  0.003300  0.561200  0.614200  1.0  -0.5884
  O  O353  1  0.215400  0.705000  0.895700  1.0  -0.599
  O  O354  1  0.151900  0.743600  0.936600  1.0  -0.5072
  O  O355  1  0.702400  0.144100  0.326800  1.0  -0.5899
  O  O356  1  0.774300  0.105200  0.400400  1.0  -0.4411
  O  O357  1  0.566800  0.061600  0.544500  1.0  -0.5618
  O  O358  1  0.503300  0.061200  0.614200  1.0  -0.5884
  O  O359  1  0.715400  0.205000  0.895700  1.0  -0.599
  O  O360  1  0.651900  0.243600  0.936600  1.0  -0.5072
  O  O361  1  0.797600  0.644100  0.673200  1.0  -0.5896
  O  O362  1  0.725700  0.605200  0.599600  1.0  -0.4411
  O  O363  1  0.933200  0.561600  0.455500  1.0  -0.5609
  O  O364  1  0.996700  0.561200  0.385800  1.0  -0.5873
  O  O365  1  0.784600  0.705000  0.104300  1.0  -0.5986
  O  O366  1  0.848100  0.743600  0.063400  1.0  -0.5075
  O  O367  1  0.297600  0.144100  0.673200  1.0  -0.5896
  O  O368  1  0.225700  0.105200  0.599600  1.0  -0.4411
  O  O369  1  0.433200  0.061600  0.455500  1.0  -0.5609
  O  O370  1  0.496700  0.061200  0.385800  1.0  -0.5873
  O  O371  1  0.284600  0.205000  0.104300  1.0  -0.5986
  O  O372  1  0.348100  0.243600  0.063400  1.0  -0.5075
  O  O373  1  0.806300  0.500000  0.818300  1.0  -0.868
  O  O374  1  0.306300  0.000000  0.818300  1.0  -0.868
  O  O375  1  0.193700  0.500000  0.181700  1.0  -0.868
  O  O376  1  0.693700  0.000000  0.181700  1.0  -0.8679
