# generated using pymatgen
data_EuH3(CO2)3
_symmetry_space_group_name_H-M   'P 1'
_cell_length_a   11.41640000
_cell_length_b   7.19850000
_cell_length_c   6.64050000
_cell_angle_alpha   90.00000000
_cell_angle_beta   109.82900000
_cell_angle_gamma   90.00000000
_symmetry_Int_Tables_number   1
_chemical_formula_structural   EuH3(CO2)3
_chemical_formula_sum   'Eu2 H6 C6 O12'
_cell_volume   513.36630155
_cell_formula_units_Z   2
loop_
 _symmetry_equiv_pos_site_id
 _symmetry_equiv_pos_as_xyz
  1  'x, y, z'
loop_
 _atom_site_type_symbol
 _atom_site_label
 _atom_site_symmetry_multiplicity
 _atom_site_fract_x
 _atom_site_fract_y
 _atom_site_fract_z
 _atom_site_occupancy
 _atom_site_charge
  Eu  Eu1  1  0.000000  0.676600  0.000000  1.0  2.0818
  Eu  Eu2  1  0.500000  0.176600  0.000000  1.0  2.0818
  H  H3  1  0.804000  0.337500  0.102600  1.0  -0.0379
  H  H4  1  0.304000  0.837500  0.102600  1.0  -0.0379
  H  H5  1  0.196000  0.337500  0.897400  1.0  -0.0377
  H  H6  1  0.696000  0.837500  0.897400  1.0  -0.0377
  H  H7  1  0.000000  0.737500  0.500000  1.0  -0.0252
  H  H8  1  0.500000  0.237500  0.500000  1.0  -0.0252
  C  C9  1  0.763500  0.380900  0.964400  1.0  0.6669
  C  C10  1  0.263500  0.880900  0.964400  1.0  0.6669
  C  C11  1  0.236500  0.380900  0.035600  1.0  0.668
  C  C12  1  0.736500  0.880900  0.035600  1.0  0.668
  C  C13  1  0.000000  0.608300  0.500000  1.0  0.6401
  C  C14  1  0.500000  0.108300  0.500000  1.0  0.6401
  O  O15  1  0.991400  0.529500  0.661700  1.0  -0.6371
  O  O16  1  0.826400  0.476300  0.882000  1.0  -0.664
  O  O17  1  0.654300  0.338500  0.882400  1.0  -0.6769
  O  O18  1  0.491400  0.029500  0.661700  1.0  -0.6371
  O  O19  1  0.326400  0.976300  0.882000  1.0  -0.664
  O  O20  1  0.154300  0.838500  0.882400  1.0  -0.6766
  O  O21  1  0.008600  0.529500  0.338300  1.0  -0.6373
  O  O22  1  0.173600  0.476300  0.118000  1.0  -0.6655
  O  O23  1  0.345700  0.338500  0.117600  1.0  -0.6753
  O  O24  1  0.508600  0.029500  0.338300  1.0  -0.6373
  O  O25  1  0.673600  0.976300  0.118000  1.0  -0.6655
  O  O26  1  0.845700  0.838500  0.117600  1.0  -0.6752
