# generated using pymatgen
data_GdH3(CO2)3
_symmetry_space_group_name_H-M   'P 1'
_cell_length_a   11.38000000
_cell_length_b   7.18200000
_cell_length_c   6.62800000
_cell_angle_alpha   90.00000000
_cell_angle_beta   109.75400000
_cell_angle_gamma   90.00000000
_symmetry_Int_Tables_number   1
_chemical_formula_structural   GdH3(CO2)3
_chemical_formula_sum   'Gd2 H6 C6 O12'
_cell_volume   509.83556401
_cell_formula_units_Z   2
loop_
 _symmetry_equiv_pos_site_id
 _symmetry_equiv_pos_as_xyz
  1  'x, y, z'
loop_
 _atom_site_type_symbol
 _atom_site_label
 _atom_site_symmetry_multiplicity
 _atom_site_fract_x
 _atom_site_fract_y
 _atom_site_fract_z
 _atom_site_occupancy
 _atom_site_charge
  Gd  Gd1  1  0.500000  0.449550  0.000000  1.0  2.1154
  Gd  Gd2  1  0.000000  0.949550  0.000000  1.0  2.1154
  H  H3  1  0.695100  0.107100  0.898100  1.0  -0.0378
  H  H4  1  0.195100  0.607100  0.898100  1.0  -0.0378
  H  H5  1  0.304900  0.107100  0.101900  1.0  -0.0385
  H  H6  1  0.804900  0.607100  0.101900  1.0  -0.0385
  H  H7  1  0.500000  0.510700  0.500000  1.0  -0.0285
  H  H8  1  0.000000  0.010700  0.500000  1.0  -0.0285
  C  C9  1  0.735800  0.153200  0.035000  1.0  0.6519
  C  C10  1  0.235800  0.653200  0.035000  1.0  0.6519
  C  C11  1  0.264200  0.153200  0.965000  1.0  0.65
  C  C12  1  0.764200  0.653200  0.965000  1.0  0.65
  C  C13  1  0.500000  0.381000  0.500000  1.0  0.6402
  C  C14  1  0.000000  0.881000  0.500000  1.0  0.6402
  O  O15  1  0.508200  0.302600  0.337600  1.0  -0.6404
  O  O16  1  0.673000  0.249500  0.116200  1.0  -0.669
  O  O17  1  0.847200  0.112600  0.118500  1.0  -0.6675
  O  O18  1  0.008200  0.802600  0.337600  1.0  -0.6404
  O  O19  1  0.173000  0.749500  0.116200  1.0  -0.669
  O  O20  1  0.347200  0.612600  0.118500  1.0  -0.6676
  O  O21  1  0.491800  0.302600  0.662400  1.0  -0.6399
  O  O22  1  0.327000  0.249500  0.883800  1.0  -0.6677
  O  O23  1  0.152800  0.112600  0.881500  1.0  -0.6679
  O  O24  1  0.991800  0.802600  0.662400  1.0  -0.6399
  O  O25  1  0.827000  0.749500  0.883800  1.0  -0.6677
  O  O26  1  0.652800  0.612600  0.881500  1.0  -0.6684
