# generated using pymatgen
data_SmH3(CO2)3
_symmetry_space_group_name_H-M   'P 1'
_cell_length_a   11.43000000
_cell_length_b   7.22000000
_cell_length_c   6.65500000
_cell_angle_alpha   90.00000000
_cell_angle_beta   109.91200000
_cell_angle_gamma   90.00000000
_symmetry_Int_Tables_number   1
_chemical_formula_structural   SmH3(CO2)3
_chemical_formula_sum   'Sm2 H6 C6 O12'
_cell_volume   516.36821663
_cell_formula_units_Z   2
loop_
 _symmetry_equiv_pos_site_id
 _symmetry_equiv_pos_as_xyz
  1  'x, y, z'
loop_
 _atom_site_type_symbol
 _atom_site_label
 _atom_site_symmetry_multiplicity
 _atom_site_fract_x
 _atom_site_fract_y
 _atom_site_fract_z
 _atom_site_occupancy
 _atom_site_charge
  Sm  Sm1  1  0.000000  0.418550  0.000000  1.0  2.2037
  Sm  Sm2  1  0.500000  0.918550  0.000000  1.0  2.2037
  H  H3  1  0.802500  0.079800  0.100100  1.0  -0.0554
  H  H4  1  0.302500  0.579800  0.100100  1.0  -0.0554
  H  H5  1  0.197500  0.079800  0.899900  1.0  -0.0533
  H  H6  1  0.697500  0.579800  0.899900  1.0  -0.0533
  H  H7  1  0.000000  0.474600  0.500000  1.0  -0.0379
  H  H8  1  0.500000  0.974600  0.500000  1.0  -0.0379
  C  C9  1  0.762500  0.123000  0.962000  1.0  0.6612
  C  C10  1  0.262500  0.623000  0.962000  1.0  0.6612
  C  C11  1  0.237500  0.123000  0.038000  1.0  0.6615
  C  C12  1  0.737500  0.623000  0.038000  1.0  0.6615
  C  C13  1  0.000000  0.346000  0.500000  1.0  0.6196
  C  C14  1  0.500000  0.846000  0.500000  1.0  0.6196
  O  O15  1  0.991600  0.271700  0.662700  1.0  -0.6338
  O  O16  1  0.827400  0.215500  0.884000  1.0  -0.6695
  O  O17  1  0.653900  0.080000  0.882600  1.0  -0.696
  O  O18  1  0.491600  0.771700  0.662700  1.0  -0.6338
  O  O19  1  0.327400  0.715500  0.884000  1.0  -0.6695
  O  O20  1  0.153900  0.580000  0.882600  1.0  -0.6956
  O  O21  1  0.008400  0.271700  0.337300  1.0  -0.6349
  O  O22  1  0.172600  0.215500  0.116000  1.0  -0.6709
  O  O23  1  0.346100  0.080000  0.117400  1.0  -0.6945
  O  O24  1  0.508400  0.771700  0.337300  1.0  -0.6349
  O  O25  1  0.672600  0.715500  0.116000  1.0  -0.6709
  O  O26  1  0.846100  0.580000  0.117400  1.0  -0.6945
