# generated using pymatgen
data_TbH3(CO2)3
_symmetry_space_group_name_H-M   'P 1'
_cell_length_a   11.33790000
_cell_length_b   7.16770000
_cell_length_c   6.60800000
_cell_angle_alpha   90.00000000
_cell_angle_beta   109.69000000
_cell_angle_gamma   90.00000000
_symmetry_Int_Tables_number   1
_chemical_formula_structural   TbH3(CO2)3
_chemical_formula_sum   'Tb2 H6 C6 O12'
_cell_volume   505.61080447
_cell_formula_units_Z   2
loop_
 _symmetry_equiv_pos_site_id
 _symmetry_equiv_pos_as_xyz
  1  'x, y, z'
loop_
 _atom_site_type_symbol
 _atom_site_label
 _atom_site_symmetry_multiplicity
 _atom_site_fract_x
 _atom_site_fract_y
 _atom_site_fract_z
 _atom_site_occupancy
 _atom_site_charge
  Tb  Tb1  1  0.000000  0.487400  0.000000  1.0  2.1573
  Tb  Tb2  1  0.500000  0.987400  0.000000  1.0  2.1573
  H  H3  1  0.194900  0.834900  0.898800  1.0  -0.0352
  H  H4  1  0.694900  0.334900  0.898800  1.0  -0.0352
  H  H5  1  0.805100  0.834900  0.101200  1.0  -0.0358
  H  H6  1  0.305100  0.334900  0.101200  1.0  -0.0358
  H  H7  1  0.000000  0.423700  0.500000  1.0  -0.0238
  H  H8  1  0.500000  0.923700  0.500000  1.0  -0.0238
  C  C9  1  0.236100  0.786400  0.034900  1.0  0.6561
  C  C10  1  0.736100  0.286400  0.034900  1.0  0.6561
  C  C11  1  0.763900  0.786400  0.965100  1.0  0.6551
  C  C12  1  0.263900  0.286400  0.965100  1.0  0.6551
  C  C13  1  0.000000  0.553000  0.500000  1.0  0.6072
  C  C14  1  0.500000  0.053000  0.500000  1.0  0.6072
  O  O15  1  0.172100  0.683700  0.116200  1.0  -0.6875
  O  O16  1  0.007600  0.633100  0.337500  1.0  -0.6406
  O  O17  1  0.346500  0.827500  0.118800  1.0  -0.6628
  O  O18  1  0.672100  0.183700  0.116200  1.0  -0.6875
  O  O19  1  0.507600  0.133100  0.337500  1.0  -0.6406
  O  O20  1  0.846500  0.327500  0.118800  1.0  -0.6629
  O  O21  1  0.827900  0.683700  0.883800  1.0  -0.6868
  O  O22  1  0.992400  0.633100  0.662500  1.0  -0.6393
  O  O23  1  0.653500  0.827500  0.881200  1.0  -0.6638
  O  O24  1  0.327900  0.183700  0.883800  1.0  -0.6868
  O  O25  1  0.492400  0.133100  0.662500  1.0  -0.6393
  O  O26  1  0.153500  0.327500  0.881200  1.0  -0.6639
