# generated using pymatgen
data_HoH3(CO2)3
_symmetry_space_group_name_H-M   'P 1'
_cell_length_a   11.24870000
_cell_length_b   7.12960000
_cell_length_c   6.57310000
_cell_angle_alpha   90.00000000
_cell_angle_beta   109.51000000
_cell_angle_gamma   90.00000000
_symmetry_Int_Tables_number   1
_chemical_formula_structural   HoH3(CO2)3
_chemical_formula_sum   'Ho2 H6 C6 O12'
_cell_volume   496.88677884
_cell_formula_units_Z   2
loop_
 _symmetry_equiv_pos_site_id
 _symmetry_equiv_pos_as_xyz
  1  'x, y, z'
loop_
 _atom_site_type_symbol
 _atom_site_label
 _atom_site_symmetry_multiplicity
 _atom_site_fract_x
 _atom_site_fract_y
 _atom_site_fract_z
 _atom_site_occupancy
 _atom_site_charge
  Ho  Ho1  1  0.000000  0.904700  0.000000  1.0  2.1226
  Ho  Ho2  1  0.500000  0.404700  0.000000  1.0  2.1226
  H  H3  1  0.195500  0.565200  0.895800  1.0  -0.0416
  H  H4  1  0.695500  0.065200  0.895800  1.0  -0.0416
  H  H5  1  0.804500  0.565200  0.104200  1.0  -0.0431
  H  H6  1  0.304500  0.065200  0.104200  1.0  -0.0431
  H  H7  1  0.000000  0.968400  0.500000  1.0  -0.0278
  H  H8  1  0.500000  0.468400  0.500000  1.0  -0.0278
  C  C9  1  0.235800  0.609300  0.035100  1.0  0.6697
  C  C10  1  0.735800  0.109300  0.035100  1.0  0.6697
  C  C11  1  0.764200  0.609300  0.964900  1.0  0.6663
  C  C12  1  0.264200  0.109300  0.964900  1.0  0.6663
  C  C13  1  0.000000  0.837900  0.500000  1.0  0.6375
  C  C14  1  0.500000  0.337900  0.500000  1.0  0.6375
  O  O15  1  0.992500  0.759300  0.664700  1.0  -0.6463
  O  O16  1  0.170600  0.707000  0.114500  1.0  -0.6603
  O  O17  1  0.346300  0.564200  0.117800  1.0  -0.6845
  O  O18  1  0.492500  0.259300  0.664700  1.0  -0.6463
  O  O19  1  0.670600  0.207000  0.114500  1.0  -0.6603
  O  O20  1  0.846300  0.064200  0.117800  1.0  -0.6845
  O  O21  1  0.007500  0.759300  0.335300  1.0  -0.6472
  O  O22  1  0.829400  0.707000  0.885500  1.0  -0.6598
  O  O23  1  0.653700  0.564200  0.882200  1.0  -0.6854
  O  O24  1  0.507500  0.259300  0.335300  1.0  -0.6472
  O  O25  1  0.329400  0.207000  0.885500  1.0  -0.6598
  O  O26  1  0.153700  0.064200  0.882200  1.0  -0.6855
