# generated using pymatgen
data_TmH3(CO2)3
_symmetry_space_group_name_H-M   'P 1'
_cell_length_a   11.17200000
_cell_length_b   7.10200000
_cell_length_c   6.53900000
_cell_angle_alpha   90.00000000
_cell_angle_beta   109.47200000
_cell_angle_gamma   90.00000000
_symmetry_Int_Tables_number   1
_chemical_formula_structural   TmH3(CO2)3
_chemical_formula_sum   'Tm2 H6 C6 O12'
_cell_volume   489.15284351
_cell_formula_units_Z   2
loop_
 _symmetry_equiv_pos_site_id
 _symmetry_equiv_pos_as_xyz
  1  'x, y, z'
loop_
 _atom_site_type_symbol
 _atom_site_label
 _atom_site_symmetry_multiplicity
 _atom_site_fract_x
 _atom_site_fract_y
 _atom_site_fract_z
 _atom_site_occupancy
 _atom_site_charge
  Tm  Tm1  1  0.500000  0.952520  0.000000  1.0  2.0686
  Tm  Tm2  1  0.000000  0.452520  0.000000  1.0  2.0686
  H  H3  1  0.695300  0.289800  0.892900  1.0  -0.0327
  H  H4  1  0.195300  0.789800  0.892900  1.0  -0.0327
  H  H5  1  0.304700  0.289800  0.107100  1.0  -0.035
  H  H6  1  0.804700  0.789800  0.107100  1.0  -0.035
  H  H7  1  0.500000  0.885200  0.500000  1.0  -0.0049
  H  H8  1  0.000000  0.385200  0.500000  1.0  -0.0049
  C  C9  1  0.735600  0.247200  0.033600  1.0  0.671
  C  C10  1  0.235600  0.747200  0.033600  1.0  0.6712
  C  C11  1  0.264400  0.247200  0.966400  1.0  0.6694
  C  C12  1  0.764400  0.747200  0.966400  1.0  0.6694
  C  C13  1  0.500000  0.016200  0.500000  1.0  0.6202
  C  C14  1  0.000000  0.516200  0.500000  1.0  0.6202
  O  O15  1  0.507100  0.098300  0.334600  1.0  -0.6328
  O  O16  1  0.670400  0.148700  0.114700  1.0  -0.6625
  O  O17  1  0.846100  0.293600  0.118200  1.0  -0.6837
  O  O18  1  0.007100  0.598300  0.334600  1.0  -0.6328
  O  O19  1  0.170400  0.648700  0.114700  1.0  -0.6625
  O  O20  1  0.346100  0.793600  0.118200  1.0  -0.6838
  O  O21  1  0.492900  0.098300  0.665400  1.0  -0.6326
  O  O22  1  0.329600  0.148700  0.885300  1.0  -0.6606
  O  O23  1  0.153900  0.293600  0.881800  1.0  -0.6848
  O  O24  1  0.992900  0.598300  0.665400  1.0  -0.6326
  O  O25  1  0.829600  0.648700  0.885300  1.0  -0.6606
  O  O26  1  0.653900  0.793600  0.881800  1.0  -0.6843
