# generated using pymatgen
data_TmH4(CO2)4
_symmetry_space_group_name_H-M   'P 1'
_cell_length_a   6.63750000
_cell_length_b   18.29530000
_cell_length_c   8.40580000
_cell_angle_alpha   90.00000000
_cell_angle_beta   90.00000000
_cell_angle_gamma   90.00000000
_symmetry_Int_Tables_number   1
_chemical_formula_structural   TmH4(CO2)4
_chemical_formula_sum   'Tm4 H16 C16 O32'
_cell_volume   1020.75877481
_cell_formula_units_Z   4
loop_
 _symmetry_equiv_pos_site_id
 _symmetry_equiv_pos_as_xyz
  1  'x, y, z'
loop_
 _atom_site_type_symbol
 _atom_site_label
 _atom_site_symmetry_multiplicity
 _atom_site_fract_x
 _atom_site_fract_y
 _atom_site_fract_z
 _atom_site_occupancy
 _atom_site_charge
  Tm  Tm1  1  0.000000  0.142810  0.250000  1.0  2.1201
  Tm  Tm2  1  0.500000  0.642810  0.250000  1.0  2.1201
  Tm  Tm3  1  0.000000  0.857190  0.750000  1.0  2.118
  Tm  Tm4  1  0.500000  0.357190  0.750000  1.0  2.118
  H  H5  1  0.282900  0.217700  0.953500  1.0  0.0334
  H  H6  1  0.782900  0.717700  0.953500  1.0  0.0334
  H  H7  1  0.717100  0.782300  0.453500  1.0  0.0335
  H  H8  1  0.217100  0.282300  0.453500  1.0  0.0335
  H  H9  1  0.717100  0.217700  0.546500  1.0  0.0326
  H  H10  1  0.217100  0.717700  0.546500  1.0  0.0326
  H  H11  1  0.282900  0.782300  0.046500  1.0  0.0326
  H  H12  1  0.782900  0.282300  0.046500  1.0  0.0326
  H  H13  1  0.500000  0.176900  0.250000  1.0  0.059
  H  H14  1  0.000000  0.676900  0.250000  1.0  0.059
  H  H15  1  0.500000  0.823100  0.750000  1.0  0.0592
  H  H16  1  0.000000  0.323100  0.750000  1.0  0.0592
  H  H17  1  0.784200  0.000000  0.500000  1.0  0.0725
  H  H18  1  0.284200  0.500000  0.500000  1.0  0.0725
  H  H19  1  0.215800  0.000000  0.000000  1.0  0.073
  H  H20  1  0.715800  0.500000  0.000000  1.0  0.073
  C  C21  1  0.264500  0.256300  0.023800  1.0  0.6436
  C  C22  1  0.764500  0.756300  0.023800  1.0  0.6436
  C  C23  1  0.735500  0.743700  0.523800  1.0  0.6432
  C  C24  1  0.235500  0.243700  0.523800  1.0  0.6432
  C  C25  1  0.735500  0.256300  0.476200  1.0  0.6438
  C  C26  1  0.235500  0.756300  0.476200  1.0  0.6438
  C  C27  1  0.264500  0.743700  0.976200  1.0  0.6435
  C  C28  1  0.764500  0.243700  0.976200  1.0  0.6435
  C  C29  1  0.500000  0.126000  0.250000  1.0  0.6321
  C  C30  1  0.000000  0.626000  0.250000  1.0  0.6321
  C  C31  1  0.500000  0.874000  0.750000  1.0  0.6326
  C  C32  1  0.000000  0.374000  0.750000  1.0  0.6326
  C  C33  1  0.924300  0.000000  0.500000  1.0  0.7108
  C  C34  1  0.424300  0.500000  0.500000  1.0  0.7108
  C  C35  1  0.075700  0.000000  0.000000  1.0  0.7092
  C  C36  1  0.575700  0.500000  0.000000  1.0  0.7092
  O  O37  1  0.014700  0.050000  0.429200  1.0  -0.6295
  O  O38  1  0.335200  0.094850  0.227500  1.0  -0.6083
  O  O39  1  0.179500  0.242070  0.153100  1.0  -0.6356
  O  O40  1  0.326100  0.316530  0.980900  1.0  -0.6002
  O  O41  1  0.514700  0.550000  0.429200  1.0  -0.6295
  O  O42  1  0.835200  0.594850  0.227500  1.0  -0.6083
  O  O43  1  0.679500  0.742070  0.153100  1.0  -0.6356
  O  O44  1  0.826100  0.816530  0.980900  1.0  -0.6002
  O  O45  1  0.985300  0.950000  0.929200  1.0  -0.631
  O  O46  1  0.664800  0.905150  0.727500  1.0  -0.6085
  O  O47  1  0.820500  0.757930  0.653100  1.0  -0.6358
  O  O48  1  0.673900  0.683470  0.480900  1.0  -0.5986
  O  O49  1  0.485300  0.450000  0.929200  1.0  -0.631
  O  O50  1  0.164800  0.405150  0.727500  1.0  -0.6085
  O  O51  1  0.320500  0.257930  0.653100  1.0  -0.6358
  O  O52  1  0.173900  0.183470  0.480900  1.0  -0.5986
  O  O53  1  0.985300  0.050000  0.070800  1.0  -0.6311
  O  O54  1  0.664800  0.094850  0.272500  1.0  -0.6079
  O  O55  1  0.820500  0.242070  0.346900  1.0  -0.6348
  O  O56  1  0.673900  0.316530  0.519100  1.0  -0.5995
  O  O57  1  0.485300  0.550000  0.070800  1.0  -0.6311
  O  O58  1  0.164800  0.594850  0.272500  1.0  -0.6079
  O  O59  1  0.320500  0.742070  0.346900  1.0  -0.6348
  O  O60  1  0.173900  0.816530  0.519100  1.0  -0.5995
  O  O61  1  0.014700  0.950000  0.570800  1.0  -0.629
  O  O62  1  0.335200  0.905150  0.772500  1.0  -0.6074
  O  O63  1  0.179500  0.757930  0.846900  1.0  -0.6362
  O  O64  1  0.326100  0.683470  0.019100  1.0  -0.5993
  O  O65  1  0.514700  0.450000  0.570800  1.0  -0.629
  O  O66  1  0.835200  0.405150  0.772500  1.0  -0.6074
  O  O67  1  0.679500  0.257930  0.846900  1.0  -0.6362
  O  O68  1  0.826100  0.183470  0.019100  1.0  -0.5993
