# generated using pymatgen
data_SmH4(CO2)4
_symmetry_space_group_name_H-M   'P 1'
_cell_length_a   6.76680000
_cell_length_b   18.71890000
_cell_length_c   8.57170000
_cell_angle_alpha   90.00000000
_cell_angle_beta   90.00000000
_cell_angle_gamma   90.00000000
_symmetry_Int_Tables_number   1
_chemical_formula_structural   SmH4(CO2)4
_chemical_formula_sum   'Sm4 H16 C16 O32'
_cell_volume   1085.75197409
_cell_formula_units_Z   4
loop_
 _symmetry_equiv_pos_site_id
 _symmetry_equiv_pos_as_xyz
  1  'x, y, z'
loop_
 _atom_site_type_symbol
 _atom_site_label
 _atom_site_symmetry_multiplicity
 _atom_site_fract_x
 _atom_site_fract_y
 _atom_site_fract_z
 _atom_site_occupancy
 _atom_site_charge
  Sm  Sm1  1  0.000000  0.642500  0.750000  1.0  2.283
  Sm  Sm2  1  0.500000  0.142500  0.750000  1.0  2.283
  Sm  Sm3  1  0.000000  0.357500  0.250000  1.0  2.2796
  Sm  Sm4  1  0.500000  0.857500  0.250000  1.0  2.2796
  H  H5  1  0.789400  0.780500  0.960200  1.0  0.0206
  H  H6  1  0.289400  0.280500  0.960200  1.0  0.0206
  H  H7  1  0.210600  0.219500  0.460200  1.0  0.0204
  H  H8  1  0.710600  0.719500  0.460200  1.0  0.0204
  H  H9  1  0.210600  0.780500  0.539800  1.0  0.0194
  H  H10  1  0.710600  0.280500  0.539800  1.0  0.0194
  H  H11  1  0.789400  0.219500  0.039800  1.0  0.0208
  H  H12  1  0.289400  0.719500  0.039800  1.0  0.0208
  H  H13  1  0.500000  0.673400  0.750000  1.0  0.0255
  H  H14  1  0.000000  0.173400  0.750000  1.0  0.0255
  H  H15  1  0.500000  0.326600  0.250000  1.0  0.0256
  H  H16  1  0.000000  0.826600  0.250000  1.0  0.0256
  H  H17  1  0.209800  0.500000  0.000000  1.0  0.0464
  H  H18  1  0.709800  0.000000  0.000000  1.0  0.0464
  H  H19  1  0.790200  0.500000  0.500000  1.0  0.0462
  H  H20  1  0.290200  0.000000  0.500000  1.0  0.0462
  C  C21  1  0.766600  0.742510  0.027700  1.0  0.693
  C  C22  1  0.266600  0.242510  0.027700  1.0  0.693
  C  C23  1  0.233400  0.257490  0.527700  1.0  0.693
  C  C24  1  0.733400  0.757490  0.527700  1.0  0.693
  C  C25  1  0.233400  0.742510  0.472300  1.0  0.6929
  C  C26  1  0.733400  0.242510  0.472300  1.0  0.6929
  C  C27  1  0.766600  0.257490  0.972300  1.0  0.6934
  C  C28  1  0.266600  0.757490  0.972300  1.0  0.6934
  C  C29  1  0.500000  0.623710  0.750000  1.0  0.5893
  C  C30  1  0.000000  0.123710  0.750000  1.0  0.5893
  C  C31  1  0.500000  0.376290  0.250000  1.0  0.5888
  C  C32  1  0.000000  0.876290  0.250000  1.0  0.5888
  C  C33  1  0.072300  0.500000  0.000000  1.0  0.7043
  C  C34  1  0.572300  0.000000  0.000000  1.0  0.7043
  C  C35  1  0.927700  0.500000  0.500000  1.0  0.7055
  C  C36  1  0.427700  0.000000  0.500000  1.0  0.7055
  O  O37  1  0.984300  0.549050  0.932700  1.0  -0.6273
  O  O38  1  0.337300  0.593410  0.770400  1.0  -0.6477
  O  O39  1  0.822900  0.682950  0.984400  1.0  -0.6285
  O  O40  1  0.682400  0.756520  0.152800  1.0  -0.634
  O  O41  1  0.484300  0.049050  0.932700  1.0  -0.6273
  O  O42  1  0.837300  0.093410  0.770400  1.0  -0.6477
  O  O43  1  0.322900  0.182950  0.984400  1.0  -0.6285
  O  O44  1  0.182400  0.256520  0.152800  1.0  -0.634
  O  O45  1  0.015700  0.450950  0.432700  1.0  -0.6295
  O  O46  1  0.662700  0.406590  0.270400  1.0  -0.6479
  O  O47  1  0.177100  0.317050  0.484400  1.0  -0.6281
  O  O48  1  0.317600  0.243480  0.652800  1.0  -0.6329
  O  O49  1  0.515700  0.950950  0.432700  1.0  -0.6295
  O  O50  1  0.162700  0.906590  0.270400  1.0  -0.6479
  O  O51  1  0.677100  0.817050  0.484400  1.0  -0.6281
  O  O52  1  0.817600  0.743480  0.652800  1.0  -0.6329
  O  O53  1  0.015700  0.549050  0.567300  1.0  -0.629
  O  O54  1  0.662700  0.593410  0.729600  1.0  -0.6471
  O  O55  1  0.177100  0.682950  0.515600  1.0  -0.6295
  O  O56  1  0.317600  0.756520  0.347200  1.0  -0.6313
  O  O57  1  0.515700  0.049050  0.567300  1.0  -0.629
  O  O58  1  0.162700  0.093410  0.729600  1.0  -0.6471
  O  O59  1  0.677100  0.182950  0.515600  1.0  -0.6295
  O  O60  1  0.817600  0.256520  0.347200  1.0  -0.6313
  O  O61  1  0.984300  0.450950  0.067300  1.0  -0.6274
  O  O62  1  0.337300  0.406590  0.229600  1.0  -0.6473
  O  O63  1  0.822900  0.317050  0.015600  1.0  -0.6282
  O  O64  1  0.682400  0.243480  0.847200  1.0  -0.632
  O  O65  1  0.484300  0.950950  0.067300  1.0  -0.6274
  O  O66  1  0.837300  0.906590  0.229600  1.0  -0.6473
  O  O67  1  0.322900  0.817050  0.015600  1.0  -0.6282
  O  O68  1  0.182400  0.743480  0.847200  1.0  -0.632
