# generated using pymatgen
data_LuH3(CO2)3
_symmetry_space_group_name_H-M   'P 1'
_cell_length_a   11.08100000
_cell_length_b   7.02260000
_cell_length_c   6.48500000
_cell_angle_alpha   90.00000000
_cell_angle_beta   109.12900000
_cell_angle_gamma   90.00000000
_symmetry_Int_Tables_number   1
_chemical_formula_structural   LuH3(CO2)3
_chemical_formula_sum   'Lu2 H6 C6 O12'
_cell_volume   476.78108362
_cell_formula_units_Z   2
loop_
 _symmetry_equiv_pos_site_id
 _symmetry_equiv_pos_as_xyz
  1  'x, y, z'
loop_
 _atom_site_type_symbol
 _atom_site_label
 _atom_site_symmetry_multiplicity
 _atom_site_fract_x
 _atom_site_fract_y
 _atom_site_fract_z
 _atom_site_occupancy
 _atom_site_charge
  Lu  Lu1  1  0.000000  0.181300  0.000000  1.0  1.8773
  Lu  Lu2  1  0.500000  0.681300  0.000000  1.0  1.8773
  H  H3  1  0.804600  0.522300  0.105800  1.0  -0.0113
  H  H4  1  0.304600  0.022300  0.105800  1.0  -0.0113
  H  H5  1  0.195400  0.522300  0.894200  1.0  -0.0097
  H  H6  1  0.695400  0.022300  0.894200  1.0  -0.0097
  H  H7  1  0.000000  0.113900  0.500000  1.0  0.0069
  H  H8  1  0.500000  0.613900  0.500000  1.0  0.0069
  C  C9  1  0.764300  0.475800  0.965700  1.0  0.6847
  C  C10  1  0.264300  0.975800  0.965700  1.0  0.6847
  C  C11  1  0.235700  0.475800  0.034300  1.0  0.6854
  C  C12  1  0.735700  0.975800  0.034300  1.0  0.6854
  C  C13  1  0.000000  0.246400  0.500000  1.0  0.624
  C  C14  1  0.500000  0.746400  0.500000  1.0  0.624
  O  O15  1  0.993800  0.329100  0.667100  1.0  -0.6282
  O  O16  1  0.829300  0.374500  0.884800  1.0  -0.6501
  O  O17  1  0.652200  0.520100  0.878000  1.0  -0.6491
  O  O18  1  0.493800  0.829100  0.667100  1.0  -0.6282
  O  O19  1  0.329300  0.874500  0.884800  1.0  -0.6501
  O  O20  1  0.152200  0.020100  0.878000  1.0  -0.649
  O  O21  1  0.006200  0.329100  0.332900  1.0  -0.6287
  O  O22  1  0.170700  0.374500  0.115200  1.0  -0.651
  O  O23  1  0.347800  0.520100  0.122000  1.0  -0.6501
  O  O24  1  0.506200  0.829100  0.332900  1.0  -0.6287
  O  O25  1  0.670700  0.874500  0.115200  1.0  -0.651
  O  O26  1  0.847800  0.020100  0.122000  1.0  -0.6502
