# generated using pymatgen
data_YbH3(CO2)3
_symmetry_space_group_name_H-M   'P 1'
_cell_length_a   11.12700000
_cell_length_b   7.08700000
_cell_length_c   6.51830000
_cell_angle_alpha   90.00000000
_cell_angle_beta   109.33400000
_cell_angle_gamma   90.00000000
_symmetry_Int_Tables_number   1
_chemical_formula_structural   YbH3(CO2)3
_chemical_formula_sum   'Yb2 H6 C6 O12'
_cell_volume   485.02591074
_cell_formula_units_Z   2
loop_
 _symmetry_equiv_pos_site_id
 _symmetry_equiv_pos_as_xyz
  1  'x, y, z'
loop_
 _atom_site_type_symbol
 _atom_site_label
 _atom_site_symmetry_multiplicity
 _atom_site_fract_x
 _atom_site_fract_y
 _atom_site_fract_z
 _atom_site_occupancy
 _atom_site_charge
  Yb  Yb1  1  0.000000  0.643000  0.000000  1.0  1.4956
  Yb  Yb2  1  0.500000  0.143000  0.000000  1.0  1.4956
  H  H3  1  0.801900  0.976000  0.108000  1.0  0.0043
  H  H4  1  0.301900  0.476000  0.108000  1.0  0.0043
  H  H5  1  0.198100  0.976000  0.892000  1.0  0.006
  H  H6  1  0.698100  0.476000  0.892000  1.0  0.006
  H  H7  1  0.000000  0.576600  0.500000  1.0  0.0273
  H  H8  1  0.500000  0.076600  0.500000  1.0  0.0273
  C  C9  1  0.763300  0.935000  0.966000  1.0  0.7398
  C  C10  1  0.263300  0.435000  0.966000  1.0  0.7398
  C  C11  1  0.236700  0.935000  0.034000  1.0  0.7395
  C  C12  1  0.736700  0.435000  0.034000  1.0  0.7395
  C  C13  1  0.000000  0.708000  0.500000  1.0  0.6826
  C  C14  1  0.500000  0.208000  0.500000  1.0  0.6826
  O  O15  1  0.007200  0.788500  0.334000  1.0  -0.597
  O  O16  1  0.830600  0.838000  0.886000  1.0  -0.6242
  O  O17  1  0.654800  0.983000  0.880000  1.0  -0.626
  O  O18  1  0.507200  0.288500  0.334000  1.0  -0.597
  O  O19  1  0.330600  0.338000  0.886000  1.0  -0.6242
  O  O20  1  0.154800  0.483000  0.880000  1.0  -0.626
  O  O21  1  0.992800  0.788500  0.666000  1.0  -0.5977
  O  O22  1  0.169400  0.838000  0.114000  1.0  -0.6257
  O  O23  1  0.345200  0.983000  0.120000  1.0  -0.6245
  O  O24  1  0.492800  0.288500  0.666000  1.0  -0.5977
  O  O25  1  0.669400  0.338000  0.114000  1.0  -0.6257
  O  O26  1  0.845200  0.483000  0.120000  1.0  -0.6245
