# generated using pymatgen
data_HoH4(CO2)4
_symmetry_space_group_name_H-M   'P 1'
_cell_length_a   6.66670000
_cell_length_b   18.40800000
_cell_length_c   8.44680000
_cell_angle_alpha   90.00000000
_cell_angle_beta   90.00000000
_cell_angle_gamma   90.00000000
_symmetry_Int_Tables_number   1
_chemical_formula_structural   HoH4(CO2)4
_chemical_formula_sum   'Ho4 H16 C16 O32'
_cell_volume   1036.59647896
_cell_formula_units_Z   4
loop_
 _symmetry_equiv_pos_site_id
 _symmetry_equiv_pos_as_xyz
  1  'x, y, z'
loop_
 _atom_site_type_symbol
 _atom_site_label
 _atom_site_symmetry_multiplicity
 _atom_site_fract_x
 _atom_site_fract_y
 _atom_site_fract_z
 _atom_site_occupancy
 _atom_site_charge
  Ho  Ho1  1  0.000000  0.642690  0.250000  1.0  2.1826
  Ho  Ho2  1  0.500000  0.142690  0.250000  1.0  2.1826
  Ho  Ho3  1  0.000000  0.357310  0.750000  1.0  2.1798
  Ho  Ho4  1  0.500000  0.857310  0.750000  1.0  2.1798
  H  H5  1  0.783000  0.781900  0.455300  1.0  0.0304
  H  H6  1  0.283000  0.281900  0.455300  1.0  0.0304
  H  H7  1  0.217000  0.218100  0.955300  1.0  0.0296
  H  H8  1  0.717000  0.718100  0.955300  1.0  0.0296
  H  H9  1  0.217000  0.781900  0.044700  1.0  0.0289
  H  H10  1  0.717000  0.281900  0.044700  1.0  0.0289
  H  H11  1  0.783000  0.218100  0.544700  1.0  0.0305
  H  H12  1  0.283000  0.718100  0.544700  1.0  0.0305
  H  H13  1  0.500000  0.676200  0.250000  1.0  0.0479
  H  H14  1  0.000000  0.176200  0.250000  1.0  0.0479
  H  H15  1  0.500000  0.323800  0.750000  1.0  0.048
  H  H16  1  0.000000  0.823800  0.750000  1.0  0.048
  H  H17  1  0.785800  0.500000  0.000000  1.0  0.051
  H  H18  1  0.285800  0.000000  0.000000  1.0  0.051
  H  H19  1  0.214200  0.500000  0.500000  1.0  0.0525
  H  H20  1  0.714200  0.000000  0.500000  1.0  0.0525
  C  C21  1  0.764100  0.743400  0.525200  1.0  0.6585
  C  C22  1  0.264100  0.243400  0.525200  1.0  0.6585
  C  C23  1  0.235900  0.256600  0.025200  1.0  0.6583
  C  C24  1  0.735900  0.756600  0.025200  1.0  0.6583
  C  C25  1  0.235900  0.743400  0.974800  1.0  0.6584
  C  C26  1  0.735900  0.243400  0.974800  1.0  0.6584
  C  C27  1  0.764100  0.256600  0.474800  1.0  0.6587
  C  C28  1  0.264100  0.756600  0.474800  1.0  0.6587
  C  C29  1  0.500000  0.625600  0.250000  1.0  0.6264
  C  C30  1  0.000000  0.125600  0.250000  1.0  0.6264
  C  C31  1  0.500000  0.374400  0.750000  1.0  0.6273
  C  C32  1  0.000000  0.874400  0.750000  1.0  0.6273
  C  C33  1  0.925300  0.500000  0.000000  1.0  0.7458
  C  C34  1  0.425300  0.000000  0.000000  1.0  0.7458
  C  C35  1  0.074700  0.500000  0.500000  1.0  0.7444
  C  C36  1  0.574700  0.000000  0.500000  1.0  0.7444
  O  O37  1  0.012700  0.549800  0.069600  1.0  -0.6438
  O  O38  1  0.664800  0.594600  0.228300  1.0  -0.6244
  O  O39  1  0.680400  0.757800  0.652200  1.0  -0.6381
  O  O40  1  0.824900  0.683400  0.481800  1.0  -0.6094
  O  O41  1  0.512700  0.049800  0.069600  1.0  -0.6438
  O  O42  1  0.164800  0.094600  0.228300  1.0  -0.6244
  O  O43  1  0.180400  0.257800  0.652200  1.0  -0.6381
  O  O44  1  0.324900  0.183400  0.481800  1.0  -0.6094
  O  O45  1  0.987300  0.450200  0.569600  1.0  -0.643
  O  O46  1  0.335200  0.405400  0.728300  1.0  -0.6238
  O  O47  1  0.319600  0.242200  0.152200  1.0  -0.6374
  O  O48  1  0.175100  0.316600  0.981800  1.0  -0.6093
  O  O49  1  0.487300  0.950200  0.569600  1.0  -0.643
  O  O50  1  0.835200  0.905400  0.728300  1.0  -0.6238
  O  O51  1  0.819600  0.742200  0.152200  1.0  -0.6374
  O  O52  1  0.675100  0.816600  0.981800  1.0  -0.6093
  O  O53  1  0.987300  0.549800  0.430400  1.0  -0.6425
  O  O54  1  0.335200  0.594600  0.271700  1.0  -0.6249
  O  O55  1  0.319600  0.757800  0.847800  1.0  -0.6353
  O  O56  1  0.175100  0.683400  0.018200  1.0  -0.6105
  O  O57  1  0.487300  0.049800  0.430400  1.0  -0.6425
  O  O58  1  0.835200  0.094600  0.271700  1.0  -0.6249
  O  O59  1  0.819600  0.257800  0.847800  1.0  -0.6353
  O  O60  1  0.675100  0.183400  0.018200  1.0  -0.6105
  O  O61  1  0.012700  0.450200  0.930400  1.0  -0.6444
  O  O62  1  0.664800  0.405400  0.771700  1.0  -0.6251
  O  O63  1  0.680400  0.242200  0.347800  1.0  -0.6371
  O  O64  1  0.824900  0.316600  0.518200  1.0  -0.6098
  O  O65  1  0.512700  0.950200  0.930400  1.0  -0.6444
  O  O66  1  0.164800  0.905400  0.771700  1.0  -0.6251
  O  O67  1  0.180400  0.742200  0.347800  1.0  -0.6371
  O  O68  1  0.324900  0.816600  0.518200  1.0  -0.6098
