# generated using pymatgen
data_Zn5H16C26(N9O4)2
_symmetry_space_group_name_H-M   'P 1'
_cell_length_a   20.10490000
_cell_length_b   12.75750000
_cell_length_c   14.42700000
_cell_angle_alpha   90.00000000
_cell_angle_beta   90.00000000
_cell_angle_gamma   90.00000000
_symmetry_Int_Tables_number   1
_chemical_formula_structural   Zn5H16C26(N9O4)2
_chemical_formula_sum   'Zn10 H32 C52 N36 O16'
_cell_volume   3700.35615227
_cell_formula_units_Z   2
loop_
 _symmetry_equiv_pos_site_id
 _symmetry_equiv_pos_as_xyz
  1  'x, y, z'
loop_
 _atom_site_type_symbol
 _atom_site_label
 _atom_site_symmetry_multiplicity
 _atom_site_fract_x
 _atom_site_fract_y
 _atom_site_fract_z
 _atom_site_occupancy
 _atom_site_charge
  Zn  Zn1  1  0.232620  0.706430  0.339370  1.0  0.8543
  Zn  Zn2  1  0.267970  0.532130  0.174370  1.0  0.5608
  Zn  Zn3  1  0.767380  0.293570  0.339370  1.0  0.8548
  Zn  Zn4  1  0.732030  0.467870  0.174370  1.0  0.5539
  Zn  Zn5  1  0.267380  0.206430  0.660630  1.0  0.8536
  Zn  Zn6  1  0.232030  0.032130  0.825630  1.0  0.5576
  Zn  Zn7  1  0.732620  0.793570  0.660630  1.0  0.8527
  Zn  Zn8  1  0.767970  0.967870  0.825630  1.0  0.5551
  Zn  Zn9  1  0.000000  0.500000  0.998060  1.0  0.865
  Zn  Zn10  1  0.500000  0.000000  0.001940  1.0  0.865
  H  H11  1  0.121300  0.182300  0.934800  1.0  0.0952
  H  H12  1  0.246100  0.538300  0.512800  1.0  0.0987
  H  H13  1  0.167400  0.383200  0.737400  1.0  0.0861
  H  H14  1  0.148200  0.471400  0.051900  1.0  0.0761
  H  H15  1  0.935000  0.774100  0.156100  1.0  0.3739
  H  H16  1  0.952200  0.686200  0.092500  1.0  0.3269
  H  H17  1  0.101500  0.804800  0.348100  1.0  0.0364
  H  H18  1  0.299700  0.338500  0.320900  1.0  0.0928
  H  H19  1  0.878700  0.817700  0.934800  1.0  0.0955
  H  H20  1  0.753900  0.461700  0.512800  1.0  0.0986
  H  H21  1  0.832600  0.616800  0.737400  1.0  0.0853
  H  H22  1  0.851800  0.528600  0.051900  1.0  0.0767
  H  H23  1  0.065000  0.225900  0.156100  1.0  0.3725
  H  H24  1  0.047800  0.313800  0.092500  1.0  0.3273
  H  H25  1  0.898500  0.195200  0.348100  1.0  0.0361
  H  H26  1  0.700300  0.661500  0.320900  1.0  0.0931
  H  H27  1  0.378700  0.682300  0.065200  1.0  0.0947
  H  H28  1  0.253900  0.038300  0.487200  1.0  0.099
  H  H29  1  0.332600  0.883200  0.262600  1.0  0.0863
  H  H30  1  0.351800  0.971400  0.948100  1.0  0.0769
  H  H31  1  0.565000  0.274100  0.843900  1.0  0.3723
  H  H32  1  0.547800  0.186200  0.907500  1.0  0.3282
  H  H33  1  0.398500  0.304800  0.651900  1.0  0.0359
  H  H34  1  0.200300  0.838500  0.679100  1.0  0.0943
  H  H35  1  0.621300  0.317700  0.065200  1.0  0.0949
  H  H36  1  0.746100  0.961700  0.487200  1.0  0.0994
  H  H37  1  0.667400  0.116800  0.262600  1.0  0.0868
  H  H38  1  0.648200  0.028600  0.948100  1.0  0.0763
  H  H39  1  0.435000  0.725900  0.843900  1.0  0.3719
  H  H40  1  0.452200  0.813800  0.907500  1.0  0.3276
  H  H41  1  0.601500  0.695200  0.651900  1.0  0.0358
  H  H42  1  0.799700  0.161500  0.679100  1.0  0.0934
  C  C43  1  0.070200  0.640400  0.154500  1.0  0.0545
  C  C44  1  0.139700  0.213700  0.882600  1.0  0.0052
  C  C45  1  0.257000  0.508600  0.455900  1.0  0.0055
  C  C46  1  0.277200  0.406900  0.443300  1.0  -0.0647
  C  C47  1  0.129800  0.639500  0.197900  1.0  0.4049
  C  C48  1  0.164900  0.323400  0.774100  1.0  0.0549
  C  C49  1  0.081200  0.396600  0.891700  1.0  0.659
  C  C50  1  0.132900  0.524800  0.090200  1.0  0.2382
  C  C51  1  0.125300  0.315100  0.851300  1.0  -0.1358
  C  C52  1  0.094400  0.763000  0.296200  1.0  0.3507
  C  C53  1  0.286600  0.399700  0.350800  1.0  0.0762
  C  C54  1  0.021000  0.712000  0.184700  1.0  0.4116
  C  C55  1  0.283600  0.325100  0.510700  1.0  0.6402
  C  C56  1  0.929800  0.359600  0.154500  1.0  0.0533
  C  C57  1  0.860300  0.786300  0.882600  1.0  0.0059
  C  C58  1  0.743000  0.491400  0.455900  1.0  0.0064
  C  C59  1  0.722800  0.593100  0.443300  1.0  -0.0637
  C  C60  1  0.870200  0.360500  0.197900  1.0  0.4011
  C  C61  1  0.835100  0.676600  0.774100  1.0  0.0551
  C  C62  1  0.918800  0.603400  0.891700  1.0  0.659
  C  C63  1  0.867100  0.475200  0.090200  1.0  0.2398
  C  C64  1  0.874700  0.684900  0.851300  1.0  -0.1344
  C  C65  1  0.905600  0.237000  0.296200  1.0  0.352
  C  C66  1  0.713400  0.600300  0.350800  1.0  0.076
  C  C67  1  0.979000  0.288000  0.184700  1.0  0.4104
  C  C68  1  0.716400  0.674900  0.510700  1.0  0.6412
  C  C69  1  0.429800  0.140400  0.845500  1.0  0.053
  C  C70  1  0.360300  0.713700  0.117400  1.0  0.0062
  C  C71  1  0.243000  0.008600  0.544100  1.0  0.0068
  C  C72  1  0.222800  0.906900  0.556700  1.0  -0.0642
  C  C73  1  0.370200  0.139500  0.802100  1.0  0.4009
  C  C74  1  0.335100  0.823400  0.225900  1.0  0.0556
  C  C75  1  0.418800  0.896600  0.108300  1.0  0.6582
  C  C76  1  0.367100  0.024800  0.909800  1.0  0.2402
  C  C77  1  0.374700  0.815100  0.148700  1.0  -0.1345
  C  C78  1  0.405600  0.263000  0.703800  1.0  0.3514
  C  C79  1  0.213400  0.899700  0.649200  1.0  0.0764
  C  C80  1  0.479000  0.212000  0.815300  1.0  0.4111
  C  C81  1  0.216400  0.825100  0.489300  1.0  0.641
  C  C82  1  0.570200  0.859600  0.845500  1.0  0.054
  C  C83  1  0.639700  0.286300  0.117400  1.0  0.0074
  C  C84  1  0.757000  0.991400  0.544100  1.0  0.0073
  C  C85  1  0.777200  0.093100  0.556700  1.0  -0.0639
  C  C86  1  0.629800  0.860500  0.802100  1.0  0.4042
  C  C87  1  0.664900  0.176600  0.225900  1.0  0.0559
  C  C88  1  0.581200  0.103400  0.108300  1.0  0.6592
  C  C89  1  0.632900  0.975200  0.909800  1.0  0.239
  C  C90  1  0.625300  0.184900  0.148700  1.0  -0.1364
  C  C91  1  0.594400  0.737000  0.703800  1.0  0.3492
  C  C92  1  0.786600  0.100300  0.649200  1.0  0.0762
  C  C93  1  0.521000  0.788000  0.815300  1.0  0.4115
  C  C94  1  0.783600  0.174900  0.489300  1.0  0.6415
  N  N95  1  0.171000  0.568600  0.156900  1.0  -0.4177
  N  N96  1  0.275100  0.488600  0.307500  1.0  -0.2438
  N  N97  1  0.183700  0.169000  0.826200  1.0  -0.2114
  N  N98  1  0.069900  0.565500  0.083400  1.0  -0.4613
  N  N99  1  0.255400  0.559400  0.373900  1.0  -0.2446
  N  N100  1  0.198900  0.237700  0.757900  1.0  -0.2708
  N  N101  1  0.144300  0.700700  0.272300  1.0  -0.2649
  N  N102  1  0.962100  0.725800  0.138800  1.0  -0.7011
  N  N103  1  0.035000  0.773300  0.255000  1.0  -0.4785
  N  N104  1  0.829000  0.431400  0.156900  1.0  -0.4184
  N  N105  1  0.724900  0.511400  0.307500  1.0  -0.2441
  N  N106  1  0.816300  0.831000  0.826200  1.0  -0.2121
  N  N107  1  0.930100  0.434500  0.083400  1.0  -0.4608
  N  N108  1  0.744600  0.440600  0.373900  1.0  -0.2447
  N  N109  1  0.801100  0.762300  0.757900  1.0  -0.2701
  N  N110  1  0.855700  0.299300  0.272300  1.0  -0.2632
  N  N111  1  0.037900  0.274200  0.138800  1.0  -0.6992
  N  N112  1  0.965000  0.226700  0.255000  1.0  -0.4821
  N  N113  1  0.329000  0.068600  0.843100  1.0  -0.4188
  N  N114  1  0.224900  0.988600  0.692500  1.0  -0.2449
  N  N115  1  0.316300  0.669000  0.173800  1.0  -0.2149
  N  N116  1  0.430100  0.065500  0.916600  1.0  -0.4615
  N  N117  1  0.244600  0.059400  0.626100  1.0  -0.2459
  N  N118  1  0.301100  0.737700  0.242100  1.0  -0.2685
  N  N119  1  0.355700  0.200700  0.727700  1.0  -0.2634
  N  N120  1  0.537900  0.225800  0.861200  1.0  -0.7004
  N  N121  1  0.465000  0.273300  0.745000  1.0  -0.4842
  N  N122  1  0.671000  0.931400  0.843100  1.0  -0.4178
  N  N123  1  0.775100  0.011400  0.692500  1.0  -0.2442
  N  N124  1  0.683700  0.331000  0.173800  1.0  -0.2134
  N  N125  1  0.569900  0.934500  0.916600  1.0  -0.462
  N  N126  1  0.755400  0.940600  0.626100  1.0  -0.2442
  N  N127  1  0.698900  0.262300  0.242100  1.0  -0.2692
  N  N128  1  0.644300  0.799300  0.727700  1.0  -0.2649
  N  N129  1  0.462100  0.774200  0.861200  1.0  -0.699
  N  N130  1  0.535000  0.726700  0.745000  1.0  -0.478
  O  O131  1  0.047400  0.369200  0.961900  1.0  -0.6316
  O  O132  1  0.266000  0.345500  0.593200  1.0  -0.5989
  O  O133  1  0.305000  0.233500  0.492900  1.0  -0.6461
  O  O134  1  0.079600  0.481600  0.862600  1.0  -0.5585
  O  O135  1  0.952600  0.630800  0.961900  1.0  -0.6322
  O  O136  1  0.734000  0.654500  0.593200  1.0  -0.5983
  O  O137  1  0.695000  0.766500  0.492900  1.0  -0.6451
  O  O138  1  0.920400  0.518400  0.862600  1.0  -0.5609
  O  O139  1  0.452600  0.869200  0.038100  1.0  -0.6319
  O  O140  1  0.234000  0.845500  0.406800  1.0  -0.5985
  O  O141  1  0.195000  0.733500  0.507100  1.0  -0.647
  O  O142  1  0.420400  0.981600  0.137400  1.0  -0.5593
  O  O143  1  0.547400  0.130800  0.038100  1.0  -0.6321
  O  O144  1  0.766000  0.154500  0.406800  1.0  -0.5972
  O  O145  1  0.805000  0.266500  0.507100  1.0  -0.6453
  O  O146  1  0.579600  0.018400  0.137400  1.0  -0.5607
