# generated using pymatgen
data_LuH4(CO2)4
_symmetry_space_group_name_H-M   'P 1'
_cell_length_a   6.61740000
_cell_length_b   18.20000000
_cell_length_c   8.37770000
_cell_angle_alpha   90.00000000
_cell_angle_beta   90.00000000
_cell_angle_gamma   90.00000000
_symmetry_Int_Tables_number   1
_chemical_formula_structural   LuH4(CO2)4
_chemical_formula_sum   'Lu4 H16 C16 O32'
_cell_volume   1008.98237404
_cell_formula_units_Z   4
loop_
 _symmetry_equiv_pos_site_id
 _symmetry_equiv_pos_as_xyz
  1  'x, y, z'
loop_
 _atom_site_type_symbol
 _atom_site_label
 _atom_site_symmetry_multiplicity
 _atom_site_fract_x
 _atom_site_fract_y
 _atom_site_fract_z
 _atom_site_occupancy
 _atom_site_charge
  Lu  Lu1  1  0.000000  0.142780  0.250000  1.0  1.8277
  Lu  Lu2  1  0.500000  0.642780  0.250000  1.0  1.8277
  Lu  Lu3  1  0.000000  0.857220  0.750000  1.0  1.8233
  Lu  Lu4  1  0.500000  0.357220  0.750000  1.0  1.8233
  H  H5  1  0.219500  0.282700  0.048600  1.0  0.053
  H  H6  1  0.719500  0.782700  0.048600  1.0  0.053
  H  H7  1  0.780500  0.717300  0.548600  1.0  0.0534
  H  H8  1  0.280500  0.217300  0.548600  1.0  0.0534
  H  H9  1  0.780500  0.282700  0.451400  1.0  0.0529
  H  H10  1  0.280500  0.782700  0.451400  1.0  0.0529
  H  H11  1  0.219500  0.717300  0.951400  1.0  0.0529
  H  H12  1  0.719500  0.217300  0.951400  1.0  0.0529
  H  H13  1  0.500000  0.177100  0.250000  1.0  0.0784
  H  H14  1  0.000000  0.677100  0.250000  1.0  0.0784
  H  H15  1  0.500000  0.822900  0.750000  1.0  0.0782
  H  H16  1  0.000000  0.322900  0.750000  1.0  0.0782
  H  H17  1  0.217000  0.000000  0.500000  1.0  0.0985
  H  H18  1  0.717000  0.500000  0.500000  1.0  0.0985
  H  H19  1  0.783000  0.000000  0.000000  1.0  0.0977
  H  H20  1  0.283000  0.500000  0.000000  1.0  0.0977
  C  C21  1  0.236100  0.244000  0.977300  1.0  0.6606
  C  C22  1  0.736100  0.744000  0.977300  1.0  0.6606
  C  C23  1  0.763900  0.756000  0.477300  1.0  0.6616
  C  C24  1  0.263900  0.256000  0.477300  1.0  0.6616
  C  C25  1  0.763900  0.244000  0.522700  1.0  0.6609
  C  C26  1  0.263900  0.744000  0.522700  1.0  0.6609
  C  C27  1  0.236100  0.756000  0.022700  1.0  0.6611
  C  C28  1  0.736100  0.256000  0.022700  1.0  0.6611
  C  C29  1  0.500000  0.126000  0.250000  1.0  0.6397
  C  C30  1  0.000000  0.626000  0.250000  1.0  0.6397
  C  C31  1  0.500000  0.874000  0.750000  1.0  0.6398
  C  C32  1  0.000000  0.374000  0.750000  1.0  0.6398
  C  C33  1  0.076500  0.000000  0.500000  1.0  0.7072
  C  C34  1  0.576500  0.500000  0.500000  1.0  0.7072
  C  C35  1  0.923500  0.000000  0.000000  1.0  0.7088
  C  C36  1  0.423500  0.500000  0.000000  1.0  0.7088
  O  O37  1  0.333700  0.095500  0.270300  1.0  -0.5845
  O  O38  1  0.984600  0.050600  0.428600  1.0  -0.6079
  O  O39  1  0.173700  0.184100  0.020300  1.0  -0.5757
  O  O40  1  0.320300  0.258900  0.847000  1.0  -0.6199
  O  O41  1  0.833700  0.595500  0.270300  1.0  -0.5845
  O  O42  1  0.484600  0.550600  0.428600  1.0  -0.6079
  O  O43  1  0.673700  0.684100  0.020300  1.0  -0.5757
  O  O44  1  0.820300  0.758900  0.847000  1.0  -0.6199
  O  O45  1  0.666300  0.904500  0.770300  1.0  -0.5844
  O  O46  1  0.015400  0.949400  0.928600  1.0  -0.6096
  O  O47  1  0.826300  0.815900  0.520300  1.0  -0.5762
  O  O48  1  0.679700  0.741100  0.347000  1.0  -0.6213
  O  O49  1  0.166300  0.404500  0.770300  1.0  -0.5844
  O  O50  1  0.515400  0.449400  0.928600  1.0  -0.6096
  O  O51  1  0.326300  0.315900  0.520300  1.0  -0.5762
  O  O52  1  0.179700  0.241100  0.347000  1.0  -0.6213
  O  O53  1  0.666300  0.095500  0.229700  1.0  -0.5841
  O  O54  1  0.015400  0.050600  0.071400  1.0  -0.6087
  O  O55  1  0.826300  0.184100  0.479700  1.0  -0.575
  O  O56  1  0.679700  0.258900  0.653000  1.0  -0.6207
  O  O57  1  0.166300  0.595500  0.229700  1.0  -0.5841
  O  O58  1  0.515400  0.550600  0.071400  1.0  -0.6087
  O  O59  1  0.326300  0.684100  0.479700  1.0  -0.575
  O  O60  1  0.179700  0.758900  0.653000  1.0  -0.6207
  O  O61  1  0.333700  0.904500  0.729700  1.0  -0.5829
  O  O62  1  0.984600  0.949400  0.571400  1.0  -0.6084
  O  O63  1  0.173700  0.815900  0.979700  1.0  -0.5765
  O  O64  1  0.320300  0.741100  0.153000  1.0  -0.62
  O  O65  1  0.833700  0.404500  0.729700  1.0  -0.5829
  O  O66  1  0.484600  0.449400  0.571400  1.0  -0.6084
  O  O67  1  0.673700  0.315900  0.979700  1.0  -0.5765
  O  O68  1  0.820300  0.241100  0.153000  1.0  -0.62
