# generated using pymatgen
data_YH3(CO2)3
_symmetry_space_group_name_H-M   'P 1'
_cell_length_a   11.26210000
_cell_length_b   7.13740000
_cell_length_c   6.58670000
_cell_angle_alpha   90.00000000
_cell_angle_beta   109.52300000
_cell_angle_gamma   90.00000000
_symmetry_Int_Tables_number   1
_chemical_formula_structural   YH3(CO2)3
_chemical_formula_sum   'Y2 H6 C6 O12'
_cell_volume   499.01324786
_cell_formula_units_Z   2
loop_
 _symmetry_equiv_pos_site_id
 _symmetry_equiv_pos_as_xyz
  1  'x, y, z'
loop_
 _atom_site_type_symbol
 _atom_site_label
 _atom_site_symmetry_multiplicity
 _atom_site_fract_x
 _atom_site_fract_y
 _atom_site_fract_z
 _atom_site_occupancy
 _atom_site_charge
  Y  Y1  1  0.000000  0.948100  0.000000  1.0  2.01
  Y  Y2  1  0.500000  0.448100  0.000000  1.0  2.01
  H  H3  1  0.195100  0.609600  0.894200  1.0  -0.0317
  H  H4  1  0.695100  0.109600  0.894200  1.0  -0.0317
  H  H5  1  0.804900  0.609600  0.105800  1.0  -0.0317
  H  H6  1  0.304900  0.109600  0.105800  1.0  -0.0317
  H  H7  1  0.000000  0.013400  0.500000  1.0  -0.0085
  H  H8  1  0.500000  0.513400  0.500000  1.0  -0.0085
  C  C9  1  0.235000  0.653000  0.033600  1.0  0.6675
  C  C10  1  0.735000  0.153000  0.033600  1.0  0.6675
  C  C11  1  0.765000  0.653000  0.966400  1.0  0.6671
  C  C12  1  0.265000  0.153000  0.966400  1.0  0.6671
  C  C13  1  0.000000  0.883100  0.500000  1.0  0.6466
  C  C14  1  0.500000  0.383100  0.500000  1.0  0.6466
  O  O15  1  0.992100  0.802600  0.664300  1.0  -0.6317
  O  O16  1  0.169900  0.749900  0.114300  1.0  -0.6515
  O  O17  1  0.346100  0.608500  0.118000  1.0  -0.6759
  O  O18  1  0.492100  0.302600  0.664300  1.0  -0.6317
  O  O19  1  0.669900  0.249900  0.114300  1.0  -0.6515
  O  O20  1  0.846100  0.108500  0.118000  1.0  -0.6759
  O  O21  1  0.007900  0.802600  0.335700  1.0  -0.6323
  O  O22  1  0.830100  0.749900  0.885700  1.0  -0.6515
  O  O23  1  0.653900  0.608500  0.882000  1.0  -0.6765
  O  O24  1  0.507900  0.302600  0.335700  1.0  -0.6323
  O  O25  1  0.330100  0.249900  0.885700  1.0  -0.6515
  O  O26  1  0.153900  0.108500  0.882000  1.0  -0.6765
