# generated using pymatgen
data_ZnH3C8O5
_symmetry_space_group_name_H-M   'P 1'
_cell_length_a   14.32880000
_cell_length_b   13.26430000
_cell_length_c   14.35630000
_cell_angle_alpha   90.00000000
_cell_angle_beta   91.29600000
_cell_angle_gamma   90.00000000
_symmetry_Int_Tables_number   1
_chemical_formula_structural   ZnH3C8O5
_chemical_formula_sum   'Zn8 H24 C64 O40'
_cell_volume   2727.88194291
_cell_formula_units_Z   8
loop_
 _symmetry_equiv_pos_site_id
 _symmetry_equiv_pos_as_xyz
  1  'x, y, z'
loop_
 _atom_site_type_symbol
 _atom_site_label
 _atom_site_symmetry_multiplicity
 _atom_site_fract_x
 _atom_site_fract_y
 _atom_site_fract_z
 _atom_site_occupancy
 _atom_site_charge
  Zn  Zn1  1  0.335920  0.049600  0.166570  1.0  1.071
  Zn  Zn2  1  0.152030  0.017980  0.299430  1.0  1.1027
  Zn  Zn3  1  0.664080  0.549600  0.333430  1.0  1.0718
  Zn  Zn4  1  0.847970  0.517980  0.200570  1.0  1.1019
  Zn  Zn5  1  0.664080  0.950400  0.833430  1.0  1.0718
  Zn  Zn6  1  0.847970  0.982020  0.700570  1.0  1.1021
  Zn  Zn7  1  0.335920  0.450400  0.666570  1.0  1.071
  Zn  Zn8  1  0.152030  0.482020  0.799430  1.0  1.1031
  H  H9  1  0.488500  0.570300  0.439400  1.0  0.1158
  H  H10  1  0.245500  0.188900  0.046900  1.0  0.1323
  H  H11  1  0.089300  0.209500  0.278600  1.0  0.1273
  H  H12  1  0.067800  0.424100  0.076900  1.0  0.1312
  H  H13  1  0.478000  0.812900  0.267900  1.0  0.1349
  H  H14  1  0.263800  0.758100  0.439800  1.0  0.1377
  H  H15  1  0.511500  0.070300  0.060600  1.0  0.1157
  H  H16  1  0.754500  0.688900  0.453100  1.0  0.132
  H  H17  1  0.910700  0.709500  0.221400  1.0  0.1268
  H  H18  1  0.932200  0.924100  0.423100  1.0  0.1307
  H  H19  1  0.522000  0.312900  0.232100  1.0  0.1343
  H  H20  1  0.736200  0.258100  0.060200  1.0  0.1374
  H  H21  1  0.511500  0.429700  0.560600  1.0  0.1157
  H  H22  1  0.754500  0.811100  0.953100  1.0  0.1318
  H  H23  1  0.910700  0.790500  0.721400  1.0  0.1268
  H  H24  1  0.932200  0.575900  0.923100  1.0  0.1311
  H  H25  1  0.522000  0.187100  0.732100  1.0  0.1345
  H  H26  1  0.736200  0.241900  0.560200  1.0  0.1372
  H  H27  1  0.488500  0.929700  0.939400  1.0  0.1155
  H  H28  1  0.245500  0.311100  0.546900  1.0  0.132
  H  H29  1  0.089300  0.290500  0.778600  1.0  0.1275
  H  H30  1  0.067800  0.075900  0.576900  1.0  0.1313
  H  H31  1  0.478000  0.687100  0.767900  1.0  0.1348
  H  H32  1  0.263800  0.741900  0.939800  1.0  0.1377
  C  C33  1  0.315200  0.888200  0.307900  1.0  0.741
  C  C34  1  0.457900  0.629100  0.416200  1.0  -0.0886
  C  C35  1  0.172600  0.182500  0.166900  1.0  0.2527
  C  C36  1  0.199500  0.222400  0.082200  1.0  -0.0765
  C  C37  1  0.500400  0.686200  0.347400  1.0  0.2539
  C  C38  1  0.107600  0.235600  0.220100  1.0  -0.0535
  C  C39  1  0.363400  0.796000  0.346800  1.0  -0.1179
  C  C40  1  0.094900  0.363500  0.100300  1.0  0.0246
  C  C41  1  0.450800  0.771500  0.314000  1.0  -0.0693
  C  C42  1  0.323000  0.740100  0.416500  1.0  0.0329
  C  C43  1  0.159100  0.312100  0.048400  1.0  -0.1146
  C  C44  1  0.069400  0.326800  0.187500  1.0  -0.1393
  C  C45  1  0.184500  0.349400  0.952300  1.0  0.7169
  C  C46  1  0.997700  0.380100  0.243800  1.0  0.6661
  C  C47  1  0.330200  0.599600  0.530700  1.0  0.7549
  C  C48  1  0.371900  0.656100  0.451800  1.0  -0.1416
  C  C49  1  0.684800  0.388200  0.192100  1.0  0.7416
  C  C50  1  0.542100  0.129100  0.083800  1.0  -0.0901
  C  C51  1  0.827400  0.682500  0.333100  1.0  0.2521
  C  C52  1  0.800500  0.722400  0.417800  1.0  -0.0762
  C  C53  1  0.499600  0.186200  0.152600  1.0  0.2514
  C  C54  1  0.892400  0.735600  0.279900  1.0  -0.0512
  C  C55  1  0.636600  0.296000  0.153200  1.0  -0.1187
  C  C56  1  0.905100  0.863500  0.399700  1.0  0.0235
  C  C57  1  0.549200  0.271500  0.186000  1.0  -0.0717
  C  C58  1  0.677000  0.240100  0.083500  1.0  0.0328
  C  C59  1  0.840900  0.812100  0.451600  1.0  -0.1135
  C  C60  1  0.930600  0.826800  0.312500  1.0  -0.1385
  C  C61  1  0.815500  0.849400  0.547700  1.0  0.7173
  C  C62  1  0.002300  0.880100  0.256200  1.0  0.666
  C  C63  1  0.669800  0.099600  0.969300  1.0  0.7542
  C  C64  1  0.628100  0.156100  0.048200  1.0  -0.1416
  C  C65  1  0.684800  0.111800  0.692100  1.0  0.7416
  C  C66  1  0.542100  0.370900  0.583800  1.0  -0.0896
  C  C67  1  0.827400  0.817500  0.833100  1.0  0.2517
  C  C68  1  0.800500  0.777600  0.917800  1.0  -0.0763
  C  C69  1  0.499600  0.313800  0.652600  1.0  0.2515
  C  C70  1  0.892400  0.764400  0.779900  1.0  -0.0513
  C  C71  1  0.636600  0.204000  0.653200  1.0  -0.119
  C  C72  1  0.905100  0.636500  0.899700  1.0  0.0247
  C  C73  1  0.549200  0.228500  0.686000  1.0  -0.0711
  C  C74  1  0.677000  0.259900  0.583500  1.0  0.0332
  C  C75  1  0.840900  0.687900  0.951600  1.0  -0.1132
  C  C76  1  0.930600  0.673200  0.812500  1.0  -0.1395
  C  C77  1  0.815500  0.650600  0.047700  1.0  0.7175
  C  C78  1  0.002300  0.619900  0.756200  1.0  0.6655
  C  C79  1  0.669800  0.400400  0.469300  1.0  0.7548
  C  C80  1  0.628100  0.343900  0.548200  1.0  -0.1415
  C  C81  1  0.315200  0.611800  0.807900  1.0  0.7412
  C  C82  1  0.457900  0.870900  0.916200  1.0  -0.0885
  C  C83  1  0.172600  0.317500  0.666900  1.0  0.2527
  C  C84  1  0.199500  0.277600  0.582200  1.0  -0.0766
  C  C85  1  0.500400  0.813800  0.847400  1.0  0.2543
  C  C86  1  0.107600  0.264400  0.720100  1.0  -0.0535
  C  C87  1  0.363400  0.704000  0.846800  1.0  -0.1184
  C  C88  1  0.094900  0.136500  0.600300  1.0  0.0256
  C  C89  1  0.450800  0.728500  0.814000  1.0  -0.0693
  C  C90  1  0.323000  0.759900  0.916500  1.0  0.0332
  C  C91  1  0.159100  0.187900  0.548400  1.0  -0.1146
  C  C92  1  0.069400  0.173200  0.687500  1.0  -0.1398
  C  C93  1  0.184500  0.150600  0.452300  1.0  0.7171
  C  C94  1  0.997700  0.119900  0.743800  1.0  0.6663
  C  C95  1  0.330200  0.900400  0.030700  1.0  0.7553
  C  C96  1  0.371900  0.843900  0.951800  1.0  -0.1413
  O  O97  1  0.585300  0.665900  0.310900  1.0  -0.5384
  O  O98  1  0.230500  0.898800  0.323000  1.0  -0.5709
  O  O99  1  0.208900  0.094300  0.198800  1.0  -0.6336
  O  O100  1  0.366600  0.511900  0.548000  1.0  -0.5823
  O  O101  1  0.366100  0.950700  0.264600  1.0  -0.6131
  O  O102  1  0.132500  0.420200  0.920500  1.0  -0.5741
  O  O103  1  0.976000  0.470100  0.214800  1.0  -0.5979
  O  O104  1  0.964500  0.340500  0.312600  1.0  -0.4814
  O  O105  1  0.266400  0.636300  0.577800  1.0  -0.4796
  O  O106  1  0.251300  0.312000  0.912200  1.0  -0.5165
  O  O107  1  0.414700  0.165900  0.189100  1.0  -0.5407
  O  O108  1  0.769500  0.398800  0.177000  1.0  -0.572
  O  O109  1  0.791100  0.594300  0.301200  1.0  -0.6337
  O  O110  1  0.633400  0.011900  0.952000  1.0  -0.582
  O  O111  1  0.633900  0.450700  0.235400  1.0  -0.615
  O  O112  1  0.867500  0.920200  0.579500  1.0  -0.5739
  O  O113  1  0.024000  0.970100  0.285200  1.0  -0.5998
  O  O114  1  0.035500  0.840500  0.187400  1.0  -0.4817
  O  O115  1  0.733600  0.136300  0.922200  1.0  -0.4782
  O  O116  1  0.748700  0.812000  0.587800  1.0  -0.5182
  O  O117  1  0.414700  0.334100  0.689100  1.0  -0.5404
  O  O118  1  0.769500  0.101200  0.677000  1.0  -0.5717
  O  O119  1  0.791100  0.905700  0.801200  1.0  -0.6353
  O  O120  1  0.633400  0.488100  0.452000  1.0  -0.5817
  O  O121  1  0.633900  0.049300  0.735400  1.0  -0.615
  O  O122  1  0.867500  0.579800  0.079500  1.0  -0.5745
  O  O123  1  0.024000  0.529900  0.785200  1.0  -0.5995
  O  O124  1  0.035500  0.659500  0.687400  1.0  -0.4818
  O  O125  1  0.733600  0.363700  0.422200  1.0  -0.4788
  O  O126  1  0.748700  0.688000  0.087800  1.0  -0.5185
  O  O127  1  0.585300  0.834100  0.810900  1.0  -0.538
  O  O128  1  0.230500  0.601200  0.823000  1.0  -0.5707
  O  O129  1  0.208900  0.405700  0.698800  1.0  -0.6353
  O  O130  1  0.366600  0.988100  0.048000  1.0  -0.5821
  O  O131  1  0.366100  0.549300  0.764600  1.0  -0.6127
  O  O132  1  0.132500  0.079800  0.420500  1.0  -0.575
  O  O133  1  0.976000  0.029900  0.714800  1.0  -0.5981
  O  O134  1  0.964500  0.159500  0.812600  1.0  -0.4811
  O  O135  1  0.266400  0.863700  0.077800  1.0  -0.48
  O  O136  1  0.251300  0.188000  0.412200  1.0  -0.5162
