# generated using pymatgen
data_ZnH3C8O5
_symmetry_space_group_name_H-M   'P 1'
_cell_length_a   16.80800000
_cell_length_b   12.96400000
_cell_length_c   14.51300000
_cell_angle_alpha   90.00000000
_cell_angle_beta   108.46000000
_cell_angle_gamma   90.00000000
_symmetry_Int_Tables_number   1
_chemical_formula_structural   ZnH3C8O5
_chemical_formula_sum   'Zn8 H24 C64 O40'
_cell_volume   2999.64714508
_cell_formula_units_Z   8
loop_
 _symmetry_equiv_pos_site_id
 _symmetry_equiv_pos_as_xyz
  1  'x, y, z'
loop_
 _atom_site_type_symbol
 _atom_site_label
 _atom_site_symmetry_multiplicity
 _atom_site_fract_x
 _atom_site_fract_y
 _atom_site_fract_z
 _atom_site_occupancy
 _atom_site_charge
  Zn  Zn1  1  0.318020  0.487020  0.819440  1.0  1.0533
  Zn  Zn2  1  0.154640  0.446890  0.900550  1.0  1.0401
  Zn  Zn3  1  0.681980  0.987020  0.680560  1.0  1.0543
  Zn  Zn4  1  0.845360  0.946890  0.599450  1.0  1.0398
  Zn  Zn5  1  0.681980  0.512980  0.180560  1.0  1.0543
  Zn  Zn6  1  0.845360  0.553110  0.099450  1.0  1.0399
  Zn  Zn7  1  0.318020  0.012980  0.319440  1.0  1.0533
  Zn  Zn8  1  0.154640  0.053110  0.400550  1.0  1.0402
  H  H9  1  0.431600  0.439100  0.001100  1.0  0.1113
  H  H10  1  0.231200  0.273100  0.016700  1.0  0.1229
  H  H11  1  0.211400  0.738600  0.650700  1.0  0.1237
  H  H12  1  0.001300  0.667800  0.716700  1.0  0.1259
  H  H13  1  0.458600  0.236100  0.221300  1.0  0.121
  H  H14  1  0.008500  0.928400  0.564500  1.0  0.1105
  H  H15  1  0.568400  0.939100  0.498900  1.0  0.111
  H  H16  1  0.768800  0.773100  0.483300  1.0  0.1226
  H  H17  1  0.788600  0.238600  0.849300  1.0  0.1242
  H  H18  1  0.998700  0.167800  0.783300  1.0  0.1259
  H  H19  1  0.541400  0.736100  0.278700  1.0  0.1209
  H  H20  1  0.991500  0.428400  0.935500  1.0  0.1104
  H  H21  1  0.568400  0.560900  0.998900  1.0  0.112
  H  H22  1  0.768800  0.726900  0.983300  1.0  0.1228
  H  H23  1  0.788600  0.261400  0.349300  1.0  0.1241
  H  H24  1  0.998700  0.332200  0.283300  1.0  0.1258
  H  H25  1  0.541400  0.763900  0.778700  1.0  0.1208
  H  H26  1  0.991500  0.071600  0.435500  1.0  0.1113
  H  H27  1  0.431600  0.060900  0.501100  1.0  0.1124
  H  H28  1  0.231200  0.226900  0.516700  1.0  0.1232
  H  H29  1  0.211400  0.761400  0.150700  1.0  0.1239
  H  H30  1  0.001300  0.832200  0.216700  1.0  0.1256
  H  H31  1  0.458600  0.263900  0.721300  1.0  0.1209
  H  H32  1  0.008500  0.571600  0.064500  1.0  0.1114
  C  C33  1  0.156300  0.598800  0.750100  1.0  0.7536
  C  C34  1  0.322460  0.366000  0.994500  1.0  0.2478
  C  C35  1  0.112700  0.690900  0.692800  1.0  -0.1339
  C  C36  1  0.407800  0.389700  0.032900  1.0  -0.0661
  C  C37  1  0.288900  0.290700  0.041800  1.0  -0.0575
  C  C38  1  0.155600  0.754600  0.648000  1.0  0.0287
  C  C39  1  0.030600  0.713600  0.687700  1.0  -0.0752
  C  C40  1  0.458400  0.342100  0.117400  1.0  -0.1268
  C  C41  1  0.339900  0.241900  0.125200  1.0  -0.1271
  C  C42  1  0.115700  0.842700  0.598700  1.0  -0.1292
  C  C43  1  0.990000  0.802500  0.640600  1.0  0.3176
  C  C44  1  0.548400  0.375600  0.163700  1.0  0.7126
  C  C45  1  0.424400  0.268300  0.163600  1.0  0.0201
  C  C46  1  0.304800  0.161900  0.177300  1.0  0.7075
  C  C47  1  0.160000  0.906700  0.542900  1.0  0.7275
  C  C48  1  0.034300  0.867200  0.596300  1.0  -0.0624
  C  C49  1  0.843700  0.098800  0.749900  1.0  0.7539
  C  C50  1  0.677540  0.866000  0.505500  1.0  0.246
  C  C51  1  0.887300  0.190900  0.807200  1.0  -0.1336
  C  C52  1  0.592200  0.889700  0.467100  1.0  -0.0651
  C  C53  1  0.711100  0.790700  0.458200  1.0  -0.0564
  C  C54  1  0.844400  0.254600  0.852000  1.0  0.0274
  C  C55  1  0.969400  0.213600  0.812300  1.0  -0.0743
  C  C56  1  0.541600  0.842100  0.382600  1.0  -0.1267
  C  C57  1  0.660100  0.741900  0.374800  1.0  -0.127
  C  C58  1  0.884300  0.342700  0.901300  1.0  -0.1291
  C  C59  1  0.010000  0.302500  0.859400  1.0  0.3185
  C  C60  1  0.451600  0.875600  0.336300  1.0  0.7136
  C  C61  1  0.575600  0.768300  0.336400  1.0  0.0209
  C  C62  1  0.695200  0.661900  0.322700  1.0  0.7076
  C  C63  1  0.840000  0.406700  0.957100  1.0  0.7265
  C  C64  1  0.965700  0.367200  0.903700  1.0  -0.0612
  C  C65  1  0.843700  0.401200  0.249900  1.0  0.7543
  C  C66  1  0.677540  0.634000  0.005500  1.0  0.2453
  C  C67  1  0.887300  0.309100  0.307200  1.0  -0.1335
  C  C68  1  0.592200  0.610300  0.967100  1.0  -0.0648
  C  C69  1  0.711100  0.709300  0.958200  1.0  -0.0566
  C  C70  1  0.844400  0.245400  0.352000  1.0  0.027
  C  C71  1  0.969400  0.286400  0.312300  1.0  -0.0749
  C  C72  1  0.541600  0.657900  0.882600  1.0  -0.1263
  C  C73  1  0.660100  0.758100  0.874800  1.0  -0.1265
  C  C74  1  0.884300  0.157300  0.401300  1.0  -0.1295
  C  C75  1  0.010000  0.197500  0.359400  1.0  0.3179
  C  C76  1  0.451600  0.624400  0.836300  1.0  0.7135
  C  C77  1  0.575600  0.731700  0.836400  1.0  0.0206
  C  C78  1  0.695200  0.838100  0.822700  1.0  0.7082
  C  C79  1  0.840000  0.093300  0.457100  1.0  0.7261
  C  C80  1  0.965700  0.132800  0.403700  1.0  -0.0606
  C  C81  1  0.156300  0.901200  0.250100  1.0  0.754
  C  C82  1  0.322460  0.134000  0.494500  1.0  0.2474
  C  C83  1  0.112700  0.809100  0.192800  1.0  -0.1339
  C  C84  1  0.407800  0.110300  0.532900  1.0  -0.0654
  C  C85  1  0.288900  0.209300  0.541800  1.0  -0.0582
  C  C86  1  0.155600  0.745400  0.148000  1.0  0.0284
  C  C87  1  0.030600  0.786400  0.187700  1.0  -0.0759
  C  C88  1  0.458400  0.157900  0.617400  1.0  -0.1268
  C  C89  1  0.339900  0.258100  0.625200  1.0  -0.1265
  C  C90  1  0.115700  0.657300  0.098700  1.0  -0.1292
  C  C91  1  0.990000  0.697500  0.140600  1.0  0.3171
  C  C92  1  0.548400  0.124400  0.663700  1.0  0.712
  C  C93  1  0.424400  0.231700  0.663600  1.0  0.0194
  C  C94  1  0.304800  0.338100  0.677300  1.0  0.708
  C  C95  1  0.160000  0.593300  0.042900  1.0  0.727
  C  C96  1  0.034300  0.632800  0.096300  1.0  -0.062
  O  O97  1  0.231540  0.586400  0.755400  1.0  -0.5858
  O  O98  1  0.356980  0.384700  0.746400  1.0  -0.5823
  O  O99  1  0.272560  0.414940  0.913790  1.0  -0.6236
  O  O100  1  0.423690  0.558800  0.883700  1.0  -0.5646
  O  O101  1  0.115630  0.542700  0.788600  1.0  -0.6038
  O  O102  1  0.088460  0.322300  0.859400  1.0  -0.5048
  O  O103  1  0.122310  0.511400  0.003800  1.0  -0.5858
  O  O104  1  0.589900  0.341800  0.243400  1.0  -0.4636
  O  O105  1  0.228300  0.144800  0.150100  1.0  -0.5359
  O  O106  1  0.226600  0.878800  0.534000  1.0  -0.4981
  O  O107  1  0.768460  0.086400  0.744600  1.0  -0.5871
  O  O108  1  0.643020  0.884700  0.753600  1.0  -0.5823
  O  O109  1  0.727440  0.914940  0.586210  1.0  -0.6239
  O  O110  1  0.576310  0.058800  0.616300  1.0  -0.5646
  O  O111  1  0.884370  0.042700  0.711400  1.0  -0.6029
  O  O112  1  0.911540  0.822300  0.640600  1.0  -0.5043
  O  O113  1  0.877690  0.011400  0.496200  1.0  -0.5864
  O  O114  1  0.410100  0.841800  0.256600  1.0  -0.4658
  O  O115  1  0.771700  0.644800  0.349900  1.0  -0.531
  O  O116  1  0.773400  0.378800  0.966000  1.0  -0.4994
  O  O117  1  0.768460  0.413600  0.244600  1.0  -0.587
  O  O118  1  0.643020  0.615300  0.253600  1.0  -0.5823
  O  O119  1  0.727440  0.585060  0.086210  1.0  -0.6241
  O  O120  1  0.576310  0.441200  0.116300  1.0  -0.5667
  O  O121  1  0.884370  0.457300  0.211400  1.0  -0.6038
  O  O122  1  0.911540  0.677700  0.140600  1.0  -0.5045
  O  O123  1  0.877690  0.488600  0.996200  1.0  -0.5835
  O  O124  1  0.410100  0.658200  0.756600  1.0  -0.4662
  O  O125  1  0.771700  0.855200  0.849900  1.0  -0.5307
  O  O126  1  0.773400  0.121200  0.466000  1.0  -0.5003
  O  O127  1  0.231540  0.913600  0.255400  1.0  -0.5859
  O  O128  1  0.356980  0.115300  0.246400  1.0  -0.5821
  O  O129  1  0.272560  0.085060  0.413790  1.0  -0.6239
  O  O130  1  0.423690  0.941200  0.383700  1.0  -0.5665
  O  O131  1  0.115630  0.957300  0.288600  1.0  -0.6046
  O  O132  1  0.088460  0.177700  0.359400  1.0  -0.5049
  O  O133  1  0.122310  0.988600  0.503800  1.0  -0.5833
  O  O134  1  0.589900  0.158200  0.743400  1.0  -0.4643
  O  O135  1  0.228300  0.355200  0.650100  1.0  -0.5354
  O  O136  1  0.226600  0.621200  0.034000  1.0  -0.4979
