# generated using pymatgen
data_Cd5H48C84(NO6)4
_symmetry_space_group_name_H-M   'P 1'
_cell_length_a   14.61630000
_cell_length_b   23.16390000
_cell_length_c   15.71130000
_cell_angle_alpha   90.00000000
_cell_angle_beta   108.06100000
_cell_angle_gamma   90.00000000
_symmetry_Int_Tables_number   1
_chemical_formula_structural   Cd5H48C84(NO6)4
_chemical_formula_sum   'Cd10 H96 C168 N8 O48'
_cell_volume   5057.28083092
_cell_formula_units_Z   2
loop_
 _symmetry_equiv_pos_site_id
 _symmetry_equiv_pos_as_xyz
  1  'x, y, z'
loop_
 _atom_site_type_symbol
 _atom_site_label
 _atom_site_symmetry_multiplicity
 _atom_site_fract_x
 _atom_site_fract_y
 _atom_site_fract_z
 _atom_site_occupancy
 _atom_site_charge
  Cd  Cd1  1  0.735180  0.438980  0.085130  1.0  1.035
  Cd  Cd2  1  0.764060  0.302670  0.202120  1.0  1.0351
  Cd  Cd3  1  0.264820  0.938980  0.414870  1.0  1.0363
  Cd  Cd4  1  0.235940  0.802670  0.297880  1.0  1.0334
  Cd  Cd5  1  0.264820  0.561020  0.914870  1.0  1.0364
  Cd  Cd6  1  0.235940  0.697330  0.797880  1.0  1.0302
  Cd  Cd7  1  0.735180  0.061020  0.585130  1.0  1.0351
  Cd  Cd8  1  0.764060  0.197330  0.702120  1.0  1.0356
  Cd  Cd9  1  0.500000  0.500000  0.000000  1.0  1.0989
  Cd  Cd10  1  0.500000  0.000000  0.500000  1.0  1.0989
  H  H11  1  0.391400  0.184700  0.183100  1.0  0.1165
  H  H12  1  0.566900  0.330000  0.240800  1.0  0.1128
  H  H13  1  0.488000  0.276900  0.466500  1.0  0.1112
  H  H14  1  0.445900  0.284700  0.279700  1.0  0.1274
  H  H15  1  0.468100  0.456600  0.226100  1.0  0.1061
  H  H16  1  0.583500  0.376300  0.682200  1.0  0.1127
  H  H17  1  0.476500  0.433700  0.369900  1.0  0.0944
  H  H18  1  0.209400  0.527300  0.187500  1.0  0.1167
  H  H19  1  0.187100  0.224200  0.298200  1.0  0.1404
  H  H20  1  0.415200  0.097100  0.257100  1.0  0.1149
  H  H21  1  0.948600  0.266600  0.094100  1.0  0.1225
  H  H22  1  0.209900  0.496800  0.327800  1.0  0.1373
  H  H23  1  0.385400  0.358700  0.994600  1.0  0.1036
  H  H24  1  0.470000  0.445300  0.617200  1.0  0.1091
  H  H25  1  0.201200  0.131500  0.356800  1.0  0.1214
  H  H26  1  0.263800  0.313700  0.035800  1.0  0.1333
  H  H27  1  0.097000  0.223600  0.121300  1.0  0.1289
  H  H28  1  0.358400  0.561900  0.453000  1.0  0.1131
  H  H29  1  0.370300  0.344100  0.401000  1.0  0.1376
  H  H30  1  0.268000  0.434300  0.580800  1.0  0.137
  H  H31  1  0.078900  0.418400  0.172000  1.0  0.1113
  H  H32  1  0.310100  0.628900  0.537400  1.0  0.1158
  H  H33  1  0.227700  0.374300  0.202200  1.0  0.1177
  H  H34  1  0.216300  0.504700  0.662800  1.0  0.1104
  H  H35  1  0.608600  0.684700  0.316900  1.0  0.1159
  H  H36  1  0.433100  0.830000  0.259200  1.0  0.112
  H  H37  1  0.512000  0.776900  0.033500  1.0  0.1114
  H  H38  1  0.554100  0.784700  0.220300  1.0  0.1285
  H  H39  1  0.531900  0.956600  0.273900  1.0  0.1064
  H  H40  1  0.416500  0.876300  0.817800  1.0  0.1128
  H  H41  1  0.523500  0.933700  0.130100  1.0  0.0942
  H  H42  1  0.790600  0.027300  0.312500  1.0  0.1164
  H  H43  1  0.812900  0.724200  0.201800  1.0  0.1407
  H  H44  1  0.584800  0.597100  0.242900  1.0  0.1147
  H  H45  1  0.051400  0.766600  0.405900  1.0  0.1227
  H  H46  1  0.790100  0.996800  0.172200  1.0  0.137
  H  H47  1  0.614600  0.858700  0.505400  1.0  0.1037
  H  H48  1  0.530000  0.945300  0.882800  1.0  0.1095
  H  H49  1  0.798800  0.631500  0.143200  1.0  0.1213
  H  H50  1  0.736200  0.813700  0.464200  1.0  0.1349
  H  H51  1  0.903000  0.723600  0.378700  1.0  0.1285
  H  H52  1  0.641600  0.061900  0.047000  1.0  0.1125
  H  H53  1  0.629700  0.844100  0.099000  1.0  0.1381
  H  H54  1  0.732000  0.934300  0.919200  1.0  0.1375
  H  H55  1  0.921100  0.918400  0.328000  1.0  0.1116
  H  H56  1  0.689900  0.128900  0.962600  1.0  0.1149
  H  H57  1  0.772300  0.874300  0.297800  1.0  0.1184
  H  H58  1  0.783700  0.004700  0.837200  1.0  0.1114
  H  H59  1  0.608600  0.815300  0.816900  1.0  0.1161
  H  H60  1  0.433100  0.670000  0.759200  1.0  0.1123
  H  H61  1  0.512000  0.723100  0.533500  1.0  0.1112
  H  H62  1  0.554100  0.715300  0.720300  1.0  0.1285
  H  H63  1  0.531900  0.543400  0.773900  1.0  0.1066
  H  H64  1  0.416500  0.623700  0.317800  1.0  0.1129
  H  H65  1  0.523500  0.566300  0.630100  1.0  0.0944
  H  H66  1  0.790600  0.472700  0.812500  1.0  0.1163
  H  H67  1  0.812900  0.775800  0.701800  1.0  0.1408
  H  H68  1  0.584800  0.902900  0.742900  1.0  0.115
  H  H69  1  0.051400  0.733400  0.905900  1.0  0.1229
  H  H70  1  0.790100  0.503200  0.672200  1.0  0.1369
  H  H71  1  0.614600  0.641300  0.005400  1.0  0.1038
  H  H72  1  0.530000  0.554700  0.382800  1.0  0.1092
  H  H73  1  0.798800  0.868500  0.643200  1.0  0.1212
  H  H74  1  0.736200  0.686300  0.964200  1.0  0.1346
  H  H75  1  0.903000  0.776400  0.878700  1.0  0.1288
  H  H76  1  0.641600  0.438100  0.547000  1.0  0.1123
  H  H77  1  0.629700  0.655900  0.599000  1.0  0.138
  H  H78  1  0.732000  0.565700  0.419200  1.0  0.1374
  H  H79  1  0.921100  0.581600  0.828000  1.0  0.1113
  H  H80  1  0.689900  0.371100  0.462600  1.0  0.1146
  H  H81  1  0.772300  0.625700  0.797800  1.0  0.1185
  H  H82  1  0.783700  0.495300  0.337200  1.0  0.1117
  H  H83  1  0.391400  0.315300  0.683100  1.0  0.1166
  H  H84  1  0.566900  0.170000  0.740800  1.0  0.1126
  H  H85  1  0.488000  0.223100  0.966500  1.0  0.1116
  H  H86  1  0.445900  0.215300  0.779700  1.0  0.1277
  H  H87  1  0.468100  0.043400  0.726100  1.0  0.1061
  H  H88  1  0.583500  0.123700  0.182200  1.0  0.1124
  H  H89  1  0.476500  0.066300  0.869900  1.0  0.0946
  H  H90  1  0.209400  0.972700  0.687500  1.0  0.1163
  H  H91  1  0.187100  0.275800  0.798200  1.0  0.1404
  H  H92  1  0.415200  0.402900  0.757100  1.0  0.1146
  H  H93  1  0.948600  0.233400  0.594100  1.0  0.123
  H  H94  1  0.209900  0.003200  0.827800  1.0  0.1375
  H  H95  1  0.385400  0.141300  0.494600  1.0  0.104
  H  H96  1  0.470000  0.054700  0.117200  1.0  0.1092
  H  H97  1  0.201200  0.368500  0.856800  1.0  0.1212
  H  H98  1  0.263800  0.186300  0.535800  1.0  0.1334
  H  H99  1  0.097000  0.276400  0.621300  1.0  0.1294
  H  H100  1  0.358400  0.938100  0.953000  1.0  0.1128
  H  H101  1  0.370300  0.155900  0.901000  1.0  0.1379
  H  H102  1  0.268000  0.065700  0.080800  1.0  0.1371
  H  H103  1  0.078900  0.081600  0.672000  1.0  0.1113
  H  H104  1  0.310100  0.871100  0.037400  1.0  0.1154
  H  H105  1  0.227700  0.125700  0.702200  1.0  0.1178
  H  H106  1  0.216300  0.995300  0.162800  1.0  0.1103
  C  C107  1  0.284000  0.213000  0.230400  1.0  0.1575
  C  C108  1  0.353900  0.174500  0.219000  1.0  -0.1894
  C  C109  1  0.506100  0.326800  0.198900  1.0  -0.0272
  C  C110  1  0.549400  0.320000  0.580400  1.0  -0.1435
  C  C111  1  0.484800  0.311000  0.496800  1.0  -0.0189
  C  C112  1  0.489500  0.349540  0.113300  1.0  -0.1538
  C  C113  1  0.433700  0.299660  0.222300  1.0  -0.142
  C  C114  1  0.338500  0.494570  0.191900  1.0  -0.1283
  C  C115  1  0.417200  0.466120  0.247200  1.0  -0.0352
  C  C116  1  0.316700  0.490900  0.505800  1.0  0.1473
  C  C117  1  0.411900  0.404100  0.500300  1.0  0.1497
  C  C118  1  0.541900  0.370300  0.624700  1.0  -0.0594
  C  C119  1  0.343400  0.294600  0.161300  1.0  0.1839
  C  C120  1  0.565700  0.380940  0.088200  1.0  0.6848
  C  C121  1  0.421500  0.451600  0.332900  1.0  -0.1012
  C  C122  1  0.262100  0.507200  0.223800  1.0  -0.0443
  C  C123  1  0.229600  0.198000  0.286000  1.0  -0.2148
  C  C124  1  0.366400  0.121600  0.261300  1.0  -0.0242
  C  C125  1  0.629600  0.277800  0.620400  1.0  0.6978
  C  C126  1  0.306500  0.104900  0.310200  1.0  -0.1012
  C  C127  1  0.336200  0.511270  0.098900  1.0  0.7229
  C  C128  1  0.004200  0.288600  0.116000  1.0  -0.0451
  C  C129  1  0.263200  0.490200  0.308800  1.0  -0.1733
  C  C130  1  0.344700  0.463100  0.365600  1.0  0.125
  C  C131  1  0.997500  0.346400  0.131700  1.0  -0.1121
  C  C132  1  0.398000  0.344100  0.052300  1.0  -0.0014
  C  C133  1  0.315500  0.046000  0.350500  1.0  0.7297
  C  C134  1  0.473900  0.411900  0.585700  1.0  -0.1485
  C  C135  1  0.240100  0.142800  0.322800  1.0  0.0013
  C  C136  1  0.177500  0.294300  0.166200  1.0  0.199
  C  C137  1  0.325100  0.316800  0.076800  1.0  -0.1412
  C  C138  1  0.093400  0.262800  0.132700  1.0  -0.2015
  C  C139  1  0.330000  0.549700  0.495200  1.0  -0.1222
  C  C140  1  0.414900  0.351600  0.456600  1.0  -0.1783
  C  C141  1  0.275700  0.473300  0.570800  1.0  -0.1589
  C  C142  1  0.901000  0.372900  0.115600  1.0  0.7027
  C  C143  1  0.082400  0.378900  0.163000  1.0  -0.0206
  C  C144  1  0.301600  0.589800  0.546300  1.0  -0.0047
  C  C145  1  0.171800  0.352500  0.180600  1.0  -0.1628
  C  C146  1  0.246300  0.516000  0.621200  1.0  -0.0105
  C  C147  1  0.260900  0.573200  0.610300  1.0  -0.1247
  C  C148  1  0.232200  0.619400  0.666900  1.0  0.7177
  C  C149  1  0.716000  0.713000  0.269600  1.0  0.1576
  C  C150  1  0.646100  0.674500  0.281000  1.0  -0.1906
  C  C151  1  0.493900  0.826800  0.301100  1.0  -0.0249
  C  C152  1  0.450600  0.820000  0.919600  1.0  -0.1431
  C  C153  1  0.515200  0.811000  0.003200  1.0  -0.0189
  C  C154  1  0.510500  0.849540  0.386700  1.0  -0.1534
  C  C155  1  0.566300  0.799660  0.277700  1.0  -0.1415
  C  C156  1  0.661500  0.994570  0.308100  1.0  -0.1309
  C  C157  1  0.582800  0.966120  0.252800  1.0  -0.0352
  C  C158  1  0.683300  0.990900  0.994200  1.0  0.1463
  C  C159  1  0.588100  0.904100  0.999700  1.0  0.1502
  C  C160  1  0.458100  0.870300  0.875300  1.0  -0.0567
  C  C161  1  0.656600  0.794600  0.338700  1.0  0.1845
  C  C162  1  0.434300  0.880940  0.411800  1.0  0.6838
  C  C163  1  0.578500  0.951600  0.167100  1.0  -0.1002
  C  C164  1  0.737900  0.007200  0.276200  1.0  -0.0439
  C  C165  1  0.770400  0.698000  0.214000  1.0  -0.2147
  C  C166  1  0.633600  0.621600  0.238700  1.0  -0.0237
  C  C167  1  0.370400  0.777800  0.879600  1.0  0.6956
  C  C168  1  0.693500  0.604900  0.189800  1.0  -0.1008
  C  C169  1  0.663800  0.011270  0.401100  1.0  0.7236
  C  C170  1  0.995800  0.788600  0.384000  1.0  -0.0449
  C  C171  1  0.736800  0.990200  0.191200  1.0  -0.1708
  C  C172  1  0.655300  0.963100  0.134400  1.0  0.1256
  C  C173  1  0.002500  0.846400  0.368300  1.0  -0.111
  C  C174  1  0.602000  0.844100  0.447700  1.0  -0.0008
  C  C175  1  0.684500  0.546000  0.149500  1.0  0.7295
  C  C176  1  0.526100  0.911900  0.914300  1.0  -0.149
  C  C177  1  0.759900  0.642800  0.177200  1.0  0.0014
  C  C178  1  0.822500  0.794300  0.333800  1.0  0.2005
  C  C179  1  0.674900  0.816800  0.423200  1.0  -0.1439
  C  C180  1  0.906600  0.762800  0.367300  1.0  -0.2013
  C  C181  1  0.670000  0.049700  0.004800  1.0  -0.1233
  C  C182  1  0.585100  0.851600  0.043400  1.0  -0.1793
  C  C183  1  0.724300  0.973300  0.929200  1.0  -0.1577
  C  C184  1  0.099000  0.872900  0.384400  1.0  0.7021
  C  C185  1  0.917600  0.878900  0.337000  1.0  -0.0209
  C  C186  1  0.698400  0.089800  0.953700  1.0  -0.0058
  C  C187  1  0.828200  0.852500  0.319400  1.0  -0.1611
  C  C188  1  0.753700  0.016000  0.878800  1.0  -0.0091
  C  C189  1  0.739100  0.073200  0.889700  1.0  -0.1258
  C  C190  1  0.767800  0.119400  0.833100  1.0  0.7158
  C  C191  1  0.716000  0.787000  0.769600  1.0  0.1575
  C  C192  1  0.646100  0.825500  0.781000  1.0  -0.1905
  C  C193  1  0.493900  0.673200  0.801100  1.0  -0.0247
  C  C194  1  0.450600  0.680000  0.419600  1.0  -0.1427
  C  C195  1  0.515200  0.689000  0.503200  1.0  -0.0188
  C  C196  1  0.510500  0.650460  0.886700  1.0  -0.1534
  C  C197  1  0.566300  0.700340  0.777700  1.0  -0.1408
  C  C198  1  0.661500  0.505430  0.808100  1.0  -0.1314
  C  C199  1  0.582800  0.533880  0.752800  1.0  -0.0349
  C  C200  1  0.683300  0.509100  0.494200  1.0  0.1465
  C  C201  1  0.588100  0.595900  0.499700  1.0  0.1505
  C  C202  1  0.458100  0.629700  0.375300  1.0  -0.0564
  C  C203  1  0.656600  0.705400  0.838700  1.0  0.1844
  C  C204  1  0.434300  0.619060  0.911800  1.0  0.6832
  C  C205  1  0.578500  0.548400  0.667100  1.0  -0.1003
  C  C206  1  0.737900  0.492800  0.776200  1.0  -0.0433
  C  C207  1  0.770400  0.802000  0.714000  1.0  -0.2149
  C  C208  1  0.633600  0.878400  0.738700  1.0  -0.0233
  C  C209  1  0.370400  0.722200  0.379600  1.0  0.6958
  C  C210  1  0.693500  0.895100  0.689800  1.0  -0.1004
  C  C211  1  0.663800  0.488730  0.901100  1.0  0.7241
  C  C212  1  0.995800  0.711400  0.884000  1.0  -0.0456
  C  C213  1  0.736800  0.509800  0.691200  1.0  -0.1702
  C  C214  1  0.655300  0.536900  0.634400  1.0  0.1254
  C  C215  1  0.002500  0.653600  0.868300  1.0  -0.1111
  C  C216  1  0.602000  0.655900  0.947700  1.0  -0.0007
  C  C217  1  0.684500  0.954000  0.649500  1.0  0.7291
  C  C218  1  0.526100  0.588100  0.414300  1.0  -0.1489
  C  C219  1  0.759900  0.857200  0.677200  1.0  0.0016
  C  C220  1  0.822500  0.705700  0.833800  1.0  0.2003
  C  C221  1  0.674900  0.683200  0.923200  1.0  -0.1442
  C  C222  1  0.906600  0.737200  0.867300  1.0  -0.2008
  C  C223  1  0.670000  0.450300  0.504800  1.0  -0.1222
  C  C224  1  0.585100  0.648400  0.543400  1.0  -0.1791
  C  C225  1  0.724300  0.526700  0.429200  1.0  -0.1574
  C  C226  1  0.099000  0.627100  0.884400  1.0  0.702
  C  C227  1  0.917600  0.621100  0.837000  1.0  -0.0205
  C  C228  1  0.698400  0.410200  0.453700  1.0  -0.0059
  C  C229  1  0.828200  0.647500  0.819400  1.0  -0.1609
  C  C230  1  0.753700  0.484000  0.378800  1.0  -0.0094
  C  C231  1  0.739100  0.426800  0.389700  1.0  -0.1261
  C  C232  1  0.767800  0.380600  0.333100  1.0  0.7172
  C  C233  1  0.284000  0.287000  0.730400  1.0  0.1571
  C  C234  1  0.353900  0.325500  0.719000  1.0  -0.1891
  C  C235  1  0.506100  0.173200  0.698900  1.0  -0.0267
  C  C236  1  0.549400  0.180000  0.080400  1.0  -0.144
  C  C237  1  0.484800  0.189000  0.996800  1.0  -0.0182
  C  C238  1  0.489500  0.150460  0.613300  1.0  -0.1542
  C  C239  1  0.433700  0.200340  0.722300  1.0  -0.1423
  C  C240  1  0.338500  0.005430  0.691900  1.0  -0.1297
  C  C241  1  0.417200  0.033880  0.747200  1.0  -0.0352
  C  C242  1  0.316700  0.009100  0.005800  1.0  0.1472
  C  C243  1  0.411900  0.095900  0.000300  1.0  0.1504
  C  C244  1  0.541900  0.129700  0.124700  1.0  -0.0593
  C  C245  1  0.343400  0.205400  0.661300  1.0  0.1836
  C  C246  1  0.565700  0.119060  0.588200  1.0  0.6842
  C  C247  1  0.421500  0.048400  0.832900  1.0  -0.1007
  C  C248  1  0.262100  0.992800  0.723800  1.0  -0.0439
  C  C249  1  0.229600  0.302000  0.786000  1.0  -0.215
  C  C250  1  0.366400  0.378400  0.761300  1.0  -0.0234
  C  C251  1  0.629600  0.222200  0.120400  1.0  0.6979
  C  C252  1  0.306500  0.395100  0.810200  1.0  -0.1004
  C  C253  1  0.336200  0.988730  0.598900  1.0  0.7219
  C  C254  1  0.004200  0.211400  0.616000  1.0  -0.0458
  C  C255  1  0.263200  0.009800  0.808800  1.0  -0.1733
  C  C256  1  0.344700  0.036900  0.865600  1.0  0.1249
  C  C257  1  0.997500  0.153600  0.631700  1.0  -0.1128
  C  C258  1  0.398000  0.155900  0.552300  1.0  -0.0009
  C  C259  1  0.315500  0.454000  0.850500  1.0  0.7296
  C  C260  1  0.473900  0.088100  0.085700  1.0  -0.1493
  C  C261  1  0.240100  0.357200  0.822800  1.0  0.0008
  C  C262  1  0.177500  0.205700  0.666200  1.0  0.1989
  C  C263  1  0.325100  0.183200  0.576800  1.0  -0.1412
  C  C264  1  0.093400  0.237200  0.632700  1.0  -0.2005
  C  C265  1  0.330000  0.950300  0.995200  1.0  -0.1219
  C  C266  1  0.414900  0.148400  0.956600  1.0  -0.1783
  C  C267  1  0.275700  0.026700  0.070800  1.0  -0.161
  C  C268  1  0.901000  0.127100  0.615600  1.0  0.7027
  C  C269  1  0.082400  0.121100  0.663000  1.0  -0.0207
  C  C270  1  0.301600  0.910200  0.046300  1.0  -0.0052
  C  C271  1  0.171800  0.147500  0.680600  1.0  -0.1624
  C  C272  1  0.246300  0.984000  0.121200  1.0  -0.0107
  C  C273  1  0.260900  0.926800  0.110300  1.0  -0.1247
  C  C274  1  0.232200  0.880600  0.166900  1.0  0.7163
  N  N275  1  0.268300  0.266890  0.186100  1.0  -0.1322
  N  N276  1  0.347600  0.448410  0.454400  1.0  -0.2158
  N  N277  1  0.731700  0.766890  0.313900  1.0  -0.1323
  N  N278  1  0.652400  0.948410  0.045600  1.0  -0.2146
  N  N279  1  0.731700  0.733110  0.813900  1.0  -0.1324
  N  N280  1  0.652400  0.551590  0.545600  1.0  -0.2137
  N  N281  1  0.268300  0.233110  0.686100  1.0  -0.1322
  N  N282  1  0.347600  0.051590  0.954400  1.0  -0.215
  O  O283  1  0.546400  0.407700  0.017200  1.0  -0.656
  O  O284  1  0.393500  0.485100  0.067000  1.0  -0.6237
  O  O285  1  0.830100  0.345130  0.099400  1.0  -0.6385
  O  O286  1  0.277400  0.548710  0.058000  1.0  -0.5998
  O  O287  1  0.650300  0.378310  0.141600  1.0  -0.6374
  O  O288  1  0.391300  0.018540  0.367400  1.0  -0.6304
  O  O289  1  0.669700  0.277750  0.703100  1.0  -0.6061
  O  O290  1  0.898000  0.427750  0.119100  1.0  -0.5786
  O  O291  1  0.239900  0.026690  0.363400  1.0  -0.587
  O  O292  1  0.654300  0.243230  0.569600  1.0  -0.5986
  O  O293  1  0.262700  0.670400  0.664500  1.0  -0.5788
  O  O294  1  0.184600  0.602800  0.716700  1.0  -0.6272
  O  O295  1  0.453600  0.907700  0.482800  1.0  -0.6559
  O  O296  1  0.606500  0.985100  0.433000  1.0  -0.6239
  O  O297  1  0.169900  0.845130  0.400600  1.0  -0.6376
  O  O298  1  0.722600  0.048710  0.442000  1.0  -0.5984
  O  O299  1  0.349700  0.878310  0.358400  1.0  -0.639
  O  O300  1  0.608700  0.518540  0.132600  1.0  -0.6299
  O  O301  1  0.330300  0.777750  0.796900  1.0  -0.6049
  O  O302  1  0.102000  0.927750  0.380900  1.0  -0.579
  O  O303  1  0.760100  0.526690  0.136600  1.0  -0.5833
  O  O304  1  0.345700  0.743230  0.930400  1.0  -0.597
  O  O305  1  0.737300  0.170400  0.835500  1.0  -0.5797
  O  O306  1  0.815400  0.102800  0.783300  1.0  -0.625
  O  O307  1  0.453600  0.592300  0.982800  1.0  -0.6562
  O  O308  1  0.606500  0.514900  0.933000  1.0  -0.6236
  O  O309  1  0.169900  0.654870  0.900600  1.0  -0.6382
  O  O310  1  0.722600  0.451290  0.942000  1.0  -0.5995
  O  O311  1  0.349700  0.621690  0.858400  1.0  -0.6394
  O  O312  1  0.608700  0.981460  0.632600  1.0  -0.629
  O  O313  1  0.330300  0.722250  0.296900  1.0  -0.605
  O  O314  1  0.102000  0.572250  0.880900  1.0  -0.5783
  O  O315  1  0.760100  0.973310  0.636600  1.0  -0.5831
  O  O316  1  0.345700  0.756770  0.430400  1.0  -0.5977
  O  O317  1  0.737300  0.329600  0.335500  1.0  -0.5798
  O  O318  1  0.815400  0.397200  0.283300  1.0  -0.6253
  O  O319  1  0.546400  0.092300  0.517200  1.0  -0.6563
  O  O320  1  0.393500  0.014900  0.567000  1.0  -0.6241
  O  O321  1  0.830100  0.154870  0.599400  1.0  -0.6369
  O  O322  1  0.277400  0.951290  0.558000  1.0  -0.5992
  O  O323  1  0.650300  0.121690  0.641600  1.0  -0.6377
  O  O324  1  0.391300  0.481460  0.867400  1.0  -0.6295
  O  O325  1  0.669700  0.222250  0.203100  1.0  -0.6061
  O  O326  1  0.898000  0.072250  0.619100  1.0  -0.5787
  O  O327  1  0.239900  0.473310  0.863400  1.0  -0.5868
  O  O328  1  0.654300  0.256770  0.069600  1.0  -0.5987
  O  O329  1  0.262700  0.829600  0.164500  1.0  -0.5772
  O  O330  1  0.184600  0.897200  0.216700  1.0  -0.6269
