# generated using pymatgen
data_Zn2H25C38(N4O3)2
_symmetry_space_group_name_H-M   'P 1'
_cell_length_a   14.79790000
_cell_length_b   18.64130000
_cell_length_c   22.28790000
_cell_angle_alpha   86.67200000
_cell_angle_beta   79.48500000
_cell_angle_gamma   75.82500000
_symmetry_Int_Tables_number   1
_chemical_formula_structural   Zn2H25C38(N4O3)2
_chemical_formula_sum   'Zn8 H100 C152 N32 O24'
_cell_volume   5860.28904247
_cell_formula_units_Z   4
loop_
 _symmetry_equiv_pos_site_id
 _symmetry_equiv_pos_as_xyz
  1  'x, y, z'
loop_
 _atom_site_type_symbol
 _atom_site_label
 _atom_site_symmetry_multiplicity
 _atom_site_fract_x
 _atom_site_fract_y
 _atom_site_fract_z
 _atom_site_occupancy
 _atom_site_charge
  Zn  Zn1  1  0.403630  0.803480  0.872090  1.0  0.7636
  Zn  Zn2  1  0.361450  0.063220  0.695660  1.0  0.8216
  Zn  Zn3  1  0.312220  0.702470  0.133190  1.0  0.861
  Zn  Zn4  1  0.270450  0.958980  0.955610  1.0  0.7337
  Zn  Zn5  1  0.596370  0.196520  0.127910  1.0  0.7638
  Zn  Zn6  1  0.638550  0.936780  0.304340  1.0  0.8214
  Zn  Zn7  1  0.687780  0.297530  0.866810  1.0  0.8625
  Zn  Zn8  1  0.729550  0.041020  0.044390  1.0  0.7334
  H  H9  1  0.351800  0.655800  0.978300  1.0  0.3377
  H  H10  1  0.437800  0.672600  0.951400  1.0  0.3563
  H  H11  1  0.209800  0.924200  0.090200  1.0  0.3359
  H  H12  1  0.218600  0.862000  0.129300  1.0  0.3456
  H  H13  1  0.414000  0.839300  0.739300  1.0  0.341
  H  H14  1  0.401000  0.900800  0.699500  1.0  0.3524
  H  H15  1  0.651500  0.885200  0.561200  1.0  0.1021
  H  H16  1  0.694400  0.635600  0.731600  1.0  0.1103
  H  H17  1  0.192800  0.004000  0.727300  1.0  0.0696
  H  H18  1  0.135000  0.719600  0.085700  1.0  0.0737
  H  H19  1  0.973400  0.884300  0.387500  1.0  0.0892
  H  H20  1  0.258400  0.118200  0.823700  1.0  0.3464
  H  H21  1  0.259900  0.097200  0.885200  1.0  0.3329
  H  H22  1  0.854700  0.586900  0.718600  1.0  0.0999
  H  H23  1  0.025200  0.847000  0.287000  1.0  0.0993
  H  H24  1  0.813600  0.858000  0.531800  1.0  0.097
  H  H25  1  0.192700  0.473800  0.137700  1.0  0.1076
  H  H26  1  0.095500  0.950900  0.683800  1.0  0.1156
  H  H27  1  0.312300  0.582400  0.812400  1.0  0.1016
  H  H28  1  0.035800  0.652400  0.063100  1.0  0.1156
  H  H29  1  0.233700  0.794900  0.423500  1.0  0.11
  H  H30  1  0.141700  0.413700  0.064600  1.0  0.1124
  H  H31  1  0.286200  0.548100  0.159400  1.0  0.0751
  H  H32  1  0.917300  0.586100  0.099600  1.0  0.1136
  H  H33  1  0.345600  0.025900  0.568400  1.0  0.0743
  H  H34  1  0.711600  0.759200  0.867900  1.0  0.098
  H  H35  1  0.195100  0.880400  0.494200  1.0  0.1151
  H  H36  1  0.872000  0.717100  0.850300  1.0  0.0854
  H  H37  1  0.824800  0.032900  0.622500  1.0  0.0919
  H  H38  1  0.231600  0.834500  0.814600  1.0  0.0665
  H  H39  1  0.255700  0.973300  0.520700  1.0  0.0939
  H  H40  1  0.977300  0.968500  0.624100  1.0  0.1011
  H  H41  1  0.022600  0.706800  0.796800  1.0  0.0961
  H  H42  1  0.239600  0.532300  0.754900  1.0  0.1018
  H  H43  1  0.603200  0.636600  0.159300  1.0  0.0996
  H  H44  1  0.601300  0.482300  0.042000  1.0  0.0956
  H  H45  1  0.663400  0.062900  0.648200  1.0  0.0973
  H  H46  1  0.131800  0.774700  0.782900  1.0  0.1116
  H  H47  1  0.763000  0.441000  0.033200  1.0  0.0853
  H  H48  1  0.988000  0.156400  0.076200  1.0  0.1119
  H  H49  1  0.930000  0.284300  0.086100  1.0  0.0869
  H  H50  1  0.180800  0.314400  0.000200  1.0  0.1081
  H  H51  1  0.017900  0.409600  0.771300  1.0  0.0901
  H  H52  1  0.405100  0.647000  0.845500  1.0  0.0825
  H  H53  1  0.284300  0.758100  0.323500  1.0  0.1002
  H  H54  1  0.765700  0.599900  0.145400  1.0  0.0956
  H  H55  1  0.234300  0.188500  0.985300  1.0  0.1062
  H  H56  1  0.280500  0.430100  0.703300  1.0  0.1117
  H  H57  1  0.069900  0.283000  0.764500  1.0  0.093
  H  H58  1  0.331500  0.303200  0.696500  1.0  0.1002
  H  H59  1  0.648200  0.344200  0.021700  1.0  0.3376
  H  H60  1  0.562200  0.327400  0.048600  1.0  0.3537
  H  H61  1  0.790200  0.075800  0.909800  1.0  0.3352
  H  H62  1  0.781400  0.138000  0.870700  1.0  0.3446
  H  H63  1  0.586000  0.160700  0.260700  1.0  0.3423
  H  H64  1  0.599000  0.099200  0.300500  1.0  0.3507
  H  H65  1  0.348500  0.114800  0.438800  1.0  0.1027
  H  H66  1  0.305600  0.364400  0.268400  1.0  0.1106
  H  H67  1  0.807200  0.996000  0.272700  1.0  0.0698
  H  H68  1  0.865000  0.280400  0.914300  1.0  0.074
  H  H69  1  0.026600  0.115700  0.612500  1.0  0.0903
  H  H70  1  0.741600  0.881800  0.176300  1.0  0.3461
  H  H71  1  0.740100  0.902800  0.114800  1.0  0.3339
  H  H72  1  0.145300  0.413100  0.281400  1.0  0.0997
  H  H73  1  0.974800  0.153000  0.713000  1.0  0.0996
  H  H74  1  0.186400  0.142000  0.468200  1.0  0.0978
  H  H75  1  0.807300  0.526200  0.862300  1.0  0.108
  H  H76  1  0.904500  0.049100  0.316200  1.0  0.1156
  H  H77  1  0.687700  0.417600  0.187600  1.0  0.1011
  H  H78  1  0.964200  0.347600  0.936900  1.0  0.1147
  H  H79  1  0.766300  0.205100  0.576500  1.0  0.1103
  H  H80  1  0.858300  0.586300  0.935400  1.0  0.1121
  H  H81  1  0.713800  0.451900  0.840600  1.0  0.0749
  H  H82  1  0.082700  0.413900  0.900400  1.0  0.1133
  H  H83  1  0.654400  0.974100  0.431600  1.0  0.0735
  H  H84  1  0.288400  0.240800  0.132100  1.0  0.0975
  H  H85  1  0.804900  0.119600  0.505800  1.0  0.1152
  H  H86  1  0.128000  0.282900  0.149700  1.0  0.0861
  H  H87  1  0.175200  0.967100  0.377500  1.0  0.09
  H  H88  1  0.768400  0.165500  0.185400  1.0  0.0675
  H  H89  1  0.744300  0.026700  0.479300  1.0  0.0934
  H  H90  1  0.022700  0.031500  0.375900  1.0  0.1011
  H  H91  1  0.977400  0.293200  0.203200  1.0  0.0955
  H  H92  1  0.760400  0.467700  0.245100  1.0  0.1016
  H  H93  1  0.396800  0.363400  0.840700  1.0  0.0995
  H  H94  1  0.398700  0.517700  0.958000  1.0  0.0957
  H  H95  1  0.336600  0.937100  0.351800  1.0  0.097
  H  H96  1  0.868200  0.225300  0.217100  1.0  0.1115
  H  H97  1  0.237000  0.559000  0.966800  1.0  0.0857
  H  H98  1  0.012000  0.843600  0.923800  1.0  0.1121
  H  H99  1  0.070000  0.715700  0.913900  1.0  0.0874
  H  H100  1  0.819200  0.685600  0.999800  1.0  0.1081
  H  H101  1  0.982100  0.590400  0.228700  1.0  0.0896
  H  H102  1  0.594900  0.353000  0.154500  1.0  0.082
  H  H103  1  0.715700  0.241900  0.676500  1.0  0.1012
  H  H104  1  0.234300  0.400100  0.854600  1.0  0.0954
  H  H105  1  0.765700  0.811500  0.014700  1.0  0.1058
  H  H106  1  0.719500  0.569900  0.296700  1.0  0.1116
  H  H107  1  0.930100  0.717000  0.235500  1.0  0.0934
  H  H108  1  0.668500  0.696800  0.303500  1.0  0.0996
  C  C109  1  0.362300  0.746540  0.000890  1.0  0.5576
  C  C110  1  0.534400  0.992000  0.627380  1.0  0.7005
  C  C111  1  0.390800  0.927530  0.778200  1.0  0.5536
  C  C112  1  0.686100  0.915510  0.573240  1.0  -0.0376
  C  C113  1  0.729900  0.651200  0.756360  1.0  -0.0837
  C  C114  1  0.579600  0.734290  0.809720  1.0  0.6842
  C  C115  1  0.240600  0.196450  0.727610  1.0  0.6736
  C  C116  1  0.204700  0.998300  0.685210  1.0  0.1628
  C  C117  1  0.146600  0.669480  0.095850  1.0  0.1658
  C  C118  1  0.036000  0.859100  0.374780  1.0  -0.0351
  C  C119  1  0.826500  0.622770  0.748020  1.0  -0.0767
  C  C120  1  0.161300  0.801340  0.294570  1.0  -0.138
  C  C121  1  0.292200  0.842190  0.053380  1.0  0.458
  C  C122  1  0.098200  0.843330  0.416190  1.0  -0.0468
  C  C123  1  0.685000  0.702940  0.801370  1.0  -0.1237
  C  C124  1  0.161900  0.957130  0.596720  1.0  0.0899
  C  C125  1  0.640300  0.976500  0.608050  1.0  -0.171
  C  C126  1  0.067400  0.837300  0.314330  1.0  -0.0501
  C  C127  1  0.783600  0.898900  0.556040  1.0  -0.1017
  C  C128  1  0.179300  0.523690  0.126810  1.0  -0.1976
  C  C129  1  0.145500  0.966200  0.659260  1.0  -0.2133
  C  C130  1  0.293300  0.633800  0.813570  1.0  -0.1673
  C  C131  1  0.086500  0.629790  0.082380  1.0  -0.1989
  C  C132  1  0.327400  0.023270  0.833010  1.0  0.3995
  C  C133  1  0.015500  0.392550  0.059110  1.0  0.245
  C  C134  1  0.051000  0.312070  0.045630  1.0  -0.0271
  C  C135  1  0.191500  0.805700  0.396220  1.0  -0.1334
  C  C136  1  0.077000  0.434550  0.068960  1.0  -0.1166
  C  C137  1  0.882500  0.646520  0.782460  1.0  0.0263
  C  C138  1  0.236100  0.568640  0.139090  1.0  0.1655
  C  C139  1  0.986400  0.616070  0.773930  1.0  0.2927
  C  C140  1  0.103100  0.553590  0.098360  1.0  0.0833
  C  C141  1  0.195200  0.779780  0.228860  1.0  0.6766
  C  C142  1  0.067200  0.873850  0.478900  1.0  0.2031
  C  C143  1  0.943700  0.536540  0.090310  1.0  -0.09
  C  C144  1  0.143900  0.628300  0.779020  1.0  0.0732
  C  C145  1  0.294400  0.010920  0.591720  1.0  0.1622
  C  C146  1  0.740300  0.725600  0.836810  1.0  -0.0762
  C  C147  1  0.130700  0.892290  0.510070  1.0  -0.1248
  C  C148  1  0.836400  0.699380  0.826900  1.0  -0.1289
  C  C149  1  0.790200  0.003200  0.609490  1.0  -0.1241
  C  C150  1  0.246500  0.783010  0.815370  1.0  0.1563
  C  C151  1  0.098000  0.928680  0.565280  1.0  0.0466
  C  C152  1  0.240600  0.979710  0.562720  1.0  -0.2012
  C  C153  1  0.836800  0.942310  0.574400  1.0  -0.0128
  C  C154  1  0.001700  0.944570  0.587090  1.0  -0.1171
  C  C155  1  0.040500  0.508080  0.085340  1.0  0.0405
  C  C156  1  0.047200  0.657860  0.785040  1.0  -0.1292
  C  C157  1  0.175200  0.554610  0.760870  1.0  -0.1172
  C  C158  1  0.782400  0.516850  0.088020  1.0  -0.0548
  C  C159  1  0.941600  0.924590  0.553530  1.0  0.1986
  C  C160  1  0.635100  0.598000  0.133020  1.0  -0.0547
  C  C161  1  0.584700  0.563910  0.102150  1.0  -0.1521
  C  C162  1  0.634000  0.505330  0.063730  1.0  -0.0456
  C  C163  1  0.693600  0.020800  0.625430  1.0  -0.0531
  C  C164  1  0.886000  0.490480  0.081270  1.0  0.239
  C  C165  1  0.186600  0.747400  0.795720  1.0  -0.1828
  C  C166  1  0.208000  0.669940  0.795050  1.0  0.0888
  C  C167  1  0.206200  0.280360  0.730440  1.0  -0.1468
  C  C168  1  0.480600  0.591150  0.106160  1.0  0.6835
  C  C169  1  0.142700  0.433600  0.740390  1.0  -0.0224
  C  C170  1  0.112400  0.514260  0.751570  1.0  0.1455
  C  C171  1  0.731200  0.481340  0.057750  1.0  -0.0692
  C  C172  1  0.026300  0.188380  0.060580  1.0  -0.0487
  C  C173  1  0.992100  0.264920  0.067230  1.0  -0.0704
  C  C174  1  0.141400  0.283100  0.015220  1.0  -0.1251
  C  C175  1  0.117700  0.160900  0.030480  1.0  -0.0839
  C  C176  1  0.081500  0.388600  0.756910  1.0  -0.0387
  C  C177  1  0.349000  0.672700  0.833270  1.0  0.151
  C  C178  1  0.222100  0.784300  0.336060  1.0  -0.0506
  C  C179  1  0.732800  0.575300  0.125170  1.0  -0.1063
  C  C180  1  0.173900  0.207600  0.006970  1.0  -0.0568
  C  C181  1  0.238100  0.400600  0.716300  1.0  -0.1608
  C  C182  1  0.112500  0.312600  0.752530  1.0  -0.0531
  C  C183  1  0.268400  0.324600  0.712000  1.0  -0.0435
  C  C184  1  0.154700  0.079100  0.024100  1.0  0.7125
  C  C185  1  0.637700  0.253460  0.999110  1.0  0.56
  C  C186  1  0.465600  0.008000  0.372620  1.0  0.7011
  C  C187  1  0.609200  0.072470  0.221800  1.0  0.5535
  C  C188  1  0.313900  0.084490  0.426760  1.0  -0.0365
  C  C189  1  0.270100  0.348800  0.243640  1.0  -0.0882
  C  C190  1  0.420400  0.265710  0.190280  1.0  0.6852
  C  C191  1  0.759400  0.803550  0.272390  1.0  0.6742
  C  C192  1  0.795300  0.001700  0.314790  1.0  0.1627
  C  C193  1  0.853400  0.330520  0.904150  1.0  0.164
  C  C194  1  0.964000  0.140900  0.625220  1.0  -0.0357
  C  C195  1  0.173500  0.377230  0.251980  1.0  -0.0798
  C  C196  1  0.838700  0.198660  0.705430  1.0  -0.1372
  C  C197  1  0.707800  0.157810  0.946620  1.0  0.4595
  C  C198  1  0.901800  0.156670  0.583810  1.0  -0.0452
  C  C199  1  0.315000  0.297060  0.198630  1.0  -0.1244
  C  C200  1  0.838100  0.042870  0.403280  1.0  0.091
  C  C201  1  0.359700  0.023500  0.391950  1.0  -0.1689
  C  C202  1  0.932600  0.162700  0.685670  1.0  -0.0514
  C  C203  1  0.216400  0.101100  0.443960  1.0  -0.0984
  C  C204  1  0.820700  0.476310  0.873190  1.0  -0.1948
  C  C205  1  0.854500  0.033800  0.340740  1.0  -0.2132
  C  C206  1  0.706700  0.366200  0.186430  1.0  -0.1687
  C  C207  1  0.913500  0.370210  0.917620  1.0  -0.1987
  C  C208  1  0.672600  0.976730  0.166990  1.0  0.3996
  C  C209  1  0.984500  0.607450  0.940890  1.0  0.2435
  C  C210  1  0.949000  0.687930  0.954370  1.0  -0.0277
  C  C211  1  0.808500  0.194300  0.603780  1.0  -0.1314
  C  C212  1  0.923000  0.565450  0.931040  1.0  -0.1181
  C  C213  1  0.117500  0.353480  0.217540  1.0  0.0257
  C  C214  1  0.763900  0.431360  0.860910  1.0  0.1653
  C  C215  1  0.013600  0.383930  0.226070  1.0  0.2961
  C  C216  1  0.896900  0.446410  0.901640  1.0  0.0827
  C  C217  1  0.804800  0.220220  0.771140  1.0  0.6757
  C  C218  1  0.932800  0.126150  0.521100  1.0  0.2052
  C  C219  1  0.056300  0.463460  0.909690  1.0  -0.0898
  C  C220  1  0.856100  0.371700  0.220980  1.0  0.0743
  C  C221  1  0.705600  0.989080  0.408280  1.0  0.1619
  C  C222  1  0.259700  0.274400  0.163190  1.0  -0.077
  C  C223  1  0.869300  0.107710  0.489930  1.0  -0.1243
  C  C224  1  0.163600  0.300620  0.173100  1.0  -0.1288
  C  C225  1  0.209800  0.996800  0.390510  1.0  -0.1218
  C  C226  1  0.753500  0.216990  0.184630  1.0  0.155
  C  C227  1  0.902000  0.071320  0.434720  1.0  0.0453
  C  C228  1  0.759400  0.020290  0.437280  1.0  -0.2003
  C  C229  1  0.163200  0.057690  0.425600  1.0  -0.0131
  C  C230  1  0.998300  0.055430  0.412910  1.0  -0.1148
  C  C231  1  0.959500  0.491920  0.914660  1.0  0.041
  C  C232  1  0.952800  0.342140  0.214960  1.0  -0.1321
  C  C233  1  0.824800  0.445390  0.239130  1.0  -0.1201
  C  C234  1  0.217600  0.483150  0.911980  1.0  -0.0562
  C  C235  1  0.058400  0.075410  0.446470  1.0  0.1977
  C  C236  1  0.364900  0.402000  0.866980  1.0  -0.0543
  C  C237  1  0.415300  0.436090  0.897850  1.0  -0.1524
  C  C238  1  0.366000  0.494670  0.936270  1.0  -0.0455
  C  C239  1  0.306400  0.979200  0.374570  1.0  -0.0532
  C  C240  1  0.114000  0.509520  0.918730  1.0  0.2387
  C  C241  1  0.813400  0.252600  0.204280  1.0  -0.185
  C  C242  1  0.792000  0.330060  0.204950  1.0  0.0891
  C  C243  1  0.793800  0.719640  0.269560  1.0  -0.1446
  C  C244  1  0.519400  0.408850  0.893840  1.0  0.6845
  C  C245  1  0.857300  0.566400  0.259610  1.0  -0.018
  C  C246  1  0.887600  0.485740  0.248430  1.0  0.1503
  C  C247  1  0.268800  0.518660  0.942250  1.0  -0.0689
  C  C248  1  0.973700  0.811620  0.939420  1.0  -0.0515
  C  C249  1  0.007900  0.735080  0.932770  1.0  -0.0714
  C  C250  1  0.858600  0.716900  0.984780  1.0  -0.1257
  C  C251  1  0.882300  0.839100  0.969520  1.0  -0.0839
  C  C252  1  0.918500  0.611400  0.243090  1.0  -0.0364
  C  C253  1  0.651000  0.327300  0.166730  1.0  0.1507
  C  C254  1  0.777900  0.215700  0.663940  1.0  -0.0505
  C  C255  1  0.267200  0.424700  0.874830  1.0  -0.1027
  C  C256  1  0.826100  0.792400  0.993030  1.0  -0.0573
  C  C257  1  0.761900  0.599400  0.283700  1.0  -0.1625
  C  C258  1  0.887500  0.687400  0.247470  1.0  -0.0543
  C  C259  1  0.731600  0.675400  0.288000  1.0  -0.0454
  C  C260  1  0.845300  0.920900  0.975900  1.0  0.7111
  N  N261  1  0.361000  0.002010  0.773390  1.0  -0.5205
  N  N262  1  0.277400  0.021360  0.652730  1.0  -0.339
  N  N263  1  0.397000  0.674500  0.984750  1.0  -0.6674
  N  N264  1  0.319500  0.766600  0.058560  1.0  -0.5124
  N  N265  1  0.379000  0.903070  0.835420  1.0  -0.3938
  N  N266  1  0.221500  0.639670  0.122960  1.0  -0.3242
  N  N267  1  0.315600  0.866340  0.997870  1.0  -0.3272
  N  N268  1  0.325400  0.747190  0.835610  1.0  -0.3461
  N  N269  1  0.337400  0.967170  0.871220  1.0  -0.3356
  N  N270  1  0.361900  0.802230  0.962810  1.0  -0.3597
  N  N271  1  0.248900  0.886280  0.102240  1.0  -0.7035
  N  N272  1  0.426800  0.881640  0.730210  1.0  -0.677
  N  N273  1  0.973300  0.889410  0.499750  1.0  -0.3032
  N  N274  1  0.921900  0.419320  0.065770  1.0  -0.4972
  N  N275  1  0.017900  0.545180  0.757570  1.0  -0.2999
  N  N276  1  0.293500  0.095050  0.849100  1.0  -0.667
  N  N277  1  0.639000  0.997990  0.226610  1.0  -0.5208
  N  N278  1  0.722600  0.978640  0.347270  1.0  -0.3397
  N  N279  1  0.603000  0.325500  0.015250  1.0  -0.668
  N  N280  1  0.680500  0.233400  0.941440  1.0  -0.513
  N  N281  1  0.621000  0.096930  0.164580  1.0  -0.3931
  N  N282  1  0.778500  0.360330  0.877040  1.0  -0.3245
  N  N283  1  0.684400  0.133660  0.002130  1.0  -0.3261
  N  N284  1  0.674600  0.252810  0.164390  1.0  -0.3472
  N  N285  1  0.662600  0.032830  0.128780  1.0  -0.3329
  N  N286  1  0.638100  0.197770  0.037190  1.0  -0.3585
  N  N287  1  0.751100  0.113720  0.897760  1.0  -0.7059
  N  N288  1  0.573200  0.118360  0.269790  1.0  -0.681
  N  N289  1  0.026700  0.110590  0.500250  1.0  -0.305
  N  N290  1  0.078100  0.580680  0.934230  1.0  -0.4917
  N  N291  1  0.982100  0.454820  0.242430  1.0  -0.2977
  N  N292  1  0.706500  0.904950  0.150900  1.0  -0.6677
  O  O293  1  0.141490  0.797780  0.190630  1.0  -0.5557
  O  O294  1  0.129400  0.034020  0.063480  1.0  -0.5243
  O  O295  1  0.537780  0.736320  0.766360  1.0  -0.5523
  O  O296  1  0.440890  0.647210  0.139070  1.0  -0.6048
  O  O297  1  0.185340  0.157740  0.749540  1.0  -0.5461
  O  O298  1  0.324930  0.171150  0.703360  1.0  -0.598
  O  O299  1  0.539720  0.758670  0.862610  1.0  -0.5937
  O  O300  1  0.281500  0.743010  0.214960  1.0  -0.6207
  O  O301  1  0.495120  0.050810  0.657650  1.0  -0.5941
  O  O302  1  0.437570  0.560970  0.075120  1.0  -0.5717
  O  O303  1  0.215600  0.058780  0.975390  1.0  -0.6165
  O  O304  1  0.491990  0.946380  0.615860  1.0  -0.5456
  O  O305  1  0.858510  0.202220  0.809370  1.0  -0.5565
  O  O306  1  0.870600  0.965980  0.936520  1.0  -0.5263
  O  O307  1  0.462220  0.263680  0.233640  1.0  -0.5537
  O  O308  1  0.559110  0.352790  0.860930  1.0  -0.6053
  O  O309  1  0.814660  0.842260  0.250460  1.0  -0.546
  O  O310  1  0.675070  0.828850  0.296640  1.0  -0.5971
  O  O311  1  0.460280  0.241330  0.137390  1.0  -0.5937
  O  O312  1  0.718500  0.256990  0.785040  1.0  -0.621
  O  O313  1  0.504880  0.949190  0.342350  1.0  -0.5946
  O  O314  1  0.562430  0.439030  0.924880  1.0  -0.5722
  O  O315  1  0.784400  0.941220  0.024610  1.0  -0.617
  O  O316  1  0.508010  0.053620  0.384140  1.0  -0.5444
