# generated using pymatgen
data_GaH5C8O5
_symmetry_space_group_name_H-M   'P 1'
_cell_length_a   6.71200000
_cell_length_b   11.24860000
_cell_length_c   17.96500000
_cell_angle_alpha   90.00000000
_cell_angle_beta   91.97500000
_cell_angle_gamma   90.00000000
_symmetry_Int_Tables_number   1
_chemical_formula_structural   GaH5C8O5
_chemical_formula_sum   'Ga4 H20 C32 O20'
_cell_volume   1355.56259898
_cell_formula_units_Z   4
loop_
 _symmetry_equiv_pos_site_id
 _symmetry_equiv_pos_as_xyz
  1  'x, y, z'
loop_
 _atom_site_type_symbol
 _atom_site_label
 _atom_site_symmetry_multiplicity
 _atom_site_fract_x
 _atom_site_fract_y
 _atom_site_fract_z
 _atom_site_occupancy
 _atom_site_charge
  Ga  Ga1  1  0.500000  0.000000  0.500000  1.0  1.6061
  Ga  Ga2  1  0.000000  0.500000  0.000000  1.0  1.6061
  Ga  Ga3  1  0.000000  0.000000  0.500000  1.0  1.6061
  Ga  Ga4  1  0.500000  0.500000  0.000000  1.0  1.6061
  H  H5  1  0.554600  0.790000  0.323700  1.0  0.1098
  H  H6  1  0.569700  0.689000  0.201800  1.0  0.1093
  H  H7  1  0.250000  0.334200  0.000000  1.0  0.4265
  H  H8  1  0.054600  0.290000  0.823700  1.0  0.1098
  H  H9  1  0.069700  0.189000  0.701800  1.0  0.1093
  H  H10  1  0.750000  0.834200  0.500000  1.0  0.4265
  H  H11  1  0.945400  0.790000  0.676300  1.0  0.11
  H  H12  1  0.930300  0.689000  0.798200  1.0  0.1093
  H  H13  1  0.445400  0.290000  0.176300  1.0  0.11
  H  H14  1  0.430300  0.189000  0.298200  1.0  0.1093
  H  H15  1  0.445400  0.210000  0.676300  1.0  0.1102
  H  H16  1  0.430300  0.311000  0.798200  1.0  0.1094
  H  H17  1  0.945400  0.710000  0.176300  1.0  0.1102
  H  H18  1  0.930300  0.811000  0.298200  1.0  0.1094
  H  H19  1  0.250000  0.165800  0.500000  1.0  0.4287
  H  H20  1  0.054600  0.210000  0.323700  1.0  0.1097
  H  H21  1  0.069700  0.311000  0.201800  1.0  0.1091
  H  H22  1  0.750000  0.665800  0.000000  1.0  0.4287
  H  H23  1  0.554600  0.710000  0.823700  1.0  0.1097
  H  H24  1  0.569700  0.811000  0.701800  1.0  0.1091
  C  C25  1  0.238000  0.869200  0.394600  1.0  0.7199
  C  C26  1  0.240300  0.803000  0.318700  1.0  -0.0933
  C  C27  1  0.071600  0.783400  0.277800  1.0  -0.114
  C  C28  1  0.080600  0.728600  0.208200  1.0  -0.0892
  C  C29  1  0.738000  0.369200  0.894600  1.0  0.7199
  C  C30  1  0.740300  0.303000  0.818700  1.0  -0.0933
  C  C31  1  0.571600  0.283400  0.777800  1.0  -0.114
  C  C32  1  0.580600  0.228600  0.708200  1.0  -0.0892
  C  C33  1  0.262000  0.869200  0.605400  1.0  0.72
  C  C34  1  0.259700  0.803000  0.681300  1.0  -0.0935
  C  C35  1  0.428400  0.783400  0.722200  1.0  -0.114
  C  C36  1  0.419400  0.728600  0.791800  1.0  -0.0878
  C  C37  1  0.762000  0.369200  0.105400  1.0  0.72
  C  C38  1  0.759700  0.303000  0.181300  1.0  -0.0935
  C  C39  1  0.928400  0.283400  0.222200  1.0  -0.114
  C  C40  1  0.919400  0.228600  0.291800  1.0  -0.0878
  C  C41  1  0.762000  0.130800  0.605400  1.0  0.7194
  C  C42  1  0.759700  0.197000  0.681300  1.0  -0.0937
  C  C43  1  0.928400  0.216600  0.722200  1.0  -0.1147
  C  C44  1  0.919400  0.271400  0.791800  1.0  -0.0878
  C  C45  1  0.262000  0.630800  0.105400  1.0  0.7194
  C  C46  1  0.259700  0.697000  0.181300  1.0  -0.0937
  C  C47  1  0.428400  0.716600  0.222200  1.0  -0.1147
  C  C48  1  0.419400  0.771400  0.291800  1.0  -0.0878
  C  C49  1  0.738000  0.130800  0.394600  1.0  0.7188
  C  C50  1  0.740300  0.197000  0.318700  1.0  -0.0933
  C  C51  1  0.571600  0.216600  0.277800  1.0  -0.1143
  C  C52  1  0.580600  0.271400  0.208200  1.0  -0.0888
  C  C53  1  0.238000  0.630800  0.894600  1.0  0.7188
  C  C54  1  0.240300  0.697000  0.818700  1.0  -0.0933
  C  C55  1  0.071600  0.716600  0.777800  1.0  -0.1143
  C  C56  1  0.080600  0.771400  0.708200  1.0  -0.0888
  O  O57  1  0.394400  0.878500  0.427500  1.0  -0.5929
  O  O58  1  0.430200  0.598000  0.087500  1.0  -0.6119
  O  O59  1  0.894400  0.378500  0.927500  1.0  -0.5929
  O  O60  1  0.930200  0.098000  0.587500  1.0  -0.6119
  O  O61  1  0.105600  0.878500  0.572500  1.0  -0.5929
  O  O62  1  0.069800  0.598000  0.912500  1.0  -0.6116
  O  O63  1  0.605600  0.378500  0.072500  1.0  -0.5929
  O  O64  1  0.569800  0.098000  0.412500  1.0  -0.6116
  O  O65  1  0.605600  0.121500  0.572500  1.0  -0.5925
  O  O66  1  0.569800  0.402000  0.912500  1.0  -0.6121
  O  O67  1  0.105600  0.621500  0.072500  1.0  -0.5925
  O  O68  1  0.069800  0.902000  0.412500  1.0  -0.6121
  O  O69  1  0.894400  0.121500  0.427500  1.0  -0.5928
  O  O70  1  0.930200  0.402000  0.087500  1.0  -0.6119
  O  O71  1  0.394400  0.621500  0.927500  1.0  -0.5928
  O  O72  1  0.430200  0.902000  0.587500  1.0  -0.6119
  O  O73  1  0.250000  0.076900  0.500000  1.0  -0.9071
  O  O74  1  0.750000  0.576900  0.000000  1.0  -0.9071
  O  O75  1  0.750000  0.923100  0.500000  1.0  -0.912
  O  O76  1  0.250000  0.423100  0.000000  1.0  -0.912
