# generated using pymatgen
data_CeCu3(CO2)9
_symmetry_space_group_name_H-M   'P 1'
_cell_length_a   17.61800000
_cell_length_b   17.61800000
_cell_length_c   17.61800000
_cell_angle_alpha   90.00000000
_cell_angle_beta   90.00000000
_cell_angle_gamma   90.00000000
_symmetry_Int_Tables_number   1
_chemical_formula_structural   CeCu3(CO2)9
_chemical_formula_sum   'Ce4 Cu12 C36 O72'
_cell_volume   5468.52015303
_cell_formula_units_Z   4
loop_
 _symmetry_equiv_pos_site_id
 _symmetry_equiv_pos_as_xyz
  1  'x, y, z'
loop_
 _atom_site_type_symbol
 _atom_site_label
 _atom_site_symmetry_multiplicity
 _atom_site_fract_x
 _atom_site_fract_y
 _atom_site_fract_z
 _atom_site_occupancy
 _atom_site_charge
  Ce  Ce1  1  0.397260  0.397260  0.397260  1.0  2.1284
  Ce  Ce2  1  0.102740  0.602740  0.897260  1.0  2.1298
  Ce  Ce3  1  0.602740  0.897260  0.102740  1.0  2.1292
  Ce  Ce4  1  0.897260  0.102740  0.602740  1.0  2.1315
  Cu  Cu5  1  0.499980  0.092040  0.349450  1.0  0.9195
  Cu  Cu6  1  0.000020  0.907960  0.849450  1.0  0.9186
  Cu  Cu7  1  0.500020  0.592040  0.150550  1.0  0.919
  Cu  Cu8  1  0.999980  0.407960  0.650550  1.0  0.9197
  Cu  Cu9  1  0.349450  0.499980  0.092040  1.0  0.9202
  Cu  Cu10  1  0.849450  0.000020  0.907960  1.0  0.9193
  Cu  Cu11  1  0.150550  0.500020  0.592040  1.0  0.919
  Cu  Cu12  1  0.650550  0.999980  0.407960  1.0  0.9197
  Cu  Cu13  1  0.092040  0.349450  0.499980  1.0  0.9198
  Cu  Cu14  1  0.907960  0.849450  0.000020  1.0  0.9185
  Cu  Cu15  1  0.592040  0.150550  0.500020  1.0  0.9215
  Cu  Cu16  1  0.407960  0.650550  0.999980  1.0  0.9179
  C  C17  1  0.487000  0.259200  0.496900  1.0  0.6835
  C  C18  1  0.490400  0.234100  0.413200  1.0  0.2625
  C  C19  1  0.410900  0.208400  0.386400  1.0  0.6903
  C  C20  1  0.013000  0.740800  0.996900  1.0  0.6838
  C  C21  1  0.009600  0.765900  0.913200  1.0  0.2622
  C  C22  1  0.089100  0.791600  0.886400  1.0  0.6906
  C  C23  1  0.513000  0.759200  0.003100  1.0  0.6867
  C  C24  1  0.509600  0.734100  0.086800  1.0  0.2632
  C  C25  1  0.589100  0.708400  0.113600  1.0  0.6911
  C  C26  1  0.987000  0.240800  0.503100  1.0  0.6864
  C  C27  1  0.990400  0.265900  0.586800  1.0  0.2636
  C  C28  1  0.910900  0.291600  0.613600  1.0  0.6907
  C  C29  1  0.496900  0.487000  0.259200  1.0  0.6846
  C  C30  1  0.413200  0.490400  0.234100  1.0  0.2637
  C  C31  1  0.386400  0.410900  0.208400  1.0  0.6894
  C  C32  1  0.996900  0.013000  0.740800  1.0  0.6849
  C  C33  1  0.913200  0.009600  0.765900  1.0  0.2648
  C  C34  1  0.886400  0.089100  0.791600  1.0  0.6887
  C  C35  1  0.003100  0.513000  0.759200  1.0  0.6863
  C  C36  1  0.086800  0.509600  0.734100  1.0  0.2652
  C  C37  1  0.113600  0.589100  0.708400  1.0  0.6894
  C  C38  1  0.503100  0.987000  0.240800  1.0  0.688
  C  C39  1  0.586800  0.990400  0.265900  1.0  0.2652
  C  C40  1  0.613600  0.910900  0.291600  1.0  0.6901
  C  C41  1  0.259200  0.496900  0.487000  1.0  0.6827
  C  C42  1  0.234100  0.413200  0.490400  1.0  0.263
  C  C43  1  0.208400  0.386400  0.410900  1.0  0.6952
  C  C44  1  0.740800  0.996900  0.013000  1.0  0.6823
  C  C45  1  0.765900  0.913200  0.009600  1.0  0.2633
  C  C46  1  0.791600  0.886400  0.089100  1.0  0.6951
  C  C47  1  0.759200  0.003100  0.513000  1.0  0.6837
  C  C48  1  0.734100  0.086800  0.509600  1.0  0.2633
  C  C49  1  0.708400  0.113600  0.589100  1.0  0.6939
  C  C50  1  0.240800  0.503100  0.987000  1.0  0.6827
  C  C51  1  0.265900  0.586800  0.990400  1.0  0.2626
  C  C52  1  0.291600  0.613600  0.910900  1.0  0.693
  O  O53  1  0.403190  0.141500  0.367200  1.0  -0.4678
  O  O54  1  0.544040  0.177050  0.403560  1.0  -0.6089
  O  O55  1  0.360560  0.257130  0.387400  1.0  -0.5038
  O  O56  1  0.507820  0.299300  0.371200  1.0  -0.6055
  O  O57  1  0.450600  0.319000  0.509400  1.0  -0.6032
  O  O58  1  0.518300  0.218500  0.545700  1.0  -0.4785
  O  O59  1  0.096810  0.858500  0.867200  1.0  -0.4631
  O  O60  1  0.955960  0.822950  0.903560  1.0  -0.6082
  O  O61  1  0.139440  0.742870  0.887400  1.0  -0.5047
  O  O62  1  0.992180  0.700700  0.871200  1.0  -0.6041
  O  O63  1  0.049400  0.681000  0.009400  1.0  -0.6066
  O  O64  1  0.981700  0.781500  0.045700  1.0  -0.4759
  O  O65  1  0.596810  0.641500  0.132800  1.0  -0.4661
  O  O66  1  0.455960  0.677050  0.096440  1.0  -0.6098
  O  O67  1  0.639440  0.757130  0.112600  1.0  -0.5046
  O  O68  1  0.492180  0.799300  0.128800  1.0  -0.6041
  O  O69  1  0.549400  0.819000  0.990600  1.0  -0.6038
  O  O70  1  0.481700  0.718500  0.954300  1.0  -0.4765
  O  O71  1  0.903190  0.358500  0.632800  1.0  -0.466
  O  O72  1  0.044040  0.322950  0.596440  1.0  -0.6099
  O  O73  1  0.860560  0.242870  0.612600  1.0  -0.5062
  O  O74  1  0.007820  0.200700  0.628800  1.0  -0.6068
  O  O75  1  0.950600  0.181000  0.490600  1.0  -0.6032
  O  O76  1  0.018300  0.281500  0.454300  1.0  -0.4737
  O  O77  1  0.367200  0.403190  0.141500  1.0  -0.4675
  O  O78  1  0.403560  0.544040  0.177050  1.0  -0.6098
  O  O79  1  0.387400  0.360560  0.257130  1.0  -0.5043
  O  O80  1  0.371200  0.507820  0.299300  1.0  -0.6066
  O  O81  1  0.509400  0.450600  0.319000  1.0  -0.6089
  O  O82  1  0.545700  0.518300  0.218500  1.0  -0.4808
  O  O83  1  0.867200  0.096810  0.858500  1.0  -0.4604
  O  O84  1  0.903560  0.955960  0.822950  1.0  -0.6062
  O  O85  1  0.887400  0.139440  0.742870  1.0  -0.5059
  O  O86  1  0.871200  0.992180  0.700700  1.0  -0.6092
  O  O87  1  0.009400  0.049400  0.681000  1.0  -0.6114
  O  O88  1  0.045700  0.981700  0.781500  1.0  -0.4766
  O  O89  1  0.132800  0.596810  0.641500  1.0  -0.4648
  O  O90  1  0.096440  0.455960  0.677050  1.0  -0.6064
  O  O91  1  0.112600  0.639440  0.757130  1.0  -0.5061
  O  O92  1  0.128800  0.492180  0.799300  1.0  -0.6082
  O  O93  1  0.990600  0.549400  0.819000  1.0  -0.6077
  O  O94  1  0.954300  0.481700  0.718500  1.0  -0.4805
  O  O95  1  0.632800  0.903190  0.358500  1.0  -0.4624
  O  O96  1  0.596440  0.044040  0.322950  1.0  -0.6084
  O  O97  1  0.612600  0.860560  0.242870  1.0  -0.5068
  O  O98  1  0.628800  0.007820  0.200700  1.0  -0.6099
  O  O99  1  0.490600  0.950600  0.181000  1.0  -0.6097
  O  O100  1  0.454300  0.018300  0.281500  1.0  -0.478
  O  O101  1  0.141500  0.367200  0.403190  1.0  -0.4678
  O  O102  1  0.177050  0.403560  0.544040  1.0  -0.6074
  O  O103  1  0.257130  0.387400  0.360560  1.0  -0.5043
  O  O104  1  0.299300  0.371200  0.507820  1.0  -0.6036
  O  O105  1  0.319000  0.509400  0.450600  1.0  -0.6072
  O  O106  1  0.218500  0.545700  0.518300  1.0  -0.4804
  O  O107  1  0.858500  0.867200  0.096810  1.0  -0.4625
  O  O108  1  0.822950  0.903560  0.955960  1.0  -0.6089
  O  O109  1  0.742870  0.887400  0.139440  1.0  -0.5045
  O  O110  1  0.700700  0.871200  0.992180  1.0  -0.6031
  O  O111  1  0.681000  0.009400  0.049400  1.0  -0.608
  O  O112  1  0.781500  0.045700  0.981700  1.0  -0.4776
  O  O113  1  0.641500  0.132800  0.596810  1.0  -0.4649
  O  O114  1  0.677050  0.096440  0.455960  1.0  -0.6085
  O  O115  1  0.757130  0.112600  0.639440  1.0  -0.5052
  O  O116  1  0.799300  0.128800  0.492180  1.0  -0.6056
  O  O117  1  0.819000  0.990600  0.549400  1.0  -0.6064
  O  O118  1  0.718500  0.954300  0.481700  1.0  -0.4814
  O  O119  1  0.358500  0.632800  0.903190  1.0  -0.4645
  O  O120  1  0.322950  0.596440  0.044040  1.0  -0.6101
  O  O121  1  0.242870  0.612600  0.860560  1.0  -0.504
  O  O122  1  0.200700  0.628800  0.007820  1.0  -0.6007
  O  O123  1  0.181000  0.490600  0.950600  1.0  -0.6061
  O  O124  1  0.281500  0.454300  0.018300  1.0  -0.4772
