# generated using pymatgen
data_PrCu3(CO2)9
_symmetry_space_group_name_H-M   'P 1'
_cell_length_a   17.58000000
_cell_length_b   17.58000000
_cell_length_c   17.58000000
_cell_angle_alpha   90.00000000
_cell_angle_beta   90.00000000
_cell_angle_gamma   90.00000000
_symmetry_Int_Tables_number   1
_chemical_formula_structural   PrCu3(CO2)9
_chemical_formula_sum   'Pr4 Cu12 C36 O72'
_cell_volume   5433.21151200
_cell_formula_units_Z   4
loop_
 _symmetry_equiv_pos_site_id
 _symmetry_equiv_pos_as_xyz
  1  'x, y, z'
loop_
 _atom_site_type_symbol
 _atom_site_label
 _atom_site_symmetry_multiplicity
 _atom_site_fract_x
 _atom_site_fract_y
 _atom_site_fract_z
 _atom_site_occupancy
 _atom_site_charge
  Pr  Pr1  1  0.398640  0.101360  0.898640  1.0  2.0801
  Pr  Pr2  1  0.101360  0.898640  0.398640  1.0  2.0793
  Pr  Pr3  1  0.601360  0.601360  0.601360  1.0  2.0796
  Pr  Pr4  1  0.898640  0.398640  0.101360  1.0  2.0796
  Cu  Cu5  1  0.501270  0.405560  0.848040  1.0  0.8749
  Cu  Cu6  1  0.998730  0.594440  0.348040  1.0  0.8756
  Cu  Cu7  1  0.498730  0.905560  0.651960  1.0  0.8758
  Cu  Cu8  1  0.001270  0.094440  0.151960  1.0  0.8755
  Cu  Cu9  1  0.848040  0.501270  0.405560  1.0  0.8753
  Cu  Cu10  1  0.348040  0.998730  0.594440  1.0  0.8745
  Cu  Cu11  1  0.651960  0.498730  0.905560  1.0  0.8752
  Cu  Cu12  1  0.151960  0.001270  0.094440  1.0  0.8768
  Cu  Cu13  1  0.405560  0.848040  0.501270  1.0  0.8763
  Cu  Cu14  1  0.594440  0.348040  0.998730  1.0  0.8771
  Cu  Cu15  1  0.905560  0.651960  0.498730  1.0  0.876
  Cu  Cu16  1  0.094440  0.151960  0.001270  1.0  0.8771
  C  C17  1  0.492300  0.263700  0.909000  1.0  0.355
  C  C18  1  0.413600  0.289800  0.885300  1.0  0.7079
  C  C19  1  0.487100  0.242300  0.000400  1.0  0.5773
  C  C20  1  0.007700  0.736300  0.409000  1.0  0.3547
  C  C21  1  0.086400  0.710200  0.385300  1.0  0.7034
  C  C22  1  0.012900  0.757700  0.500400  1.0  0.5776
  C  C23  1  0.507700  0.763700  0.591000  1.0  0.3554
  C  C24  1  0.586400  0.789800  0.614700  1.0  0.7042
  C  C25  1  0.512900  0.742300  0.499600  1.0  0.5821
  C  C26  1  0.992300  0.236300  0.091000  1.0  0.3557
  C  C27  1  0.913600  0.210200  0.114700  1.0  0.7062
  C  C28  1  0.987100  0.257700  0.999600  1.0  0.5807
  C  C29  1  0.909000  0.492300  0.263700  1.0  0.3555
  C  C30  1  0.885300  0.413600  0.289800  1.0  0.704
  C  C31  1  0.000400  0.487100  0.242300  1.0  0.5762
  C  C32  1  0.409000  0.007700  0.736300  1.0  0.3569
  C  C33  1  0.385300  0.086400  0.710200  1.0  0.7046
  C  C34  1  0.500400  0.012900  0.757700  1.0  0.5763
  C  C35  1  0.591000  0.507700  0.763700  1.0  0.3568
  C  C36  1  0.614700  0.586400  0.789800  1.0  0.7028
  C  C37  1  0.499600  0.512900  0.742300  1.0  0.5772
  C  C38  1  0.091000  0.992300  0.236300  1.0  0.3548
  C  C39  1  0.114700  0.913600  0.210200  1.0  0.7027
  C  C40  1  0.999600  0.987100  0.257700  1.0  0.5771
  C  C41  1  0.263700  0.909000  0.492300  1.0  0.356
  C  C42  1  0.289800  0.885300  0.413600  1.0  0.708
  C  C43  1  0.242300  0.000400  0.487100  1.0  0.5772
  C  C44  1  0.736300  0.409000  0.007700  1.0  0.3553
  C  C45  1  0.710200  0.385300  0.086400  1.0  0.708
  C  C46  1  0.757700  0.500400  0.012900  1.0  0.5773
  C  C47  1  0.763700  0.591000  0.507700  1.0  0.3553
  C  C48  1  0.789800  0.614700  0.586400  1.0  0.7075
  C  C49  1  0.742300  0.499600  0.512900  1.0  0.5785
  C  C50  1  0.236300  0.091000  0.992300  1.0  0.3554
  C  C51  1  0.210200  0.114700  0.913600  1.0  0.7096
  C  C52  1  0.257700  0.999600  0.987100  1.0  0.5783
  O  O53  1  0.546100  0.322200  0.902100  1.0  -0.6176
  O  O54  1  0.509000  0.198700  0.873100  1.0  -0.618
  O  O55  1  0.453100  0.176500  0.012100  1.0  -0.554
  O  O56  1  0.360800  0.240200  0.889000  1.0  -0.5414
  O  O57  1  0.401900  0.356000  0.867600  1.0  -0.4575
  O  O58  1  0.519100  0.281100  0.046300  1.0  -0.4174
  O  O59  1  0.953900  0.677800  0.402100  1.0  -0.6198
  O  O60  1  0.991000  0.801300  0.373100  1.0  -0.62
  O  O61  1  0.046900  0.823500  0.512100  1.0  -0.5522
  O  O62  1  0.139200  0.759800  0.389000  1.0  -0.5396
  O  O63  1  0.098100  0.644000  0.367600  1.0  -0.4575
  O  O64  1  0.980900  0.718900  0.546300  1.0  -0.4179
  O  O65  1  0.453900  0.822200  0.597900  1.0  -0.6202
  O  O66  1  0.491000  0.698700  0.626900  1.0  -0.6143
  O  O67  1  0.546900  0.676500  0.487900  1.0  -0.5548
  O  O68  1  0.639200  0.740200  0.611000  1.0  -0.5401
  O  O69  1  0.598100  0.856000  0.632400  1.0  -0.4562
  O  O70  1  0.480900  0.781100  0.453700  1.0  -0.4162
  O  O71  1  0.046100  0.177800  0.097900  1.0  -0.6181
  O  O72  1  0.009000  0.301300  0.126900  1.0  -0.6186
  O  O73  1  0.953100  0.323500  0.987900  1.0  -0.5544
  O  O74  1  0.860800  0.259800  0.111000  1.0  -0.5394
  O  O75  1  0.901900  0.144000  0.132400  1.0  -0.4554
  O  O76  1  0.019100  0.218900  0.953700  1.0  -0.4132
  O  O77  1  0.902100  0.546100  0.322200  1.0  -0.6187
  O  O78  1  0.873100  0.509000  0.198700  1.0  -0.6198
  O  O79  1  0.012100  0.453100  0.176500  1.0  -0.5585
  O  O80  1  0.889000  0.360800  0.240200  1.0  -0.5465
  O  O81  1  0.867600  0.401900  0.356000  1.0  -0.4542
  O  O82  1  0.046300  0.519100  0.281100  1.0  -0.4216
  O  O83  1  0.402100  0.953900  0.677800  1.0  -0.6179
  O  O84  1  0.373100  0.991000  0.801300  1.0  -0.6196
  O  O85  1  0.512100  0.046900  0.823500  1.0  -0.5548
  O  O86  1  0.389000  0.139200  0.759800  1.0  -0.5451
  O  O87  1  0.367600  0.098100  0.644000  1.0  -0.4569
  O  O88  1  0.546300  0.980900  0.718900  1.0  -0.4219
  O  O89  1  0.597900  0.453900  0.822200  1.0  -0.6157
  O  O90  1  0.626900  0.491000  0.698700  1.0  -0.621
  O  O91  1  0.487900  0.546900  0.676500  1.0  -0.5566
  O  O92  1  0.611000  0.639200  0.740200  1.0  -0.5447
  O  O93  1  0.632400  0.598100  0.856000  1.0  -0.4531
  O  O94  1  0.453700  0.480900  0.781100  1.0  -0.4214
  O  O95  1  0.097900  0.046100  0.177800  1.0  -0.6176
  O  O96  1  0.126900  0.009000  0.301300  1.0  -0.6207
  O  O97  1  0.987900  0.953100  0.323500  1.0  -0.5521
  O  O98  1  0.111000  0.860800  0.259800  1.0  -0.5473
  O  O99  1  0.132400  0.901900  0.144000  1.0  -0.4537
  O  O100  1  0.953700  0.019100  0.218900  1.0  -0.4186
  O  O101  1  0.322200  0.902100  0.546100  1.0  -0.6178
  O  O102  1  0.198700  0.873100  0.509000  1.0  -0.6159
  O  O103  1  0.176500  0.012100  0.453100  1.0  -0.5553
  O  O104  1  0.240200  0.889000  0.360800  1.0  -0.5436
  O  O105  1  0.356000  0.867600  0.401900  1.0  -0.4555
  O  O106  1  0.281100  0.046300  0.519100  1.0  -0.4163
  O  O107  1  0.677800  0.402100  0.953900  1.0  -0.6183
  O  O108  1  0.801300  0.373100  0.991000  1.0  -0.6169
  O  O109  1  0.823500  0.512100  0.046900  1.0  -0.5559
  O  O110  1  0.759800  0.389000  0.139200  1.0  -0.5457
  O  O111  1  0.644000  0.367600  0.098100  1.0  -0.4566
  O  O112  1  0.718900  0.546300  0.980900  1.0  -0.4173
  O  O113  1  0.822200  0.597900  0.453900  1.0  -0.6181
  O  O114  1  0.698700  0.626900  0.491000  1.0  -0.6171
  O  O115  1  0.676500  0.487900  0.546900  1.0  -0.5568
  O  O116  1  0.740200  0.611000  0.639200  1.0  -0.5429
  O  O117  1  0.856000  0.632400  0.598100  1.0  -0.4553
  O  O118  1  0.781100  0.453700  0.480900  1.0  -0.4174
  O  O119  1  0.177800  0.097900  0.046100  1.0  -0.6182
  O  O120  1  0.301300  0.126900  0.009000  1.0  -0.6162
  O  O121  1  0.323500  0.987900  0.953100  1.0  -0.5549
  O  O122  1  0.259800  0.111000  0.860800  1.0  -0.544
  O  O123  1  0.144000  0.132400  0.901900  1.0  -0.4554
  O  O124  1  0.218900  0.953700  0.019100  1.0  -0.4165
