# generated using pymatgen
data_NdCu3(CO2)9
_symmetry_space_group_name_H-M   'P 1'
_cell_length_a   17.51540000
_cell_length_b   17.51540000
_cell_length_c   17.51540000
_cell_angle_alpha   90.00000000
_cell_angle_beta   90.00000000
_cell_angle_gamma   90.00000000
_symmetry_Int_Tables_number   1
_chemical_formula_structural   NdCu3(CO2)9
_chemical_formula_sum   'Nd4 Cu12 C36 O72'
_cell_volume   5373.53620455
_cell_formula_units_Z   4
loop_
 _symmetry_equiv_pos_site_id
 _symmetry_equiv_pos_as_xyz
  1  'x, y, z'
loop_
 _atom_site_type_symbol
 _atom_site_label
 _atom_site_symmetry_multiplicity
 _atom_site_fract_x
 _atom_site_fract_y
 _atom_site_fract_z
 _atom_site_occupancy
 _atom_site_charge
  Nd  Nd1  1  0.603240  0.896760  0.103240  1.0  2.1389
  Nd  Nd2  1  0.896760  0.103240  0.603240  1.0  2.1398
  Nd  Nd3  1  0.396760  0.396760  0.396760  1.0  2.14
  Nd  Nd4  1  0.103240  0.603240  0.896760  1.0  2.1398
  Cu  Cu5  1  0.907720  0.848750  0.000060  1.0  0.8775
  Cu  Cu6  1  0.592280  0.151250  0.500060  1.0  0.8794
  Cu  Cu7  1  0.092280  0.348750  0.499940  1.0  0.8787
  Cu  Cu8  1  0.407720  0.651250  0.999940  1.0  0.8776
  Cu  Cu9  1  0.000060  0.907720  0.848750  1.0  0.8771
  Cu  Cu10  1  0.500060  0.592280  0.151250  1.0  0.8773
  Cu  Cu11  1  0.499940  0.092280  0.348750  1.0  0.8775
  Cu  Cu12  1  0.999940  0.407720  0.651250  1.0  0.8785
  Cu  Cu13  1  0.848750  0.000060  0.907720  1.0  0.8769
  Cu  Cu14  1  0.151250  0.500060  0.592280  1.0  0.8774
  Cu  Cu15  1  0.348750  0.499940  0.092280  1.0  0.8786
  Cu  Cu16  1  0.651250  0.999940  0.407720  1.0  0.878
  C  C17  1  0.741800  0.997100  0.014500  1.0  0.6838
  C  C18  1  0.765300  0.912800  0.008900  1.0  0.2428
  C  C19  1  0.790900  0.885900  0.090300  1.0  0.6892
  C  C20  1  0.758200  0.002900  0.514500  1.0  0.6849
  C  C21  1  0.734700  0.087200  0.508900  1.0  0.2425
  C  C22  1  0.709100  0.114100  0.590300  1.0  0.6879
  C  C23  1  0.258200  0.497100  0.485500  1.0  0.6826
  C  C24  1  0.234700  0.412800  0.491100  1.0  0.2424
  C  C25  1  0.209100  0.385900  0.409700  1.0  0.6894
  C  C26  1  0.241800  0.502900  0.985500  1.0  0.6856
  C  C27  1  0.265300  0.587200  0.991100  1.0  0.2422
  C  C28  1  0.290900  0.614100  0.909700  1.0  0.6866
  C  C29  1  0.014500  0.741800  0.997100  1.0  0.6852
  C  C30  1  0.008900  0.765300  0.912800  1.0  0.2426
  C  C31  1  0.090300  0.790900  0.885900  1.0  0.6857
  C  C32  1  0.514500  0.758200  0.002900  1.0  0.6854
  C  C33  1  0.508900  0.734700  0.087200  1.0  0.2429
  C  C34  1  0.590300  0.709100  0.114100  1.0  0.6858
  C  C35  1  0.485500  0.258200  0.497100  1.0  0.6851
  C  C36  1  0.491100  0.234700  0.412800  1.0  0.2419
  C  C37  1  0.409700  0.209100  0.385900  1.0  0.6862
  C  C38  1  0.985500  0.241800  0.502900  1.0  0.6863
  C  C39  1  0.991100  0.265300  0.587200  1.0  0.2427
  C  C40  1  0.909700  0.290900  0.614100  1.0  0.6856
  C  C41  1  0.997100  0.014500  0.741800  1.0  0.6849
  C  C42  1  0.912800  0.008900  0.765300  1.0  0.244
  C  C43  1  0.885900  0.090300  0.790900  1.0  0.6826
  C  C44  1  0.002900  0.514500  0.758200  1.0  0.6881
  C  C45  1  0.087200  0.508900  0.734700  1.0  0.2445
  C  C46  1  0.114100  0.590300  0.709100  1.0  0.684
  C  C47  1  0.497100  0.485500  0.258200  1.0  0.6851
  C  C48  1  0.412800  0.491100  0.234700  1.0  0.2432
  C  C49  1  0.385900  0.409700  0.209100  1.0  0.6861
  C  C50  1  0.502900  0.985500  0.241800  1.0  0.6882
  C  C51  1  0.587200  0.991100  0.265300  1.0  0.2444
  C  C52  1  0.614100  0.909700  0.290900  1.0  0.6865
  O  O53  1  0.859300  0.867200  0.097900  1.0  -0.4841
  O  O54  1  0.741000  0.886900  0.140300  1.0  -0.5001
  O  O55  1  0.821800  0.902900  0.955200  1.0  -0.6196
  O  O56  1  0.699300  0.870700  0.992400  1.0  -0.605
  O  O57  1  0.680200  0.008300  0.049600  1.0  -0.534
  O  O58  1  0.780100  0.046300  0.981800  1.0  -0.4614
  O  O59  1  0.640700  0.132800  0.597900  1.0  -0.4865
  O  O60  1  0.759000  0.113100  0.640300  1.0  -0.5013
  O  O61  1  0.678200  0.097100  0.455200  1.0  -0.6199
  O  O62  1  0.800700  0.129300  0.492400  1.0  -0.6072
  O  O63  1  0.819800  0.991700  0.549600  1.0  -0.534
  O  O64  1  0.719900  0.953700  0.481800  1.0  -0.4604
  O  O65  1  0.140700  0.367200  0.402100  1.0  -0.4852
  O  O66  1  0.259000  0.386900  0.359700  1.0  -0.5017
  O  O67  1  0.178200  0.402900  0.544800  1.0  -0.62
  O  O68  1  0.300700  0.370700  0.507600  1.0  -0.6055
  O  O69  1  0.319800  0.508300  0.450400  1.0  -0.5342
  O  O70  1  0.219900  0.546300  0.518200  1.0  -0.4582
  O  O71  1  0.359300  0.632800  0.902100  1.0  -0.4846
  O  O72  1  0.241000  0.613100  0.859700  1.0  -0.5018
  O  O73  1  0.321800  0.597100  0.044800  1.0  -0.621
  O  O74  1  0.199300  0.629300  0.007600  1.0  -0.6044
  O  O75  1  0.180200  0.491700  0.950400  1.0  -0.535
  O  O76  1  0.280100  0.453700  0.018200  1.0  -0.4561
  O  O77  1  0.097900  0.859300  0.867200  1.0  -0.4851
  O  O78  1  0.140300  0.741000  0.886900  1.0  -0.499
  O  O79  1  0.955200  0.821800  0.902900  1.0  -0.6193
  O  O80  1  0.992400  0.699300  0.870700  1.0  -0.6058
  O  O81  1  0.049600  0.680200  0.008300  1.0  -0.53
  O  O82  1  0.981800  0.780100  0.046300  1.0  -0.4635
  O  O83  1  0.597900  0.640700  0.132800  1.0  -0.4876
  O  O84  1  0.640300  0.759000  0.113100  1.0  -0.4998
  O  O85  1  0.455200  0.678200  0.097100  1.0  -0.6204
  O  O86  1  0.492400  0.800700  0.129300  1.0  -0.6075
  O  O87  1  0.549600  0.819800  0.991700  1.0  -0.5302
  O  O88  1  0.481800  0.719900  0.953700  1.0  -0.4588
  O  O89  1  0.402100  0.140700  0.367200  1.0  -0.4862
  O  O90  1  0.359700  0.259000  0.386900  1.0  -0.4976
  O  O91  1  0.544800  0.178200  0.402900  1.0  -0.6186
  O  O92  1  0.507600  0.300700  0.370700  1.0  -0.6073
  O  O93  1  0.450400  0.319800  0.508300  1.0  -0.5284
  O  O94  1  0.518200  0.219900  0.546300  1.0  -0.4595
  O  O95  1  0.902100  0.359300  0.632800  1.0  -0.4869
  O  O96  1  0.859700  0.241000  0.613100  1.0  -0.4982
  O  O97  1  0.044800  0.321800  0.597100  1.0  -0.6195
  O  O98  1  0.007600  0.199300  0.629300  1.0  -0.6102
  O  O99  1  0.950400  0.180200  0.491700  1.0  -0.5288
  O  O100  1  0.018200  0.280100  0.453700  1.0  -0.4556
  O  O101  1  0.867200  0.097900  0.859300  1.0  -0.4839
  O  O102  1  0.886900  0.140300  0.741000  1.0  -0.5011
  O  O103  1  0.902900  0.955200  0.821800  1.0  -0.6176
  O  O104  1  0.870700  0.992400  0.699300  1.0  -0.611
  O  O105  1  0.008300  0.049600  0.680200  1.0  -0.5299
  O  O106  1  0.046300  0.981800  0.780100  1.0  -0.4663
  O  O107  1  0.132800  0.597900  0.640700  1.0  -0.4866
  O  O108  1  0.113100  0.640300  0.759000  1.0  -0.5023
  O  O109  1  0.097100  0.455200  0.678200  1.0  -0.6171
  O  O110  1  0.129300  0.492400  0.800700  1.0  -0.6113
  O  O111  1  0.991700  0.549600  0.819800  1.0  -0.5294
  O  O112  1  0.953700  0.481800  0.719900  1.0  -0.4647
  O  O113  1  0.367200  0.402100  0.140700  1.0  -0.4854
  O  O114  1  0.386900  0.359700  0.259000  1.0  -0.501
  O  O115  1  0.402900  0.544800  0.178200  1.0  -0.6205
  O  O116  1  0.370700  0.507600  0.300700  1.0  -0.6099
  O  O117  1  0.508300  0.450400  0.319800  1.0  -0.5316
  O  O118  1  0.546300  0.518200  0.219900  1.0  -0.4647
  O  O119  1  0.632800  0.902100  0.359300  1.0  -0.4859
  O  O120  1  0.613100  0.859700  0.241000  1.0  -0.5021
  O  O121  1  0.597100  0.044800  0.321800  1.0  -0.6194
  O  O122  1  0.629300  0.007600  0.199300  1.0  -0.6118
  O  O123  1  0.491700  0.950400  0.180200  1.0  -0.5297
  O  O124  1  0.453700  0.018200  0.280100  1.0  -0.4615
