# generated using pymatgen
data_LaCu3(CO2)9
_symmetry_space_group_name_H-M   'P 1'
_cell_length_a   17.52350000
_cell_length_b   17.52350000
_cell_length_c   17.52350000
_cell_angle_alpha   90.00000000
_cell_angle_beta   90.00000000
_cell_angle_gamma   90.00000000
_symmetry_Int_Tables_number   1
_chemical_formula_structural   LaCu3(CO2)9
_chemical_formula_sum   'La4 Cu12 C36 O72'
_cell_volume   5380.99463110
_cell_formula_units_Z   4
loop_
 _symmetry_equiv_pos_site_id
 _symmetry_equiv_pos_as_xyz
  1  'x, y, z'
loop_
 _atom_site_type_symbol
 _atom_site_label
 _atom_site_symmetry_multiplicity
 _atom_site_fract_x
 _atom_site_fract_y
 _atom_site_fract_z
 _atom_site_occupancy
 _atom_site_charge
  La  La1  1  0.105470  0.105470  0.105470  1.0  2.0577
  La  La2  1  0.394530  0.894530  0.605470  1.0  2.057
  La  La3  1  0.894530  0.605470  0.394530  1.0  2.0588
  La  La4  1  0.605470  0.394530  0.894530  1.0  2.0586
  Cu  Cu5  1  0.914630  0.353880  0.995240  1.0  0.8775
  Cu  Cu6  1  0.585370  0.646120  0.495240  1.0  0.8785
  Cu  Cu7  1  0.085370  0.853880  0.504760  1.0  0.8716
  Cu  Cu8  1  0.414630  0.146120  0.004760  1.0  0.8785
  Cu  Cu9  1  0.995240  0.914630  0.353880  1.0  0.8782
  Cu  Cu10  1  0.495240  0.585370  0.646120  1.0  0.8789
  Cu  Cu11  1  0.504760  0.085370  0.853880  1.0  0.8716
  Cu  Cu12  1  0.004760  0.414630  0.146120  1.0  0.8786
  Cu  Cu13  1  0.353880  0.995240  0.914630  1.0  0.8791
  Cu  Cu14  1  0.646120  0.495240  0.585370  1.0  0.8795
  Cu  Cu15  1  0.853880  0.504760  0.085370  1.0  0.8724
  Cu  Cu16  1  0.146120  0.004760  0.414630  1.0  0.8781
  C  C17  1  0.020600  0.245400  0.000300  1.0  0.7054
  C  C18  1  0.013500  0.270100  0.083900  1.0  0.2765
  C  C19  1  0.093500  0.294900  0.111400  1.0  0.6878
  C  C20  1  0.479400  0.754600  0.500300  1.0  0.7065
  C  C21  1  0.486500  0.729900  0.583900  1.0  0.2766
  C  C22  1  0.406500  0.705100  0.611400  1.0  0.689
  C  C23  1  0.979400  0.745400  0.499700  1.0  0.7049
  C  C24  1  0.986500  0.770100  0.416100  1.0  0.2758
  C  C25  1  0.906500  0.794900  0.388600  1.0  0.6895
  C  C26  1  0.520600  0.254600  0.999700  1.0  0.7037
  C  C27  1  0.513500  0.229900  0.916100  1.0  0.2755
  C  C28  1  0.593500  0.205100  0.888600  1.0  0.6881
  C  C29  1  0.000300  0.020600  0.245400  1.0  0.7077
  C  C30  1  0.083900  0.013500  0.270100  1.0  0.2771
  C  C31  1  0.111400  0.093500  0.294900  1.0  0.6835
  C  C32  1  0.500300  0.479400  0.754600  1.0  0.7067
  C  C33  1  0.583900  0.486500  0.729900  1.0  0.2765
  C  C34  1  0.611400  0.406500  0.705100  1.0  0.685
  C  C35  1  0.499700  0.979400  0.745400  1.0  0.705
  C  C36  1  0.416100  0.986500  0.770100  1.0  0.2767
  C  C37  1  0.388600  0.906500  0.794900  1.0  0.686
  C  C38  1  0.999700  0.520600  0.254600  1.0  0.7054
  C  C39  1  0.916100  0.513500  0.229900  1.0  0.2776
  C  C40  1  0.888600  0.593500  0.205100  1.0  0.6845
  C  C41  1  0.245400  0.000300  0.020600  1.0  0.703
  C  C42  1  0.270100  0.083900  0.013500  1.0  0.2762
  C  C43  1  0.294900  0.111400  0.093500  1.0  0.6912
  C  C44  1  0.754600  0.500300  0.479400  1.0  0.7031
  C  C45  1  0.729900  0.583900  0.486500  1.0  0.2747
  C  C46  1  0.705100  0.611400  0.406500  1.0  0.6905
  C  C47  1  0.745400  0.499700  0.979400  1.0  0.7015
  C  C48  1  0.770100  0.416100  0.986500  1.0  0.2764
  C  C49  1  0.794900  0.388600  0.906500  1.0  0.6921
  C  C50  1  0.254600  0.999700  0.520600  1.0  0.7025
  C  C51  1  0.229900  0.916100  0.513500  1.0  0.2756
  C  C52  1  0.205100  0.888600  0.593500  1.0  0.6912
  O  O53  1  0.989200  0.285100  0.950500  1.0  -0.4671
  O  O54  1  0.056000  0.184600  0.988400  1.0  -0.5329
  O  O55  1  0.961300  0.328200  0.091600  1.0  -0.6028
  O  O56  1  0.996700  0.205700  0.128500  1.0  -0.6306
  O  O57  1  0.102300  0.365200  0.129500  1.0  -0.4911
  O  O58  1  0.144500  0.245800  0.113900  1.0  -0.5015
  O  O59  1  0.510800  0.714900  0.450500  1.0  -0.4671
  O  O60  1  0.444000  0.815400  0.488400  1.0  -0.533
  O  O61  1  0.538700  0.671800  0.591600  1.0  -0.6026
  O  O62  1  0.503300  0.794300  0.628500  1.0  -0.6332
  O  O63  1  0.397700  0.634800  0.629500  1.0  -0.4916
  O  O64  1  0.355500  0.754200  0.613900  1.0  -0.5003
  O  O65  1  0.010800  0.785100  0.549500  1.0  -0.4683
  O  O66  1  0.944000  0.684600  0.511600  1.0  -0.5362
  O  O67  1  0.038700  0.828200  0.408400  1.0  -0.6005
  O  O68  1  0.003300  0.705700  0.371500  1.0  -0.6316
  O  O69  1  0.897700  0.865200  0.370500  1.0  -0.4927
  O  O70  1  0.855500  0.745800  0.386100  1.0  -0.5026
  O  O71  1  0.489200  0.214900  0.049500  1.0  -0.4701
  O  O72  1  0.556000  0.315400  0.011600  1.0  -0.5326
  O  O73  1  0.461300  0.171800  0.908400  1.0  -0.6017
  O  O74  1  0.496700  0.294300  0.871500  1.0  -0.6329
  O  O75  1  0.602300  0.134800  0.870500  1.0  -0.4912
  O  O76  1  0.644500  0.254200  0.886100  1.0  -0.5012
  O  O77  1  0.950500  0.989200  0.285100  1.0  -0.4711
  O  O78  1  0.988400  0.056000  0.184600  1.0  -0.5362
  O  O79  1  0.091600  0.961300  0.328200  1.0  -0.5998
  O  O80  1  0.128500  0.996700  0.205700  1.0  -0.6364
  O  O81  1  0.129500  0.102300  0.365200  1.0  -0.4888
  O  O82  1  0.113900  0.144500  0.245800  1.0  -0.5
  O  O83  1  0.450500  0.510800  0.714900  1.0  -0.4708
  O  O84  1  0.488400  0.444000  0.815400  1.0  -0.5354
  O  O85  1  0.591600  0.538700  0.671800  1.0  -0.6023
  O  O86  1  0.628500  0.503300  0.794300  1.0  -0.6357
  O  O87  1  0.629500  0.397700  0.634800  1.0  -0.4915
  O  O88  1  0.613900  0.355500  0.754200  1.0  -0.5014
  O  O89  1  0.549500  0.010800  0.785100  1.0  -0.4704
  O  O90  1  0.511600  0.944000  0.684600  1.0  -0.5352
  O  O91  1  0.408400  0.038700  0.828200  1.0  -0.6024
  O  O92  1  0.371500  0.003300  0.705700  1.0  -0.6359
  O  O93  1  0.370500  0.897700  0.865200  1.0  -0.4921
  O  O94  1  0.386100  0.855500  0.745800  1.0  -0.5016
  O  O95  1  0.049500  0.489200  0.214900  1.0  -0.4721
  O  O96  1  0.011600  0.556000  0.315400  1.0  -0.5347
  O  O97  1  0.908400  0.461300  0.171800  1.0  -0.6
  O  O98  1  0.871500  0.496700  0.294300  1.0  -0.6349
  O  O99  1  0.870500  0.602300  0.134800  1.0  -0.4918
  O  O100  1  0.886100  0.644500  0.254200  1.0  -0.501
  O  O101  1  0.285100  0.950500  0.989200  1.0  -0.4695
  O  O102  1  0.184600  0.988400  0.056000  1.0  -0.5413
  O  O103  1  0.328200  0.091600  0.961300  1.0  -0.6006
  O  O104  1  0.205700  0.128500  0.996700  1.0  -0.6298
  O  O105  1  0.365200  0.129500  0.102300  1.0  -0.4919
  O  O106  1  0.245800  0.113900  0.144500  1.0  -0.5004
  O  O107  1  0.714900  0.450500  0.510800  1.0  -0.4715
  O  O108  1  0.815400  0.488400  0.444000  1.0  -0.5385
  O  O109  1  0.671800  0.591600  0.538700  1.0  -0.6026
  O  O110  1  0.794300  0.628500  0.503300  1.0  -0.6301
  O  O111  1  0.634800  0.629500  0.397700  1.0  -0.4916
  O  O112  1  0.754200  0.613900  0.355500  1.0  -0.5018
  O  O113  1  0.785100  0.549500  0.010800  1.0  -0.465
  O  O114  1  0.684600  0.511600  0.944000  1.0  -0.5371
  O  O115  1  0.828200  0.408400  0.038700  1.0  -0.6007
  O  O116  1  0.705700  0.371500  0.003300  1.0  -0.6284
  O  O117  1  0.865200  0.370500  0.897700  1.0  -0.4914
  O  O118  1  0.745800  0.386100  0.855500  1.0  -0.5017
  O  O119  1  0.214900  0.049500  0.489200  1.0  -0.4674
  O  O120  1  0.315400  0.011600  0.556000  1.0  -0.5396
  O  O121  1  0.171800  0.908400  0.461300  1.0  -0.6012
  O  O122  1  0.294300  0.871500  0.496700  1.0  -0.6312
  O  O123  1  0.134800  0.870500  0.602300  1.0  -0.4917
  O  O124  1  0.254200  0.886100  0.644500  1.0  -0.5017
