# generated using pymatgen
data_Mn3H12C14(NO6)2
_symmetry_space_group_name_H-M   'P 1'
_cell_length_a   10.31420000
_cell_length_b   10.31420000
_cell_length_c   11.41800000
_cell_angle_alpha   84.99450000
_cell_angle_beta   84.99450000
_cell_angle_gamma   65.65600000
_symmetry_Int_Tables_number   1
_chemical_formula_structural   Mn3H12C14(NO6)2
_chemical_formula_sum   'Mn6 H24 C28 N4 O24'
_cell_volume   1100.69532767
_cell_formula_units_Z   2
loop_
 _symmetry_equiv_pos_site_id
 _symmetry_equiv_pos_as_xyz
  1  'x, y, z'
loop_
 _atom_site_type_symbol
 _atom_site_label
 _atom_site_symmetry_multiplicity
 _atom_site_fract_x
 _atom_site_fract_y
 _atom_site_fract_z
 _atom_site_occupancy
 _atom_site_charge
  Mn  Mn1  1  0.540890  0.636710  0.485110  1.0  1.1595
  Mn  Mn2  1  0.363290  0.459110  0.014890  1.0  1.1591
  Mn  Mn3  1  0.459110  0.363290  0.514890  1.0  1.1578
  Mn  Mn4  1  0.636710  0.540890  0.985110  1.0  1.1589
  Mn  Mn5  1  0.629740  0.370260  0.750000  1.0  0.9557
  Mn  Mn6  1  0.370260  0.629740  0.250000  1.0  0.9596
  H  H7  1  0.621000  0.299000  0.961000  1.0  0.4771
  H  H8  1  0.640300  0.904300  0.508000  1.0  0.115
  H  H9  1  0.912400  0.532400  0.625000  1.0  0.1183
  H  H10  1  0.970400  0.630400  0.787000  1.0  0.1228
  H  H11  1  0.852200  0.886200  0.800000  1.0  0.1226
  H  H12  1  0.208000  0.554000  0.690000  1.0  0.0258
  H  H13  1  0.701000  0.379000  0.539000  1.0  0.4771
  H  H14  1  0.095700  0.359700  0.992000  1.0  0.1158
  H  H15  1  0.467600  0.087600  0.875000  1.0  0.117
  H  H16  1  0.369600  0.029600  0.713000  1.0  0.1214
  H  H17  1  0.113800  0.147800  0.700000  1.0  0.1228
  H  H18  1  0.446000  0.792000  0.810000  1.0  0.023
  H  H19  1  0.379000  0.701000  0.039000  1.0  0.4785
  H  H20  1  0.359700  0.095700  0.492000  1.0  0.116
  H  H21  1  0.087600  0.467600  0.375000  1.0  0.118
  H  H22  1  0.029600  0.369600  0.213000  1.0  0.1216
  H  H23  1  0.147800  0.113800  0.200000  1.0  0.1228
  H  H24  1  0.792000  0.446000  0.310000  1.0  0.0238
  H  H25  1  0.299000  0.621000  0.461000  1.0  0.4778
  H  H26  1  0.904300  0.640300  0.008000  1.0  0.1147
  H  H27  1  0.532400  0.912400  0.125000  1.0  0.1168
  H  H28  1  0.630400  0.970400  0.287000  1.0  0.1222
  H  H29  1  0.886200  0.852200  0.300000  1.0  0.1227
  H  H30  1  0.554000  0.208000  0.190000  1.0  0.0233
  C  C31  1  0.659640  0.081840  0.657900  1.0  0.6776
  C  C32  1  0.735640  0.921040  0.656500  1.0  -0.1352
  C  C33  1  0.707980  0.853580  0.568200  1.0  -0.0055
  C  C34  1  0.871500  0.630500  0.639700  1.0  -0.009
  C  C35  1  0.900000  0.693400  0.729100  1.0  -0.1098
  C  C36  1  0.832500  0.838700  0.738500  1.0  -0.0339
  C  C37  1  0.287700  0.501500  0.745400  1.0  0.6275
  C  C38  1  0.918160  0.340360  0.842100  1.0  0.6773
  C  C39  1  0.078960  0.264360  0.843500  1.0  -0.1393
  C  C40  1  0.146420  0.292020  0.931800  1.0  -0.0043
  C  C41  1  0.369500  0.128500  0.860300  1.0  -0.0102
  C  C42  1  0.306600  0.100000  0.770900  1.0  -0.1092
  C  C43  1  0.161300  0.167500  0.761500  1.0  -0.0343
  C  C44  1  0.498500  0.712300  0.754600  1.0  0.6293
  C  C45  1  0.340360  0.918160  0.342100  1.0  0.6776
  C  C46  1  0.264360  0.078960  0.343500  1.0  -0.1361
  C  C47  1  0.292020  0.146420  0.431800  1.0  -0.0019
  C  C48  1  0.128500  0.369500  0.360300  1.0  -0.0093
  C  C49  1  0.100000  0.306600  0.270900  1.0  -0.1107
  C  C50  1  0.167500  0.161300  0.261500  1.0  -0.0322
  C  C51  1  0.712300  0.498500  0.254600  1.0  0.6265
  C  C52  1  0.081840  0.659640  0.157900  1.0  0.6779
  C  C53  1  0.921040  0.735640  0.156500  1.0  -0.1389
  C  C54  1  0.853580  0.707980  0.068200  1.0  -0.0034
  C  C55  1  0.630500  0.871500  0.139700  1.0  -0.0115
  C  C56  1  0.693400  0.900000  0.229100  1.0  -0.1075
  C  C57  1  0.838700  0.832500  0.238500  1.0  -0.0355
  C  C58  1  0.501500  0.287700  0.245400  1.0  0.6294
  N  N59  1  0.774960  0.710960  0.561200  1.0  0.3335
  N  N60  1  0.289040  0.225040  0.938800  1.0  0.3325
  N  N61  1  0.225040  0.289040  0.438800  1.0  0.3324
  N  N62  1  0.710960  0.774960  0.061200  1.0  0.3351
  O  O63  1  0.746780  0.648180  0.475100  1.0  -0.5682
  O  O64  1  0.571820  0.142220  0.580040  1.0  -0.6081
  O  O65  1  0.689670  0.141870  0.736380  1.0  -0.5932
  O  O66  1  0.256950  0.537550  0.849290  1.0  -0.6128
  O  O67  1  0.580770  0.369370  0.939650  1.0  -0.972
  O  O68  1  0.405800  0.422900  0.703310  1.0  -0.608
  O  O69  1  0.351820  0.253220  0.024900  1.0  -0.5668
  O  O70  1  0.857780  0.428180  0.919960  1.0  -0.608
  O  O71  1  0.858130  0.310330  0.763620  1.0  -0.5944
  O  O72  1  0.462450  0.743050  0.650710  1.0  -0.6127
  O  O73  1  0.630630  0.419230  0.560350  1.0  -0.9717
  O  O74  1  0.577100  0.594200  0.796690  1.0  -0.6088
  O  O75  1  0.253220  0.351820  0.524900  1.0  -0.5679
  O  O76  1  0.428180  0.857780  0.419960  1.0  -0.6085
  O  O77  1  0.310330  0.858130  0.263620  1.0  -0.5917
  O  O78  1  0.743050  0.462450  0.150710  1.0  -0.6138
  O  O79  1  0.419230  0.630630  0.060350  1.0  -0.9734
  O  O80  1  0.594200  0.577100  0.296690  1.0  -0.6081
  O  O81  1  0.648180  0.746780  0.975100  1.0  -0.5671
  O  O82  1  0.142220  0.571820  0.080040  1.0  -0.607
  O  O83  1  0.141870  0.689670  0.236380  1.0  -0.5921
  O  O84  1  0.537550  0.256950  0.349290  1.0  -0.6127
  O  O85  1  0.369370  0.580770  0.439650  1.0  -0.9719
  O  O86  1  0.422900  0.405800  0.203310  1.0  -0.6075
