# generated using pymatgen
data_Ag3H24(C3N2)4
_symmetry_space_group_name_H-M   'P 1'
_cell_length_a   20.91600000
_cell_length_b   12.29600000
_cell_length_c   11.20400000
_cell_angle_alpha   90.00000000
_cell_angle_beta   90.00000000
_cell_angle_gamma   90.00000000
_symmetry_Int_Tables_number   1
_chemical_formula_structural   Ag3H24(C3N2)4
_chemical_formula_sum   'Ag12 H96 C48 N32'
_cell_volume   2881.47985574
_cell_formula_units_Z   4
loop_
 _symmetry_equiv_pos_site_id
 _symmetry_equiv_pos_as_xyz
  1  'x, y, z'
loop_
 _atom_site_type_symbol
 _atom_site_label
 _atom_site_symmetry_multiplicity
 _atom_site_fract_x
 _atom_site_fract_y
 _atom_site_fract_z
 _atom_site_occupancy
 _atom_site_charge
  Ag  Ag1  1  0.223540  0.632500  0.755930  1.0  -0.0585
  Ag  Ag2  1  0.723530  0.132500  0.755930  1.0  -0.0585
  Ag  Ag3  1  0.776460  0.367500  0.255930  1.0  -0.0569
  Ag  Ag4  1  0.276460  0.867500  0.255930  1.0  -0.0569
  Ag  Ag5  1  0.223540  0.367500  0.255930  1.0  -0.0585
  Ag  Ag6  1  0.723530  0.867500  0.255930  1.0  -0.0585
  Ag  Ag7  1  0.776460  0.632500  0.755930  1.0  -0.0569
  Ag  Ag8  1  0.276460  0.132500  0.755930  1.0  -0.0569
  Ag  Ag9  1  0.500000  0.830560  0.630460  1.0  0.0965
  Ag  Ag10  1  0.000000  0.330560  0.630460  1.0  0.0965
  Ag  Ag11  1  0.500000  0.169440  0.130460  1.0  0.0995
  Ag  Ag12  1  0.000000  0.669440  0.130460  1.0  0.0995
  H  H13  1  0.367500  0.686200  0.629500  1.0  0.0515
  H  H14  1  0.366400  0.749500  0.751100  1.0  0.0415
  H  H15  1  0.280800  0.709600  0.487100  1.0  0.0547
  H  H16  1  0.223300  0.787100  0.516900  1.0  0.0433
  H  H17  1  0.396800  0.910900  0.445600  1.0  0.0531
  H  H18  1  0.385900  0.784600  0.443500  1.0  0.0462
  H  H19  1  0.190900  0.468400  0.992300  1.0  0.0583
  H  H20  1  0.259300  0.515000  0.018800  1.0  0.036
  H  H21  1  0.275900  0.871000  0.797200  1.0  0.068
  H  H22  1  0.220900  0.886000  0.703200  1.0  0.0385
  H  H23  1  0.383600  0.944200  0.754300  1.0  0.0472
  H  H24  1  0.395300  0.008000  0.635000  1.0  0.0341
  H  H25  1  0.867500  0.186200  0.629500  1.0  0.0515
  H  H26  1  0.866400  0.249500  0.751100  1.0  0.0415
  H  H27  1  0.780800  0.209600  0.487100  1.0  0.0547
  H  H28  1  0.723300  0.287100  0.516900  1.0  0.0433
  H  H29  1  0.896800  0.410900  0.445600  1.0  0.0531
  H  H30  1  0.885900  0.284600  0.443500  1.0  0.0462
  H  H31  1  0.690900  0.968400  0.992300  1.0  0.0583
  H  H32  1  0.759300  0.015000  0.018800  1.0  0.036
  H  H33  1  0.775900  0.371000  0.797200  1.0  0.068
  H  H34  1  0.720900  0.386000  0.703200  1.0  0.0385
  H  H35  1  0.883600  0.444200  0.754300  1.0  0.0472
  H  H36  1  0.895300  0.508000  0.635000  1.0  0.0341
  H  H37  1  0.632500  0.313800  0.129500  1.0  0.0536
  H  H38  1  0.633600  0.250500  0.251100  1.0  0.0437
  H  H39  1  0.719200  0.290400  0.987100  1.0  0.0539
  H  H40  1  0.776700  0.212900  0.016900  1.0  0.0412
  H  H41  1  0.603200  0.089100  0.945600  1.0  0.0545
  H  H42  1  0.614100  0.215400  0.943500  1.0  0.0471
  H  H43  1  0.809100  0.531600  0.492300  1.0  0.0583
  H  H44  1  0.740700  0.485000  0.518800  1.0  0.0389
  H  H45  1  0.724100  0.129000  0.297200  1.0  0.0677
  H  H46  1  0.779100  0.114000  0.203200  1.0  0.0385
  H  H47  1  0.616400  0.055800  0.254300  1.0  0.0494
  H  H48  1  0.604700  0.992000  0.135000  1.0  0.0346
  H  H49  1  0.132500  0.813800  0.129500  1.0  0.0536
  H  H50  1  0.133600  0.750500  0.251100  1.0  0.0437
  H  H51  1  0.219200  0.790400  0.987100  1.0  0.0539
  H  H52  1  0.276700  0.712900  0.016900  1.0  0.0412
  H  H53  1  0.103200  0.589100  0.945600  1.0  0.0545
  H  H54  1  0.114100  0.715400  0.943500  1.0  0.0471
  H  H55  1  0.309100  0.031600  0.492300  1.0  0.0583
  H  H56  1  0.240700  0.985000  0.518800  1.0  0.0389
  H  H57  1  0.224100  0.629000  0.297200  1.0  0.0677
  H  H58  1  0.279100  0.614000  0.203200  1.0  0.0385
  H  H59  1  0.116400  0.555800  0.254300  1.0  0.0493
  H  H60  1  0.104700  0.492000  0.135000  1.0  0.0346
  H  H61  1  0.367500  0.313800  0.129500  1.0  0.0528
  H  H62  1  0.366400  0.250500  0.251100  1.0  0.0416
  H  H63  1  0.280800  0.290400  0.987100  1.0  0.0543
  H  H64  1  0.223300  0.212900  0.016900  1.0  0.0432
  H  H65  1  0.396800  0.089100  0.945600  1.0  0.0526
  H  H66  1  0.385900  0.215400  0.943500  1.0  0.0465
  H  H67  1  0.190900  0.531600  0.492300  1.0  0.0591
  H  H68  1  0.259300  0.485000  0.518800  1.0  0.0356
  H  H69  1  0.275900  0.129000  0.297200  1.0  0.0679
  H  H70  1  0.220900  0.114000  0.203200  1.0  0.0388
  H  H71  1  0.383600  0.055800  0.254300  1.0  0.0478
  H  H72  1  0.395300  0.992000  0.135000  1.0  0.034
  H  H73  1  0.867500  0.813800  0.129500  1.0  0.0528
  H  H74  1  0.866400  0.750500  0.251100  1.0  0.0416
  H  H75  1  0.780800  0.790400  0.987100  1.0  0.0543
  H  H76  1  0.723300  0.712900  0.016900  1.0  0.0432
  H  H77  1  0.896800  0.589100  0.945600  1.0  0.0526
  H  H78  1  0.885900  0.715400  0.943500  1.0  0.0465
  H  H79  1  0.690900  0.031600  0.492300  1.0  0.0591
  H  H80  1  0.759300  0.985000  0.518800  1.0  0.0357
  H  H81  1  0.775900  0.629000  0.297200  1.0  0.0679
  H  H82  1  0.720900  0.614000  0.203200  1.0  0.0388
  H  H83  1  0.883600  0.555800  0.254300  1.0  0.0478
  H  H84  1  0.895300  0.492000  0.135000  1.0  0.034
  H  H85  1  0.632500  0.686200  0.629500  1.0  0.0516
  H  H86  1  0.633600  0.749500  0.751100  1.0  0.0436
  H  H87  1  0.719200  0.709600  0.487100  1.0  0.0549
  H  H88  1  0.776700  0.787100  0.516900  1.0  0.0411
  H  H89  1  0.603200  0.910900  0.445600  1.0  0.055
  H  H90  1  0.614100  0.784600  0.443500  1.0  0.0463
  H  H91  1  0.809100  0.468400  0.992300  1.0  0.0579
  H  H92  1  0.740700  0.515000  0.018800  1.0  0.039
  H  H93  1  0.724100  0.871000  0.797200  1.0  0.0678
  H  H94  1  0.779100  0.886000  0.703200  1.0  0.0379
  H  H95  1  0.616400  0.944200  0.754300  1.0  0.0489
  H  H96  1  0.604700  0.008000  0.635000  1.0  0.0347
  H  H97  1  0.132500  0.186200  0.629500  1.0  0.0516
  H  H98  1  0.133600  0.249500  0.751100  1.0  0.0436
  H  H99  1  0.219200  0.209600  0.487100  1.0  0.0549
  H  H100  1  0.276700  0.287100  0.516900  1.0  0.0411
  H  H101  1  0.103200  0.410900  0.445600  1.0  0.055
  H  H102  1  0.114100  0.284600  0.443500  1.0  0.0463
  H  H103  1  0.309100  0.968400  0.992300  1.0  0.0579
  H  H104  1  0.240700  0.015000  0.018800  1.0  0.039
  H  H105  1  0.224100  0.371000  0.797200  1.0  0.0678
  H  H106  1  0.279100  0.386000  0.703200  1.0  0.0379
  H  H107  1  0.116400  0.444200  0.754300  1.0  0.0488
  H  H108  1  0.104700  0.508000  0.635000  1.0  0.0347
  C  C109  1  0.355400  0.754200  0.667200  1.0  0.0618
  C  C110  1  0.269000  0.777100  0.526200  1.0  0.0699
  C  C111  1  0.373700  0.851600  0.483000  1.0  0.0645
  C  C112  1  0.213900  0.528300  0.028700  1.0  0.0881
  C  C113  1  0.266500  0.874600  0.712500  1.0  0.0761
  C  C114  1  0.372300  0.947600  0.670500  1.0  0.0676
  C  C115  1  0.855400  0.254200  0.667200  1.0  0.0618
  C  C116  1  0.769000  0.277100  0.526200  1.0  0.0699
  C  C117  1  0.873700  0.351600  0.483000  1.0  0.0645
  C  C118  1  0.713900  0.028300  0.028700  1.0  0.0881
  C  C119  1  0.766500  0.374600  0.712500  1.0  0.0761
  C  C120  1  0.872300  0.447600  0.670500  1.0  0.0676
  C  C121  1  0.644600  0.245800  0.167200  1.0  0.061
  C  C122  1  0.731000  0.222900  0.026200  1.0  0.0703
  C  C123  1  0.626300  0.148400  0.983000  1.0  0.0666
  C  C124  1  0.786100  0.471700  0.528700  1.0  0.0898
  C  C125  1  0.733500  0.125400  0.212500  1.0  0.0746
  C  C126  1  0.627700  0.052400  0.170500  1.0  0.07
  C  C127  1  0.144600  0.745800  0.167200  1.0  0.061
  C  C128  1  0.231000  0.722900  0.026200  1.0  0.0703
  C  C129  1  0.126300  0.648400  0.983000  1.0  0.0666
  C  C130  1  0.286100  0.971700  0.528700  1.0  0.0898
  C  C131  1  0.233500  0.625400  0.212500  1.0  0.0746
  C  C132  1  0.127700  0.552400  0.170500  1.0  0.07
  C  C133  1  0.355400  0.245800  0.167200  1.0  0.0614
  C  C134  1  0.269000  0.222900  0.026200  1.0  0.0706
  C  C135  1  0.373700  0.148400  0.983000  1.0  0.0646
  C  C136  1  0.213900  0.471700  0.528700  1.0  0.0887
  C  C137  1  0.266500  0.125400  0.212500  1.0  0.076
  C  C138  1  0.372300  0.052400  0.170500  1.0  0.0676
  C  C139  1  0.855400  0.745800  0.167200  1.0  0.0614
  C  C140  1  0.769000  0.722900  0.026200  1.0  0.0706
  C  C141  1  0.873700  0.648400  0.983000  1.0  0.0646
  C  C142  1  0.713900  0.971700  0.528700  1.0  0.0887
  C  C143  1  0.766500  0.625400  0.212500  1.0  0.076
  C  C144  1  0.872300  0.552400  0.170500  1.0  0.0676
  C  C145  1  0.644600  0.754200  0.667200  1.0  0.0622
  C  C146  1  0.731000  0.777100  0.526200  1.0  0.0693
  C  C147  1  0.626300  0.851600  0.483000  1.0  0.0668
  C  C148  1  0.786100  0.528300  0.028700  1.0  0.0892
  C  C149  1  0.733500  0.874600  0.712500  1.0  0.075
  C  C150  1  0.627700  0.947600  0.670500  1.0  0.0686
  C  C151  1  0.144600  0.254200  0.667200  1.0  0.0622
  C  C152  1  0.231000  0.277100  0.526200  1.0  0.0693
  C  C153  1  0.126300  0.351600  0.483000  1.0  0.0668
  C  C154  1  0.286100  0.028300  0.028700  1.0  0.0892
  C  C155  1  0.233500  0.374600  0.712500  1.0  0.075
  C  C156  1  0.127700  0.447600  0.670500  1.0  0.0686
  N  N157  1  0.391530  0.845400  0.611300  1.0  -0.2108
  N  N158  1  0.284900  0.770000  0.654900  1.0  -0.2454
  N  N159  1  0.196600  0.630500  0.968000  1.0  -0.2805
  N  N160  1  0.198400  0.466800  0.658700  1.0  -0.2603
  N  N161  1  0.891530  0.345400  0.611300  1.0  -0.2108
  N  N162  1  0.784900  0.270000  0.654900  1.0  -0.2454
  N  N163  1  0.696600  0.130500  0.968000  1.0  -0.2805
  N  N164  1  0.698400  0.966800  0.658700  1.0  -0.2603
  N  N165  1  0.608470  0.154600  0.111300  1.0  -0.212
  N  N166  1  0.715100  0.230000  0.154900  1.0  -0.2472
  N  N167  1  0.803400  0.369500  0.468000  1.0  -0.2801
  N  N168  1  0.801600  0.533200  0.158700  1.0  -0.2594
  N  N169  1  0.108470  0.654600  0.111300  1.0  -0.212
  N  N170  1  0.215100  0.730000  0.154900  1.0  -0.2472
  N  N171  1  0.303400  0.869500  0.468000  1.0  -0.2801
  N  N172  1  0.301600  0.033200  0.158700  1.0  -0.2594
  N  N173  1  0.391530  0.154600  0.111300  1.0  -0.2101
  N  N174  1  0.284900  0.230000  0.154900  1.0  -0.2457
  N  N175  1  0.196600  0.369500  0.468000  1.0  -0.2804
  N  N176  1  0.198400  0.533200  0.158700  1.0  -0.2604
  N  N177  1  0.891530  0.654600  0.111300  1.0  -0.2101
  N  N178  1  0.784900  0.730000  0.154900  1.0  -0.2457
  N  N179  1  0.696600  0.869500  0.468000  1.0  -0.2804
  N  N180  1  0.698400  0.033200  0.158700  1.0  -0.2604
  N  N181  1  0.608470  0.845400  0.611300  1.0  -0.2125
  N  N182  1  0.715100  0.770000  0.654900  1.0  -0.2475
  N  N183  1  0.803400  0.630500  0.968000  1.0  -0.28
  N  N184  1  0.801600  0.466800  0.658700  1.0  -0.2598
  N  N185  1  0.108470  0.345400  0.611300  1.0  -0.2125
  N  N186  1  0.215100  0.270000  0.654900  1.0  -0.2475
  N  N187  1  0.303400  0.130500  0.968000  1.0  -0.28
  N  N188  1  0.301600  0.966800  0.658700  1.0  -0.2598
