# generated using pymatgen
data_Yb2Cu3(C4O5)6
_symmetry_space_group_name_H-M   'P 1'
_cell_length_a   14.34400000
_cell_length_b   14.34400000
_cell_length_c   15.47000000
_cell_angle_alpha   90.00000000
_cell_angle_beta   90.00000000
_cell_angle_gamma   120.00000000
_symmetry_Int_Tables_number   1
_chemical_formula_structural   Yb2Cu3(C4O5)6
_chemical_formula_sum   'Yb4 Cu6 C48 O60'
_cell_volume   2756.52222557
_cell_formula_units_Z   2
loop_
 _symmetry_equiv_pos_site_id
 _symmetry_equiv_pos_as_xyz
  1  'x, y, z'
loop_
 _atom_site_type_symbol
 _atom_site_label
 _atom_site_symmetry_multiplicity
 _atom_site_fract_x
 _atom_site_fract_y
 _atom_site_fract_z
 _atom_site_occupancy
 _atom_site_charge
  Yb  Yb1  1  0.333333  0.666667  0.750000  1.0  1.1767
  Yb  Yb2  1  0.666667  0.333333  0.750000  1.0  1.1767
  Yb  Yb3  1  0.666667  0.333333  0.250000  1.0  1.1767
  Yb  Yb4  1  0.333333  0.666667  0.250000  1.0  1.1767
  Cu  Cu5  1  0.500000  0.500000  0.500000  1.0  1.046
  Cu  Cu6  1  0.000000  0.500000  0.500000  1.0  1.046
  Cu  Cu7  1  0.500000  0.000000  0.500000  1.0  1.046
  Cu  Cu8  1  0.000000  0.500000  0.000000  1.0  1.046
  Cu  Cu9  1  0.500000  0.500000  0.000000  1.0  1.046
  Cu  Cu10  1  0.500000  0.000000  0.000000  1.0  1.046
  C  C11  1  0.261000  0.409000  0.691000  1.0  0.0121
  C  C12  1  0.352000  0.487000  0.637000  1.0  0.7177
  C  C13  1  0.148000  0.739000  0.691000  1.0  0.0115
  C  C14  1  0.135000  0.648000  0.637000  1.0  0.716
  C  C15  1  0.591000  0.852000  0.691000  1.0  0.0151
  C  C16  1  0.513000  0.865000  0.637000  1.0  0.7159
  C  C17  1  0.739000  0.591000  0.691000  1.0  0.0114
  C  C18  1  0.648000  0.513000  0.637000  1.0  0.7164
  C  C19  1  0.852000  0.261000  0.691000  1.0  0.0161
  C  C20  1  0.865000  0.352000  0.637000  1.0  0.7157
  C  C21  1  0.409000  0.148000  0.691000  1.0  0.0114
  C  C22  1  0.487000  0.135000  0.637000  1.0  0.7143
  C  C23  1  0.852000  0.591000  0.809000  1.0  0.0119
  C  C24  1  0.865000  0.513000  0.863000  1.0  0.7174
  C  C25  1  0.409000  0.261000  0.809000  1.0  0.0124
  C  C26  1  0.487000  0.352000  0.863000  1.0  0.716
  C  C27  1  0.739000  0.148000  0.809000  1.0  0.0169
  C  C28  1  0.648000  0.135000  0.863000  1.0  0.7159
  C  C29  1  0.148000  0.409000  0.809000  1.0  0.0116
  C  C30  1  0.135000  0.487000  0.863000  1.0  0.7169
  C  C31  1  0.591000  0.739000  0.809000  1.0  0.015
  C  C32  1  0.513000  0.648000  0.863000  1.0  0.7153
  C  C33  1  0.261000  0.852000  0.809000  1.0  0.0101
  C  C34  1  0.352000  0.865000  0.863000  1.0  0.7142
  C  C35  1  0.739000  0.591000  0.309000  1.0  0.0114
  C  C36  1  0.648000  0.513000  0.363000  1.0  0.7168
  C  C37  1  0.852000  0.261000  0.309000  1.0  0.0159
  C  C38  1  0.865000  0.352000  0.363000  1.0  0.7164
  C  C39  1  0.409000  0.148000  0.309000  1.0  0.0114
  C  C40  1  0.487000  0.135000  0.363000  1.0  0.7141
  C  C41  1  0.261000  0.409000  0.309000  1.0  0.0123
  C  C42  1  0.352000  0.487000  0.363000  1.0  0.7174
  C  C43  1  0.148000  0.739000  0.309000  1.0  0.0114
  C  C44  1  0.135000  0.648000  0.363000  1.0  0.7153
  C  C45  1  0.591000  0.852000  0.309000  1.0  0.0152
  C  C46  1  0.513000  0.865000  0.363000  1.0  0.7158
  C  C47  1  0.148000  0.409000  0.191000  1.0  0.0115
  C  C48  1  0.135000  0.487000  0.137000  1.0  0.7172
  C  C49  1  0.591000  0.739000  0.191000  1.0  0.015
  C  C50  1  0.513000  0.648000  0.137000  1.0  0.7156
  C  C51  1  0.261000  0.852000  0.191000  1.0  0.0102
  C  C52  1  0.352000  0.865000  0.137000  1.0  0.7148
  C  C53  1  0.852000  0.591000  0.191000  1.0  0.012
  C  C54  1  0.865000  0.513000  0.137000  1.0  0.7169
  C  C55  1  0.409000  0.261000  0.191000  1.0  0.0125
  C  C56  1  0.487000  0.352000  0.137000  1.0  0.7159
  C  C57  1  0.739000  0.148000  0.191000  1.0  0.0171
  C  C58  1  0.648000  0.135000  0.137000  1.0  0.7156
  O  O59  1  0.386000  0.582300  0.645700  1.0  -0.5436
  O  O60  1  0.389000  0.443400  0.589000  1.0  -0.558
  O  O61  1  0.196300  0.614000  0.645700  1.0  -0.5455
  O  O62  1  0.054400  0.611000  0.589000  1.0  -0.5563
  O  O63  1  0.417700  0.803700  0.645700  1.0  -0.5412
  O  O64  1  0.556600  0.945600  0.589000  1.0  -0.5557
  O  O65  1  0.614000  0.417700  0.645700  1.0  -0.5429
  O  O66  1  0.611000  0.556600  0.589000  1.0  -0.5561
  O  O67  1  0.803700  0.386000  0.645700  1.0  -0.5436
  O  O68  1  0.945600  0.389000  0.589000  1.0  -0.5569
  O  O69  1  0.582300  0.196300  0.645700  1.0  -0.5421
  O  O70  1  0.443400  0.054400  0.589000  1.0  -0.5567
  O  O71  1  0.803700  0.417700  0.854300  1.0  -0.5427
  O  O72  1  0.945600  0.556600  0.911000  1.0  -0.5556
  O  O73  1  0.582300  0.386000  0.854300  1.0  -0.5453
  O  O74  1  0.443400  0.389000  0.911000  1.0  -0.5556
  O  O75  1  0.614000  0.196300  0.854300  1.0  -0.5403
  O  O76  1  0.611000  0.054400  0.911000  1.0  -0.5555
  O  O77  1  0.196300  0.582300  0.854300  1.0  -0.5437
  O  O78  1  0.054400  0.443400  0.911000  1.0  -0.5563
  O  O79  1  0.417700  0.614000  0.854300  1.0  -0.5438
  O  O80  1  0.556600  0.611000  0.911000  1.0  -0.556
  O  O81  1  0.386000  0.803700  0.854300  1.0  -0.5425
  O  O82  1  0.389000  0.945600  0.911000  1.0  -0.5549
  O  O83  1  0.614000  0.417700  0.354300  1.0  -0.5435
  O  O84  1  0.611000  0.556600  0.411000  1.0  -0.5564
  O  O85  1  0.803700  0.386000  0.354300  1.0  -0.5432
  O  O86  1  0.945600  0.389000  0.411000  1.0  -0.557
  O  O87  1  0.582300  0.196300  0.354300  1.0  -0.5421
  O  O88  1  0.443400  0.054400  0.411000  1.0  -0.5566
  O  O89  1  0.386000  0.582300  0.354300  1.0  -0.5428
  O  O90  1  0.389000  0.443400  0.411000  1.0  -0.5559
  O  O91  1  0.196300  0.614000  0.354300  1.0  -0.5456
  O  O92  1  0.054400  0.611000  0.411000  1.0  -0.5569
  O  O93  1  0.417700  0.803700  0.354300  1.0  -0.5415
  O  O94  1  0.556600  0.945600  0.411000  1.0  -0.5551
  O  O95  1  0.196300  0.582300  0.145700  1.0  -0.5441
  O  O96  1  0.054400  0.443400  0.089000  1.0  -0.558
  O  O97  1  0.417700  0.614000  0.145700  1.0  -0.5439
  O  O98  1  0.556600  0.611000  0.089000  1.0  -0.5581
  O  O99  1  0.386000  0.803700  0.145700  1.0  -0.542
  O  O100  1  0.389000  0.945600  0.089000  1.0  -0.5558
  O  O101  1  0.803700  0.417700  0.145700  1.0  -0.5426
  O  O102  1  0.945600  0.556600  0.089000  1.0  -0.5567
  O  O103  1  0.582300  0.386000  0.145700  1.0  -0.5454
  O  O104  1  0.443400  0.389000  0.089000  1.0  -0.5571
  O  O105  1  0.614000  0.196300  0.145700  1.0  -0.5405
  O  O106  1  0.611000  0.054400  0.089000  1.0  -0.5564
  O  O107  1  0.236200  0.472400  0.750000  1.0  -0.1728
  O  O108  1  0.236200  0.763800  0.750000  1.0  -0.1738
  O  O109  1  0.527600  0.763800  0.750000  1.0  -0.1759
  O  O110  1  0.763800  0.527600  0.750000  1.0  -0.1743
  O  O111  1  0.763800  0.236200  0.750000  1.0  -0.1752
  O  O112  1  0.472400  0.236200  0.750000  1.0  -0.1728
  O  O113  1  0.763800  0.527600  0.250000  1.0  -0.1743
  O  O114  1  0.763800  0.236200  0.250000  1.0  -0.1752
  O  O115  1  0.472400  0.236200  0.250000  1.0  -0.1728
  O  O116  1  0.236200  0.472400  0.250000  1.0  -0.1728
  O  O117  1  0.236200  0.763800  0.250000  1.0  -0.1738
  O  O118  1  0.527600  0.763800  0.250000  1.0  -0.1759
