# generated using pymatgen
data_CuH19C25N4
_symmetry_space_group_name_H-M   'P 1'
_cell_length_a   7.31000000
_cell_length_b   13.14400000
_cell_length_c   13.80000000
_cell_angle_alpha   83.46000000
_cell_angle_beta   82.88000000
_cell_angle_gamma   84.71000000
_symmetry_Int_Tables_number   1
_chemical_formula_structural   CuH19C25N4
_chemical_formula_sum   'Cu2 H38 C50 N8'
_cell_volume   1303.04756066
_cell_formula_units_Z   2
loop_
 _symmetry_equiv_pos_site_id
 _symmetry_equiv_pos_as_xyz
  1  'x, y, z'
loop_
 _atom_site_type_symbol
 _atom_site_label
 _atom_site_symmetry_multiplicity
 _atom_site_fract_x
 _atom_site_fract_y
 _atom_site_fract_z
 _atom_site_occupancy
 _atom_site_charge
  Cu  Cu1  1  0.688500  0.707700  0.690900  1.0  0.3989
  Cu  Cu2  1  0.311500  0.292300  0.309100  1.0  0.3996
  H  H3  1  0.973800  0.855500  0.691000  1.0  0.0653
  H  H4  1  0.086000  0.957900  0.790000  1.0  0.1089
  H  H5  1  0.749300  0.834200  0.016000  1.0  0.1076
  H  H6  1  0.640900  0.739000  0.909200  1.0  0.0632
  H  H7  1  0.474900  0.734100  0.512400  1.0  0.0604
  H  H8  1  0.222500  0.833700  0.461900  1.0  0.106
  H  H9  1  0.316900  0.042600  0.637400  1.0  0.1248
  H  H10  1  0.558300  0.933500  0.687500  1.0  0.0709
  H  H11  1  0.059800  0.082300  0.536300  1.0  0.0866
  H  H12  1  0.988900  0.550700  0.734800  1.0  0.0655
  H  H13  1  0.269000  0.486500  0.664600  1.0  0.1088
  H  H14  1  0.149900  0.635900  0.406800  1.0  0.1126
  H  H15  1  0.871100  0.696500  0.483700  1.0  0.068
  H  H16  1  0.445400  0.535000  0.409600  1.0  0.0999
  H  H17  1  0.621500  0.488100  0.788900  1.0  0.0727
  H  H18  1  0.395000  0.405400  0.890000  1.0  0.1104
  H  H19  1  0.095500  0.676800  0.902900  1.0  0.1027
  H  H20  1  0.321600  0.749800  0.794100  1.0  0.0609
  H  H21  1  0.083900  0.405900  0.979900  1.0  0.0912
  H  H22  1  0.026200  0.144500  0.309000  1.0  0.0638
  H  H23  1  0.914000  0.042100  0.210000  1.0  0.1085
  H  H24  1  0.250700  0.165800  0.984000  1.0  0.1069
  H  H25  1  0.359100  0.261000  0.090800  1.0  0.0628
  H  H26  1  0.525100  0.265900  0.487600  1.0  0.0609
  H  H27  1  0.777500  0.166300  0.538100  1.0  0.1067
  H  H28  1  0.683100  0.957400  0.362600  1.0  0.1257
  H  H29  1  0.441700  0.066500  0.312500  1.0  0.072
  H  H30  1  0.940200  0.917700  0.463700  1.0  0.0866
  H  H31  1  0.011100  0.449300  0.265200  1.0  0.0654
  H  H32  1  0.731000  0.513500  0.335400  1.0  0.109
  H  H33  1  0.850100  0.364100  0.593200  1.0  0.1118
  H  H34  1  0.128900  0.303500  0.516300  1.0  0.069
  H  H35  1  0.554600  0.465000  0.590400  1.0  0.0986
  H  H36  1  0.378500  0.511900  0.211100  1.0  0.0731
  H  H37  1  0.605000  0.594600  0.110000  1.0  0.1098
  H  H38  1  0.904500  0.323200  0.097100  1.0  0.1029
  H  H39  1  0.678400  0.250200  0.205900  1.0  0.0614
  H  H40  1  0.916100  0.594100  0.020100  1.0  0.09
  C  C41  1  0.926000  0.852000  0.757700  1.0  0.1701
  C  C42  1  0.994600  0.913600  0.816800  1.0  -0.2458
  C  C43  1  0.929600  0.910300  0.915300  1.0  0.1182
  C  C44  1  0.796100  0.841300  0.949300  1.0  -0.2206
  C  C45  1  0.733100  0.783700  0.884900  1.0  0.1688
  C  C46  1  0.438800  0.795700  0.540800  1.0  0.1516
  C  C47  1  0.288200  0.855900  0.508900  1.0  -0.2089
  C  C48  1  0.233900  0.949000  0.546200  1.0  0.1076
  C  C49  1  0.342500  0.978400  0.612700  1.0  -0.2466
  C  C50  1  0.487900  0.912500  0.641900  1.0  0.1588
  C  C51  1  0.068600  0.014000  0.521000  1.0  -0.1365
  C  C52  1  0.023200  0.569500  0.667700  1.0  0.1533
  C  C53  1  0.191800  0.530800  0.626100  1.0  -0.2109
  C  C54  1  0.249100  0.557100  0.526500  1.0  0.1143
  C  C55  1  0.121600  0.618600  0.474700  1.0  -0.2179
  C  C56  1  0.953600  0.654900  0.521200  1.0  0.1566
  C  C57  1  0.428400  0.523100  0.478500  1.0  -0.1348
  C  C58  1  0.512300  0.526400  0.810900  1.0  0.1535
  C  C59  1  0.377900  0.476600  0.872800  1.0  -0.2213
  C  C60  1  0.217000  0.531300  0.910200  1.0  0.0929
  C  C61  1  0.200400  0.635900  0.879600  1.0  -0.2338
  C  C62  1  0.338200  0.679400  0.815100  1.0  0.166
  C  C63  1  0.072300  0.478100  0.974500  1.0  -0.1361
  C  C64  1  0.949900  0.957300  0.009200  1.0  -0.0751
  C  C65  1  0.028300  0.992700  0.954100  1.0  -0.1172
  C  C66  1  0.074000  0.148000  0.242300  1.0  0.1704
  C  C67  1  0.005400  0.086400  0.183200  1.0  -0.2466
  C  C68  1  0.070400  0.089700  0.084700  1.0  0.1186
  C  C69  1  0.203900  0.158700  0.050700  1.0  -0.2207
  C  C70  1  0.266900  0.216300  0.115100  1.0  0.1701
  C  C71  1  0.561200  0.204300  0.459200  1.0  0.1518
  C  C72  1  0.711800  0.144100  0.491100  1.0  -0.207
  C  C73  1  0.766100  0.051000  0.453800  1.0  0.1066
  C  C74  1  0.657500  0.021600  0.387300  1.0  -0.2473
  C  C75  1  0.512100  0.087500  0.358100  1.0  0.1598
  C  C76  1  0.931400  0.986000  0.479000  1.0  -0.1359
  C  C77  1  0.976800  0.430500  0.332300  1.0  0.1535
  C  C78  1  0.808200  0.469200  0.373900  1.0  -0.2111
  C  C79  1  0.750900  0.442900  0.473500  1.0  0.1137
  C  C80  1  0.878400  0.381400  0.525300  1.0  -0.2182
  C  C81  1  0.046400  0.345100  0.478800  1.0  0.157
  C  C82  1  0.571600  0.476900  0.521500  1.0  -0.1338
  C  C83  1  0.487700  0.473600  0.189100  1.0  0.1521
  C  C84  1  0.622100  0.523400  0.127200  1.0  -0.2195
  C  C85  1  0.783000  0.468700  0.089800  1.0  0.0917
  C  C86  1  0.799600  0.364100  0.120400  1.0  -0.2334
  C  C87  1  0.661800  0.320600  0.184900  1.0  0.1671
  C  C88  1  0.927700  0.521900  0.025500  1.0  -0.1368
  C  C89  1  0.050100  0.042700  0.990800  1.0  -0.0772
  C  C90  1  0.971700  0.007300  0.045900  1.0  -0.1221
  N  N91  1  0.796400  0.788100  0.789600  1.0  -0.3443
  N  N92  1  0.535400  0.820000  0.609400  1.0  -0.3389
  N  N93  1  0.903700  0.633200  0.617300  1.0  -0.3467
  N  N94  1  0.493500  0.627300  0.780700  1.0  -0.3596
  N  N95  1  0.203600  0.211900  0.210400  1.0  -0.3434
  N  N96  1  0.464600  0.180000  0.390600  1.0  -0.3395
  N  N97  1  0.096300  0.366800  0.382700  1.0  -0.3459
  N  N98  1  0.506500  0.372700  0.219300  1.0  -0.3608
