# generated using pymatgen
data_FeH8C16(NO2)2
_symmetry_space_group_name_H-M   'P 1'
_cell_length_a   22.06110000
_cell_length_b   22.06110000
_cell_length_c   22.06110000
_cell_angle_alpha   109.47100000
_cell_angle_beta   109.47100000
_cell_angle_gamma   109.47100000
_symmetry_Int_Tables_number   1
_chemical_formula_structural   FeH8C16(NO2)2
_chemical_formula_sum   'Fe12 H96 C192 N24 O48'
_cell_volume   8265.38611916
_cell_formula_units_Z   12
loop_
 _symmetry_equiv_pos_site_id
 _symmetry_equiv_pos_as_xyz
  1  'x, y, z'
loop_
 _atom_site_type_symbol
 _atom_site_label
 _atom_site_symmetry_multiplicity
 _atom_site_fract_x
 _atom_site_fract_y
 _atom_site_fract_z
 _atom_site_occupancy
 _atom_site_charge
  Fe  Fe1  1  0.409220  0.500000  0.909220  1.0  1.0595
  Fe  Fe2  1  0.590780  0.500000  0.090780  1.0  1.0595
  Fe  Fe3  1  0.909220  0.409220  0.500000  1.0  1.0584
  Fe  Fe4  1  0.090780  0.590780  0.500000  1.0  1.0586
  Fe  Fe5  1  0.500000  0.090780  0.590780  1.0  1.0587
  Fe  Fe6  1  0.500000  0.909220  0.409220  1.0  1.0583
  Fe  Fe7  1  0.500000  0.590780  0.090780  1.0  1.0587
  Fe  Fe8  1  0.500000  0.409220  0.909220  1.0  1.0583
  Fe  Fe9  1  0.590780  0.090780  0.500000  1.0  1.0586
  Fe  Fe10  1  0.409220  0.909220  0.500000  1.0  1.0584
  Fe  Fe11  1  0.909220  0.500000  0.409220  1.0  1.0595
  Fe  Fe12  1  0.090780  0.500000  0.590780  1.0  1.0595
  H  H13  1  0.439800  0.687400  0.887000  1.0  0.1239
  H  H14  1  0.470100  0.799900  0.888400  1.0  0.1128
  H  H15  1  0.800400  0.552800  0.113000  1.0  0.1212
  H  H16  1  0.911500  0.581700  0.111600  1.0  0.1122
  H  H17  1  0.199600  0.312600  0.752400  1.0  0.1239
  H  H18  1  0.088500  0.200100  0.670200  1.0  0.1143
  H  H19  1  0.560200  0.447200  0.247600  1.0  0.1229
  H  H20  1  0.529900  0.418300  0.329800  1.0  0.113
  H  H21  1  0.752400  0.199600  0.312600  1.0  0.1242
  H  H22  1  0.670200  0.088500  0.200100  1.0  0.1137
  H  H23  1  0.247600  0.560200  0.447200  1.0  0.123
  H  H24  1  0.329800  0.529900  0.418300  1.0  0.1119
  H  H25  1  0.887000  0.439800  0.687400  1.0  0.1231
  H  H26  1  0.888400  0.470100  0.799900  1.0  0.1127
  H  H27  1  0.113000  0.800400  0.552800  1.0  0.1213
  H  H28  1  0.111600  0.911500  0.581700  1.0  0.112
  H  H29  1  0.552800  0.113000  0.800400  1.0  0.1215
  H  H30  1  0.581700  0.111600  0.911500  1.0  0.1116
  H  H31  1  0.687400  0.887000  0.439800  1.0  0.1241
  H  H32  1  0.799900  0.888400  0.470100  1.0  0.1141
  H  H33  1  0.447200  0.247600  0.560200  1.0  0.1234
  H  H34  1  0.418300  0.329800  0.529900  1.0  0.1134
  H  H35  1  0.312600  0.752400  0.199600  1.0  0.1241
  H  H36  1  0.200100  0.670200  0.088500  1.0  0.1137
  H  H37  1  0.312600  0.560200  0.113000  1.0  0.1237
  H  H38  1  0.200100  0.529900  0.111600  1.0  0.1113
  H  H39  1  0.447200  0.199600  0.887000  1.0  0.1215
  H  H40  1  0.418300  0.088500  0.888400  1.0  0.1109
  H  H41  1  0.687400  0.800400  0.247600  1.0  0.1239
  H  H42  1  0.799900  0.911500  0.329800  1.0  0.1145
  H  H43  1  0.552800  0.439800  0.752400  1.0  0.1231
  H  H44  1  0.581700  0.470100  0.670200  1.0  0.113
  H  H45  1  0.800400  0.247600  0.687400  1.0  0.1239
  H  H46  1  0.911500  0.329800  0.799900  1.0  0.1149
  H  H47  1  0.439800  0.752400  0.552800  1.0  0.123
  H  H48  1  0.470100  0.670200  0.581700  1.0  0.1127
  H  H49  1  0.560200  0.113000  0.312600  1.0  0.1238
  H  H50  1  0.529900  0.111600  0.200100  1.0  0.1133
  H  H51  1  0.199600  0.887000  0.447200  1.0  0.122
  H  H52  1  0.088500  0.888400  0.418300  1.0  0.1126
  H  H53  1  0.887000  0.447200  0.199600  1.0  0.1213
  H  H54  1  0.888400  0.418300  0.088500  1.0  0.1122
  H  H55  1  0.113000  0.312600  0.560200  1.0  0.1236
  H  H56  1  0.111600  0.200100  0.529900  1.0  0.1124
  H  H57  1  0.752400  0.552800  0.439800  1.0  0.1229
  H  H58  1  0.670200  0.581700  0.470100  1.0  0.1135
  H  H59  1  0.247600  0.687400  0.800400  1.0  0.1247
  H  H60  1  0.329800  0.799900  0.911500  1.0  0.114
  H  H61  1  0.560200  0.312600  0.113000  1.0  0.124
  H  H62  1  0.529900  0.200100  0.111600  1.0  0.1127
  H  H63  1  0.199600  0.447200  0.887000  1.0  0.121
  H  H64  1  0.088500  0.418300  0.888400  1.0  0.112
  H  H65  1  0.800400  0.687400  0.247600  1.0  0.1242
  H  H66  1  0.911500  0.799900  0.329800  1.0  0.1135
  H  H67  1  0.439800  0.552800  0.752400  1.0  0.1227
  H  H68  1  0.470100  0.581700  0.670200  1.0  0.114
  H  H69  1  0.247600  0.800400  0.687400  1.0  0.1239
  H  H70  1  0.329800  0.911500  0.799900  1.0  0.1137
  H  H71  1  0.752400  0.439800  0.552800  1.0  0.1236
  H  H72  1  0.670200  0.470100  0.581700  1.0  0.1112
  H  H73  1  0.113000  0.560200  0.312600  1.0  0.1234
  H  H74  1  0.111600  0.529900  0.200100  1.0  0.1134
  H  H75  1  0.887000  0.199600  0.447200  1.0  0.1217
  H  H76  1  0.888400  0.088500  0.418300  1.0  0.1117
  H  H77  1  0.447200  0.887000  0.199600  1.0  0.1214
  H  H78  1  0.418300  0.888400  0.088500  1.0  0.1114
  H  H79  1  0.312600  0.113000  0.560200  1.0  0.1244
  H  H80  1  0.200100  0.111600  0.529900  1.0  0.1146
  H  H81  1  0.552800  0.752400  0.439800  1.0  0.1232
  H  H82  1  0.581700  0.670200  0.470100  1.0  0.1124
  H  H83  1  0.687400  0.247600  0.800400  1.0  0.124
  H  H84  1  0.799900  0.329800  0.911500  1.0  0.1149
  H  H85  1  0.687400  0.439800  0.887000  1.0  0.1236
  H  H86  1  0.799900  0.470100  0.888400  1.0  0.112
  H  H87  1  0.552800  0.800400  0.113000  1.0  0.1215
  H  H88  1  0.581700  0.911500  0.111600  1.0  0.1108
  H  H89  1  0.312600  0.199600  0.752400  1.0  0.1236
  H  H90  1  0.200100  0.088500  0.670200  1.0  0.1148
  H  H91  1  0.447200  0.560200  0.247600  1.0  0.1229
  H  H92  1  0.418300  0.529900  0.329800  1.0  0.1125
  H  H93  1  0.199600  0.752400  0.312600  1.0  0.1241
  H  H94  1  0.088500  0.670200  0.200100  1.0  0.1139
  H  H95  1  0.560200  0.247600  0.447200  1.0  0.1231
  H  H96  1  0.529900  0.329800  0.418300  1.0  0.114
  H  H97  1  0.439800  0.887000  0.687400  1.0  0.1234
  H  H98  1  0.470100  0.888400  0.799900  1.0  0.1125
  H  H99  1  0.800400  0.113000  0.552800  1.0  0.1218
  H  H100  1  0.911500  0.111600  0.581700  1.0  0.1137
  H  H101  1  0.113000  0.552800  0.800400  1.0  0.1215
  H  H102  1  0.111600  0.581700  0.911500  1.0  0.1122
  H  H103  1  0.887000  0.687400  0.439800  1.0  0.1233
  H  H104  1  0.888400  0.799900  0.470100  1.0  0.1127
  H  H105  1  0.247600  0.447200  0.560200  1.0  0.1233
  H  H106  1  0.329800  0.418300  0.529900  1.0  0.1134
  H  H107  1  0.752400  0.312600  0.199600  1.0  0.124
  H  H108  1  0.670200  0.200100  0.088500  1.0  0.1141
  C  C109  1  0.470600  0.732900  0.932900  1.0  -0.0764
  C  C110  1  0.489700  0.800300  0.934000  1.0  -0.0227
  C  C111  1  0.800000  0.537700  0.067100  1.0  -0.0791
  C  C112  1  0.866300  0.555700  0.066000  1.0  -0.0234
  C  C113  1  0.200000  0.267100  0.737700  1.0  -0.0747
  C  C114  1  0.133700  0.199700  0.689400  1.0  -0.026
  C  C115  1  0.529400  0.462300  0.262300  1.0  -0.0789
  C  C116  1  0.510300  0.444300  0.310600  1.0  -0.0237
  C  C117  1  0.737700  0.200000  0.267100  1.0  -0.0768
  C  C118  1  0.689400  0.133700  0.199700  1.0  -0.0244
  C  C119  1  0.262300  0.529400  0.462300  1.0  -0.0774
  C  C120  1  0.310600  0.510300  0.444300  1.0  -0.0243
  C  C121  1  0.932900  0.470600  0.732900  1.0  -0.0778
  C  C122  1  0.934000  0.489700  0.800300  1.0  -0.019
  C  C123  1  0.067100  0.800000  0.537700  1.0  -0.0761
  C  C124  1  0.066000  0.866300  0.555700  1.0  -0.0211
  C  C125  1  0.537700  0.067100  0.800000  1.0  -0.0762
  C  C126  1  0.555700  0.066000  0.866300  1.0  -0.021
  C  C127  1  0.732900  0.932900  0.470600  1.0  -0.0764
  C  C128  1  0.800300  0.934000  0.489700  1.0  -0.0255
  C  C129  1  0.462300  0.262300  0.529400  1.0  -0.0787
  C  C130  1  0.444300  0.310600  0.510300  1.0  -0.0271
  C  C131  1  0.267100  0.737700  0.200000  1.0  -0.0763
  C  C132  1  0.199700  0.689400  0.133700  1.0  -0.0271
  C  C133  1  0.267100  0.529400  0.067100  1.0  -0.0769
  C  C134  1  0.199700  0.510300  0.066000  1.0  -0.0199
  C  C135  1  0.462300  0.200000  0.932900  1.0  -0.0768
  C  C136  1  0.444300  0.133700  0.934000  1.0  -0.0206
  C  C137  1  0.732900  0.800000  0.262300  1.0  -0.0765
  C  C138  1  0.800300  0.866300  0.310600  1.0  -0.0246
  C  C139  1  0.537700  0.470600  0.737700  1.0  -0.0774
  C  C140  1  0.555700  0.489700  0.689400  1.0  -0.0229
  C  C141  1  0.800000  0.262300  0.732900  1.0  -0.0766
  C  C142  1  0.866300  0.310600  0.800300  1.0  -0.0259
  C  C143  1  0.470600  0.737700  0.537700  1.0  -0.0789
  C  C144  1  0.489700  0.689400  0.555700  1.0  -0.0279
  C  C145  1  0.529400  0.067100  0.267100  1.0  -0.0776
  C  C146  1  0.510300  0.066000  0.199700  1.0  -0.0206
  C  C147  1  0.200000  0.932900  0.462300  1.0  -0.075
  C  C148  1  0.133700  0.934000  0.444300  1.0  -0.0278
  C  C149  1  0.932900  0.462300  0.200000  1.0  -0.0785
  C  C150  1  0.934000  0.444300  0.133700  1.0  -0.0197
  C  C151  1  0.067100  0.267100  0.529400  1.0  -0.0755
  C  C152  1  0.066000  0.199700  0.510300  1.0  -0.0222
  C  C153  1  0.737700  0.537700  0.470600  1.0  -0.0779
  C  C154  1  0.689400  0.555700  0.489700  1.0  -0.0259
  C  C155  1  0.262300  0.732900  0.800000  1.0  -0.0749
  C  C156  1  0.310600  0.800300  0.866300  1.0  -0.0262
  C  C157  1  0.529400  0.267100  0.067100  1.0  -0.0779
  C  C158  1  0.510300  0.199700  0.066000  1.0  -0.0233
  C  C159  1  0.200000  0.462300  0.932900  1.0  -0.0766
  C  C160  1  0.133700  0.444300  0.934000  1.0  -0.0246
  C  C161  1  0.800000  0.732900  0.262300  1.0  -0.0742
  C  C162  1  0.866300  0.800300  0.310600  1.0  -0.0242
  C  C163  1  0.470600  0.537700  0.737700  1.0  -0.0793
  C  C164  1  0.489700  0.555700  0.689400  1.0  -0.0226
  C  C165  1  0.262300  0.800000  0.732900  1.0  -0.0764
  C  C166  1  0.310600  0.866300  0.800300  1.0  -0.024
  C  C167  1  0.737700  0.470600  0.537700  1.0  -0.0775
  C  C168  1  0.689400  0.489700  0.555700  1.0  -0.0222
  C  C169  1  0.067100  0.529400  0.267100  1.0  -0.0767
  C  C170  1  0.066000  0.510300  0.199700  1.0  -0.0193
  C  C171  1  0.932900  0.200000  0.462300  1.0  -0.0773
  C  C172  1  0.934000  0.133700  0.444300  1.0  -0.0225
  C  C173  1  0.462300  0.932900  0.200000  1.0  -0.0753
  C  C174  1  0.444300  0.934000  0.133700  1.0  -0.0213
  C  C175  1  0.267100  0.067100  0.529400  1.0  -0.0767
  C  C176  1  0.199700  0.066000  0.510300  1.0  -0.0265
  C  C177  1  0.537700  0.737700  0.470600  1.0  -0.0783
  C  C178  1  0.555700  0.689400  0.489700  1.0  -0.0257
  C  C179  1  0.732900  0.262300  0.800000  1.0  -0.0769
  C  C180  1  0.800300  0.310600  0.866300  1.0  -0.0271
  C  C181  1  0.732900  0.470600  0.932900  1.0  -0.0771
  C  C182  1  0.800300  0.489700  0.934000  1.0  -0.0223
  C  C183  1  0.537700  0.800000  0.067100  1.0  -0.0778
  C  C184  1  0.555700  0.866300  0.066000  1.0  -0.0211
  C  C185  1  0.267100  0.200000  0.737700  1.0  -0.0766
  C  C186  1  0.199700  0.133700  0.689400  1.0  -0.0228
  C  C187  1  0.462300  0.529400  0.262300  1.0  -0.0778
  C  C188  1  0.444300  0.510300  0.310600  1.0  -0.0224
  C  C189  1  0.200000  0.737700  0.267100  1.0  -0.0781
  C  C190  1  0.133700  0.689400  0.199700  1.0  -0.0277
  C  C191  1  0.529400  0.262300  0.462300  1.0  -0.0781
  C  C192  1  0.510300  0.310600  0.444300  1.0  -0.0277
  C  C193  1  0.470600  0.932900  0.732900  1.0  -0.0758
  C  C194  1  0.489700  0.934000  0.800300  1.0  -0.0202
  C  C195  1  0.800000  0.067100  0.537700  1.0  -0.077
  C  C196  1  0.866300  0.066000  0.555700  1.0  -0.0264
  C  C197  1  0.067100  0.537700  0.800000  1.0  -0.0778
  C  C198  1  0.066000  0.555700  0.866300  1.0  -0.0199
  C  C199  1  0.932900  0.732900  0.470600  1.0  -0.0745
  C  C200  1  0.934000  0.800300  0.489700  1.0  -0.0223
  C  C201  1  0.262300  0.462300  0.529400  1.0  -0.0786
  C  C202  1  0.310600  0.444300  0.510300  1.0  -0.0274
  C  C203  1  0.737700  0.267100  0.200000  1.0  -0.0752
  C  C204  1  0.689400  0.199700  0.133700  1.0  -0.0246
  C  C205  1  0.476700  0.669300  0.000000  1.0  0.5255
  C  C206  1  0.497100  0.732700  0.000000  1.0  0.0061
  C  C207  1  0.536690  0.868310  0.000000  1.0  -0.0186
  C  C208  1  0.557100  0.935500  0.000000  1.0  0.3182
  C  C209  1  0.669300  0.476700  0.000000  1.0  0.5286
  C  C210  1  0.732700  0.497100  0.000000  1.0  0.0062
  C  C211  1  0.868310  0.536690  0.000000  1.0  -0.0188
  C  C212  1  0.935500  0.557100  0.000000  1.0  0.3189
  C  C213  1  0.330700  0.330700  0.807400  1.0  0.5231
  C  C214  1  0.267300  0.267300  0.764400  1.0  -0.0009
  C  C215  1  0.131690  0.131690  0.668380  1.0  -0.0109
  C  C216  1  0.064500  0.064500  0.621600  1.0  0.3229
  C  C217  1  0.523300  0.523300  0.192600  1.0  0.53
  C  C218  1  0.502900  0.502900  0.235600  1.0  0.0054
  C  C219  1  0.463310  0.463310  0.331620  1.0  -0.0121
  C  C220  1  0.442900  0.442900  0.378400  1.0  0.3206
  C  C221  1  0.807400  0.330700  0.330700  1.0  0.5231
  C  C222  1  0.764400  0.267300  0.267300  1.0  -0.0011
  C  C223  1  0.668380  0.131690  0.131690  1.0  -0.0144
  C  C224  1  0.621600  0.064500  0.064500  1.0  0.32
  C  C225  1  0.192600  0.523300  0.523300  1.0  0.5299
  C  C226  1  0.235600  0.502900  0.502900  1.0  0.0051
  C  C227  1  0.331620  0.463310  0.463310  1.0  -0.0152
  C  C228  1  0.378400  0.442900  0.442900  1.0  0.3211
  C  C229  1  0.000000  0.476700  0.669300  1.0  0.5291
  C  C230  1  0.000000  0.497100  0.732700  1.0  0.0075
  C  C231  1  0.000000  0.536690  0.868310  1.0  -0.0171
  C  C232  1  0.000000  0.557100  0.935500  1.0  0.3189
  C  C233  1  0.000000  0.669300  0.476700  1.0  0.5255
  C  C234  1  0.000000  0.732700  0.497100  1.0  0.0065
  C  C235  1  0.000000  0.868310  0.536690  1.0  -0.0163
  C  C236  1  0.000000  0.935500  0.557100  1.0  0.3216
  C  C237  1  0.476700  0.000000  0.669300  1.0  0.5295
  C  C238  1  0.497100  0.000000  0.732700  1.0  0.0065
  C  C239  1  0.536690  0.000000  0.868310  1.0  -0.0169
  C  C240  1  0.557100  0.000000  0.935500  1.0  0.3179
  C  C241  1  0.669300  0.000000  0.476700  1.0  0.5286
  C  C242  1  0.732700  0.000000  0.497100  1.0  0.0052
  C  C243  1  0.868310  0.000000  0.536690  1.0  -0.0191
  C  C244  1  0.935500  0.000000  0.557100  1.0  0.3208
  C  C245  1  0.523300  0.192600  0.523300  1.0  0.5281
  C  C246  1  0.502900  0.235600  0.502900  1.0  0.006
  C  C247  1  0.463310  0.331620  0.463310  1.0  -0.0133
  C  C248  1  0.442900  0.378400  0.442900  1.0  0.322
  C  C249  1  0.330700  0.807400  0.330700  1.0  0.5238
  C  C250  1  0.267300  0.764400  0.267300  1.0  0.0002
  C  C251  1  0.131690  0.668380  0.131690  1.0  -0.015
  C  C252  1  0.064500  0.621600  0.064500  1.0  0.3219
  C  C253  1  0.330700  0.523300  0.000000  1.0  0.5288
  C  C254  1  0.267300  0.502900  0.000000  1.0  0.0062
  C  C255  1  0.131690  0.463310  0.000000  1.0  -0.0192
  C  C256  1  0.064500  0.442900  0.000000  1.0  0.3174
  C  C257  1  0.523300  0.330700  0.000000  1.0  0.5269
  C  C258  1  0.502900  0.267300  0.000000  1.0  0.0063
  C  C259  1  0.463310  0.131690  0.000000  1.0  -0.0169
  C  C260  1  0.442900  0.064500  0.000000  1.0  0.3191
  C  C261  1  0.669300  0.669300  0.192600  1.0  0.5228
  C  C262  1  0.732700  0.732700  0.235600  1.0  0.0
  C  C263  1  0.868310  0.868310  0.331620  1.0  -0.0098
  C  C264  1  0.935500  0.935500  0.378400  1.0  0.3217
  C  C265  1  0.476700  0.476700  0.807400  1.0  0.5293
  C  C266  1  0.497100  0.497100  0.764400  1.0  0.0058
  C  C267  1  0.536690  0.536690  0.668380  1.0  -0.0115
  C  C268  1  0.557100  0.557100  0.621600  1.0  0.3197
  C  C269  1  0.669300  0.192600  0.669300  1.0  0.5229
  C  C270  1  0.732700  0.235600  0.732700  1.0  0.0003
  C  C271  1  0.868310  0.331620  0.868310  1.0  -0.013
  C  C272  1  0.935500  0.378400  0.935500  1.0  0.3196
  C  C273  1  0.476700  0.807400  0.476700  1.0  0.5284
  C  C274  1  0.497100  0.764400  0.497100  1.0  0.006
  C  C275  1  0.536690  0.668380  0.536690  1.0  -0.0128
  C  C276  1  0.557100  0.621600  0.557100  1.0  0.3199
  C  C277  1  0.523300  0.000000  0.330700  1.0  0.5273
  C  C278  1  0.502900  0.000000  0.267300  1.0  0.0052
  C  C279  1  0.463310  0.000000  0.131690  1.0  -0.0157
  C  C280  1  0.442900  0.000000  0.064500  1.0  0.3193
  C  C281  1  0.330700  0.000000  0.523300  1.0  0.5289
  C  C282  1  0.267300  0.000000  0.502900  1.0  0.0063
  C  C283  1  0.131690  0.000000  0.463310  1.0  -0.0157
  C  C284  1  0.064500  0.000000  0.442900  1.0  0.3183
  C  C285  1  0.000000  0.523300  0.330700  1.0  0.5272
  C  C286  1  0.000000  0.502900  0.267300  1.0  0.0068
  C  C287  1  0.000000  0.463310  0.131690  1.0  -0.0181
  C  C288  1  0.000000  0.442900  0.064500  1.0  0.3175
  C  C289  1  0.000000  0.330700  0.523300  1.0  0.5265
  C  C290  1  0.000000  0.267300  0.502900  1.0  0.0077
  C  C291  1  0.000000  0.131690  0.463310  1.0  -0.0142
  C  C292  1  0.000000  0.064500  0.442900  1.0  0.3184
  C  C293  1  0.807400  0.476700  0.476700  1.0  0.5302
  C  C294  1  0.764400  0.497100  0.497100  1.0  0.0051
  C  C295  1  0.668380  0.536690  0.536690  1.0  -0.0122
  C  C296  1  0.621600  0.557100  0.557100  1.0  0.3197
  C  C297  1  0.192600  0.669300  0.669300  1.0  0.5231
  C  C298  1  0.235600  0.732700  0.732700  1.0  -0.001
  C  C299  1  0.331620  0.868310  0.868310  1.0  -0.0121
  C  C300  1  0.378400  0.935500  0.935500  1.0  0.3217
  N  N301  1  0.603500  0.000000  0.068700  1.0  -0.4572
  N  N302  1  0.931300  0.534800  0.931300  1.0  -0.4569
  N  N303  1  0.068700  0.000000  0.603500  1.0  -0.4509
  N  N304  1  0.396500  0.465200  0.396500  1.0  -0.4547
  N  N305  1  0.603500  0.068700  0.000000  1.0  -0.4524
  N  N306  1  0.396500  0.396500  0.465200  1.0  -0.4588
  N  N307  1  0.068700  0.603500  0.000000  1.0  -0.4499
  N  N308  1  0.931300  0.931300  0.534800  1.0  -0.4559
  N  N309  1  0.534800  0.931300  0.931300  1.0  -0.4566
  N  N310  1  0.000000  0.068700  0.603500  1.0  -0.4523
  N  N311  1  0.465200  0.396500  0.396500  1.0  -0.4512
  N  N312  1  0.000000  0.603500  0.068700  1.0  -0.4555
  N  N313  1  0.000000  0.396500  0.931300  1.0  -0.4533
  N  N314  1  0.465200  0.068700  0.068700  1.0  -0.4585
  N  N315  1  0.000000  0.931300  0.396500  1.0  -0.45
  N  N316  1  0.534800  0.603500  0.603500  1.0  -0.4562
  N  N317  1  0.931300  0.396500  0.000000  1.0  -0.4532
  N  N318  1  0.603500  0.603500  0.534800  1.0  -0.4589
  N  N319  1  0.396500  0.931300  0.000000  1.0  -0.4526
  N  N320  1  0.068700  0.068700  0.465200  1.0  -0.4527
  N  N321  1  0.068700  0.465200  0.068700  1.0  -0.455
  N  N322  1  0.931300  0.000000  0.396500  1.0  -0.449
  N  N323  1  0.603500  0.534800  0.603500  1.0  -0.4561
  N  N324  1  0.396500  0.000000  0.931300  1.0  -0.4533
  O  O325  1  0.427300  0.600800  0.931700  1.0  -0.5954
  O  O326  1  0.669100  0.495600  0.068300  1.0  -0.5935
  O  O327  1  0.330900  0.399200  0.826500  1.0  -0.5847
  O  O328  1  0.572700  0.504400  0.173500  1.0  -0.5902
  O  O329  1  0.826500  0.330900  0.399200  1.0  -0.5878
  O  O330  1  0.173500  0.572700  0.504400  1.0  -0.5917
  O  O331  1  0.931700  0.427300  0.600800  1.0  -0.5946
  O  O332  1  0.068300  0.669100  0.495600  1.0  -0.5898
  O  O333  1  0.495600  0.068300  0.669100  1.0  -0.5931
  O  O334  1  0.600800  0.931700  0.427300  1.0  -0.5948
  O  O335  1  0.504400  0.173500  0.572700  1.0  -0.5926
  O  O336  1  0.399200  0.826500  0.330900  1.0  -0.5842
  O  O337  1  0.399200  0.572700  0.068300  1.0  -0.5953
  O  O338  1  0.504400  0.330900  0.931700  1.0  -0.5932
  O  O339  1  0.600800  0.669100  0.173500  1.0  -0.5849
  O  O340  1  0.495600  0.427300  0.826500  1.0  -0.5909
  O  O341  1  0.669100  0.173500  0.600800  1.0  -0.5864
  O  O342  1  0.427300  0.826500  0.495600  1.0  -0.5914
  O  O343  1  0.572700  0.068300  0.399200  1.0  -0.5965
  O  O344  1  0.330900  0.931700  0.504400  1.0  -0.5925
  O  O345  1  0.931700  0.504400  0.330900  1.0  -0.592
  O  O346  1  0.068300  0.399200  0.572700  1.0  -0.5935
  O  O347  1  0.826500  0.495600  0.427300  1.0  -0.592
  O  O348  1  0.173500  0.600800  0.669100  1.0  -0.5865
  O  O349  1  0.572700  0.399200  0.068300  1.0  -0.5957
  O  O350  1  0.330900  0.504400  0.931700  1.0  -0.5925
  O  O351  1  0.669100  0.600800  0.173500  1.0  -0.5839
  O  O352  1  0.427300  0.495600  0.826500  1.0  -0.5911
  O  O353  1  0.173500  0.669100  0.600800  1.0  -0.5859
  O  O354  1  0.826500  0.427300  0.495600  1.0  -0.5913
  O  O355  1  0.068300  0.572700  0.399200  1.0  -0.5942
  O  O356  1  0.931700  0.330900  0.504400  1.0  -0.5914
  O  O357  1  0.504400  0.931700  0.330900  1.0  -0.5924
  O  O358  1  0.399200  0.068300  0.572700  1.0  -0.5956
  O  O359  1  0.495600  0.826500  0.427300  1.0  -0.5919
  O  O360  1  0.600800  0.173500  0.669100  1.0  -0.5852
  O  O361  1  0.600800  0.427300  0.931700  1.0  -0.5958
  O  O362  1  0.495600  0.669100  0.068300  1.0  -0.5947
  O  O363  1  0.399200  0.330900  0.826500  1.0  -0.5835
  O  O364  1  0.504400  0.572700  0.173500  1.0  -0.5917
  O  O365  1  0.330900  0.826500  0.399200  1.0  -0.5874
  O  O366  1  0.572700  0.173500  0.504400  1.0  -0.5907
  O  O367  1  0.427300  0.931700  0.600800  1.0  -0.5953
  O  O368  1  0.669100  0.068300  0.495600  1.0  -0.5935
  O  O369  1  0.068300  0.495600  0.669100  1.0  -0.5907
  O  O370  1  0.931700  0.600800  0.427300  1.0  -0.5945
  O  O371  1  0.173500  0.504400  0.572700  1.0  -0.5932
  O  O372  1  0.826500  0.399200  0.330900  1.0  -0.5859
