# generated using pymatgen
data_ZnFeH4C2(N5F2)2
_symmetry_space_group_name_H-M   'P 1'
_cell_length_a   13.29280000
_cell_length_b   6.57000000
_cell_length_c   13.64610000
_cell_angle_alpha   90.00000000
_cell_angle_beta   119.06900000
_cell_angle_gamma   90.00000000
_symmetry_Int_Tables_number   1
_chemical_formula_structural   ZnFeH4C2(N5F2)2
_chemical_formula_sum   'Zn3 Fe3 H12 C6 N30 F12'
_cell_volume   1041.64402436
_cell_formula_units_Z   3
loop_
 _symmetry_equiv_pos_site_id
 _symmetry_equiv_pos_as_xyz
  1  'x, y, z'
loop_
 _atom_site_type_symbol
 _atom_site_label
 _atom_site_symmetry_multiplicity
 _atom_site_fract_x
 _atom_site_fract_y
 _atom_site_fract_z
 _atom_site_occupancy
 _atom_site_charge
  Zn  Zn1  1  0.950270  0.401710  0.996720  1.0  0.9582
  Zn  Zn2  1  0.505170  0.091550  0.005490  1.0  1.0553
  Zn  Zn3  1  0.049730  0.901710  0.003280  1.0  0.9579
  Fe  Fe4  1  0.247390  0.245480  0.495700  1.0  1.2958
  Fe  Fe5  1  0.494830  0.591550  0.994510  1.0  1.0876
  Fe  Fe6  1  0.752610  0.745480  0.504300  1.0  1.296
  H  H7  1  0.174000  0.724300  0.257200  1.0  0.3508
  H  H8  1  0.228000  0.810000  0.372800  1.0  0.3491
  H  H9  1  0.745200  0.892600  0.018700  1.0  0.373
  H  H10  1  0.846600  0.966300  0.010100  1.0  0.3569
  H  H11  1  0.338100  0.774500  0.726700  1.0  0.3709
  H  H12  1  0.282500  0.685300  0.611900  1.0  0.3504
  H  H13  1  0.826000  0.224300  0.742800  1.0  0.352
  H  H14  1  0.772000  0.310000  0.627200  1.0  0.3489
  H  H15  1  0.254800  0.392600  0.981300  1.0  0.3727
  H  H16  1  0.153400  0.466300  0.989900  1.0  0.3568
  H  H17  1  0.661900  0.274500  0.273300  1.0  0.3705
  H  H18  1  0.717500  0.185300  0.388100  1.0  0.3511
  C  C19  1  0.152500  0.013800  0.258600  1.0  0.5834
  C  C20  1  0.747000  0.189300  0.006100  1.0  0.6069
  C  C21  1  0.343500  0.480200  0.728300  1.0  0.5664
  C  C22  1  0.847500  0.513800  0.741400  1.0  0.5847
  C  C23  1  0.253000  0.689300  0.993900  1.0  0.6063
  C  C24  1  0.656500  0.980200  0.271700  1.0  0.5649
  N  N25  1  0.175500  0.187200  0.318800  1.0  -0.3246
  N  N26  1  0.124600  0.342000  0.243100  1.0  -0.1731
  N  N27  1  0.077100  0.263900  0.143900  1.0  -0.0392
  N  N28  1  0.091900  0.055400  0.149300  1.0  -0.3935
  N  N29  1  0.189200  0.826900  0.301300  1.0  -0.7436
  N  N30  1  0.803100  0.356400  0.001300  1.0  -0.3305
  N  N31  1  0.737800  0.515500  0.999600  1.0  -0.1065
  N  N32  1  0.649000  0.444900  0.005000  1.0  0.0083
  N  N33  1  0.651900  0.239700  0.009100  1.0  -0.3242
  N  N34  1  0.784300  0.991200  0.012400  1.0  -0.7368
  N  N35  1  0.315200  0.304300  0.668200  1.0  -0.3216
  N  N36  1  0.354700  0.152500  0.744700  1.0  -0.0845
  N  N37  1  0.403300  0.233000  0.844100  1.0  0.0258
  N  N38  1  0.399100  0.437400  0.838800  1.0  -0.4097
  N  N39  1  0.318300  0.669800  0.683500  1.0  -0.7337
  N  N40  1  0.824500  0.687200  0.681200  1.0  -0.3255
  N  N41  1  0.875400  0.842000  0.756900  1.0  -0.1742
  N  N42  1  0.922900  0.763900  0.856100  1.0  -0.0406
  N  N43  1  0.908100  0.555400  0.850700  1.0  -0.3914
  N  N44  1  0.810800  0.326900  0.698700  1.0  -0.743
  N  N45  1  0.196900  0.856400  0.998700  1.0  -0.3315
  N  N46  1  0.262200  0.015500  0.000400  1.0  -0.1072
  N  N47  1  0.351000  0.944900  0.995000  1.0  0.016
  N  N48  1  0.348100  0.739700  0.990900  1.0  -0.3226
  N  N49  1  0.215700  0.491200  0.987600  1.0  -0.736
  N  N50  1  0.684800  0.804300  0.331800  1.0  -0.321
  N  N51  1  0.645300  0.652500  0.255300  1.0  -0.0837
  N  N52  1  0.596700  0.733000  0.155900  1.0  0.0172
  N  N53  1  0.600900  0.937400  0.161200  1.0  -0.4091
  N  N54  1  0.681700  0.169800  0.316500  1.0  -0.7351
  F  F55  1  0.107600  0.148900  0.486200  1.0  -0.4062
  F  F56  1  0.186800  0.517800  0.464600  1.0  -0.4358
  F  F57  1  0.307700  0.977000  0.523300  1.0  -0.4163
  F  F58  1  0.386700  0.344700  0.503300  1.0  -0.4204
  F  F59  1  0.970100  0.156000  0.922900  1.0  -0.5142
  F  F60  1  0.475800  0.343600  0.071400  1.0  -0.3511
  F  F61  1  0.892400  0.648900  0.513800  1.0  -0.4089
  F  F62  1  0.813200  0.017800  0.535400  1.0  -0.4379
  F  F63  1  0.692300  0.477000  0.476700  1.0  -0.4153
  F  F64  1  0.613300  0.844700  0.496700  1.0  -0.4182
  F  F65  1  0.029900  0.656000  0.077100  1.0  -0.5134
  F  F66  1  0.524200  0.843600  0.928600  1.0  -0.3542
