# generated using pymatgen
data_ZnH2CN5F
_symmetry_space_group_name_H-M   'P 1'
_cell_length_a   6.55760000
_cell_length_b   9.71500000
_cell_length_c   8.63580000
_cell_angle_alpha   90.00000000
_cell_angle_beta   90.57900000
_cell_angle_gamma   90.00000000
_symmetry_Int_Tables_number   1
_chemical_formula_structural   ZnH2CN5F
_chemical_formula_sum   'Zn4 H8 C4 N20 F4'
_cell_volume   550.13354492
_cell_formula_units_Z   4
loop_
 _symmetry_equiv_pos_site_id
 _symmetry_equiv_pos_as_xyz
  1  'x, y, z'
loop_
 _atom_site_type_symbol
 _atom_site_label
 _atom_site_symmetry_multiplicity
 _atom_site_fract_x
 _atom_site_fract_y
 _atom_site_fract_z
 _atom_site_occupancy
 _atom_site_charge
  Zn  Zn1  1  0.297090  0.500000  0.597080  1.0  0.8684
  Zn  Zn2  1  0.702910  0.500000  0.402920  1.0  0.8686
  Zn  Zn3  1  0.000000  0.000000  0.000000  1.0  0.9817
  Zn  Zn4  1  0.500000  0.000000  0.000000  1.0  1.0633
  H  H5  1  0.791700  0.247200  0.774000  1.0  0.3214
  H  H6  1  0.865300  0.364700  0.678800  1.0  0.3287
  H  H7  1  0.208300  0.247200  0.226000  1.0  0.3214
  H  H8  1  0.134700  0.364700  0.321200  1.0  0.3292
  H  H9  1  0.208300  0.752800  0.226000  1.0  0.3209
  H  H10  1  0.134700  0.635300  0.321200  1.0  0.3298
  H  H11  1  0.791700  0.752800  0.774000  1.0  0.321
  H  H12  1  0.865300  0.635300  0.678800  1.0  0.3282
  C  C13  1  0.085600  0.261200  0.772800  1.0  0.6107
  C  C14  1  0.914400  0.261200  0.227200  1.0  0.6112
  C  C15  1  0.914400  0.738800  0.227200  1.0  0.6119
  C  C16  1  0.085600  0.738800  0.772800  1.0  0.6115
  N  N17  1  0.141500  0.155700  0.862600  1.0  -0.4002
  N  N18  1  0.415700  0.255000  0.776700  1.0  -0.1901
  N  N19  1  0.348000  0.155700  0.861000  1.0  -0.026
  N  N20  1  0.253000  0.324100  0.717100  1.0  -0.349
  N  N21  1  0.890500  0.295200  0.737600  1.0  -0.7815
  N  N22  1  0.858500  0.155700  0.137400  1.0  -0.399
  N  N23  1  0.584300  0.255000  0.223300  1.0  -0.1883
  N  N24  1  0.652000  0.155700  0.139000  1.0  -0.0266
  N  N25  1  0.747000  0.324100  0.282900  1.0  -0.3488
  N  N26  1  0.109500  0.295200  0.262400  1.0  -0.7802
  N  N27  1  0.858500  0.844300  0.137400  1.0  -0.3986
  N  N28  1  0.584300  0.745000  0.223300  1.0  -0.1884
  N  N29  1  0.652000  0.844300  0.139000  1.0  -0.0269
  N  N30  1  0.747000  0.675900  0.282900  1.0  -0.3485
  N  N31  1  0.109500  0.704800  0.262400  1.0  -0.7805
  N  N32  1  0.141500  0.844300  0.862600  1.0  -0.3997
  N  N33  1  0.415700  0.745000  0.776700  1.0  -0.1905
  N  N34  1  0.348000  0.844300  0.861000  1.0  -0.0258
  N  N35  1  0.253000  0.675900  0.717100  1.0  -0.3496
  N  N36  1  0.890500  0.704800  0.737600  1.0  -0.7812
  F  F37  1  0.385200  0.500000  0.382200  1.0  -0.5176
  F  F38  1  0.614800  0.500000  0.617800  1.0  -0.5163
  F  F39  1  0.257900  0.000000  0.138300  1.0  -0.4079
  F  F40  1  0.742100  0.000000  0.861700  1.0  -0.4068
