# generated using pymatgen
data_ZnH14C17NO4
_symmetry_space_group_name_H-M   'P 1'
_cell_length_a   5.95400000
_cell_length_b   13.52100000
_cell_length_c   13.94200000
_cell_angle_alpha   95.02000000
_cell_angle_beta   94.33000000
_cell_angle_gamma   99.72000000
_symmetry_Int_Tables_number   1
_chemical_formula_structural   ZnH14C17NO4
_chemical_formula_sum   'Zn2 H28 C34 N2 O8'
_cell_volume   1097.36369905
_cell_formula_units_Z   2
loop_
 _symmetry_equiv_pos_site_id
 _symmetry_equiv_pos_as_xyz
  1  'x, y, z'
loop_
 _atom_site_type_symbol
 _atom_site_label
 _atom_site_symmetry_multiplicity
 _atom_site_fract_x
 _atom_site_fract_y
 _atom_site_fract_z
 _atom_site_occupancy
 _atom_site_charge
  Zn  Zn1  1  0.273900  0.055150  0.501560  1.0  1.0301
  Zn  Zn2  1  0.726100  0.944850  0.498440  1.0  1.03
  H  H3  1  0.888300  0.847600  0.299200  1.0  0.096
  H  H4  1  0.656400  0.708700  0.210300  1.0  0.0994
  H  H5  1  0.144700  0.540600  0.257300  1.0  0.093
  H  H6  1  0.371200  0.677400  0.352600  1.0  0.0975
  H  H7  1  0.658400  0.473000  0.219300  1.0  0.0803
  H  H8  1  0.593500  0.539200  0.135000  1.0  0.0678
  H  H9  1  0.771700  0.328800  0.022000  1.0  0.0897
  H  H10  1  0.555300  0.357800  0.072200  1.0  0.0706
  H  H11  1  0.105300  0.351700  0.193400  1.0  0.0911
  H  H12  1  0.173100  0.256200  0.316700  1.0  0.0914
  H  H13  1  0.516100  0.109900  0.277500  1.0  0.0962
  H  H14  1  0.441300  0.212900  0.159500  1.0  0.0975
  H  H15  1  0.925100  0.588900  0.040300  1.0  0.0587
  H  H16  1  0.762200  0.498900  0.972900  1.0  0.0565
  H  H17  1  0.111700  0.152400  0.700800  1.0  0.0957
  H  H18  1  0.343600  0.291300  0.789700  1.0  0.0991
  H  H19  1  0.855300  0.459400  0.742700  1.0  0.0938
  H  H20  1  0.628800  0.322600  0.647400  1.0  0.0971
  H  H21  1  0.341600  0.527000  0.780700  1.0  0.0807
  H  H22  1  0.406500  0.460800  0.865000  1.0  0.0688
  H  H23  1  0.228300  0.671200  0.978000  1.0  0.0884
  H  H24  1  0.444700  0.642200  0.927800  1.0  0.072
  H  H25  1  0.894700  0.648300  0.806600  1.0  0.0915
  H  H26  1  0.826900  0.743800  0.683300  1.0  0.0916
  H  H27  1  0.483900  0.890100  0.722500  1.0  0.0966
  H  H28  1  0.558700  0.787100  0.840500  1.0  0.0972
  H  H29  1  0.074900  0.411100  0.959700  1.0  0.0586
  H  H30  1  0.237800  0.501100  0.027100  1.0  0.0571
  C  C31  1  0.294100  0.862500  0.397700  1.0  0.6854
  C  C32  1  0.149800  0.775400  0.336400  1.0  -0.135
  C  C33  1  0.939400  0.784700  0.292500  1.0  -0.0514
  C  C34  1  0.802500  0.702200  0.238700  1.0  -0.1101
  C  C35  1  0.875800  0.610600  0.226000  1.0  0.0681
  C  C36  1  0.090100  0.602400  0.267300  1.0  -0.1146
  C  C37  1  0.226000  0.684100  0.323300  1.0  -0.0592
  C  C38  1  0.722600  0.518000  0.172000  1.0  -0.0147
  C  C39  1  0.721500  0.357700  0.082800  1.0  -0.0721
  C  C40  1  0.764500  0.292700  0.162000  1.0  0.0957
  C  C41  1  0.984100  0.303400  0.211000  1.0  -0.1582
  C  C42  1  0.025100  0.245800  0.282900  1.0  -0.062
  C  C43  1  0.852100  0.170500  0.308300  1.0  -0.1429
  C  C44  1  0.635700  0.159700  0.261000  1.0  -0.0479
  C  C45  1  0.592100  0.220400  0.190100  1.0  -0.1292
  C  C46  1  0.900900  0.106800  0.384900  1.0  0.6901
  C  C47  1  0.895900  0.515200  0.021800  1.0  0.0034
  C  C48  1  0.705900  0.137500  0.602300  1.0  0.6851
  C  C49  1  0.850200  0.224600  0.663600  1.0  -0.1355
  C  C50  1  0.060600  0.215300  0.707500  1.0  -0.0527
  C  C51  1  0.197500  0.297800  0.761300  1.0  -0.1094
  C  C52  1  0.124200  0.389400  0.774000  1.0  0.0671
  C  C53  1  0.909900  0.397600  0.732700  1.0  -0.1115
  C  C54  1  0.774000  0.315900  0.676700  1.0  -0.0587
  C  C55  1  0.277400  0.482000  0.828000  1.0  -0.0121
  C  C56  1  0.278500  0.642300  0.917200  1.0  -0.0711
  C  C57  1  0.235500  0.707300  0.838000  1.0  0.0961
  C  C58  1  0.015900  0.696600  0.789000  1.0  -0.1568
  C  C59  1  0.974900  0.754200  0.717100  1.0  -0.0625
  C  C60  1  0.147900  0.829500  0.691700  1.0  -0.142
  C  C61  1  0.364300  0.840300  0.739000  1.0  -0.0487
  C  C62  1  0.407900  0.779600  0.809900  1.0  -0.1316
  C  C63  1  0.099100  0.893200  0.615100  1.0  0.6892
  C  C64  1  0.104100  0.484800  0.978200  1.0  0.0031
  N  N65  1  0.844900  0.462900  0.106500  1.0  -0.2037
  N  N66  1  0.155100  0.537100  0.893500  1.0  -0.204
  O  O67  1  0.243800  0.949300  0.393900  1.0  -0.6241
  O  O68  1  0.460800  0.844300  0.452000  1.0  -0.6081
  O  O69  1  0.077100  0.137500  0.443600  1.0  -0.6079
  O  O70  1  0.768100  0.021800  0.386800  1.0  -0.6195
  O  O71  1  0.756200  0.050700  0.606100  1.0  -0.6236
  O  O72  1  0.539200  0.155700  0.548000  1.0  -0.6084
  O  O73  1  0.922900  0.862500  0.556400  1.0  -0.609
  O  O74  1  0.231900  0.978200  0.613200  1.0  -0.6188
