# generated using pymatgen
data_Al2C14(N2O3)3
_symmetry_space_group_name_H-M   'P 1'
_cell_length_a   18.35170000
_cell_length_b   18.35170000
_cell_length_c   17.77200000
_cell_angle_alpha   90.00000000
_cell_angle_beta   90.00000000
_cell_angle_gamma   90.00000000
_symmetry_Int_Tables_number   1
_chemical_formula_structural   Al2C14(N2O3)3
_chemical_formula_sum   'Al16 C112 N48 O72'
_cell_volume   5985.34111644
_cell_formula_units_Z   8
loop_
 _symmetry_equiv_pos_site_id
 _symmetry_equiv_pos_as_xyz
  1  'x, y, z'
loop_
 _atom_site_type_symbol
 _atom_site_label
 _atom_site_symmetry_multiplicity
 _atom_site_fract_x
 _atom_site_fract_y
 _atom_site_fract_z
 _atom_site_occupancy
 _atom_site_charge
  Al  Al1  1  0.078660  0.206600  0.000000  1.0  1.8568
  Al  Al2  1  0.578660  0.706600  0.500000  1.0  1.8568
  Al  Al3  1  0.921340  0.793400  0.000000  1.0  1.8566
  Al  Al4  1  0.421340  0.293400  0.500000  1.0  1.8566
  Al  Al5  1  0.793400  0.078660  0.000000  1.0  1.8571
  Al  Al6  1  0.293400  0.578660  0.500000  1.0  1.8571
  Al  Al7  1  0.206600  0.921340  0.000000  1.0  1.8569
  Al  Al8  1  0.706600  0.421340  0.500000  1.0  1.8569
  Al  Al9  1  0.921340  0.206600  0.000000  1.0  1.8572
  Al  Al10  1  0.421340  0.706600  0.500000  1.0  1.8572
  Al  Al11  1  0.078660  0.793400  0.000000  1.0  1.8561
  Al  Al12  1  0.578660  0.293400  0.500000  1.0  1.8561
  Al  Al13  1  0.206600  0.078660  0.000000  1.0  1.8568
  Al  Al14  1  0.706600  0.578660  0.500000  1.0  1.8568
  Al  Al15  1  0.793400  0.921340  0.000000  1.0  1.857
  Al  Al16  1  0.293400  0.421340  0.500000  1.0  1.857
  C  C17  1  0.286360  0.189740  0.215800  1.0  0.1285
  C  C18  1  0.786360  0.689740  0.715800  1.0  0.1285
  C  C19  1  0.713640  0.810260  0.215800  1.0  0.1256
  C  C20  1  0.213640  0.310260  0.715800  1.0  0.1256
  C  C21  1  0.810260  0.286360  0.215800  1.0  0.13
  C  C22  1  0.310260  0.786360  0.715800  1.0  0.13
  C  C23  1  0.189740  0.713640  0.215800  1.0  0.1287
  C  C24  1  0.689740  0.213640  0.715800  1.0  0.1287
  C  C25  1  0.713640  0.189740  0.784200  1.0  0.1275
  C  C26  1  0.213640  0.689740  0.284200  1.0  0.1275
  C  C27  1  0.286360  0.810260  0.784200  1.0  0.1264
  C  C28  1  0.786360  0.310260  0.284200  1.0  0.1264
  C  C29  1  0.189740  0.286360  0.784200  1.0  0.1291
  C  C30  1  0.689740  0.786360  0.284200  1.0  0.1291
  C  C31  1  0.810260  0.713640  0.784200  1.0  0.1304
  C  C32  1  0.310260  0.213640  0.284200  1.0  0.1304
  C  C33  1  0.713640  0.810260  0.784200  1.0  0.1258
  C  C34  1  0.213640  0.310260  0.284200  1.0  0.1258
  C  C35  1  0.286360  0.189740  0.784200  1.0  0.1284
  C  C36  1  0.786360  0.689740  0.284200  1.0  0.1284
  C  C37  1  0.189740  0.713640  0.784200  1.0  0.129
  C  C38  1  0.689740  0.213640  0.284200  1.0  0.129
  C  C39  1  0.810260  0.286360  0.784200  1.0  0.13
  C  C40  1  0.310260  0.786360  0.284200  1.0  0.13
  C  C41  1  0.286360  0.810260  0.215800  1.0  0.1264
  C  C42  1  0.786360  0.310260  0.715800  1.0  0.1264
  C  C43  1  0.713640  0.189740  0.215800  1.0  0.1273
  C  C44  1  0.213640  0.689740  0.715800  1.0  0.1273
  C  C45  1  0.810260  0.713640  0.215800  1.0  0.1304
  C  C46  1  0.310260  0.213640  0.715800  1.0  0.1304
  C  C47  1  0.189740  0.286360  0.215800  1.0  0.1286
  C  C48  1  0.689740  0.786360  0.715800  1.0  0.1286
  C  C49  1  0.067690  0.463440  0.000000  1.0  0.1571
  C  C50  1  0.567690  0.963440  0.500000  1.0  0.1571
  C  C51  1  0.932310  0.536560  0.000000  1.0  0.1606
  C  C52  1  0.432310  0.036560  0.500000  1.0  0.1606
  C  C53  1  0.536560  0.067690  0.000000  1.0  0.1586
  C  C54  1  0.036560  0.567690  0.500000  1.0  0.1586
  C  C55  1  0.463440  0.932310  0.000000  1.0  0.1571
  C  C56  1  0.963440  0.432310  0.500000  1.0  0.1571
  C  C57  1  0.932310  0.463440  0.000000  1.0  0.1592
  C  C58  1  0.432310  0.963440  0.500000  1.0  0.1592
  C  C59  1  0.067690  0.536560  0.000000  1.0  0.1578
  C  C60  1  0.567690  0.036560  0.500000  1.0  0.1578
  C  C61  1  0.463440  0.067690  0.000000  1.0  0.1579
  C  C62  1  0.963440  0.567690  0.500000  1.0  0.1579
  C  C63  1  0.536560  0.932310  0.000000  1.0  0.1588
  C  C64  1  0.036560  0.432310  0.500000  1.0  0.1588
  C  C65  1  0.000000  0.184700  0.147960  1.0  0.0597
  C  C66  1  0.500000  0.684700  0.647960  1.0  0.0597
  C  C67  1  0.000000  0.815300  0.147960  1.0  0.0597
  C  C68  1  0.500000  0.315300  0.647960  1.0  0.0597
  C  C69  1  0.815300  0.000000  0.147960  1.0  0.0599
  C  C70  1  0.315300  0.500000  0.647960  1.0  0.0599
  C  C71  1  0.184700  0.000000  0.147960  1.0  0.0608
  C  C72  1  0.684700  0.500000  0.647960  1.0  0.0608
  C  C73  1  0.000000  0.184700  0.852040  1.0  0.0585
  C  C74  1  0.500000  0.684700  0.352040  1.0  0.0585
  C  C75  1  0.000000  0.815300  0.852040  1.0  0.0585
  C  C76  1  0.500000  0.315300  0.352040  1.0  0.0585
  C  C77  1  0.184700  0.000000  0.852040  1.0  0.06
  C  C78  1  0.684700  0.500000  0.352040  1.0  0.06
  C  C79  1  0.815300  0.000000  0.852040  1.0  0.0591
  C  C80  1  0.315300  0.500000  0.352040  1.0  0.0591
  C  C81  1  0.000000  0.341960  0.000000  1.0  0.7861
  C  C82  1  0.000000  0.425270  0.000000  1.0  -0.1244
  C  C83  1  0.500000  0.841960  0.500000  1.0  0.7861
  C  C84  1  0.500000  0.925270  0.500000  1.0  -0.1244
  C  C85  1  0.000000  0.658040  0.000000  1.0  0.7852
  C  C86  1  0.000000  0.574730  0.000000  1.0  -0.124
  C  C87  1  0.500000  0.158040  0.500000  1.0  0.7852
  C  C88  1  0.500000  0.074730  0.500000  1.0  -0.124
  C  C89  1  0.658040  0.000000  0.000000  1.0  0.7871
  C  C90  1  0.574730  0.000000  0.000000  1.0  -0.1226
  C  C91  1  0.158040  0.500000  0.500000  1.0  0.7871
  C  C92  1  0.074730  0.500000  0.500000  1.0  -0.1226
  C  C93  1  0.341960  0.000000  0.000000  1.0  0.7873
  C  C94  1  0.425270  0.000000  0.000000  1.0  -0.1221
  C  C95  1  0.841960  0.500000  0.500000  1.0  0.7873
  C  C96  1  0.925270  0.500000  0.500000  1.0  -0.1221
  C  C97  1  0.196870  0.196870  0.107740  1.0  0.7733
  C  C98  1  0.224310  0.224310  0.182670  1.0  -0.1389
  C  C99  1  0.696870  0.696870  0.607740  1.0  0.7733
  C  C100  1  0.724310  0.724310  0.682670  1.0  -0.1389
  C  C101  1  0.803130  0.803130  0.107740  1.0  0.7736
  C  C102  1  0.775690  0.775690  0.182670  1.0  -0.1399
  C  C103  1  0.303130  0.303130  0.607740  1.0  0.7736
  C  C104  1  0.275690  0.275690  0.682670  1.0  -0.1399
  C  C105  1  0.803130  0.196870  0.107740  1.0  0.7739
  C  C106  1  0.775690  0.224310  0.182670  1.0  -0.1398
  C  C107  1  0.303130  0.696870  0.607740  1.0  0.7739
  C  C108  1  0.275690  0.724310  0.682670  1.0  -0.1398
  C  C109  1  0.196870  0.803130  0.107740  1.0  0.773
  C  C110  1  0.224310  0.775690  0.182670  1.0  -0.1391
  C  C111  1  0.696870  0.303130  0.607740  1.0  0.773
  C  C112  1  0.724310  0.275690  0.682670  1.0  -0.1391
  C  C113  1  0.803130  0.196870  0.892260  1.0  0.7749
  C  C114  1  0.775690  0.224310  0.817330  1.0  -0.14
  C  C115  1  0.303130  0.696870  0.392260  1.0  0.7749
  C  C116  1  0.275690  0.724310  0.317330  1.0  -0.14
  C  C117  1  0.196870  0.803130  0.892260  1.0  0.7738
  C  C118  1  0.224310  0.775690  0.817330  1.0  -0.1393
  C  C119  1  0.696870  0.303130  0.392260  1.0  0.7738
  C  C120  1  0.724310  0.275690  0.317330  1.0  -0.1393
  C  C121  1  0.196870  0.196870  0.892260  1.0  0.7742
  C  C122  1  0.224310  0.224310  0.817330  1.0  -0.1392
  C  C123  1  0.696870  0.696870  0.392260  1.0  0.7742
  C  C124  1  0.724310  0.724310  0.317330  1.0  -0.1392
  C  C125  1  0.803130  0.803130  0.892260  1.0  0.7744
  C  C126  1  0.775690  0.775690  0.817330  1.0  -0.1401
  C  C127  1  0.303130  0.303130  0.392260  1.0  0.7744
  C  C128  1  0.275690  0.275690  0.317330  1.0  -0.1401
  N  N129  1  0.340550  0.138920  0.182660  1.0  -0.2068
  N  N130  1  0.840550  0.638920  0.682660  1.0  -0.2068
  N  N131  1  0.659450  0.861080  0.182660  1.0  -0.2053
  N  N132  1  0.159450  0.361080  0.682660  1.0  -0.2053
  N  N133  1  0.861080  0.340550  0.182660  1.0  -0.2052
  N  N134  1  0.361080  0.840550  0.682660  1.0  -0.2052
  N  N135  1  0.138920  0.659450  0.182660  1.0  -0.2051
  N  N136  1  0.638920  0.159450  0.682660  1.0  -0.2051
  N  N137  1  0.659450  0.138920  0.817340  1.0  -0.2057
  N  N138  1  0.159450  0.638920  0.317340  1.0  -0.2057
  N  N139  1  0.340550  0.861080  0.817340  1.0  -0.2068
  N  N140  1  0.840550  0.361080  0.317340  1.0  -0.2068
  N  N141  1  0.138920  0.340550  0.817340  1.0  -0.2039
  N  N142  1  0.638920  0.840550  0.317340  1.0  -0.2039
  N  N143  1  0.861080  0.659450  0.817340  1.0  -0.2061
  N  N144  1  0.361080  0.159450  0.317340  1.0  -0.2061
  N  N145  1  0.659450  0.861080  0.817340  1.0  -0.205
  N  N146  1  0.159450  0.361080  0.317340  1.0  -0.205
  N  N147  1  0.340550  0.138920  0.817340  1.0  -0.2071
  N  N148  1  0.840550  0.638920  0.317340  1.0  -0.2071
  N  N149  1  0.138920  0.659450  0.817340  1.0  -0.205
  N  N150  1  0.638920  0.159450  0.317340  1.0  -0.205
  N  N151  1  0.861080  0.340550  0.817340  1.0  -0.205
  N  N152  1  0.361080  0.840550  0.317340  1.0  -0.205
  N  N153  1  0.340550  0.861080  0.182660  1.0  -0.2066
  N  N154  1  0.840550  0.361080  0.682660  1.0  -0.2066
  N  N155  1  0.659450  0.138920  0.182660  1.0  -0.2058
  N  N156  1  0.159450  0.638920  0.682660  1.0  -0.2058
  N  N157  1  0.861080  0.659450  0.182660  1.0  -0.2065
  N  N158  1  0.361080  0.159450  0.682660  1.0  -0.2065
  N  N159  1  0.138920  0.340550  0.182660  1.0  -0.2041
  N  N160  1  0.638920  0.840550  0.682660  1.0  -0.2041
  N  N161  1  0.143580  0.431840  0.000000  1.0  -0.197
  N  N162  1  0.643580  0.931840  0.500000  1.0  -0.197
  N  N163  1  0.856420  0.568160  0.000000  1.0  -0.1927
  N  N164  1  0.356420  0.068160  0.500000  1.0  -0.1927
  N  N165  1  0.568160  0.143580  0.000000  1.0  -0.2003
  N  N166  1  0.068160  0.643580  0.500000  1.0  -0.2003
  N  N167  1  0.431840  0.856420  0.000000  1.0  -0.2013
  N  N168  1  0.931840  0.356420  0.500000  1.0  -0.2013
  N  N169  1  0.856420  0.431840  0.000000  1.0  -0.1927
  N  N170  1  0.356420  0.931840  0.500000  1.0  -0.1927
  N  N171  1  0.143580  0.568160  0.000000  1.0  -0.1963
  N  N172  1  0.643580  0.068160  0.500000  1.0  -0.1963
  N  N173  1  0.431840  0.143580  0.000000  1.0  -0.2003
  N  N174  1  0.931840  0.643580  0.500000  1.0  -0.2003
  N  N175  1  0.568160  0.856420  0.000000  1.0  -0.2015
  N  N176  1  0.068160  0.356420  0.500000  1.0  -0.2015
  O  O177  1  0.142480  0.228440  0.079690  1.0  -0.5573
  O  O178  1  0.642480  0.728440  0.579690  1.0  -0.5573
  O  O179  1  0.857520  0.771560  0.079690  1.0  -0.5588
  O  O180  1  0.357520  0.271560  0.579690  1.0  -0.5588
  O  O181  1  0.771560  0.142480  0.079690  1.0  -0.5573
  O  O182  1  0.271560  0.642480  0.579690  1.0  -0.5573
  O  O183  1  0.228440  0.857520  0.079690  1.0  -0.5587
  O  O184  1  0.728440  0.357520  0.579690  1.0  -0.5587
  O  O185  1  0.857520  0.228440  0.920310  1.0  -0.5586
  O  O186  1  0.357520  0.728440  0.420310  1.0  -0.5586
  O  O187  1  0.142480  0.771560  0.920310  1.0  -0.5576
  O  O188  1  0.642480  0.271560  0.420310  1.0  -0.5576
  O  O189  1  0.228440  0.142480  0.920310  1.0  -0.5581
  O  O190  1  0.728440  0.642480  0.420310  1.0  -0.5581
  O  O191  1  0.771560  0.857520  0.920310  1.0  -0.5574
  O  O192  1  0.271560  0.357520  0.420310  1.0  -0.5574
  O  O193  1  0.857520  0.771560  0.920310  1.0  -0.5583
  O  O194  1  0.357520  0.271560  0.420310  1.0  -0.5583
  O  O195  1  0.142480  0.228440  0.920310  1.0  -0.5574
  O  O196  1  0.642480  0.728440  0.420310  1.0  -0.5574
  O  O197  1  0.228440  0.857520  0.920310  1.0  -0.5584
  O  O198  1  0.728440  0.357520  0.420310  1.0  -0.5584
  O  O199  1  0.771560  0.142480  0.920310  1.0  -0.557
  O  O200  1  0.271560  0.642480  0.420310  1.0  -0.557
  O  O201  1  0.142480  0.771560  0.079690  1.0  -0.5581
  O  O202  1  0.642480  0.271560  0.579690  1.0  -0.5581
  O  O203  1  0.857520  0.228440  0.079690  1.0  -0.5584
  O  O204  1  0.357520  0.728440  0.579690  1.0  -0.5584
  O  O205  1  0.771560  0.857520  0.079690  1.0  -0.5574
  O  O206  1  0.271560  0.357520  0.579690  1.0  -0.5574
  O  O207  1  0.228440  0.142480  0.079690  1.0  -0.5587
  O  O208  1  0.728440  0.642480  0.579690  1.0  -0.5587
  O  O209  1  0.060520  0.310300  0.000000  1.0  -0.5194
  O  O210  1  0.560520  0.810300  0.500000  1.0  -0.5194
  O  O211  1  0.939480  0.689700  0.000000  1.0  -0.5193
  O  O212  1  0.439480  0.189700  0.500000  1.0  -0.5193
  O  O213  1  0.689700  0.060520  0.000000  1.0  -0.5199
  O  O214  1  0.189700  0.560520  0.500000  1.0  -0.5199
  O  O215  1  0.310300  0.939480  0.000000  1.0  -0.5202
  O  O216  1  0.810300  0.439480  0.500000  1.0  -0.5202
  O  O217  1  0.939480  0.310300  0.000000  1.0  -0.5192
  O  O218  1  0.439480  0.810300  0.500000  1.0  -0.5192
  O  O219  1  0.060520  0.689700  0.000000  1.0  -0.5194
  O  O220  1  0.560520  0.189700  0.500000  1.0  -0.5194
  O  O221  1  0.310300  0.060520  0.000000  1.0  -0.5198
  O  O222  1  0.810300  0.560520  0.500000  1.0  -0.5198
  O  O223  1  0.689700  0.939480  0.000000  1.0  -0.5201
  O  O224  1  0.189700  0.439480  0.500000  1.0  -0.5201
  O  O225  1  0.110240  0.110240  0.000000  1.0  -0.7222
  O  O226  1  0.610240  0.610240  0.500000  1.0  -0.7222
  O  O227  1  0.889760  0.889760  0.000000  1.0  -0.7192
  O  O228  1  0.389760  0.389760  0.500000  1.0  -0.7192
  O  O229  1  0.889760  0.110240  0.000000  1.0  -0.7214
  O  O230  1  0.389760  0.610240  0.500000  1.0  -0.7214
  O  O231  1  0.110240  0.889760  0.000000  1.0  -0.7211
  O  O232  1  0.610240  0.389760  0.500000  1.0  -0.7211
  O  O233  1  0.000000  0.192910  0.066160  1.0  -0.692
  O  O234  1  0.500000  0.692910  0.566160  1.0  -0.692
  O  O235  1  0.000000  0.807090  0.066160  1.0  -0.6922
  O  O236  1  0.500000  0.307090  0.566160  1.0  -0.6922
  O  O237  1  0.807090  0.000000  0.066160  1.0  -0.6909
  O  O238  1  0.307090  0.500000  0.566160  1.0  -0.6909
  O  O239  1  0.192910  0.000000  0.066160  1.0  -0.6911
  O  O240  1  0.692910  0.500000  0.566160  1.0  -0.6911
  O  O241  1  0.000000  0.192910  0.933840  1.0  -0.6928
  O  O242  1  0.500000  0.692910  0.433840  1.0  -0.6928
  O  O243  1  0.000000  0.807090  0.933840  1.0  -0.6926
  O  O244  1  0.500000  0.307090  0.433840  1.0  -0.6926
  O  O245  1  0.192910  0.000000  0.933840  1.0  -0.6921
  O  O246  1  0.692910  0.500000  0.433840  1.0  -0.6921
  O  O247  1  0.807090  0.000000  0.933840  1.0  -0.6928
  O  O248  1  0.307090  0.500000  0.433840  1.0  -0.6928
