# generated using pymatgen
data_Cu3H6C10I2(NO)4
_symmetry_space_group_name_H-M   'P 1'
_cell_length_a   7.66810000
_cell_length_b   31.90900000
_cell_length_c   15.42680000
_cell_angle_alpha   90.00000000
_cell_angle_beta   90.00000000
_cell_angle_gamma   90.00000000
_symmetry_Int_Tables_number   1
_chemical_formula_structural   Cu3H6C10I2(NO)4
_chemical_formula_sum   'Cu24 H48 C80 I16 N32 O32'
_cell_volume   3774.65106626
_cell_formula_units_Z   8
loop_
 _symmetry_equiv_pos_site_id
 _symmetry_equiv_pos_as_xyz
  1  'x, y, z'
loop_
 _atom_site_type_symbol
 _atom_site_label
 _atom_site_symmetry_multiplicity
 _atom_site_fract_x
 _atom_site_fract_y
 _atom_site_fract_z
 _atom_site_occupancy
 _atom_site_charge
  Cu  Cu1  1  0.085710  0.061920  0.326110  1.0  0.2313
  Cu  Cu2  1  0.078300  0.034220  0.029950  1.0  0.1717
  Cu  Cu3  1  0.249110  0.229110  0.873330  1.0  0.7179
  Cu  Cu4  1  0.414290  0.438080  0.826110  1.0  0.2341
  Cu  Cu5  1  0.421700  0.465780  0.529950  1.0  0.1719
  Cu  Cu6  1  0.250890  0.270890  0.373330  1.0  0.7177
  Cu  Cu7  1  0.914290  0.061920  0.173890  1.0  0.2313
  Cu  Cu8  1  0.921700  0.034220  0.470050  1.0  0.1719
  Cu  Cu9  1  0.750890  0.229110  0.626670  1.0  0.7161
  Cu  Cu10  1  0.585710  0.438080  0.673890  1.0  0.2341
  Cu  Cu11  1  0.578300  0.465780  0.970050  1.0  0.1718
  Cu  Cu12  1  0.749110  0.270890  0.126670  1.0  0.7161
  Cu  Cu13  1  0.914290  0.938080  0.673890  1.0  0.2338
  Cu  Cu14  1  0.921700  0.965780  0.970050  1.0  0.1718
  Cu  Cu15  1  0.750890  0.770890  0.126670  1.0  0.716
  Cu  Cu16  1  0.585710  0.561920  0.173890  1.0  0.2312
  Cu  Cu17  1  0.578300  0.534220  0.470050  1.0  0.1718
  Cu  Cu18  1  0.749110  0.729110  0.626670  1.0  0.7163
  Cu  Cu19  1  0.085710  0.938080  0.826110  1.0  0.2343
  Cu  Cu20  1  0.078300  0.965780  0.529950  1.0  0.1718
  Cu  Cu21  1  0.249110  0.770890  0.373330  1.0  0.7177
  Cu  Cu22  1  0.414290  0.561920  0.326110  1.0  0.2314
  Cu  Cu23  1  0.421700  0.534220  0.029950  1.0  0.1719
  Cu  Cu24  1  0.250890  0.729110  0.873330  1.0  0.7177
  H  H25  1  0.375800  0.092400  0.983000  1.0  0.0982
  H  H26  1  0.876300  0.102800  0.938800  1.0  0.0911
  H  H27  1  0.917000  0.170600  0.891600  1.0  0.0946
  H  H28  1  0.382500  0.124400  0.345400  1.0  0.0992
  H  H29  1  0.878100  0.141600  0.358400  1.0  0.0793
  H  H30  1  0.917300  0.212400  0.374400  1.0  0.1091
  H  H31  1  0.124200  0.407600  0.483000  1.0  0.0992
  H  H32  1  0.623700  0.397200  0.438800  1.0  0.0914
  H  H33  1  0.583000  0.329400  0.391600  1.0  0.0946
  H  H34  1  0.117500  0.375600  0.845400  1.0  0.0991
  H  H35  1  0.621900  0.358400  0.858400  1.0  0.079
  H  H36  1  0.582700  0.287600  0.874400  1.0  0.1093
  H  H37  1  0.624200  0.092400  0.517000  1.0  0.0987
  H  H38  1  0.123700  0.102800  0.561200  1.0  0.0914
  H  H39  1  0.083000  0.170600  0.608400  1.0  0.0944
  H  H40  1  0.617500  0.124400  0.154600  1.0  0.0983
  H  H41  1  0.121900  0.141600  0.141600  1.0  0.0791
  H  H42  1  0.082700  0.212400  0.125600  1.0  0.1094
  H  H43  1  0.875800  0.407600  0.017000  1.0  0.0987
  H  H44  1  0.376300  0.397200  0.061200  1.0  0.091
  H  H45  1  0.417000  0.329400  0.108400  1.0  0.0948
  H  H46  1  0.882500  0.375600  0.654600  1.0  0.0976
  H  H47  1  0.378100  0.358400  0.641600  1.0  0.079
  H  H48  1  0.417300  0.287600  0.625600  1.0  0.1091
  H  H49  1  0.624200  0.907600  0.017000  1.0  0.0991
  H  H50  1  0.123700  0.897200  0.061200  1.0  0.0913
  H  H51  1  0.083000  0.829400  0.108400  1.0  0.095
  H  H52  1  0.617500  0.875600  0.654600  1.0  0.0989
  H  H53  1  0.121900  0.858400  0.641600  1.0  0.0789
  H  H54  1  0.082700  0.787600  0.625600  1.0  0.1094
  H  H55  1  0.875800  0.592400  0.517000  1.0  0.0984
  H  H56  1  0.376300  0.602800  0.561200  1.0  0.0915
  H  H57  1  0.417000  0.670600  0.608400  1.0  0.0946
  H  H58  1  0.882500  0.624400  0.154600  1.0  0.0989
  H  H59  1  0.378100  0.641600  0.141600  1.0  0.0793
  H  H60  1  0.417300  0.712400  0.125600  1.0  0.1093
  H  H61  1  0.375800  0.907600  0.483000  1.0  0.0988
  H  H62  1  0.876300  0.897200  0.438800  1.0  0.0911
  H  H63  1  0.917000  0.829400  0.391600  1.0  0.0947
  H  H64  1  0.382500  0.875600  0.845400  1.0  0.0979
  H  H65  1  0.878100  0.858400  0.858400  1.0  0.0792
  H  H66  1  0.917300  0.787600  0.874400  1.0  0.109
  H  H67  1  0.124200  0.592400  0.983000  1.0  0.0988
  H  H68  1  0.623700  0.602800  0.938800  1.0  0.091
  H  H69  1  0.583000  0.670600  0.891600  1.0  0.0943
  H  H70  1  0.117500  0.624400  0.345400  1.0  0.0984
  H  H71  1  0.621900  0.641600  0.358400  1.0  0.0792
  H  H72  1  0.582700  0.712400  0.374400  1.0  0.1092
  C  C73  1  0.483400  0.169500  0.929600  1.0  0.6594
  C  C74  1  0.305500  0.148600  0.935500  1.0  0.098
  C  C75  1  0.280300  0.108100  0.964900  1.0  0.1516
  C  C76  1  0.987900  0.114200  0.939200  1.0  0.1354
  C  C77  1  0.012500  0.155000  0.910200  1.0  0.1208
  C  C78  1  0.486700  0.205700  0.360900  1.0  0.6526
  C  C79  1  0.310700  0.185100  0.359900  1.0  0.0772
  C  C80  1  0.286200  0.142000  0.350300  1.0  0.1522
  C  C81  1  0.990900  0.152400  0.358100  1.0  0.1397
  C  C82  1  0.013900  0.195040  0.367900  1.0  0.1364
  C  C83  1  0.016600  0.330500  0.429600  1.0  0.6595
  C  C84  1  0.194500  0.351400  0.435500  1.0  0.0977
  C  C85  1  0.219700  0.391900  0.464900  1.0  0.1533
  C  C86  1  0.512100  0.385800  0.439200  1.0  0.1371
  C  C87  1  0.487500  0.345000  0.410200  1.0  0.1197
  C  C88  1  0.013300  0.294300  0.860900  1.0  0.6528
  C  C89  1  0.189300  0.314900  0.859900  1.0  0.0775
  C  C90  1  0.213800  0.358000  0.850300  1.0  0.1508
  C  C91  1  0.509100  0.347600  0.858100  1.0  0.1392
  C  C92  1  0.486100  0.304960  0.867900  1.0  0.1381
  C  C93  1  0.516600  0.169500  0.570400  1.0  0.6597
  C  C94  1  0.694500  0.148600  0.564500  1.0  0.0971
  C  C95  1  0.719700  0.108100  0.535100  1.0  0.1513
  C  C96  1  0.012100  0.114200  0.560800  1.0  0.1344
  C  C97  1  0.987500  0.155000  0.589800  1.0  0.1215
  C  C98  1  0.513300  0.205700  0.139100  1.0  0.6521
  C  C99  1  0.689300  0.185100  0.140100  1.0  0.0778
  C  C100  1  0.713800  0.142000  0.149700  1.0  0.1524
  C  C101  1  0.009100  0.152400  0.141900  1.0  0.1391
  C  C102  1  0.986100  0.195040  0.132100  1.0  0.1376
  C  C103  1  0.983400  0.330500  0.070400  1.0  0.6602
  C  C104  1  0.805500  0.351400  0.064500  1.0  0.0974
  C  C105  1  0.780300  0.391900  0.035100  1.0  0.1527
  C  C106  1  0.487900  0.385800  0.060800  1.0  0.135
  C  C107  1  0.512500  0.345000  0.089800  1.0  0.1204
  C  C108  1  0.986700  0.294300  0.639100  1.0  0.6536
  C  C109  1  0.810700  0.314900  0.640100  1.0  0.0772
  C  C110  1  0.786200  0.358000  0.649700  1.0  0.1516
  C  C111  1  0.490900  0.347600  0.641900  1.0  0.1391
  C  C112  1  0.513900  0.304960  0.632100  1.0  0.1378
  C  C113  1  0.516600  0.830500  0.070400  1.0  0.6593
  C  C114  1  0.694500  0.851400  0.064500  1.0  0.0978
  C  C115  1  0.719700  0.891900  0.035100  1.0  0.152
  C  C116  1  0.012100  0.885800  0.060800  1.0  0.1358
  C  C117  1  0.987500  0.845000  0.089800  1.0  0.1209
  C  C118  1  0.513300  0.794300  0.639100  1.0  0.6529
  C  C119  1  0.689300  0.814900  0.640100  1.0  0.0775
  C  C120  1  0.713800  0.858000  0.649700  1.0  0.1509
  C  C121  1  0.009100  0.847600  0.641900  1.0  0.1392
  C  C122  1  0.986100  0.804960  0.632100  1.0  0.138
  C  C123  1  0.983400  0.669500  0.570400  1.0  0.6608
  C  C124  1  0.805500  0.648600  0.564500  1.0  0.0969
  C  C125  1  0.780300  0.608100  0.535100  1.0  0.1508
  C  C126  1  0.487900  0.614200  0.560800  1.0  0.1355
  C  C127  1  0.512500  0.655000  0.589800  1.0  0.1208
  C  C128  1  0.986700  0.705700  0.139100  1.0  0.6527
  C  C129  1  0.810700  0.685100  0.140100  1.0  0.0773
  C  C130  1  0.786200  0.642000  0.149700  1.0  0.1521
  C  C131  1  0.490900  0.652400  0.141900  1.0  0.1397
  C  C132  1  0.513900  0.695040  0.132100  1.0  0.1365
  C  C133  1  0.483400  0.830500  0.429600  1.0  0.6586
  C  C134  1  0.305500  0.851400  0.435500  1.0  0.0976
  C  C135  1  0.280300  0.891900  0.464900  1.0  0.1534
  C  C136  1  0.987900  0.885800  0.439200  1.0  0.1369
  C  C137  1  0.012500  0.845000  0.410200  1.0  0.1203
  C  C138  1  0.486700  0.794300  0.860900  1.0  0.6534
  C  C139  1  0.310700  0.814900  0.859900  1.0  0.0772
  C  C140  1  0.286200  0.858000  0.850300  1.0  0.1516
  C  C141  1  0.990900  0.847600  0.858100  1.0  0.139
  C  C142  1  0.013900  0.804960  0.867900  1.0  0.1379
  C  C143  1  0.016600  0.669500  0.929600  1.0  0.6602
  C  C144  1  0.194500  0.648600  0.935500  1.0  0.0983
  C  C145  1  0.219700  0.608100  0.964900  1.0  0.1523
  C  C146  1  0.512100  0.614200  0.939200  1.0  0.1343
  C  C147  1  0.487500  0.655000  0.910200  1.0  0.1206
  C  C148  1  0.013300  0.705700  0.360900  1.0  0.6521
  C  C149  1  0.189300  0.685100  0.359900  1.0  0.0777
  C  C150  1  0.213800  0.642000  0.350300  1.0  0.1525
  C  C151  1  0.509100  0.652400  0.358100  1.0  0.139
  C  C152  1  0.486100  0.695040  0.367900  1.0  0.1376
  I  I153  1  0.262070  0.023770  0.450580  1.0  -0.2687
  I  I154  1  0.255450  0.047870  0.178880  1.0  -0.2848
  I  I155  1  0.237930  0.476230  0.950580  1.0  -0.2688
  I  I156  1  0.244550  0.452130  0.678880  1.0  -0.2843
  I  I157  1  0.737930  0.023770  0.049420  1.0  -0.2692
  I  I158  1  0.744550  0.047870  0.321120  1.0  -0.2854
  I  I159  1  0.762070  0.476230  0.549420  1.0  -0.2688
  I  I160  1  0.755450  0.452130  0.821120  1.0  -0.284
  I  I161  1  0.737930  0.976230  0.549420  1.0  -0.269
  I  I162  1  0.744550  0.952130  0.821120  1.0  -0.2844
  I  I163  1  0.762070  0.523770  0.049420  1.0  -0.2685
  I  I164  1  0.755450  0.547870  0.321120  1.0  -0.2849
  I  I165  1  0.262070  0.976230  0.950580  1.0  -0.2686
  I  I166  1  0.255450  0.952130  0.678880  1.0  -0.284
  I  I167  1  0.237930  0.523770  0.450580  1.0  -0.2694
  I  I168  1  0.244550  0.547870  0.178880  1.0  -0.2851
  N  N169  1  0.120900  0.091120  0.967700  1.0  -0.2843
  N  N170  1  0.171200  0.172260  0.908800  1.0  -0.2954
  N  N171  1  0.126100  0.125760  0.348100  1.0  -0.3337
  N  N172  1  0.174300  0.211590  0.368100  1.0  -0.3029
  N  N173  1  0.379100  0.408880  0.467700  1.0  -0.2853
  N  N174  1  0.328800  0.327740  0.408800  1.0  -0.2939
  N  N175  1  0.373900  0.374240  0.848100  1.0  -0.3317
  N  N176  1  0.325700  0.288410  0.868100  1.0  -0.3014
  N  N177  1  0.879100  0.091120  0.532300  1.0  -0.2841
  N  N178  1  0.828800  0.172260  0.591200  1.0  -0.2946
  N  N179  1  0.873900  0.125760  0.151900  1.0  -0.3334
  N  N180  1  0.825700  0.211590  0.131900  1.0  -0.3026
  N  N181  1  0.620900  0.408880  0.032300  1.0  -0.2856
  N  N182  1  0.671200  0.327740  0.091200  1.0  -0.293
  N  N183  1  0.626100  0.374240  0.651900  1.0  -0.3316
  N  N184  1  0.674300  0.288410  0.631900  1.0  -0.3011
  N  N185  1  0.879100  0.908880  0.032300  1.0  -0.2852
  N  N186  1  0.828800  0.827740  0.091200  1.0  -0.2926
  N  N187  1  0.873900  0.874240  0.651900  1.0  -0.3319
  N  N188  1  0.825700  0.788410  0.631900  1.0  -0.3014
  N  N189  1  0.620900  0.591120  0.532300  1.0  -0.2852
  N  N190  1  0.671200  0.672260  0.591200  1.0  -0.2953
  N  N191  1  0.626100  0.625760  0.151900  1.0  -0.3337
  N  N192  1  0.674300  0.711590  0.131900  1.0  -0.3028
  N  N193  1  0.120900  0.908880  0.467700  1.0  -0.2857
  N  N194  1  0.171200  0.827740  0.408800  1.0  -0.2941
  N  N195  1  0.126100  0.874240  0.848100  1.0  -0.3315
  N  N196  1  0.174300  0.788410  0.868100  1.0  -0.3012
  N  N197  1  0.379100  0.591120  0.967700  1.0  -0.2829
  N  N198  1  0.328800  0.672260  0.908800  1.0  -0.2949
  N  N199  1  0.373900  0.625760  0.348100  1.0  -0.3334
  N  N200  1  0.325700  0.711590  0.368100  1.0  -0.3027
  O  O201  1  0.478900  0.207150  0.899300  1.0  -0.5907
  O  O202  1  0.612200  0.151150  0.954600  1.0  -0.5506
  O  O203  1  0.618900  0.184900  0.355500  1.0  -0.5339
  O  O204  1  0.483400  0.246000  0.365900  1.0  -0.574
  O  O205  1  0.021100  0.292850  0.399300  1.0  -0.5918
  O  O206  1  0.887800  0.348850  0.454600  1.0  -0.5503
  O  O207  1  0.881100  0.315100  0.855500  1.0  -0.5324
  O  O208  1  0.016600  0.254000  0.865900  1.0  -0.5754
  O  O209  1  0.521100  0.207150  0.600700  1.0  -0.5911
  O  O210  1  0.387800  0.151150  0.545400  1.0  -0.551
  O  O211  1  0.381100  0.184900  0.144500  1.0  -0.5332
  O  O212  1  0.516600  0.246000  0.134100  1.0  -0.5751
  O  O213  1  0.978900  0.292850  0.100700  1.0  -0.592
  O  O214  1  0.112200  0.348850  0.045400  1.0  -0.5508
  O  O215  1  0.118900  0.315100  0.644500  1.0  -0.5336
  O  O216  1  0.983400  0.254000  0.634100  1.0  -0.5747
  O  O217  1  0.521100  0.792850  0.100700  1.0  -0.5923
  O  O218  1  0.387800  0.848850  0.045400  1.0  -0.551
  O  O219  1  0.381100  0.815100  0.644500  1.0  -0.5328
  O  O220  1  0.516600  0.754000  0.634100  1.0  -0.5754
  O  O221  1  0.978900  0.707150  0.600700  1.0  -0.5907
  O  O222  1  0.112200  0.651150  0.545400  1.0  -0.5508
  O  O223  1  0.118900  0.684900  0.144500  1.0  -0.5341
  O  O224  1  0.983400  0.746000  0.134100  1.0  -0.5737
  O  O225  1  0.478900  0.792850  0.399300  1.0  -0.5914
  O  O226  1  0.612200  0.848850  0.454600  1.0  -0.5503
  O  O227  1  0.618900  0.815100  0.855500  1.0  -0.5333
  O  O228  1  0.483400  0.754000  0.865900  1.0  -0.5746
  O  O229  1  0.021100  0.707150  0.899300  1.0  -0.5912
  O  O230  1  0.887800  0.651150  0.954600  1.0  -0.5508
  O  O231  1  0.881100  0.684900  0.355500  1.0  -0.533
  O  O232  1  0.016600  0.746000  0.365900  1.0  -0.5756
