# generated using pymatgen
data_Zn9H18(C27O19)2
_symmetry_space_group_name_H-M   'P 1'
_cell_length_a   23.50300000
_cell_length_b   23.50300000
_cell_length_c   23.50300000
_cell_angle_alpha   90.00000000
_cell_angle_beta   90.00000000
_cell_angle_gamma   90.00000000
_symmetry_Int_Tables_number   1
_chemical_formula_structural   Zn9H18(C27O19)2
_chemical_formula_sum   'Zn36 H72 C216 O152'
_cell_volume   12982.84588453
_cell_formula_units_Z   4
loop_
 _symmetry_equiv_pos_site_id
 _symmetry_equiv_pos_as_xyz
  1  'x, y, z'
loop_
 _atom_site_type_symbol
 _atom_site_label
 _atom_site_symmetry_multiplicity
 _atom_site_fract_x
 _atom_site_fract_y
 _atom_site_fract_z
 _atom_site_occupancy
 _atom_site_charge
  Zn  Zn1  1  0.762630  0.706590  0.820520  1.0  1.1023
  Zn  Zn2  1  0.262630  0.206590  0.320520  1.0  1.1023
  Zn  Zn3  1  0.237370  0.293410  0.820520  1.0  1.1023
  Zn  Zn4  1  0.737370  0.793410  0.320520  1.0  1.1023
  Zn  Zn5  1  0.237370  0.706590  0.179480  1.0  1.102
  Zn  Zn6  1  0.737370  0.206590  0.679480  1.0  1.102
  Zn  Zn7  1  0.762630  0.293410  0.179480  1.0  1.1027
  Zn  Zn8  1  0.262630  0.793410  0.679480  1.0  1.1027
  Zn  Zn9  1  0.820520  0.762630  0.706590  1.0  1.1011
  Zn  Zn10  1  0.320520  0.262630  0.206590  1.0  1.1011
  Zn  Zn11  1  0.820520  0.237370  0.293410  1.0  1.101
  Zn  Zn12  1  0.320520  0.737370  0.793410  1.0  1.101
  Zn  Zn13  1  0.179480  0.237370  0.706590  1.0  1.1008
  Zn  Zn14  1  0.679480  0.737370  0.206590  1.0  1.1008
  Zn  Zn15  1  0.179480  0.762630  0.293410  1.0  1.1003
  Zn  Zn16  1  0.679480  0.262630  0.793410  1.0  1.1003
  Zn  Zn17  1  0.706590  0.820520  0.762630  1.0  1.1009
  Zn  Zn18  1  0.206590  0.320520  0.262630  1.0  1.1009
  Zn  Zn19  1  0.293410  0.820520  0.237370  1.0  1.1013
  Zn  Zn20  1  0.793410  0.320520  0.737370  1.0  1.1013
  Zn  Zn21  1  0.706590  0.179480  0.237370  1.0  1.101
  Zn  Zn22  1  0.206590  0.679480  0.737370  1.0  1.101
  Zn  Zn23  1  0.293410  0.179480  0.762630  1.0  1.1006
  Zn  Zn24  1  0.793410  0.679480  0.262630  1.0  1.1006
  Zn  Zn25  1  0.500000  0.000000  0.936400  1.0  1.0773
  Zn  Zn26  1  0.000000  0.500000  0.436400  1.0  1.0773
  Zn  Zn27  1  0.500000  0.000000  0.063600  1.0  1.0796
  Zn  Zn28  1  0.000000  0.500000  0.563600  1.0  1.0796
  Zn  Zn29  1  0.936400  0.500000  0.000000  1.0  1.0831
  Zn  Zn30  1  0.436400  0.000000  0.500000  1.0  1.0831
  Zn  Zn31  1  0.063600  0.500000  0.000000  1.0  1.0838
  Zn  Zn32  1  0.563600  0.000000  0.500000  1.0  1.0838
  Zn  Zn33  1  0.000000  0.936400  0.500000  1.0  1.0825
  Zn  Zn34  1  0.500000  0.436400  0.000000  1.0  1.0825
  Zn  Zn35  1  0.000000  0.063600  0.500000  1.0  1.0801
  Zn  Zn36  1  0.500000  0.563600  0.000000  1.0  1.0801
  H  H37  1  0.622500  0.855400  0.081100  1.0  0.1033
  H  H38  1  0.733900  0.764100  0.990400  1.0  0.1094
  H  H39  1  0.635600  0.877900  0.912700  1.0  0.1114
  H  H40  1  0.122500  0.355400  0.581100  1.0  0.1033
  H  H41  1  0.233900  0.264100  0.490400  1.0  0.1094
  H  H42  1  0.135600  0.377900  0.412700  1.0  0.1114
  H  H43  1  0.377500  0.144600  0.081100  1.0  0.103
  H  H44  1  0.266100  0.235900  0.990400  1.0  0.1095
  H  H45  1  0.364400  0.122100  0.912700  1.0  0.1113
  H  H46  1  0.877500  0.644600  0.581100  1.0  0.103
  H  H47  1  0.766100  0.735900  0.490400  1.0  0.1095
  H  H48  1  0.864400  0.622100  0.412700  1.0  0.1113
  H  H49  1  0.377500  0.855400  0.918900  1.0  0.1033
  H  H50  1  0.266100  0.764100  0.009600  1.0  0.1095
  H  H51  1  0.364400  0.877900  0.087300  1.0  0.1111
  H  H52  1  0.877500  0.355400  0.418900  1.0  0.1033
  H  H53  1  0.766100  0.264100  0.509600  1.0  0.1095
  H  H54  1  0.864400  0.377900  0.587300  1.0  0.1111
  H  H55  1  0.622500  0.144600  0.918900  1.0  0.1034
  H  H56  1  0.733900  0.235900  0.009600  1.0  0.1094
  H  H57  1  0.635600  0.122100  0.087300  1.0  0.1111
  H  H58  1  0.122500  0.644600  0.418900  1.0  0.1034
  H  H59  1  0.233900  0.735900  0.509600  1.0  0.1094
  H  H60  1  0.135600  0.622100  0.587300  1.0  0.1111
  H  H61  1  0.081100  0.622500  0.855400  1.0  0.1036
  H  H62  1  0.990400  0.733900  0.764100  1.0  0.1098
  H  H63  1  0.912700  0.635600  0.877900  1.0  0.1104
  H  H64  1  0.581100  0.122500  0.355400  1.0  0.1036
  H  H65  1  0.490400  0.233900  0.264100  1.0  0.1098
  H  H66  1  0.412700  0.135600  0.377900  1.0  0.1104
  H  H67  1  0.081100  0.377500  0.144600  1.0  0.104
  H  H68  1  0.990400  0.266100  0.235900  1.0  0.1092
  H  H69  1  0.912700  0.364400  0.122100  1.0  0.1112
  H  H70  1  0.581100  0.877500  0.644600  1.0  0.104
  H  H71  1  0.490400  0.766100  0.735900  1.0  0.1092
  H  H72  1  0.412700  0.864400  0.622100  1.0  0.1112
  H  H73  1  0.918900  0.377500  0.855400  1.0  0.1037
  H  H74  1  0.009600  0.266100  0.764100  1.0  0.109
  H  H75  1  0.087300  0.364400  0.877900  1.0  0.1102
  H  H76  1  0.418900  0.877500  0.355400  1.0  0.1037
  H  H77  1  0.509600  0.766100  0.264100  1.0  0.109
  H  H78  1  0.587300  0.864400  0.377900  1.0  0.1102
  H  H79  1  0.918900  0.622500  0.144600  1.0  0.1042
  H  H80  1  0.009600  0.733900  0.235900  1.0  0.1093
  H  H81  1  0.087300  0.635600  0.122100  1.0  0.1101
  H  H82  1  0.418900  0.122500  0.644600  1.0  0.1042
  H  H83  1  0.509600  0.233900  0.735900  1.0  0.1093
  H  H84  1  0.587300  0.135600  0.622100  1.0  0.1101
  H  H85  1  0.855400  0.081100  0.622500  1.0  0.1033
  H  H86  1  0.764100  0.990400  0.733900  1.0  0.1096
  H  H87  1  0.877900  0.912700  0.635600  1.0  0.1102
  H  H88  1  0.355400  0.581100  0.122500  1.0  0.1033
  H  H89  1  0.264100  0.490400  0.233900  1.0  0.1096
  H  H90  1  0.377900  0.412700  0.135600  1.0  0.1102
  H  H91  1  0.144600  0.081100  0.377500  1.0  0.1031
  H  H92  1  0.235900  0.990400  0.266100  1.0  0.11
  H  H93  1  0.122100  0.912700  0.364400  1.0  0.1097
  H  H94  1  0.644600  0.581100  0.877500  1.0  0.1031
  H  H95  1  0.735900  0.490400  0.766100  1.0  0.11
  H  H96  1  0.622100  0.412700  0.864400  1.0  0.1097
  H  H97  1  0.855400  0.918900  0.377500  1.0  0.1033
  H  H98  1  0.764100  0.009600  0.266100  1.0  0.1093
  H  H99  1  0.877900  0.087300  0.364400  1.0  0.1096
  H  H100  1  0.355400  0.418900  0.877500  1.0  0.1033
  H  H101  1  0.264100  0.509600  0.766100  1.0  0.1093
  H  H102  1  0.377900  0.587300  0.864400  1.0  0.1096
  H  H103  1  0.144600  0.918900  0.622500  1.0  0.1038
  H  H104  1  0.235900  0.009600  0.733900  1.0  0.11
  H  H105  1  0.122100  0.087300  0.635600  1.0  0.1104
  H  H106  1  0.644600  0.418900  0.122500  1.0  0.1038
  H  H107  1  0.735900  0.509600  0.233900  1.0  0.11
  H  H108  1  0.622100  0.587300  0.135600  1.0  0.1104
  C  C109  1  0.622400  0.875900  0.997600  1.0  -0.126
  C  C110  1  0.639000  0.845900  0.046400  1.0  0.016
  C  C111  1  0.678000  0.803700  0.044700  1.0  -0.1411
  C  C112  1  0.704800  0.791000  0.992100  1.0  0.023
  C  C113  1  0.687700  0.818400  0.944600  1.0  -0.1591
  C  C114  1  0.646900  0.860100  0.946200  1.0  0.0144
  C  C115  1  0.577400  0.923300  0.000700  1.0  0.708
  C  C116  1  0.710700  0.801300  0.885100  1.0  0.7255
  C  C117  1  0.693800  0.773800  0.097600  1.0  0.6891
  C  C118  1  0.122400  0.375900  0.497600  1.0  -0.126
  C  C119  1  0.139000  0.345900  0.546400  1.0  0.016
  C  C120  1  0.178000  0.303700  0.544700  1.0  -0.1411
  C  C121  1  0.204800  0.291000  0.492100  1.0  0.023
  C  C122  1  0.187700  0.318400  0.444600  1.0  -0.1591
  C  C123  1  0.146900  0.360100  0.446200  1.0  0.0144
  C  C124  1  0.077400  0.423300  0.500700  1.0  0.708
  C  C125  1  0.210700  0.301300  0.385100  1.0  0.7255
  C  C126  1  0.193800  0.273800  0.597600  1.0  0.6891
  C  C127  1  0.377600  0.124100  0.997600  1.0  -0.1257
  C  C128  1  0.361000  0.154100  0.046400  1.0  0.0168
  C  C129  1  0.322000  0.196300  0.044700  1.0  -0.1414
  C  C130  1  0.295200  0.209000  0.992100  1.0  0.0216
  C  C131  1  0.312300  0.181600  0.944600  1.0  -0.1588
  C  C132  1  0.353100  0.139900  0.946200  1.0  0.0146
  C  C133  1  0.422600  0.076700  0.000700  1.0  0.7071
  C  C134  1  0.289300  0.198700  0.885100  1.0  0.7253
  C  C135  1  0.306200  0.226200  0.097600  1.0  0.689
  C  C136  1  0.877600  0.624100  0.497600  1.0  -0.1257
  C  C137  1  0.861000  0.654100  0.546400  1.0  0.0168
  C  C138  1  0.822000  0.696300  0.544700  1.0  -0.1414
  C  C139  1  0.795200  0.709000  0.492100  1.0  0.0216
  C  C140  1  0.812300  0.681600  0.444600  1.0  -0.1588
  C  C141  1  0.853100  0.639900  0.446200  1.0  0.0146
  C  C142  1  0.922600  0.576700  0.500700  1.0  0.7071
  C  C143  1  0.789300  0.698700  0.385100  1.0  0.7253
  C  C144  1  0.806200  0.726200  0.597600  1.0  0.689
  C  C145  1  0.377600  0.875900  0.002400  1.0  -0.1255
  C  C146  1  0.361000  0.845900  0.953600  1.0  0.0159
  C  C147  1  0.322000  0.803700  0.955300  1.0  -0.1411
  C  C148  1  0.295200  0.791000  0.007900  1.0  0.0225
  C  C149  1  0.312300  0.818400  0.055400  1.0  -0.1577
  C  C150  1  0.353100  0.860100  0.053800  1.0  0.0146
  C  C151  1  0.422600  0.923300  0.999300  1.0  0.7074
  C  C152  1  0.289300  0.801300  0.114900  1.0  0.7255
  C  C153  1  0.306200  0.773800  0.902400  1.0  0.6889
  C  C154  1  0.877600  0.375900  0.502400  1.0  -0.1255
  C  C155  1  0.861000  0.345900  0.453600  1.0  0.0159
  C  C156  1  0.822000  0.303700  0.455300  1.0  -0.1411
  C  C157  1  0.795200  0.291000  0.507900  1.0  0.0225
  C  C158  1  0.812300  0.318400  0.555400  1.0  -0.1577
  C  C159  1  0.853100  0.360100  0.553800  1.0  0.0146
  C  C160  1  0.922600  0.423300  0.499300  1.0  0.7074
  C  C161  1  0.789300  0.301300  0.614900  1.0  0.7255
  C  C162  1  0.806200  0.273800  0.402400  1.0  0.6889
  C  C163  1  0.622400  0.124100  0.002400  1.0  -0.1262
  C  C164  1  0.639000  0.154100  0.953600  1.0  0.0164
  C  C165  1  0.678000  0.196300  0.955300  1.0  -0.1409
  C  C166  1  0.704800  0.209000  0.007900  1.0  0.0223
  C  C167  1  0.687700  0.181600  0.055400  1.0  -0.1587
  C  C168  1  0.646900  0.139900  0.053800  1.0  0.0142
  C  C169  1  0.577400  0.076700  0.999300  1.0  0.7076
  C  C170  1  0.710700  0.198700  0.114900  1.0  0.7264
  C  C171  1  0.693800  0.226200  0.902400  1.0  0.6877
  C  C172  1  0.122400  0.624100  0.502400  1.0  -0.1262
  C  C173  1  0.139000  0.654100  0.453600  1.0  0.0164
  C  C174  1  0.178000  0.696300  0.455300  1.0  -0.1409
  C  C175  1  0.204800  0.709000  0.507900  1.0  0.0223
  C  C176  1  0.187700  0.681600  0.555400  1.0  -0.1587
  C  C177  1  0.146900  0.639900  0.553800  1.0  0.0142
  C  C178  1  0.077400  0.576700  0.499300  1.0  0.7076
  C  C179  1  0.210700  0.698700  0.614900  1.0  0.7264
  C  C180  1  0.193800  0.726200  0.402400  1.0  0.6877
  C  C181  1  0.997600  0.622400  0.875900  1.0  -0.1261
  C  C182  1  0.046400  0.639000  0.845900  1.0  0.0197
  C  C183  1  0.044700  0.678000  0.803700  1.0  -0.1404
  C  C184  1  0.992100  0.704800  0.791000  1.0  0.021
  C  C185  1  0.944600  0.687700  0.818400  1.0  -0.1584
  C  C186  1  0.946200  0.646900  0.860100  1.0  0.0132
  C  C187  1  0.000700  0.577400  0.923300  1.0  0.7092
  C  C188  1  0.885100  0.710700  0.801300  1.0  0.7262
  C  C189  1  0.097600  0.693800  0.773800  1.0  0.6879
  C  C190  1  0.497600  0.122400  0.375900  1.0  -0.1261
  C  C191  1  0.546400  0.139000  0.345900  1.0  0.0197
  C  C192  1  0.544700  0.178000  0.303700  1.0  -0.1404
  C  C193  1  0.492100  0.204800  0.291000  1.0  0.021
  C  C194  1  0.444600  0.187700  0.318400  1.0  -0.1584
  C  C195  1  0.446200  0.146900  0.360100  1.0  0.0132
  C  C196  1  0.500700  0.077400  0.423300  1.0  0.7092
  C  C197  1  0.385100  0.210700  0.301300  1.0  0.7262
  C  C198  1  0.597600  0.193800  0.273800  1.0  0.6879
  C  C199  1  0.997600  0.377600  0.124100  1.0  -0.1253
  C  C200  1  0.046400  0.361000  0.154100  1.0  0.0194
  C  C201  1  0.044700  0.322000  0.196300  1.0  -0.1412
  C  C202  1  0.992100  0.295200  0.209000  1.0  0.0216
  C  C203  1  0.944600  0.312300  0.181600  1.0  -0.1588
  C  C204  1  0.946200  0.353100  0.139900  1.0  0.0134
  C  C205  1  0.000700  0.422600  0.076700  1.0  0.7093
  C  C206  1  0.885100  0.289300  0.198700  1.0  0.7268
  C  C207  1  0.097600  0.306200  0.226200  1.0  0.6889
  C  C208  1  0.497600  0.877600  0.624100  1.0  -0.1253
  C  C209  1  0.546400  0.861000  0.654100  1.0  0.0194
  C  C210  1  0.544700  0.822000  0.696300  1.0  -0.1412
  C  C211  1  0.492100  0.795200  0.709000  1.0  0.0216
  C  C212  1  0.444600  0.812300  0.681600  1.0  -0.1588
  C  C213  1  0.446200  0.853100  0.639900  1.0  0.0134
  C  C214  1  0.500700  0.922600  0.576700  1.0  0.7093
  C  C215  1  0.385100  0.789300  0.698700  1.0  0.7268
  C  C216  1  0.597600  0.806200  0.726200  1.0  0.6889
  C  C217  1  0.002400  0.377600  0.875900  1.0  -0.1265
  C  C218  1  0.953600  0.361000  0.845900  1.0  0.0181
  C  C219  1  0.955300  0.322000  0.803700  1.0  -0.1406
  C  C220  1  0.007900  0.295200  0.791000  1.0  0.0223
  C  C221  1  0.055400  0.312300  0.818400  1.0  -0.1579
  C  C222  1  0.053800  0.353100  0.860100  1.0  0.0129
  C  C223  1  0.999300  0.422600  0.923300  1.0  0.7096
  C  C224  1  0.114900  0.289300  0.801300  1.0  0.7265
  C  C225  1  0.902400  0.306200  0.773800  1.0  0.6878
  C  C226  1  0.502400  0.877600  0.375900  1.0  -0.1265
  C  C227  1  0.453600  0.861000  0.345900  1.0  0.0181
  C  C228  1  0.455300  0.822000  0.303700  1.0  -0.1406
  C  C229  1  0.507900  0.795200  0.291000  1.0  0.0223
  C  C230  1  0.555400  0.812300  0.318400  1.0  -0.1579
  C  C231  1  0.553800  0.853100  0.360100  1.0  0.0129
  C  C232  1  0.499300  0.922600  0.423300  1.0  0.7096
  C  C233  1  0.614900  0.789300  0.301300  1.0  0.7265
  C  C234  1  0.402400  0.806200  0.273800  1.0  0.6878
  C  C235  1  0.002400  0.622400  0.124100  1.0  -0.1263
  C  C236  1  0.953600  0.639000  0.154100  1.0  0.0175
  C  C237  1  0.955300  0.678000  0.196300  1.0  -0.1404
  C  C238  1  0.007900  0.704800  0.209000  1.0  0.0208
  C  C239  1  0.055400  0.687700  0.181600  1.0  -0.158
  C  C240  1  0.053800  0.646900  0.139900  1.0  0.0133
  C  C241  1  0.999300  0.577400  0.076700  1.0  0.7089
  C  C242  1  0.114900  0.710700  0.198700  1.0  0.7268
  C  C243  1  0.902400  0.693800  0.226200  1.0  0.687
  C  C244  1  0.502400  0.122400  0.624100  1.0  -0.1263
  C  C245  1  0.453600  0.139000  0.654100  1.0  0.0175
  C  C246  1  0.455300  0.178000  0.696300  1.0  -0.1404
  C  C247  1  0.507900  0.204800  0.709000  1.0  0.0208
  C  C248  1  0.555400  0.187700  0.681600  1.0  -0.158
  C  C249  1  0.553800  0.146900  0.639900  1.0  0.0133
  C  C250  1  0.499300  0.077400  0.576700  1.0  0.7089
  C  C251  1  0.614900  0.210700  0.698700  1.0  0.7268
  C  C252  1  0.402400  0.193800  0.726200  1.0  0.687
  C  C253  1  0.875900  0.997600  0.622400  1.0  -0.127
  C  C254  1  0.845900  0.046400  0.639000  1.0  0.0179
  C  C255  1  0.803700  0.044700  0.678000  1.0  -0.1399
  C  C256  1  0.791000  0.992100  0.704800  1.0  0.0207
  C  C257  1  0.818400  0.944600  0.687700  1.0  -0.1578
  C  C258  1  0.860100  0.946200  0.646900  1.0  0.014
  C  C259  1  0.923300  0.000700  0.577400  1.0  0.7081
  C  C260  1  0.801300  0.885100  0.710700  1.0  0.7271
  C  C261  1  0.773800  0.097600  0.693800  1.0  0.6879
  C  C262  1  0.375900  0.497600  0.122400  1.0  -0.127
  C  C263  1  0.345900  0.546400  0.139000  1.0  0.0179
  C  C264  1  0.303700  0.544700  0.178000  1.0  -0.1399
  C  C265  1  0.291000  0.492100  0.204800  1.0  0.0207
  C  C266  1  0.318400  0.444600  0.187700  1.0  -0.1578
  C  C267  1  0.360100  0.446200  0.146900  1.0  0.014
  C  C268  1  0.423300  0.500700  0.077400  1.0  0.7081
  C  C269  1  0.301300  0.385100  0.210700  1.0  0.7271
  C  C270  1  0.273800  0.597600  0.193800  1.0  0.6879
  C  C271  1  0.124100  0.997600  0.377600  1.0  -0.1273
  C  C272  1  0.154100  0.046400  0.361000  1.0  0.0171
  C  C273  1  0.196300  0.044700  0.322000  1.0  -0.1405
  C  C274  1  0.209000  0.992100  0.295200  1.0  0.0207
  C  C275  1  0.181600  0.944600  0.312300  1.0  -0.1568
  C  C276  1  0.139900  0.946200  0.353100  1.0  0.0142
  C  C277  1  0.076700  0.000700  0.422600  1.0  0.709
  C  C278  1  0.198700  0.885100  0.289300  1.0  0.7263
  C  C279  1  0.226200  0.097600  0.306200  1.0  0.6882
  C  C280  1  0.624100  0.497600  0.877600  1.0  -0.1273
  C  C281  1  0.654100  0.546400  0.861000  1.0  0.0171
  C  C282  1  0.696300  0.544700  0.822000  1.0  -0.1405
  C  C283  1  0.709000  0.492100  0.795200  1.0  0.0207
  C  C284  1  0.681600  0.444600  0.812300  1.0  -0.1568
  C  C285  1  0.639900  0.446200  0.853100  1.0  0.0142
  C  C286  1  0.576700  0.500700  0.922600  1.0  0.709
  C  C287  1  0.698700  0.385100  0.789300  1.0  0.7263
  C  C288  1  0.726200  0.597600  0.806200  1.0  0.6882
  C  C289  1  0.875900  0.002400  0.377600  1.0  -0.1274
  C  C290  1  0.845900  0.953600  0.361000  1.0  0.0185
  C  C291  1  0.803700  0.955300  0.322000  1.0  -0.1401
  C  C292  1  0.791000  0.007900  0.295200  1.0  0.0209
  C  C293  1  0.818400  0.055400  0.312300  1.0  -0.157
  C  C294  1  0.860100  0.053800  0.353100  1.0  0.0127
  C  C295  1  0.923300  0.999300  0.422600  1.0  0.708
  C  C296  1  0.801300  0.114900  0.289300  1.0  0.7258
  C  C297  1  0.773800  0.902400  0.306200  1.0  0.6893
  C  C298  1  0.375900  0.502400  0.877600  1.0  -0.1274
  C  C299  1  0.345900  0.453600  0.861000  1.0  0.0185
  C  C300  1  0.303700  0.455300  0.822000  1.0  -0.1401
  C  C301  1  0.291000  0.507900  0.795200  1.0  0.0209
  C  C302  1  0.318400  0.555400  0.812300  1.0  -0.157
  C  C303  1  0.360100  0.553800  0.853100  1.0  0.0127
  C  C304  1  0.423300  0.499300  0.922600  1.0  0.708
  C  C305  1  0.301300  0.614900  0.789300  1.0  0.7258
  C  C306  1  0.273800  0.402400  0.806200  1.0  0.6893
  C  C307  1  0.124100  0.002400  0.622400  1.0  -0.1276
  C  C308  1  0.154100  0.953600  0.639000  1.0  0.0183
  C  C309  1  0.196300  0.955300  0.678000  1.0  -0.1403
  C  C310  1  0.209000  0.007900  0.704800  1.0  0.0216
  C  C311  1  0.181600  0.055400  0.687700  1.0  -0.1582
  C  C312  1  0.139900  0.053800  0.646900  1.0  0.0127
  C  C313  1  0.076700  0.999300  0.577400  1.0  0.709
  C  C314  1  0.198700  0.114900  0.710700  1.0  0.7266
  C  C315  1  0.226200  0.902400  0.693800  1.0  0.6897
  C  C316  1  0.624100  0.502400  0.122400  1.0  -0.1276
  C  C317  1  0.654100  0.453600  0.139000  1.0  0.0183
  C  C318  1  0.696300  0.455300  0.178000  1.0  -0.1403
  C  C319  1  0.709000  0.507900  0.204800  1.0  0.0216
  C  C320  1  0.681600  0.555400  0.187700  1.0  -0.1582
  C  C321  1  0.639900  0.553800  0.146900  1.0  0.0127
  C  C322  1  0.576700  0.499300  0.077400  1.0  0.709
  C  C323  1  0.698700  0.614900  0.210700  1.0  0.7266
  C  C324  1  0.726200  0.402400  0.193800  1.0  0.6897
  O  O325  1  0.563700  0.944100  0.952500  1.0  -0.6205
  O  O326  1  0.557300  0.935000  0.047700  1.0  -0.5765
  O  O327  1  0.742600  0.758500  0.884000  1.0  -0.6059
  O  O328  1  0.697900  0.831000  0.843900  1.0  -0.601
  O  O329  1  0.668000  0.786900  0.143300  1.0  -0.5964
  O  O330  1  0.729400  0.733500  0.098100  1.0  -0.439
  O  O331  1  0.063700  0.444100  0.452500  1.0  -0.6205
  O  O332  1  0.057300  0.435000  0.547700  1.0  -0.5765
  O  O333  1  0.242600  0.258500  0.384000  1.0  -0.6059
  O  O334  1  0.197900  0.331000  0.343900  1.0  -0.601
  O  O335  1  0.168000  0.286900  0.643300  1.0  -0.5964
  O  O336  1  0.229400  0.233500  0.598100  1.0  -0.439
  O  O337  1  0.436300  0.055900  0.952500  1.0  -0.6201
  O  O338  1  0.442700  0.065000  0.047700  1.0  -0.577
  O  O339  1  0.257400  0.241500  0.884000  1.0  -0.6061
  O  O340  1  0.302100  0.169000  0.843900  1.0  -0.6008
  O  O341  1  0.332000  0.213100  0.143300  1.0  -0.5962
  O  O342  1  0.270600  0.266500  0.098100  1.0  -0.4402
  O  O343  1  0.936300  0.555900  0.452500  1.0  -0.6201
  O  O344  1  0.942700  0.565000  0.547700  1.0  -0.577
  O  O345  1  0.757400  0.741500  0.384000  1.0  -0.6061
  O  O346  1  0.802100  0.669000  0.343900  1.0  -0.6008
  O  O347  1  0.832000  0.713100  0.643300  1.0  -0.5962
  O  O348  1  0.770600  0.766500  0.598100  1.0  -0.4402
  O  O349  1  0.436300  0.944100  0.047500  1.0  -0.62
  O  O350  1  0.442700  0.935000  0.952300  1.0  -0.5776
  O  O351  1  0.257400  0.758500  0.116000  1.0  -0.605
  O  O352  1  0.302100  0.831000  0.156100  1.0  -0.6014
  O  O353  1  0.332000  0.786900  0.856700  1.0  -0.598
  O  O354  1  0.270600  0.733500  0.901900  1.0  -0.4398
  O  O355  1  0.936300  0.444100  0.547500  1.0  -0.62
  O  O356  1  0.942700  0.435000  0.452300  1.0  -0.5776
  O  O357  1  0.757400  0.258500  0.616000  1.0  -0.605
  O  O358  1  0.802100  0.331000  0.656100  1.0  -0.6014
  O  O359  1  0.832000  0.286900  0.356700  1.0  -0.598
  O  O360  1  0.770600  0.233500  0.401900  1.0  -0.4398
  O  O361  1  0.563700  0.055900  0.047500  1.0  -0.6205
  O  O362  1  0.557300  0.065000  0.952300  1.0  -0.5776
  O  O363  1  0.742600  0.241500  0.116000  1.0  -0.6067
  O  O364  1  0.697900  0.169000  0.156100  1.0  -0.6021
  O  O365  1  0.668000  0.213100  0.856700  1.0  -0.5978
  O  O366  1  0.729400  0.266500  0.901900  1.0  -0.4376
  O  O367  1  0.063700  0.555900  0.547500  1.0  -0.6205
  O  O368  1  0.057300  0.565000  0.452300  1.0  -0.5776
  O  O369  1  0.242600  0.741500  0.616000  1.0  -0.6067
  O  O370  1  0.197900  0.669000  0.656100  1.0  -0.6021
  O  O371  1  0.168000  0.713100  0.356700  1.0  -0.5978
  O  O372  1  0.229400  0.766500  0.401900  1.0  -0.4376
  O  O373  1  0.952500  0.563700  0.944100  1.0  -0.6217
  O  O374  1  0.047700  0.557300  0.935000  1.0  -0.5789
  O  O375  1  0.884000  0.742600  0.758500  1.0  -0.6068
  O  O376  1  0.843900  0.697900  0.831000  1.0  -0.5993
  O  O377  1  0.143300  0.668000  0.786900  1.0  -0.5951
  O  O378  1  0.098100  0.729400  0.733500  1.0  -0.4461
  O  O379  1  0.452500  0.063700  0.444100  1.0  -0.6217
  O  O380  1  0.547700  0.057300  0.435000  1.0  -0.5789
  O  O381  1  0.384000  0.242600  0.258500  1.0  -0.6068
  O  O382  1  0.343900  0.197900  0.331000  1.0  -0.5993
  O  O383  1  0.643300  0.168000  0.286900  1.0  -0.5951
  O  O384  1  0.598100  0.229400  0.233500  1.0  -0.4461
  O  O385  1  0.952500  0.436300  0.055900  1.0  -0.6212
  O  O386  1  0.047700  0.442700  0.065000  1.0  -0.5792
  O  O387  1  0.884000  0.257400  0.241500  1.0  -0.6058
  O  O388  1  0.843900  0.302100  0.169000  1.0  -0.5993
  O  O389  1  0.143300  0.332000  0.213100  1.0  -0.5946
  O  O390  1  0.098100  0.270600  0.266500  1.0  -0.4447
  O  O391  1  0.452500  0.936300  0.555900  1.0  -0.6212
  O  O392  1  0.547700  0.942700  0.565000  1.0  -0.5792
  O  O393  1  0.384000  0.757400  0.741500  1.0  -0.6058
  O  O394  1  0.343900  0.802100  0.669000  1.0  -0.5993
  O  O395  1  0.643300  0.832000  0.713100  1.0  -0.5946
  O  O396  1  0.598100  0.770600  0.766500  1.0  -0.4447
  O  O397  1  0.047500  0.436300  0.944100  1.0  -0.6202
  O  O398  1  0.952300  0.442700  0.935000  1.0  -0.5792
  O  O399  1  0.116000  0.257400  0.758500  1.0  -0.6068
  O  O400  1  0.156100  0.302100  0.831000  1.0  -0.5995
  O  O401  1  0.856700  0.332000  0.786900  1.0  -0.5943
  O  O402  1  0.901900  0.270600  0.733500  1.0  -0.4456
  O  O403  1  0.547500  0.936300  0.444100  1.0  -0.6202
  O  O404  1  0.452300  0.942700  0.435000  1.0  -0.5792
  O  O405  1  0.616000  0.757400  0.258500  1.0  -0.6068
  O  O406  1  0.656100  0.802100  0.331000  1.0  -0.5995
  O  O407  1  0.356700  0.832000  0.286900  1.0  -0.5943
  O  O408  1  0.401900  0.770600  0.233500  1.0  -0.4456
  O  O409  1  0.047500  0.563700  0.055900  1.0  -0.6199
  O  O410  1  0.952300  0.557300  0.065000  1.0  -0.5799
  O  O411  1  0.116000  0.742600  0.241500  1.0  -0.6066
  O  O412  1  0.156100  0.697900  0.169000  1.0  -0.599
  O  O413  1  0.856700  0.668000  0.213100  1.0  -0.5941
  O  O414  1  0.901900  0.729400  0.266500  1.0  -0.445
  O  O415  1  0.547500  0.063700  0.555900  1.0  -0.6199
  O  O416  1  0.452300  0.057300  0.565000  1.0  -0.5799
  O  O417  1  0.616000  0.242600  0.741500  1.0  -0.6066
  O  O418  1  0.656100  0.197900  0.669000  1.0  -0.599
  O  O419  1  0.356700  0.168000  0.713100  1.0  -0.5941
  O  O420  1  0.401900  0.229400  0.766500  1.0  -0.445
  O  O421  1  0.944100  0.952500  0.563700  1.0  -0.6197
  O  O422  1  0.935000  0.047700  0.557300  1.0  -0.5784
  O  O423  1  0.758500  0.884000  0.742600  1.0  -0.6052
  O  O424  1  0.831000  0.843900  0.697900  1.0  -0.601
  O  O425  1  0.786900  0.143300  0.668000  1.0  -0.596
  O  O426  1  0.733500  0.098100  0.729400  1.0  -0.4445
  O  O427  1  0.444100  0.452500  0.063700  1.0  -0.6197
  O  O428  1  0.435000  0.547700  0.057300  1.0  -0.5784
  O  O429  1  0.258500  0.384000  0.242600  1.0  -0.6052
  O  O430  1  0.331000  0.343900  0.197900  1.0  -0.601
  O  O431  1  0.286900  0.643300  0.168000  1.0  -0.596
  O  O432  1  0.233500  0.598100  0.229400  1.0  -0.4445
  O  O433  1  0.055900  0.952500  0.436300  1.0  -0.6191
  O  O434  1  0.065000  0.047700  0.442700  1.0  -0.5773
  O  O435  1  0.241500  0.884000  0.257400  1.0  -0.605
  O  O436  1  0.169000  0.843900  0.302100  1.0  -0.6023
  O  O437  1  0.213100  0.143300  0.332000  1.0  -0.5968
  O  O438  1  0.266500  0.098100  0.270600  1.0  -0.4428
  O  O439  1  0.555900  0.452500  0.936300  1.0  -0.6191
  O  O440  1  0.565000  0.547700  0.942700  1.0  -0.5773
  O  O441  1  0.741500  0.384000  0.757400  1.0  -0.605
  O  O442  1  0.669000  0.343900  0.802100  1.0  -0.6023
  O  O443  1  0.713100  0.643300  0.832000  1.0  -0.5968
  O  O444  1  0.766500  0.598100  0.770600  1.0  -0.4428
  O  O445  1  0.944100  0.047500  0.436300  1.0  -0.6192
  O  O446  1  0.935000  0.952300  0.442700  1.0  -0.5797
  O  O447  1  0.758500  0.116000  0.257400  1.0  -0.6049
  O  O448  1  0.831000  0.156100  0.302100  1.0  -0.6016
  O  O449  1  0.786900  0.856700  0.332000  1.0  -0.595
  O  O450  1  0.733500  0.901900  0.270600  1.0  -0.4445
  O  O451  1  0.444100  0.547500  0.936300  1.0  -0.6192
  O  O452  1  0.435000  0.452300  0.942700  1.0  -0.5797
  O  O453  1  0.258500  0.616000  0.757400  1.0  -0.6049
  O  O454  1  0.331000  0.656100  0.802100  1.0  -0.6016
  O  O455  1  0.286900  0.356700  0.832000  1.0  -0.595
  O  O456  1  0.233500  0.401900  0.770600  1.0  -0.4445
  O  O457  1  0.055900  0.047500  0.563700  1.0  -0.6187
  O  O458  1  0.065000  0.952300  0.557300  1.0  -0.5793
  O  O459  1  0.241500  0.116000  0.742600  1.0  -0.6047
  O  O460  1  0.169000  0.156100  0.697900  1.0  -0.6022
  O  O461  1  0.213100  0.856700  0.668000  1.0  -0.5946
  O  O462  1  0.266500  0.901900  0.729400  1.0  -0.4452
  O  O463  1  0.555900  0.547500  0.063700  1.0  -0.6187
  O  O464  1  0.565000  0.452300  0.057300  1.0  -0.5793
  O  O465  1  0.741500  0.616000  0.242600  1.0  -0.6047
  O  O466  1  0.669000  0.656100  0.197900  1.0  -0.6022
  O  O467  1  0.713100  0.356700  0.168000  1.0  -0.5946
  O  O468  1  0.766500  0.401900  0.229400  1.0  -0.4452
  O  O469  1  0.748000  0.748000  0.748000  1.0  -0.8184
  O  O470  1  0.248000  0.248000  0.248000  1.0  -0.8184
  O  O471  1  0.252000  0.252000  0.748000  1.0  -0.8173
  O  O472  1  0.752000  0.752000  0.248000  1.0  -0.8173
  O  O473  1  0.252000  0.748000  0.252000  1.0  -0.818
  O  O474  1  0.752000  0.248000  0.752000  1.0  -0.818
  O  O475  1  0.748000  0.252000  0.252000  1.0  -0.8176
  O  O476  1  0.248000  0.752000  0.752000  1.0  -0.8176
