# generated using pymatgen
data_ZnH8C14(NO2)2
_symmetry_space_group_name_H-M   'P 1'
_cell_length_a   7.61450000
_cell_length_b   11.13300000
_cell_length_c   16.86880000
_cell_angle_alpha   90.00000000
_cell_angle_beta   90.00000000
_cell_angle_gamma   90.00000000
_symmetry_Int_Tables_number   1
_chemical_formula_structural   ZnH8C14(NO2)2
_chemical_formula_sum   'Zn4 H32 C56 N8 O16'
_cell_volume   1430.00576812
_cell_formula_units_Z   4
loop_
 _symmetry_equiv_pos_site_id
 _symmetry_equiv_pos_as_xyz
  1  'x, y, z'
loop_
 _atom_site_type_symbol
 _atom_site_label
 _atom_site_symmetry_multiplicity
 _atom_site_fract_x
 _atom_site_fract_y
 _atom_site_fract_z
 _atom_site_occupancy
 _atom_site_charge
  Zn  Zn1  1  0.897710  0.859080  0.038420  1.0  0.9063
  Zn  Zn2  1  0.602290  0.140920  0.538420  1.0  0.9061
  Zn  Zn3  1  0.102290  0.359080  0.461580  1.0  0.9074
  Zn  Zn4  1  0.397710  0.640920  0.961580  1.0  0.9076
  H  H5  1  0.783400  0.794800  0.784100  1.0  0.0992
  H  H6  1  0.755100  0.607400  0.367900  1.0  0.1358
  H  H7  1  0.984200  0.400800  0.154900  1.0  0.1109
  H  H8  1  0.740700  0.827000  0.649500  1.0  0.1376
  H  H9  1  0.987400  0.314600  0.280000  1.0  0.107
  H  H10  1  0.754600  0.694400  0.242700  1.0  0.101
  H  H11  1  0.987000  0.124000  0.805600  1.0  0.1132
  H  H12  1  0.939000  0.174000  0.669000  1.0  0.1342
  H  H13  1  0.716600  0.205200  0.284100  1.0  0.0993
  H  H14  1  0.744900  0.392600  0.867900  1.0  0.1349
  H  H15  1  0.515800  0.599200  0.654900  1.0  0.1108
  H  H16  1  0.759300  0.173000  0.149500  1.0  0.1375
  H  H17  1  0.512600  0.685400  0.780000  1.0  0.1069
  H  H18  1  0.745400  0.305600  0.742700  1.0  0.1009
  H  H19  1  0.513000  0.876000  0.305600  1.0  0.1132
  H  H20  1  0.561000  0.826000  0.169000  1.0  0.1341
  H  H21  1  0.216600  0.294800  0.715900  1.0  0.0993
  H  H22  1  0.244900  0.107400  0.132100  1.0  0.1359
  H  H23  1  0.015800  0.900800  0.345100  1.0  0.1112
  H  H24  1  0.259300  0.327000  0.850500  1.0  0.1383
  H  H25  1  0.012600  0.814600  0.220000  1.0  0.107
  H  H26  1  0.245400  0.194400  0.257300  1.0  0.1009
  H  H27  1  0.013000  0.624000  0.694400  1.0  0.1134
  H  H28  1  0.061000  0.674000  0.831000  1.0  0.1341
  H  H29  1  0.283400  0.705200  0.215900  1.0  0.0994
  H  H30  1  0.255100  0.892600  0.632100  1.0  0.1358
  H  H31  1  0.484200  0.099200  0.845100  1.0  0.111
  H  H32  1  0.240700  0.673000  0.350500  1.0  0.1378
  H  H33  1  0.487400  0.185400  0.720000  1.0  0.1068
  H  H34  1  0.254600  0.805600  0.757300  1.0  0.1005
  H  H35  1  0.487000  0.376000  0.194400  1.0  0.113
  H  H36  1  0.439000  0.326000  0.331000  1.0  0.1349
  C  C37  1  0.914400  0.085000  0.693500  1.0  -0.1577
  C  C38  1  0.815700  0.867700  0.761600  1.0  -0.035
  C  C39  1  0.889300  0.955000  0.808200  1.0  -0.0931
  C  C40  1  0.799600  0.564900  0.324800  1.0  -0.1221
  C  C41  1  0.868900  0.556300  0.185500  1.0  -0.1067
  C  C42  1  0.937400  0.442900  0.197600  1.0  -0.0088
  C  C43  1  0.788900  0.887000  0.681000  1.0  -0.1293
  C  C44  1  0.864600  0.450200  0.335800  1.0  0.1693
  C  C45  1  0.912800  0.933900  0.893500  1.0  0.6357
  C  C46  1  0.937800  0.390100  0.272700  1.0  -0.146
  C  C47  1  0.800400  0.617700  0.249600  1.0  -0.0488
  C  C48  1  0.835200  0.997700  0.648300  1.0  0.1862
  C  C49  1  0.938000  0.064300  0.774000  1.0  -0.0363
  C  C50  1  0.872700  0.616100  0.105500  1.0  0.6671
  C  C51  1  0.585600  0.915000  0.193500  1.0  -0.1574
  C  C52  1  0.684300  0.132300  0.261600  1.0  -0.0341
  C  C53  1  0.610700  0.045000  0.308200  1.0  -0.0924
  C  C54  1  0.700400  0.435100  0.824800  1.0  -0.1215
  C  C55  1  0.631100  0.443700  0.685500  1.0  -0.1084
  C  C56  1  0.562600  0.557100  0.697600  1.0  -0.0074
  C  C57  1  0.711100  0.113000  0.181000  1.0  -0.1299
  C  C58  1  0.635400  0.549800  0.835800  1.0  0.1688
  C  C59  1  0.587200  0.066100  0.393500  1.0  0.636
  C  C60  1  0.562200  0.609900  0.772700  1.0  -0.1463
  C  C61  1  0.699600  0.382300  0.749600  1.0  -0.0495
  C  C62  1  0.664800  0.002300  0.148300  1.0  0.1862
  C  C63  1  0.562000  0.935700  0.274000  1.0  -0.0349
  C  C64  1  0.627300  0.383900  0.605500  1.0  0.669
  C  C65  1  0.085600  0.585000  0.806500  1.0  -0.1581
  C  C66  1  0.184300  0.367700  0.738400  1.0  -0.0341
  C  C67  1  0.110700  0.455000  0.691800  1.0  -0.0927
  C  C68  1  0.200400  0.064900  0.175200  1.0  -0.1208
  C  C69  1  0.131100  0.056300  0.314500  1.0  -0.1022
  C  C70  1  0.062600  0.942900  0.302400  1.0  -0.0076
  C  C71  1  0.211100  0.387000  0.819000  1.0  -0.1299
  C  C72  1  0.135400  0.950200  0.164200  1.0  0.1691
  C  C73  1  0.087200  0.433900  0.606500  1.0  0.6356
  C  C74  1  0.062200  0.890100  0.227300  1.0  -0.1462
  C  C75  1  0.199600  0.117700  0.250400  1.0  -0.0499
  C  C76  1  0.164800  0.497700  0.851700  1.0  0.1852
  C  C77  1  0.062000  0.564300  0.726000  1.0  -0.0387
  C  C78  1  0.127300  0.116100  0.394500  1.0  0.6657
  C  C79  1  0.414400  0.415000  0.306500  1.0  -0.1578
  C  C80  1  0.315700  0.632300  0.238400  1.0  -0.0347
  C  C81  1  0.389300  0.545000  0.191800  1.0  -0.093
  C  C82  1  0.299600  0.935100  0.675200  1.0  -0.1215
  C  C83  1  0.368900  0.943700  0.814500  1.0  -0.1025
  C  C84  1  0.437400  0.057100  0.802400  1.0  -0.0071
  C  C85  1  0.288900  0.613000  0.319000  1.0  -0.1298
  C  C86  1  0.364600  0.049800  0.664200  1.0  0.1696
  C  C87  1  0.412800  0.566100  0.106500  1.0  0.6358
  C  C88  1  0.437800  0.109900  0.727300  1.0  -0.1463
  C  C89  1  0.300400  0.882300  0.750400  1.0  -0.0499
  C  C90  1  0.335200  0.502300  0.351700  1.0  0.1854
  C  C91  1  0.438000  0.435700  0.226000  1.0  -0.0356
  C  C92  1  0.372700  0.883900  0.894500  1.0  0.6663
  N  N93  1  0.801200  0.019400  0.564400  1.0  -0.1755
  N  N94  1  0.856400  0.391700  0.412600  1.0  -0.1911
  N  N95  1  0.698800  0.980600  0.064400  1.0  -0.1743
  N  N96  1  0.643600  0.608300  0.912600  1.0  -0.1901
  N  N97  1  0.198800  0.519400  0.935600  1.0  -0.1718
  N  N98  1  0.143600  0.891700  0.087400  1.0  -0.1936
  N  N99  1  0.301200  0.480600  0.435600  1.0  -0.1719
  N  N100  1  0.356400  0.108300  0.587400  1.0  -0.195
  O  O101  1  0.866400  0.832200  0.923300  1.0  -0.5659
  O  O102  1  0.977200  0.013500  0.938100  1.0  -0.6087
  O  O103  1  0.822700  0.723100  0.102100  1.0  -0.5832
  O  O104  1  0.917500  0.555400  0.046400  1.0  -0.5039
  O  O105  1  0.633600  0.167800  0.423300  1.0  -0.5641
  O  O106  1  0.522800  0.986500  0.438100  1.0  -0.6026
  O  O107  1  0.677300  0.276900  0.602100  1.0  -0.5839
  O  O108  1  0.582500  0.444600  0.546400  1.0  -0.5035
  O  O109  1  0.133600  0.332200  0.576700  1.0  -0.5656
  O  O110  1  0.022800  0.513500  0.561900  1.0  -0.61
  O  O111  1  0.177300  0.223100  0.397900  1.0  -0.5836
  O  O112  1  0.082500  0.055400  0.453600  1.0  -0.5053
  O  O113  1  0.366400  0.667800  0.076700  1.0  -0.5635
  O  O114  1  0.477200  0.486500  0.061900  1.0  -0.5951
  O  O115  1  0.322700  0.776900  0.897900  1.0  -0.5836
  O  O116  1  0.417500  0.944600  0.953600  1.0  -0.5041
