# generated using pymatgen
data_FeH4Pt(C4N3)2
_symmetry_space_group_name_H-M   'P 1'
_cell_length_a   6.73700000
_cell_length_b   7.12200000
_cell_length_c   7.17500000
_cell_angle_alpha   90.00000000
_cell_angle_beta   90.00000000
_cell_angle_gamma   90.00000000
_symmetry_Int_Tables_number   1
_chemical_formula_structural   FeH4Pt(C4N3)2
_chemical_formula_sum   'Fe1 H4 Pt1 C8 N6'
_cell_volume   344.26305795
_cell_formula_units_Z   1
loop_
 _symmetry_equiv_pos_site_id
 _symmetry_equiv_pos_as_xyz
  1  'x, y, z'
loop_
 _atom_site_type_symbol
 _atom_site_label
 _atom_site_symmetry_multiplicity
 _atom_site_fract_x
 _atom_site_fract_y
 _atom_site_fract_z
 _atom_site_occupancy
 _atom_site_charge
  Fe  Fe1  1  0.500000  0.000000  0.000000  1.0  0.4728
  H  H2  1  0.170400  0.724200  0.000000  1.0  0.0767
  H  H3  1  0.829600  0.275800  0.000000  1.0  0.0765
  H  H4  1  0.829600  0.724200  0.000000  1.0  0.0766
  H  H5  1  0.170400  0.275800  0.000000  1.0  0.0765
  Pt  Pt6  1  0.500000  0.500000  0.500000  1.0  0.0583
  C  C7  1  0.500000  0.303700  0.695200  1.0  0.1158
  C  C8  1  0.500000  0.696300  0.695200  1.0  0.1152
  C  C9  1  0.500000  0.303700  0.304800  1.0  0.1152
  C  C10  1  0.500000  0.696300  0.304800  1.0  0.1153
  C  C11  1  0.102000  0.840800  0.000000  1.0  0.1399
  C  C12  1  0.898000  0.159200  0.000000  1.0  0.1397
  C  C13  1  0.898000  0.840800  0.000000  1.0  0.1401
  C  C14  1  0.102000  0.159200  0.000000  1.0  0.1393
  N  N15  1  0.500000  0.191300  0.810100  1.0  -0.3172
  N  N16  1  0.500000  0.808700  0.810100  1.0  -0.3119
  N  N17  1  0.500000  0.191300  0.189900  1.0  -0.3146
  N  N18  1  0.500000  0.808700  0.189900  1.0  -0.3136
  N  N19  1  0.207400  0.000000  0.000000  1.0  -0.3001
  N  N20  1  0.792600  0.000000  0.000000  1.0  -0.3005
