# generated using pymatgen
data_FeH4Pt(C4N3)2
_symmetry_space_group_name_H-M   'P 1'
_cell_length_a   7.28100000
_cell_length_b   7.44100000
_cell_length_c   7.46000000
_cell_angle_alpha   90.00000000
_cell_angle_beta   90.00000000
_cell_angle_gamma   95.81400000
_symmetry_Int_Tables_number   1
_chemical_formula_structural   FeH4Pt(C4N3)2
_chemical_formula_sum   'Fe1 H4 Pt1 C8 N6'
_cell_volume   402.08824863
_cell_formula_units_Z   1
loop_
 _symmetry_equiv_pos_site_id
 _symmetry_equiv_pos_as_xyz
  1  'x, y, z'
loop_
 _atom_site_type_symbol
 _atom_site_label
 _atom_site_symmetry_multiplicity
 _atom_site_fract_x
 _atom_site_fract_y
 _atom_site_fract_z
 _atom_site_occupancy
 _atom_site_charge
  Fe  Fe1  1  0.000000  0.500000  0.500000  1.0  0.4001
  H  H2  1  0.658400  0.491200  0.761200  1.0  0.0975
  H  H3  1  0.341600  0.508800  0.761200  1.0  0.0976
  H  H4  1  0.341600  0.508800  0.238800  1.0  0.0987
  H  H5  1  0.658400  0.491200  0.238800  1.0  0.0986
  Pt  Pt6  1  0.000000  0.000000  0.000000  1.0  -0.0426
  C  C7  1  0.596000  0.495000  0.653000  1.0  0.103
  C  C8  1  0.991400  0.189000  0.811000  1.0  0.1154
  C  C9  1  0.404000  0.505000  0.653000  1.0  0.1021
  C  C10  1  0.008600  0.811000  0.811000  1.0  0.1157
  C  C11  1  0.404000  0.505000  0.347000  1.0  0.1015
  C  C12  1  0.008600  0.811000  0.189000  1.0  0.1161
  C  C13  1  0.596000  0.495000  0.347000  1.0  0.1009
  C  C14  1  0.991400  0.189000  0.189000  1.0  0.116
  N  N15  1  0.990500  0.300000  0.704700  1.0  -0.3133
  N  N16  1  0.009500  0.700000  0.704700  1.0  -0.314
  N  N17  1  0.009500  0.700000  0.295300  1.0  -0.315
  N  N18  1  0.990500  0.300000  0.295300  1.0  -0.3143
  N  N19  1  0.689700  0.489000  0.500000  1.0  -0.1808
  N  N20  1  0.310300  0.511000  0.500000  1.0  -0.1832
