# generated using pymatgen
data_CdCoH8C16(NO)5
_symmetry_space_group_name_H-M   'P 1'
_cell_length_a   6.95800000
_cell_length_b   11.15200000
_cell_length_c   26.11800000
_cell_angle_alpha   97.89600000
_cell_angle_beta   90.00000000
_cell_angle_gamma   90.00000000
_symmetry_Int_Tables_number   1
_chemical_formula_structural   CdCoH8C16(NO)5
_chemical_formula_sum   'Cd4 Co4 H32 C64 N20 O20'
_cell_volume   2007.42781708
_cell_formula_units_Z   4
loop_
 _symmetry_equiv_pos_site_id
 _symmetry_equiv_pos_as_xyz
  1  'x, y, z'
loop_
 _atom_site_type_symbol
 _atom_site_label
 _atom_site_symmetry_multiplicity
 _atom_site_fract_x
 _atom_site_fract_y
 _atom_site_fract_z
 _atom_site_occupancy
 _atom_site_charge
  Cd  Cd1  1  0.832390  0.629950  0.873610  1.0  1.0074
  Cd  Cd2  1  0.332390  0.370050  0.626390  1.0  1.0074
  Cd  Cd3  1  0.167610  0.370050  0.126390  1.0  1.0078
  Cd  Cd4  1  0.667610  0.629950  0.373610  1.0  1.0076
  Co  Co5  1  0.082310  0.495760  0.750200  1.0  0.8491
  Co  Co6  1  0.582310  0.504240  0.749800  1.0  0.8477
  Co  Co7  1  0.917690  0.504240  0.249800  1.0  0.8478
  Co  Co8  1  0.417690  0.495760  0.250200  1.0  0.8491
  H  H9  1  0.239800  0.530800  0.964700  1.0  0.1014
  H  H10  1  0.951100  0.059800  0.816800  1.0  0.123
  H  H11  1  0.364700  0.770500  0.088800  1.0  0.106
  H  H12  1  0.179900  0.318100  0.921500  1.0  0.1083
  H  H13  1  0.437800  0.859900  0.946600  1.0  0.1105
  H  H14  1  0.448800  0.910500  0.035000  1.0  0.1007
  H  H15  1  0.164900  0.188600  0.983400  1.0  0.1157
  H  H16  1  0.053200  0.993400  0.960700  1.0  0.0975
  H  H17  1  0.739800  0.469200  0.535300  1.0  0.1006
  H  H18  1  0.451100  0.940200  0.683200  1.0  0.1231
  H  H19  1  0.864700  0.229500  0.411200  1.0  0.106
  H  H20  1  0.679900  0.681900  0.578500  1.0  0.1085
  H  H21  1  0.937800  0.140100  0.553400  1.0  0.1104
  H  H22  1  0.948800  0.089500  0.465000  1.0  0.1015
  H  H23  1  0.664900  0.811400  0.516600  1.0  0.1161
  H  H24  1  0.553200  0.006600  0.539300  1.0  0.0982
  H  H25  1  0.760200  0.469200  0.035300  1.0  0.1008
  H  H26  1  0.048900  0.940200  0.183200  1.0  0.1234
  H  H27  1  0.635300  0.229500  0.911200  1.0  0.106
  H  H28  1  0.820100  0.681900  0.078500  1.0  0.1088
  H  H29  1  0.562200  0.140100  0.053400  1.0  0.1103
  H  H30  1  0.551200  0.089500  0.965000  1.0  0.1019
  H  H31  1  0.835100  0.811400  0.016600  1.0  0.116
  H  H32  1  0.946800  0.006600  0.039300  1.0  0.0981
  H  H33  1  0.260200  0.530800  0.464700  1.0  0.1015
  H  H34  1  0.548900  0.059800  0.316800  1.0  0.1234
  H  H35  1  0.135300  0.770500  0.588800  1.0  0.1061
  H  H36  1  0.320100  0.318100  0.421500  1.0  0.1086
  H  H37  1  0.062200  0.859900  0.446600  1.0  0.1104
  H  H38  1  0.051200  0.910500  0.535000  1.0  0.1011
  H  H39  1  0.335100  0.188600  0.483400  1.0  0.115
  H  H40  1  0.446800  0.993400  0.460700  1.0  0.0975
  C  C41  1  0.333500  0.653700  0.890280  1.0  0.3657
  C  C42  1  0.283400  0.606900  0.978930  1.0  -0.0199
  C  C43  1  0.989100  0.006900  0.886830  1.0  -0.1245
  C  C44  1  0.994900  0.085000  0.850150  1.0  -0.043
  C  C45  1  0.294700  0.635800  0.032030  1.0  -0.1248
  C  C46  1  0.336600  0.690300  0.946680  1.0  -0.0678
  C  C47  1  0.242100  0.542600  0.065770  1.0  0.6349
  C  C48  1  0.357200  0.750000  0.053160  1.0  -0.0239
  C  C49  1  0.131500  0.240200  0.913020  1.0  -0.0531
  C  C50  1  0.066600  0.201300  0.863450  1.0  -0.0741
  C  C51  1  0.400500  0.803900  0.968000  1.0  -0.0619
  C  C52  1  0.408500  0.833600  0.020810  1.0  -0.0932
  C  C53  1  0.069200  0.282600  0.825030  1.0  0.3943
  C  C54  1  0.911500  0.880300  0.873820  1.0  0.6316
  C  C55  1  0.124100  0.162900  0.949770  1.0  -0.088
  C  C56  1  0.055100  0.046300  0.936090  1.0  -0.0247
  C  C57  1  0.833500  0.346300  0.609720  1.0  0.3664
  C  C58  1  0.783400  0.393100  0.521070  1.0  -0.0204
  C  C59  1  0.489100  0.993100  0.613170  1.0  -0.1216
  C  C60  1  0.494900  0.915000  0.649850  1.0  -0.0497
  C  C61  1  0.794700  0.364200  0.467970  1.0  -0.1247
  C  C62  1  0.836600  0.309700  0.553320  1.0  -0.0656
  C  C63  1  0.742100  0.457400  0.434230  1.0  0.6344
  C  C64  1  0.857200  0.250000  0.446840  1.0  -0.0251
  C  C65  1  0.631500  0.759800  0.586980  1.0  -0.0524
  C  C66  1  0.566600  0.798700  0.636550  1.0  -0.0742
  C  C67  1  0.900500  0.196100  0.532000  1.0  -0.0591
  C  C68  1  0.908500  0.166400  0.479190  1.0  -0.0941
  C  C69  1  0.569200  0.717400  0.674970  1.0  0.395
  C  C70  1  0.411500  0.119700  0.626180  1.0  0.6289
  C  C71  1  0.624100  0.837100  0.550230  1.0  -0.0867
  C  C72  1  0.555100  0.953700  0.563910  1.0  -0.0245
  C  C73  1  0.666500  0.346300  0.109720  1.0  0.366
  C  C74  1  0.716600  0.393100  0.021070  1.0  -0.0196
  C  C75  1  0.010900  0.993100  0.113170  1.0  -0.1219
  C  C76  1  0.005100  0.915000  0.149850  1.0  -0.0492
  C  C77  1  0.705300  0.364200  0.967970  1.0  -0.1251
  C  C78  1  0.663400  0.309700  0.053320  1.0  -0.066
  C  C79  1  0.757900  0.457400  0.934230  1.0  0.6346
  C  C80  1  0.642800  0.250000  0.946840  1.0  -0.0241
  C  C81  1  0.868500  0.759800  0.086980  1.0  -0.0522
  C  C82  1  0.933400  0.798700  0.136550  1.0  -0.074
  C  C83  1  0.599500  0.196100  0.032000  1.0  -0.0598
  C  C84  1  0.591500  0.166400  0.979190  1.0  -0.0953
  C  C85  1  0.930800  0.717400  0.174970  1.0  0.3943
  C  C86  1  0.088500  0.119700  0.126180  1.0  0.6287
  C  C87  1  0.875900  0.837100  0.050230  1.0  -0.0875
  C  C88  1  0.944900  0.953700  0.063910  1.0  -0.0239
  C  C89  1  0.166500  0.653700  0.390280  1.0  0.3652
  C  C90  1  0.216600  0.606900  0.478930  1.0  -0.019
  C  C91  1  0.510900  0.006900  0.386830  1.0  -0.1244
  C  C92  1  0.505100  0.085000  0.350150  1.0  -0.0429
  C  C93  1  0.205300  0.635800  0.532030  1.0  -0.1251
  C  C94  1  0.163400  0.690300  0.446680  1.0  -0.0681
  C  C95  1  0.257900  0.542600  0.565770  1.0  0.635
  C  C96  1  0.142800  0.750000  0.553160  1.0  -0.0242
  C  C97  1  0.368500  0.240200  0.413020  1.0  -0.0522
  C  C98  1  0.433400  0.201300  0.363450  1.0  -0.0725
  C  C99  1  0.099500  0.803900  0.468000  1.0  -0.0619
  C  C100  1  0.091500  0.833600  0.520810  1.0  -0.0943
  C  C101  1  0.430800  0.282600  0.325030  1.0  0.3937
  C  C102  1  0.588500  0.880300  0.373820  1.0  0.6298
  C  C103  1  0.375900  0.162900  0.449770  1.0  -0.0891
  C  C104  1  0.444900  0.046300  0.436090  1.0  -0.0241
  N  N105  1  0.490100  0.643900  0.860520  1.0  -0.2851
  N  N106  1  0.239200  0.589600  0.814010  1.0  1e-04
  N  N107  1  0.175800  0.620600  0.862360  1.0  -0.2771
  N  N108  1  0.424900  0.602400  0.812740  1.0  -0.0044
  N  N109  1  0.069600  0.347300  0.794840  1.0  -0.412
  N  N110  1  0.990100  0.356100  0.639480  1.0  -0.2837
  N  N111  1  0.739200  0.410400  0.685990  1.0  0.0008
  N  N112  1  0.675800  0.379400  0.637640  1.0  -0.2762
  N  N113  1  0.924900  0.397600  0.687260  1.0  -0.0023
  N  N114  1  0.569600  0.652700  0.705160  1.0  -0.4137
  N  N115  1  0.509900  0.356100  0.139480  1.0  -0.2862
  N  N116  1  0.760800  0.410400  0.185990  1.0  0.0018
  N  N117  1  0.824200  0.379400  0.137640  1.0  -0.2757
  N  N118  1  0.575100  0.397600  0.187260  1.0  -0.003
  N  N119  1  0.930400  0.652700  0.205160  1.0  -0.4119
  N  N120  1  0.009900  0.643900  0.360520  1.0  -0.2861
  N  N121  1  0.260800  0.589600  0.314010  1.0  -0.0002
  N  N122  1  0.324200  0.620600  0.362360  1.0  -0.2764
  N  N123  1  0.075100  0.602400  0.312740  1.0  -0.004
  N  N124  1  0.430400  0.347300  0.294840  1.0  -0.4119
  O  O125  1  0.242400  0.571300  0.114300  1.0  -0.6035
  O  O126  1  0.197900  0.438100  0.045870  1.0  -0.5637
  O  O127  1  0.886200  0.838300  0.827030  1.0  -0.5463
  O  O128  1  0.878500  0.821600  0.910490  1.0  -0.5759
  O  O129  1  0.834100  0.574130  0.784400  1.0  -0.6827
  O  O130  1  0.742400  0.428700  0.385700  1.0  -0.6017
  O  O131  1  0.697900  0.561900  0.454130  1.0  -0.5634
  O  O132  1  0.386200  0.161700  0.672970  1.0  -0.5476
  O  O133  1  0.378500  0.178400  0.589510  1.0  -0.5741
  O  O134  1  0.334100  0.425870  0.715600  1.0  -0.6814
  O  O135  1  0.757600  0.428700  0.885700  1.0  -0.6011
  O  O136  1  0.802100  0.561900  0.954130  1.0  -0.5634
  O  O137  1  0.113800  0.161700  0.172970  1.0  -0.5465
  O  O138  1  0.121500  0.178400  0.089510  1.0  -0.5735
  O  O139  1  0.165900  0.425870  0.215600  1.0  -0.6815
  O  O140  1  0.257600  0.571300  0.614300  1.0  -0.6038
  O  O141  1  0.302100  0.438100  0.545870  1.0  -0.5634
  O  O142  1  0.613800  0.838300  0.327030  1.0  -0.5466
  O  O143  1  0.621500  0.821600  0.410490  1.0  -0.5755
  O  O144  1  0.665900  0.574130  0.284400  1.0  -0.6827
