# generated using pymatgen
data_DyH12(C4O)6
_symmetry_space_group_name_H-M   'P 1'
_cell_length_a   10.38030000
_cell_length_b   11.35080000
_cell_length_c   12.98940000
_cell_angle_alpha   72.43500000
_cell_angle_beta   89.86700000
_cell_angle_gamma   87.37200000
_symmetry_Int_Tables_number   1
_chemical_formula_structural   DyH12(C4O)6
_chemical_formula_sum   'Dy2 H24 C48 O12'
_cell_volume   1457.47316935
_cell_formula_units_Z   2
loop_
 _symmetry_equiv_pos_site_id
 _symmetry_equiv_pos_as_xyz
  1  'x, y, z'
loop_
 _atom_site_type_symbol
 _atom_site_label
 _atom_site_symmetry_multiplicity
 _atom_site_fract_x
 _atom_site_fract_y
 _atom_site_fract_z
 _atom_site_occupancy
 _atom_site_charge
  Dy  Dy1  1  0.479000  0.045570  0.339700  1.0  2.2842
  Dy  Dy2  1  0.521000  0.954430  0.660300  1.0  2.2772
  H  H3  1  0.400000  0.422700  0.262500  1.0  0.0934
  H  H4  1  0.276200  0.700800  0.555900  1.0  0.1023
  H  H5  1  0.234600  0.204000  0.400300  1.0  0.1033
  H  H6  1  0.318900  0.599700  0.289800  1.0  0.105
  H  H7  1  0.087500  0.601000  0.586200  1.0  0.1009
  H  H8  1  0.146800  0.352200  0.254400  1.0  0.1071
  H  H9  1  0.310300  0.786500  0.147200  1.0  0.11
  H  H10  1  0.080300  0.397000  0.580900  1.0  0.1101
  H  H11  1  0.932400  0.342600  0.202300  1.0  0.1092
  H  H12  1  0.389500  0.794000  0.982300  1.0  0.1108
  H  H13  1  0.260600  0.295000  0.544600  1.0  0.1061
  H  H14  1  0.808200  0.187000  0.296000  1.0  0.111
  H  H15  1  0.600000  0.577300  0.737500  1.0  0.0933
  H  H16  1  0.723800  0.299200  0.444100  1.0  0.1025
  H  H17  1  0.765400  0.796000  0.599700  1.0  0.1033
  H  H18  1  0.681100  0.400300  0.710200  1.0  0.1058
  H  H19  1  0.912500  0.399000  0.413800  1.0  0.1012
  H  H20  1  0.853200  0.647800  0.745600  1.0  0.1072
  H  H21  1  0.689700  0.213500  0.852800  1.0  0.1105
  H  H22  1  0.919700  0.603000  0.419100  1.0  0.1095
  H  H23  1  0.067600  0.657400  0.797700  1.0  0.1098
  H  H24  1  0.610500  0.206000  0.017700  1.0  0.1101
  H  H25  1  0.739400  0.705000  0.455400  1.0  0.1053
  H  H26  1  0.191800  0.813000  0.704000  1.0  0.1111
  C  C27  1  0.494700  0.265900  0.170500  1.0  0.6974
  C  C28  1  0.509300  0.754700  0.505900  1.0  0.6818
  C  C29  1  0.266500  0.009100  0.564600  1.0  0.6755
  C  C30  1  0.498200  0.385300  0.085700  1.0  -0.0768
  C  C31  1  0.505400  0.621700  0.505500  1.0  -0.0946
  C  C32  1  0.129500  0.004600  0.530100  1.0  -0.0819
  C  C33  1  0.448100  0.494900  0.102100  1.0  0.0296
  C  C34  1  0.389400  0.560800  0.527700  1.0  0.0182
  C  C35  1  0.076700  0.097700  0.440800  1.0  0.0432
  C  C36  1  0.398400  0.496100  0.205800  1.0  -0.0827
  C  C37  1  0.274300  0.620300  0.552500  1.0  -0.1395
  C  C38  1  0.149700  0.198900  0.380000  1.0  -0.172
  C  C39  1  0.349800  0.601100  0.222200  1.0  -0.134
  C  C40  1  0.161900  0.560700  0.571100  1.0  -0.1565
  C  C41  1  0.097400  0.287600  0.293300  1.0  -0.1295
  C  C42  1  0.345500  0.714800  0.135700  1.0  -0.1348
  C  C43  1  0.157600  0.437100  0.567600  1.0  -0.1144
  C  C44  1  0.967300  0.281700  0.261900  1.0  -0.0907
  C  C45  1  0.392300  0.719100  0.037200  1.0  -0.1007
  C  C46  1  0.264900  0.376500  0.545100  1.0  -0.1168
  C  C47  1  0.893300  0.188600  0.317600  1.0  -0.1497
  C  C48  1  0.446100  0.610300  0.016100  1.0  0.0409
  C  C49  1  0.384200  0.436600  0.522100  1.0  0.0432
  C  C50  1  0.944800  0.092400  0.409500  1.0  0.0293
  C  C51  1  0.505300  0.734100  0.829500  1.0  0.6978
  C  C52  1  0.490700  0.245300  0.494100  1.0  0.6807
  C  C53  1  0.733500  0.990900  0.435400  1.0  0.6754
  C  C54  1  0.501800  0.614700  0.914300  1.0  -0.076
  C  C55  1  0.494600  0.378300  0.494500  1.0  -0.095
  C  C56  1  0.870500  0.995400  0.469900  1.0  -0.0817
  C  C57  1  0.551900  0.505100  0.897900  1.0  0.0293
  C  C58  1  0.610600  0.439200  0.472300  1.0  0.0182
  C  C59  1  0.923300  0.902300  0.559200  1.0  0.0437
  C  C60  1  0.601600  0.503900  0.794200  1.0  -0.0816
  C  C61  1  0.725700  0.379700  0.447500  1.0  -0.1384
  C  C62  1  0.850300  0.801100  0.620000  1.0  -0.1707
  C  C63  1  0.650200  0.398900  0.777800  1.0  -0.1339
  C  C64  1  0.838100  0.439300  0.428900  1.0  -0.1547
  C  C65  1  0.902600  0.712400  0.706700  1.0  -0.1278
  C  C66  1  0.654500  0.285200  0.864300  1.0  -0.1359
  C  C67  1  0.842400  0.562900  0.432400  1.0  -0.1143
  C  C68  1  0.032700  0.718300  0.738100  1.0  -0.0904
  C  C69  1  0.607700  0.280900  0.962800  1.0  -0.0996
  C  C70  1  0.735100  0.623500  0.454900  1.0  -0.118
  C  C71  1  0.106700  0.811400  0.682400  1.0  -0.1493
  C  C72  1  0.553900  0.389700  0.983900  1.0  0.0402
  C  C73  1  0.615800  0.563400  0.477900  1.0  0.042
  C  C74  1  0.055200  0.907600  0.590500  1.0  0.0295
  O  O75  1  0.386720  0.217010  0.194720  1.0  -0.595
  O  O76  1  0.491390  0.833650  0.414920  1.0  -0.6717
  O  O77  1  0.359510  0.993660  0.505230  1.0  -0.8055
  O  O78  1  0.596650  0.213700  0.217480  1.0  -0.6827
  O  O79  1  0.530380  0.775750  0.593750  1.0  -0.6166
  O  O80  1  0.287550  0.019430  0.656070  1.0  -0.6664
  O  O81  1  0.613280  0.782990  0.805280  1.0  -0.5921
  O  O82  1  0.508610  0.166350  0.585080  1.0  -0.6716
  O  O83  1  0.640490  0.006340  0.494770  1.0  -0.8053
  O  O84  1  0.403350  0.786300  0.782520  1.0  -0.6838
  O  O85  1  0.469620  0.224250  0.406250  1.0  -0.6174
  O  O86  1  0.712450  0.980570  0.343930  1.0  -0.6662
