# generated using pymatgen
data_PrH12(C4O)6
_symmetry_space_group_name_H-M   'P 1'
_cell_length_a   10.44770000
_cell_length_b   11.49450000
_cell_length_c   12.95830000
_cell_angle_alpha   106.63900000
_cell_angle_beta   90.32200000
_cell_angle_gamma   93.19400000
_symmetry_Int_Tables_number   1
_chemical_formula_structural   PrH12(C4O)6
_chemical_formula_sum   'Pr2 H24 C48 O12'
_cell_volume   1488.32120452
_cell_formula_units_Z   2
loop_
 _symmetry_equiv_pos_site_id
 _symmetry_equiv_pos_as_xyz
  1  'x, y, z'
loop_
 _atom_site_type_symbol
 _atom_site_label
 _atom_site_symmetry_multiplicity
 _atom_site_fract_x
 _atom_site_fract_y
 _atom_site_fract_z
 _atom_site_occupancy
 _atom_site_charge
  Pr  Pr1  1  0.474240  0.453860  0.335490  1.0  2.196
  Pr  Pr2  1  0.525760  0.546140  0.664510  1.0  2.1975
  H  H3  1  0.397300  0.075700  0.260000  1.0  0.1031
  H  H4  1  0.279700  0.796100  0.553600  1.0  0.1044
  H  H5  1  0.231100  0.301600  0.404600  1.0  0.1035
  H  H6  1  0.314700  0.902500  0.289000  1.0  0.1069
  H  H7  1  0.094200  0.891100  0.585000  1.0  0.1043
  H  H8  1  0.143900  0.156900  0.258200  1.0  0.1138
  H  H9  1  0.311000  0.717900  0.153000  1.0  0.1152
  H  H10  1  0.086000  0.094600  0.584600  1.0  0.1185
  H  H11  1  0.929300  0.165600  0.203900  1.0  0.1153
  H  H12  1  0.389000  0.709700  0.986400  1.0  0.1161
  H  H13  1  0.260000  0.194100  0.539400  1.0  0.1083
  H  H14  1  0.808700  0.317700  0.295600  1.0  0.1129
  H  H15  1  0.602700  0.924300  0.740000  1.0  0.1037
  H  H16  1  0.720300  0.203900  0.446400  1.0  0.1046
  H  H17  1  0.768900  0.698400  0.595400  1.0  0.1032
  H  H18  1  0.685300  0.097500  0.711000  1.0  0.1072
  H  H19  1  0.905800  0.108900  0.415000  1.0  0.1043
  H  H20  1  0.856100  0.843100  0.741800  1.0  0.1134
  H  H21  1  0.689000  0.282100  0.847000  1.0  0.1152
  H  H22  1  0.914000  0.905400  0.415400  1.0  0.1182
  H  H23  1  0.070700  0.834400  0.796100  1.0  0.1168
  H  H24  1  0.611000  0.290300  0.013600  1.0  0.1149
  H  H25  1  0.740000  0.805900  0.460600  1.0  0.1084
  H  H26  1  0.191300  0.682300  0.704400  1.0  0.1121
  C  C27  1  0.493400  0.231600  0.165900  1.0  0.7015
  C  C28  1  0.512500  0.748000  0.504600  1.0  0.6772
  C  C29  1  0.264200  0.489000  0.566600  1.0  0.689
  C  C30  1  0.498200  0.113300  0.082100  1.0  -0.0631
  C  C31  1  0.506900  0.879800  0.504800  1.0  -0.0945
  C  C32  1  0.128700  0.493200  0.531900  1.0  -0.064
  C  C33  1  0.447400  0.005300  0.101200  1.0  0.0527
  C  C34  1  0.391300  0.936200  0.526300  1.0  0.0251
  C  C35  1  0.075400  0.404200  0.442800  1.0  -0.0663
  C  C36  1  0.396300  0.003600  0.204400  1.0  -0.1085
  C  C37  1  0.277600  0.876000  0.550900  1.0  -0.0637
  C  C38  1  0.146800  0.306400  0.383400  1.0  -0.1562
  C  C39  1  0.347300  0.900300  0.221900  1.0  -0.1011
  C  C40  1  0.167600  0.932500  0.570200  1.0  -0.1234
  C  C41  1  0.095000  0.219700  0.296300  1.0  -0.1423
  C  C42  1  0.344900  0.788500  0.139500  1.0  -0.0725
  C  C43  1  0.161900  0.055300  0.568200  1.0  -0.1197
  C  C44  1  0.964700  0.225100  0.263300  1.0  -0.1138
  C  C45  1  0.392100  0.783600  0.040000  1.0  -0.1186
  C  C46  1  0.266000  0.114800  0.542700  1.0  -0.1307
  C  C47  1  0.893100  0.316000  0.317900  1.0  -0.1276
  C  C48  1  0.446700  0.891600  0.017200  1.0  0.0141
  C  C49  1  0.385400  0.059000  0.520500  1.0  0.012
  C  C50  1  0.944300  0.410000  0.409600  1.0  0.0662
  C  C51  1  0.506600  0.768400  0.834100  1.0  0.7012
  C  C52  1  0.487500  0.252000  0.495400  1.0  0.6771
  C  C53  1  0.735800  0.511000  0.433400  1.0  0.687
  C  C54  1  0.501800  0.886700  0.917900  1.0  -0.062
  C  C55  1  0.493100  0.120200  0.495200  1.0  -0.0931
  C  C56  1  0.871300  0.506800  0.468100  1.0  -0.0642
  C  C57  1  0.552600  0.994700  0.898800  1.0  0.052
  C  C58  1  0.608700  0.063800  0.473700  1.0  0.0249
  C  C59  1  0.924600  0.595800  0.557200  1.0  -0.0669
  C  C60  1  0.603700  0.996400  0.795600  1.0  -0.1089
  C  C61  1  0.722400  0.124000  0.449100  1.0  -0.0655
  C  C62  1  0.853200  0.693600  0.616600  1.0  -0.1562
  C  C63  1  0.652700  0.099700  0.778100  1.0  -0.1004
  C  C64  1  0.832400  0.067500  0.429800  1.0  -0.1225
  C  C65  1  0.905000  0.780300  0.703700  1.0  -0.1425
  C  C66  1  0.655100  0.211500  0.860500  1.0  -0.0728
  C  C67  1  0.838100  0.944700  0.431800  1.0  -0.1204
  C  C68  1  0.035300  0.774900  0.736700  1.0  -0.1108
  C  C69  1  0.607900  0.216400  0.960000  1.0  -0.1188
  C  C70  1  0.734000  0.885200  0.457300  1.0  -0.1316
  C  C71  1  0.106900  0.684000  0.682100  1.0  -0.1262
  C  C72  1  0.553300  0.108400  0.982800  1.0  0.0147
  C  C73  1  0.614600  0.941000  0.479500  1.0  0.0107
  C  C74  1  0.055700  0.590000  0.590400  1.0  0.0696
  O  O75  1  0.385400  0.277500  0.184600  1.0  -0.6164
  O  O76  1  0.489700  0.671600  0.414400  1.0  -0.7162
  O  O77  1  0.354600  0.509900  0.507700  1.0  -0.8298
  O  O78  1  0.595100  0.283800  0.213800  1.0  -0.6827
  O  O79  1  0.538800  0.726100  0.590400  1.0  -0.626
  O  O80  1  0.284700  0.474300  0.656000  1.0  -0.6231
  O  O81  1  0.614600  0.722500  0.815400  1.0  -0.6164
  O  O82  1  0.510300  0.328400  0.585600  1.0  -0.7146
  O  O83  1  0.645400  0.490100  0.492300  1.0  -0.8306
  O  O84  1  0.404900  0.716200  0.786200  1.0  -0.6858
  O  O85  1  0.461200  0.273900  0.409600  1.0  -0.6258
  O  O86  1  0.715300  0.525700  0.344000  1.0  -0.6175
