# generated using pymatgen
data_NdH12(C4O)6
_symmetry_space_group_name_H-M   'P 1'
_cell_length_a   10.47100000
_cell_length_b   11.35900000
_cell_length_c   13.09300000
_cell_angle_alpha   107.54100000
_cell_angle_beta   90.08400000
_cell_angle_gamma   92.35500000
_symmetry_Int_Tables_number   1
_chemical_formula_structural   NdH12(C4O)6
_chemical_formula_sum   'Nd2 H24 C48 O12'
_cell_volume   1483.46042118
_cell_formula_units_Z   2
loop_
 _symmetry_equiv_pos_site_id
 _symmetry_equiv_pos_as_xyz
  1  'x, y, z'
loop_
 _atom_site_type_symbol
 _atom_site_label
 _atom_site_symmetry_multiplicity
 _atom_site_fract_x
 _atom_site_fract_y
 _atom_site_fract_z
 _atom_site_occupancy
 _atom_site_charge
  Nd  Nd1  1  0.480680  0.453420  0.339460  1.0  2.286
  Nd  Nd2  1  0.519320  0.546580  0.660540  1.0  2.2844
  H  H3  1  0.411000  0.071200  0.263700  1.0  0.0913
  H  H4  1  0.279200  0.804000  0.559200  1.0  0.1064
  H  H5  1  0.234600  0.299000  0.400100  1.0  0.1011
  H  H6  1  0.313500  0.899300  0.284500  1.0  0.1047
  H  H7  1  0.091800  0.901400  0.583200  1.0  0.1093
  H  H8  1  0.143600  0.146700  0.258200  1.0  0.1128
  H  H9  1  0.309100  0.711100  0.144000  1.0  0.128
  H  H10  1  0.083200  0.102000  0.573700  1.0  0.1151
  H  H11  1  0.931300  0.157300  0.208200  1.0  0.1128
  H  H12  1  0.388300  0.708500  0.981000  1.0  0.1049
  H  H13  1  0.263100  0.205100  0.542700  1.0  0.1101
  H  H14  1  0.807700  0.311400  0.303700  1.0  0.1123
  H  H15  1  0.589000  0.928800  0.736300  1.0  0.0915
  H  H16  1  0.720800  0.196000  0.440800  1.0  0.1063
  H  H17  1  0.765400  0.701000  0.599900  1.0  0.1
  H  H18  1  0.686500  0.100700  0.715500  1.0  0.1051
  H  H19  1  0.908200  0.098600  0.416800  1.0  0.1087
  H  H20  1  0.856400  0.853300  0.741800  1.0  0.1126
  H  H21  1  0.690900  0.288900  0.856000  1.0  0.1285
  H  H22  1  0.916800  0.898000  0.426300  1.0  0.1147
  H  H23  1  0.068700  0.842700  0.791800  1.0  0.1143
  H  H24  1  0.611700  0.291500  0.019000  1.0  0.1046
  H  H25  1  0.736900  0.794900  0.457300  1.0  0.1105
  H  H26  1  0.192300  0.688600  0.696300  1.0  0.1126
  C  C27  1  0.498700  0.233500  0.170600  1.0  0.7169
  C  C28  1  0.508900  0.746200  0.507200  1.0  0.6706
  C  C29  1  0.266800  0.491300  0.561200  1.0  0.6721
  C  C30  1  0.499800  0.115400  0.086100  1.0  -0.0689
  C  C31  1  0.506400  0.879900  0.506900  1.0  -0.0979
  C  C32  1  0.128800  0.496600  0.528400  1.0  -0.0672
  C  C33  1  0.451400  0.006000  0.101000  1.0  -0.1095
  C  C34  1  0.391200  0.939700  0.525700  1.0  0.0333
  C  C35  1  0.076400  0.402900  0.440900  1.0  0.0266
  C  C36  1  0.403300  0.000500  0.205100  1.0  -0.0892
  C  C37  1  0.276900  0.883100  0.552500  1.0  -0.0977
  C  C38  1  0.149500  0.302800  0.381300  1.0  -0.1838
  C  C39  1  0.348600  0.896800  0.218700  1.0  -0.1211
  C  C40  1  0.165500  0.941700  0.568500  1.0  -0.1567
  C  C41  1  0.095400  0.212200  0.296500  1.0  -0.1032
  C  C42  1  0.343900  0.783100  0.133600  1.0  -0.1464
  C  C43  1  0.160400  0.062700  0.563100  1.0  -0.1057
  C  C44  1  0.966500  0.218100  0.267100  1.0  -0.0555
  C  C45  1  0.391900  0.782700  0.036200  1.0  -0.0867
  C  C46  1  0.267400  0.123500  0.542700  1.0  -0.158
  C  C47  1  0.893100  0.310800  0.323100  1.0  -0.1453
  C  C48  1  0.447500  0.890500  0.014500  1.0  0.0184
  C  C49  1  0.386300  0.064000  0.521300  1.0  0.0
  C  C50  1  0.946100  0.407700  0.411900  1.0  0.0339
  C  C51  1  0.501300  0.766500  0.829400  1.0  0.717
  C  C52  1  0.491100  0.253800  0.492800  1.0  0.6717
  C  C53  1  0.733200  0.508700  0.438800  1.0  0.6716
  C  C54  1  0.500200  0.884600  0.913900  1.0  -0.0692
  C  C55  1  0.493600  0.120100  0.493100  1.0  -0.0969
  C  C56  1  0.871200  0.503400  0.471600  1.0  -0.0671
  C  C57  1  0.548600  0.994000  0.899000  1.0  -0.1099
  C  C58  1  0.608800  0.060300  0.474300  1.0  0.0329
  C  C59  1  0.923600  0.597100  0.559100  1.0  0.0263
  C  C60  1  0.596700  0.999500  0.794900  1.0  -0.0867
  C  C61  1  0.723100  0.116900  0.447500  1.0  -0.0965
  C  C62  1  0.850500  0.697200  0.618700  1.0  -0.1825
  C  C63  1  0.651400  0.103200  0.781300  1.0  -0.1227
  C  C64  1  0.834500  0.058300  0.431500  1.0  -0.1558
  C  C65  1  0.904600  0.787800  0.703500  1.0  -0.1021
  C  C66  1  0.656100  0.216900  0.866400  1.0  -0.1463
  C  C67  1  0.839600  0.937300  0.436900  1.0  -0.1062
  C  C68  1  0.033500  0.781900  0.732900  1.0  -0.0539
  C  C69  1  0.608100  0.217300  0.963800  1.0  -0.0873
  C  C70  1  0.732600  0.876500  0.457300  1.0  -0.159
  C  C71  1  0.106900  0.689200  0.676900  1.0  -0.1467
  C  C72  1  0.552500  0.109500  0.985500  1.0  0.019
  C  C73  1  0.613700  0.936000  0.478700  1.0  0.0007
  C  C74  1  0.053900  0.592300  0.588100  1.0  0.0343
  O  O75  1  0.390900  0.281000  0.195100  1.0  -0.6103
  O  O76  1  0.492900  0.667000  0.415900  1.0  -0.6941
  O  O77  1  0.357400  0.505300  0.502100  1.0  -0.7642
  O  O78  1  0.598500  0.283300  0.217200  1.0  -0.6152
  O  O79  1  0.527700  0.724200  0.592800  1.0  -0.635
  O  O80  1  0.288700  0.483800  0.652400  1.0  -0.6553
  O  O81  1  0.609100  0.719000  0.804900  1.0  -0.6089
  O  O82  1  0.507100  0.333000  0.584100  1.0  -0.6938
  O  O83  1  0.642600  0.494700  0.497900  1.0  -0.7649
  O  O84  1  0.401500  0.716700  0.782800  1.0  -0.6175
  O  O85  1  0.472300  0.275800  0.407200  1.0  -0.6361
  O  O86  1  0.711300  0.516200  0.347600  1.0  -0.6569
