# generated using pymatgen
data_GdH12(C4O)6
_symmetry_space_group_name_H-M   'P 1'
_cell_length_a   10.35410000
_cell_length_b   11.36800000
_cell_length_c   12.91600000
_cell_angle_alpha   72.85900000
_cell_angle_beta   90.02800000
_cell_angle_gamma   87.23200000
_symmetry_Int_Tables_number   1
_chemical_formula_structural   GdH12(C4O)6
_chemical_formula_sum   'Gd2 H24 C48 O12'
_cell_volume   1450.88808281
_cell_formula_units_Z   2
loop_
 _symmetry_equiv_pos_site_id
 _symmetry_equiv_pos_as_xyz
  1  'x, y, z'
loop_
 _atom_site_type_symbol
 _atom_site_label
 _atom_site_symmetry_multiplicity
 _atom_site_fract_x
 _atom_site_fract_y
 _atom_site_fract_z
 _atom_site_occupancy
 _atom_site_charge
  Gd  Gd1  1  0.478330  0.046110  0.338380  1.0  2.1703
  Gd  Gd2  1  0.521670  0.953890  0.661620  1.0  2.1682
  H  H3  1  0.398400  0.423900  0.262200  1.0  0.083
  H  H4  1  0.277500  0.701400  0.556900  1.0  0.0936
  H  H5  1  0.234600  0.203200  0.401300  1.0  0.0979
  H  H6  1  0.318500  0.598900  0.290100  1.0  0.097
  H  H7  1  0.090300  0.605100  0.585900  1.0  0.0928
  H  H8  1  0.145300  0.351700  0.256600  1.0  0.1069
  H  H9  1  0.309900  0.784300  0.149700  1.0  0.1038
  H  H10  1  0.080200  0.403500  0.578900  1.0  0.1019
  H  H11  1  0.933900  0.338400  0.201200  1.0  0.1041
  H  H12  1  0.386700  0.792600  0.983100  1.0  0.1084
  H  H13  1  0.259900  0.297900  0.546900  1.0  0.1018
  H  H14  1  0.808300  0.186700  0.296300  1.0  0.1025
  H  H15  1  0.601600  0.576100  0.737800  1.0  0.083
  H  H16  1  0.722500  0.298600  0.443100  1.0  0.0942
  H  H17  1  0.765400  0.796800  0.598700  1.0  0.0974
  H  H18  1  0.681500  0.401100  0.709900  1.0  0.0981
  H  H19  1  0.909700  0.394900  0.414100  1.0  0.0928
  H  H20  1  0.854700  0.648300  0.743400  1.0  0.1068
  H  H21  1  0.690100  0.215700  0.850300  1.0  0.1041
  H  H22  1  0.919800  0.596500  0.421100  1.0  0.1019
  H  H23  1  0.066100  0.661600  0.798800  1.0  0.1055
  H  H24  1  0.613300  0.207400  0.016900  1.0  0.1076
  H  H25  1  0.740100  0.702100  0.453100  1.0  0.1016
  H  H26  1  0.191700  0.813300  0.703700  1.0  0.1017
  C  C27  1  0.494600  0.266200  0.167700  1.0  0.7205
  C  C28  1  0.510500  0.753700  0.504600  1.0  0.6806
  C  C29  1  0.265800  0.009700  0.564100  1.0  0.6692
  C  C30  1  0.498300  0.384800  0.084300  1.0  -0.0323
  C  C31  1  0.505600  0.621200  0.505300  1.0  -0.1038
  C  C32  1  0.129500  0.004800  0.531300  1.0  -0.0553
  C  C33  1  0.448600  0.494100  0.103000  1.0  0.0415
  C  C34  1  0.390100  0.561900  0.527600  1.0  0.0103
  C  C35  1  0.076200  0.097100  0.441800  1.0  0.0415
  C  C36  1  0.397700  0.496800  0.205500  1.0  -0.08
  C  C37  1  0.275200  0.621200  0.552800  1.0  -0.1189
  C  C38  1  0.149300  0.198200  0.380900  1.0  -0.1178
  C  C39  1  0.349500  0.600400  0.222200  1.0  -0.1364
  C  C40  1  0.164400  0.563900  0.570700  1.0  -0.1465
  C  C41  1  0.096700  0.286500  0.294400  1.0  -0.1398
  C  C42  1  0.345000  0.713000  0.137100  1.0  -0.1074
  C  C43  1  0.158500  0.441900  0.566900  1.0  -0.1
  C  C44  1  0.968300  0.279200  0.262200  1.0  -0.0915
  C  C45  1  0.390900  0.718100  0.038000  1.0  -0.1259
  C  C46  1  0.264900  0.379600  0.546000  1.0  -0.1278
  C  C47  1  0.893800  0.187800  0.318000  1.0  -0.1056
  C  C48  1  0.446200  0.609300  0.017100  1.0  0.0384
  C  C49  1  0.384500  0.437900  0.522600  1.0  0.0312
  C  C50  1  0.944900  0.092500  0.410500  1.0  0.0454
  C  C51  1  0.505400  0.733800  0.832300  1.0  0.7198
  C  C52  1  0.489500  0.246300  0.495400  1.0  0.6797
  C  C53  1  0.734200  0.990300  0.435900  1.0  0.6689
  C  C54  1  0.501700  0.615200  0.915700  1.0  -0.0315
  C  C55  1  0.494400  0.378800  0.494700  1.0  -0.1043
  C  C56  1  0.870500  0.995200  0.468700  1.0  -0.0551
  C  C57  1  0.551400  0.505900  0.897000  1.0  0.0414
  C  C58  1  0.609900  0.438100  0.472400  1.0  0.0107
  C  C59  1  0.923800  0.902900  0.558200  1.0  0.0419
  C  C60  1  0.602300  0.503200  0.794500  1.0  -0.0804
  C  C61  1  0.724800  0.378800  0.447200  1.0  -0.1185
  C  C62  1  0.850700  0.801800  0.619100  1.0  -0.1158
  C  C63  1  0.650500  0.399600  0.777800  1.0  -0.1362
  C  C64  1  0.835600  0.436100  0.429300  1.0  -0.146
  C  C65  1  0.903300  0.713500  0.705600  1.0  -0.1398
  C  C66  1  0.655000  0.287000  0.862900  1.0  -0.1071
  C  C67  1  0.841500  0.558100  0.433100  1.0  -0.1003
  C  C68  1  0.031700  0.720800  0.737800  1.0  -0.0898
  C  C69  1  0.609100  0.281900  0.962000  1.0  -0.1264
  C  C70  1  0.735100  0.620400  0.454000  1.0  -0.1305
  C  C71  1  0.106200  0.812200  0.682000  1.0  -0.1058
  C  C72  1  0.553800  0.390700  0.982900  1.0  0.0385
  C  C73  1  0.615500  0.562100  0.477400  1.0  0.0302
  C  C74  1  0.055100  0.907500  0.589500  1.0  0.0492
  O  O75  1  0.386500  0.218300  0.190700  1.0  -0.5905
  O  O76  1  0.491200  0.832200  0.413600  1.0  -0.718
  O  O77  1  0.358600  0.992700  0.506200  1.0  -0.7746
  O  O78  1  0.596600  0.214900  0.216300  1.0  -0.6805
  O  O79  1  0.532800  0.775300  0.592500  1.0  -0.6332
  O  O80  1  0.286700  0.020400  0.656100  1.0  -0.6578
  O  O81  1  0.613500  0.781700  0.809300  1.0  -0.5924
  O  O82  1  0.508800  0.167800  0.586400  1.0  -0.7162
  O  O83  1  0.641400  0.007300  0.493800  1.0  -0.7737
  O  O84  1  0.403400  0.785100  0.783700  1.0  -0.6843
  O  O85  1  0.467200  0.224700  0.407500  1.0  -0.6338
  O  O86  1  0.713300  0.979600  0.343900  1.0  -0.6543
