# generated using pymatgen
data_TbH12(C4O)6
_symmetry_space_group_name_H-M   'P 1'
_cell_length_a   10.46800000
_cell_length_b   11.35600000
_cell_length_c   13.08900000
_cell_angle_alpha   107.53900000
_cell_angle_beta   90.08600000
_cell_angle_gamma   92.35600000
_symmetry_Int_Tables_number   1
_chemical_formula_structural   TbH12(C4O)6
_chemical_formula_sum   'Tb2 H24 C48 O12'
_cell_volume   1482.20517572
_cell_formula_units_Z   2
loop_
 _symmetry_equiv_pos_site_id
 _symmetry_equiv_pos_as_xyz
  1  'x, y, z'
loop_
 _atom_site_type_symbol
 _atom_site_label
 _atom_site_symmetry_multiplicity
 _atom_site_fract_x
 _atom_site_fract_y
 _atom_site_fract_z
 _atom_site_occupancy
 _atom_site_charge
  Tb  Tb1  1  0.480660  0.453390  0.339460  1.0  2.2518
  Tb  Tb2  1  0.519340  0.546610  0.660540  1.0  2.2497
  H  H3  1  0.410400  0.071600  0.264300  1.0  0.0859
  H  H4  1  0.278400  0.805400  0.559600  1.0  0.0966
  H  H5  1  0.233400  0.299000  0.400000  1.0  0.0981
  H  H6  1  0.314500  0.900400  0.284800  1.0  0.0939
  H  H7  1  0.091800  0.901400  0.582400  1.0  0.1133
  H  H8  1  0.144200  0.147900  0.258100  1.0  0.1114
  H  H9  1  0.306300  0.713200  0.144300  1.0  0.1232
  H  H10  1  0.085500  0.103700  0.577200  1.0  0.112
  H  H11  1  0.931800  0.157500  0.207600  1.0  0.1111
  H  H12  1  0.387500  0.707800  0.980100  1.0  0.1038
  H  H13  1  0.262000  0.204200  0.540800  1.0  0.1058
  H  H14  1  0.808900  0.311900  0.302800  1.0  0.1101
  H  H15  1  0.589600  0.928400  0.735700  1.0  0.0863
  H  H16  1  0.721600  0.194600  0.440400  1.0  0.0967
  H  H17  1  0.766600  0.701000  0.600000  1.0  0.098
  H  H18  1  0.685500  0.099600  0.715200  1.0  0.0942
  H  H19  1  0.908200  0.098600  0.417600  1.0  0.1129
  H  H20  1  0.855800  0.852100  0.741900  1.0  0.1113
  H  H21  1  0.693700  0.286800  0.855700  1.0  0.1234
  H  H22  1  0.914500  0.896300  0.422800  1.0  0.1118
  H  H23  1  0.068200  0.842500  0.792400  1.0  0.1121
  H  H24  1  0.612500  0.292200  0.019900  1.0  0.1034
  H  H25  1  0.738000  0.795800  0.459200  1.0  0.1056
  H  H26  1  0.191100  0.688100  0.697200  1.0  0.1092
  C  C27  1  0.498900  0.233300  0.170400  1.0  0.7157
  C  C28  1  0.508400  0.745600  0.506400  1.0  0.6772
  C  C29  1  0.267100  0.491300  0.560600  1.0  0.6696
  C  C30  1  0.500700  0.115400  0.086800  1.0  -0.0348
  C  C31  1  0.506200  0.880100  0.506700  1.0  -0.1183
  C  C32  1  0.129500  0.496200  0.528100  1.0  -0.0359
  C  C33  1  0.452000  0.005500  0.101700  1.0  -0.1067
  C  C34  1  0.391400  0.939800  0.525600  1.0  0.0286
  C  C35  1  0.076800  0.402800  0.441200  1.0  -0.0129
  C  C36  1  0.403200  0.000700  0.205700  1.0  -0.1026
  C  C37  1  0.276300  0.884500  0.552700  1.0  -0.0733
  C  C38  1  0.148300  0.303100  0.381100  1.0  -0.1874
  C  C39  1  0.349000  0.898000  0.218800  1.0  -0.0987
  C  C40  1  0.165800  0.941900  0.568600  1.0  -0.1784
  C  C41  1  0.095600  0.213000  0.296300  1.0  -0.1488
  C  C42  1  0.342700  0.784600  0.133600  1.0  -0.0921
  C  C43  1  0.162100  0.063400  0.564400  1.0  -0.0993
  C  C44  1  0.967000  0.218400  0.266600  1.0  -0.0685
  C  C45  1  0.391400  0.782200  0.035200  1.0  -0.0965
  C  C46  1  0.267100  0.123100  0.542300  1.0  -0.1775
  C  C47  1  0.894200  0.311100  0.322600  1.0  -0.0995
  C  C48  1  0.447700  0.889900  0.014200  1.0  0.0241
  C  C49  1  0.385800  0.064200  0.521100  1.0  -0.0013
  C  C50  1  0.946400  0.407900  0.412100  1.0  0.0538
  C  C51  1  0.501100  0.766700  0.829600  1.0  0.7149
  C  C52  1  0.491600  0.254400  0.493600  1.0  0.6773
  C  C53  1  0.732900  0.508700  0.439400  1.0  0.6689
  C  C54  1  0.499300  0.884600  0.913200  1.0  -0.0345
  C  C55  1  0.493800  0.119900  0.493300  1.0  -0.1175
  C  C56  1  0.870500  0.503800  0.471900  1.0  -0.0359
  C  C57  1  0.548000  0.994500  0.898300  1.0  -0.1065
  C  C58  1  0.608600  0.060200  0.474400  1.0  0.0291
  C  C59  1  0.923200  0.597200  0.558800  1.0  -0.0134
  C  C60  1  0.596800  0.999300  0.794300  1.0  -0.1018
  C  C61  1  0.723700  0.115500  0.447300  1.0  -0.0736
  C  C62  1  0.851700  0.696900  0.618900  1.0  -0.1866
  C  C63  1  0.651000  0.102000  0.781200  1.0  -0.0995
  C  C64  1  0.834200  0.058100  0.431400  1.0  -0.1777
  C  C65  1  0.904400  0.787000  0.703700  1.0  -0.1488
  C  C66  1  0.657300  0.215400  0.866400  1.0  -0.0901
  C  C67  1  0.837900  0.936600  0.435600  1.0  -0.0978
  C  C68  1  0.033000  0.781600  0.733400  1.0  -0.0673
  C  C69  1  0.608600  0.217800  0.964800  1.0  -0.0979
  C  C70  1  0.732900  0.876900  0.457700  1.0  -0.1767
  C  C71  1  0.105800  0.688900  0.677400  1.0  -0.1001
  C  C72  1  0.552300  0.110100  0.985800  1.0  0.0241
  C  C73  1  0.614200  0.935800  0.478900  1.0  -0.0008
  C  C74  1  0.053600  0.592100  0.587900  1.0  0.0538
  O  O75  1  0.391100  0.281400  0.195200  1.0  -0.607
  O  O76  1  0.493100  0.667000  0.415800  1.0  -0.6855
  O  O77  1  0.357000  0.505200  0.501800  1.0  -0.73
  O  O78  1  0.598200  0.282800  0.217200  1.0  -0.6094
  O  O79  1  0.527400  0.724400  0.592500  1.0  -0.6522
  O  O80  1  0.288500  0.483100  0.652000  1.0  -0.6681
  O  O81  1  0.608900  0.718600  0.804800  1.0  -0.6064
  O  O82  1  0.506900  0.333000  0.584200  1.0  -0.6875
  O  O83  1  0.643000  0.494800  0.498200  1.0  -0.7305
  O  O84  1  0.401800  0.717200  0.782800  1.0  -0.6116
  O  O85  1  0.472600  0.275600  0.407500  1.0  -0.6529
  O  O86  1  0.711500  0.516900  0.348000  1.0  -0.6689
