# generated using pymatgen
data_Na2Sn2Te3H14(C4O3)2
_symmetry_space_group_name_H-M   'P 1'
_cell_length_a   11.70900000
_cell_length_b   11.79600000
_cell_length_c   12.19000000
_cell_angle_alpha   76.13000000
_cell_angle_beta   88.96000000
_cell_angle_gamma   73.80000000
_symmetry_Int_Tables_number   1
_chemical_formula_structural   Na2Sn2Te3H14(C4O3)2
_chemical_formula_sum   'Na4 Sn4 Te6 H28 C16 O12'
_cell_volume   1567.53380263
_cell_formula_units_Z   2
loop_
 _symmetry_equiv_pos_site_id
 _symmetry_equiv_pos_as_xyz
  1  'x, y, z'
loop_
 _atom_site_type_symbol
 _atom_site_label
 _atom_site_symmetry_multiplicity
 _atom_site_fract_x
 _atom_site_fract_y
 _atom_site_fract_z
 _atom_site_occupancy
 _atom_site_charge
  Na  Na1  1  0.597300  0.091900  0.769800  1.0  0.8979
  Na  Na2  1  0.583500  0.079600  0.070300  1.0  0.9104
  Na  Na3  1  0.402700  0.908100  0.230200  1.0  0.8974
  Na  Na4  1  0.416500  0.920400  0.929700  1.0  0.9084
  Sn  Sn5  1  0.105380  0.415850  0.910530  1.0  0.5761
  Sn  Sn6  1  0.913010  0.446070  0.618110  1.0  0.6141
  Sn  Sn7  1  0.894620  0.584150  0.089470  1.0  0.5749
  Sn  Sn8  1  0.086990  0.553930  0.381890  1.0  0.6159
  Te  Te9  1  0.930880  0.643060  0.862850  1.0  -0.2499
  Te  Te10  1  0.023250  0.270970  0.804770  1.0  -0.2181
  Te  Te11  1  0.968570  0.370540  0.424140  1.0  -0.2454
  Te  Te12  1  0.069120  0.356940  0.137150  1.0  -0.2515
  Te  Te13  1  0.976750  0.729030  0.195230  1.0  -0.2188
  Te  Te14  1  0.031430  0.629460  0.575860  1.0  -0.2454
  H  H15  1  0.315900  0.463600  0.896000  1.0  0.129
  H  H16  1  0.251400  0.517500  0.776400  1.0  0.1259
  H  H17  1  0.416900  0.341300  0.781500  1.0  0.1136
  H  H18  1  0.298800  0.327700  0.738000  1.0  0.117
  H  H19  1  0.687900  0.564900  0.572900  1.0  0.1282
  H  H20  1  0.734700  0.615300  0.664400  1.0  0.1114
  H  H21  1  0.598900  0.500300  0.737000  1.0  0.115
  H  H22  1  0.719600  0.453500  0.806500  1.0  0.1313
  H  H23  1  0.577300  0.748700  0.764200  1.0  0.073
  H  H24  1  0.545400  0.874400  0.674700  1.0  0.0753
  H  H25  1  0.678800  0.805000  0.713000  1.0  0.0619
  H  H26  1  0.838100  0.110700  0.894900  1.0  0.0848
  H  H27  1  0.884500  0.007100  0.004900  1.0  0.0592
  H  H28  1  0.889600  0.975400  0.886800  1.0  0.0887
  H  H29  1  0.684100  0.536400  0.104000  1.0  0.1278
  H  H30  1  0.748600  0.482500  0.223600  1.0  0.1256
  H  H31  1  0.583100  0.658700  0.218500  1.0  0.1178
  H  H32  1  0.701200  0.672300  0.262000  1.0  0.121
  H  H33  1  0.312100  0.435100  0.427100  1.0  0.129
  H  H34  1  0.265300  0.384700  0.335600  1.0  0.1119
  H  H35  1  0.401100  0.499700  0.263000  1.0  0.1125
  H  H36  1  0.280400  0.546500  0.193500  1.0  0.1239
  H  H37  1  0.422700  0.251300  0.235800  1.0  0.0823
  H  H38  1  0.454600  0.125600  0.325300  1.0  0.0892
  H  H39  1  0.321200  0.195000  0.287000  1.0  0.0601
  H  H40  1  0.161900  0.889300  0.105100  1.0  0.0818
  H  H41  1  0.115500  0.992900  0.995100  1.0  0.0528
  H  H42  1  0.110400  0.024600  0.113200  1.0  0.0903
  C  C43  1  0.269600  0.448100  0.840100  1.0  -0.3658
  C  C44  1  0.339500  0.333800  0.803000  1.0  -0.2934
  C  C45  1  0.353800  0.218900  0.895900  1.0  0.6812
  C  C46  1  0.735200  0.542300  0.642400  1.0  -0.3667
  C  C47  1  0.682300  0.461300  0.734600  1.0  -0.2703
  C  C48  1  0.697600  0.336400  0.716500  1.0  0.7329
  C  C49  1  0.598700  0.823100  0.737200  1.0  0.0363
  C  C50  1  0.844700  0.027400  0.931700  1.0  0.0072
  C  C51  1  0.730400  0.551900  0.159900  1.0  -0.3628
  C  C52  1  0.660500  0.666200  0.197000  1.0  -0.2897
  C  C53  1  0.646200  0.781100  0.104100  1.0  0.6823
  C  C54  1  0.264800  0.457700  0.357600  1.0  -0.3725
  C  C55  1  0.317700  0.538700  0.265400  1.0  -0.2699
  C  C56  1  0.302400  0.663600  0.283500  1.0  0.7332
  C  C57  1  0.401300  0.176900  0.262800  1.0  0.0356
  C  C58  1  0.155300  0.972600  0.068300  1.0  0.0065
  O  O59  1  0.438500  0.124200  0.893900  1.0  -0.8304
  O  O60  1  0.277000  0.219900  0.971600  1.0  -0.4937
  O  O61  1  0.775900  0.299700  0.648200  1.0  -0.6661
  O  O62  1  0.637200  0.272700  0.770700  1.0  -0.7173
  O  O63  1  0.590600  0.883300  0.824700  1.0  -0.6378
  O  O64  1  0.731500  0.011200  0.944000  1.0  -0.5211
  O  O65  1  0.561500  0.875800  0.106100  1.0  -0.8352
  O  O66  1  0.723000  0.780100  0.028400  1.0  -0.4926
  O  O67  1  0.224100  0.700300  0.351800  1.0  -0.6671
  O  O68  1  0.362800  0.727300  0.229300  1.0  -0.7189
  O  O69  1  0.409400  0.116700  0.175300  1.0  -0.6376
  O  O70  1  0.268500  0.988800  0.056000  1.0  -0.5124
