# generated using pymatgen
data_Zn4H51C69N6O13
_symmetry_space_group_name_H-M   'P 1'
_cell_length_a   30.35220000
_cell_length_b   30.35220000
_cell_length_c   30.35220000
_cell_angle_alpha   60.00000000
_cell_angle_beta   60.00000000
_cell_angle_gamma   60.00000000
_symmetry_Int_Tables_number   1
_chemical_formula_structural   Zn4H51C69N6O13
_chemical_formula_sum   'Zn8 H102 C138 N12 O26'
_cell_volume   19772.22427232
_cell_formula_units_Z   2
loop_
 _symmetry_equiv_pos_site_id
 _symmetry_equiv_pos_as_xyz
  1  'x, y, z'
loop_
 _atom_site_type_symbol
 _atom_site_label
 _atom_site_symmetry_multiplicity
 _atom_site_fract_x
 _atom_site_fract_y
 _atom_site_fract_z
 _atom_site_occupancy
 _atom_site_charge
  Zn  Zn1  1  0.223830  0.328510  0.223830  1.0  1.0532
  Zn  Zn2  1  0.328510  0.223830  0.223830  1.0  1.0533
  Zn  Zn3  1  0.223830  0.223830  0.223830  1.0  1.0558
  Zn  Zn4  1  0.223830  0.223830  0.328510  1.0  1.056
  Zn  Zn5  1  0.671490  0.776170  0.776170  1.0  1.0532
  Zn  Zn6  1  0.776170  0.671490  0.776170  1.0  1.0532
  Zn  Zn7  1  0.776170  0.776170  0.776170  1.0  1.0552
  Zn  Zn8  1  0.776170  0.776170  0.671490  1.0  1.0555
  H  H9  1  0.958630  0.397450  0.180120  1.0  0.0975
  H  H10  1  0.464390  0.957660  0.397460  1.0  0.0943
  H  H11  1  0.966820  0.177040  0.457910  1.0  0.105
  H  H12  1  0.408020  0.438210  0.171080  1.0  0.1077
  H  H13  1  0.181310  0.397580  0.465640  1.0  0.0993
  H  H14  1  0.401590  0.975650  0.173720  1.0  0.1024
  H  H15  1  0.539420  0.798970  0.097000  1.0  0.0982
  H  H16  1  0.585480  0.528020  0.081830  1.0  0.0953
  H  H17  1  0.810570  0.066130  0.527120  1.0  0.0986
  H  H18  1  0.576770  0.801630  0.531680  1.0  0.1084
  H  H19  1  0.830000  0.569290  0.014450  1.0  0.1002
  H  H20  1  0.802900  0.529750  0.086540  1.0  0.1035
  H  H21  1  0.809670  0.594910  0.068540  1.0  0.1043
  H  H22  1  0.527490  0.811490  0.597330  1.0  0.0977
  H  H23  1  0.589700  0.829450  0.564940  1.0  0.1054
  H  H24  1  0.802250  0.088290  0.578810  1.0  0.1032
  H  H25  1  0.829750  0.015120  0.588030  1.0  0.1032
  H  H26  1  0.526810  0.591390  0.074290  1.0  0.1012
  H  H27  1  0.581660  0.574550  0.013400  1.0  0.1026
  H  H28  1  0.035300  0.540390  0.602150  1.0  0.0947
  H  H29  1  0.034400  0.602000  0.541100  1.0  0.0964
  H  H30  1  0.099830  0.551560  0.550700  1.0  0.0892
  H  H31  1  0.552780  0.826820  0.022910  1.0  0.1063
  H  H32  1  0.601760  0.816780  0.049620  1.0  0.1009
  H  H33  1  0.174510  0.451460  0.400470  1.0  0.1049
  H  H34  1  0.201620  0.457010  0.439940  1.0  0.0879
  H  H35  1  0.467150  0.952550  0.182410  1.0  0.0983
  H  H36  1  0.437310  0.902270  0.201300  1.0  0.0982
  H  H37  1  0.900210  0.202080  0.450450  1.0  0.0952
  H  H38  1  0.963440  0.178310  0.397690  1.0  0.0936
  H  H39  1  0.426260  0.466650  0.199190  1.0  0.1081
  H  H40  1  0.471760  0.401180  0.187170  1.0  0.1025
  H  H41  1  0.900770  0.454550  0.201870  1.0  0.0956
  H  H42  1  0.971080  0.454050  0.175440  1.0  0.0978
  H  H43  1  0.399730  0.971860  0.453260  1.0  0.0992
  H  H44  1  0.441930  0.900950  0.455320  1.0  0.0877
  H  H45  1  0.127950  0.301040  0.127950  1.0  0.0947
  H  H46  1  0.069130  0.362350  0.069130  1.0  0.0782
  H  H47  1  0.301040  0.127950  0.443060  1.0  0.0841
  H  H48  1  0.357910  0.071660  0.498770  1.0  0.079
  H  H49  1  0.127950  0.443060  0.127950  1.0  0.0846
  H  H50  1  0.071660  0.498770  0.071660  1.0  0.0801
  H  H51  1  0.443060  0.127950  0.301040  1.0  0.0884
  H  H52  1  0.498770  0.071660  0.357910  1.0  0.0763
  H  H53  1  0.127950  0.127950  0.443060  1.0  0.0921
  H  H54  1  0.069130  0.069130  0.499390  1.0  0.0741
  H  H55  1  0.301040  0.443060  0.127950  1.0  0.0847
  H  H56  1  0.357910  0.498770  0.071660  1.0  0.0779
  H  H57  1  0.127950  0.127950  0.301040  1.0  0.094
  H  H58  1  0.069130  0.069130  0.362350  1.0  0.0731
  H  H59  1  0.443060  0.301040  0.127950  1.0  0.0843
  H  H60  1  0.498770  0.357910  0.071660  1.0  0.0816
  H  H61  1  0.127950  0.443060  0.301040  1.0  0.0841
  H  H62  1  0.071660  0.498770  0.357910  1.0  0.0771
  H  H63  1  0.301040  0.127950  0.127950  1.0  0.0838
  H  H64  1  0.357910  0.071660  0.071660  1.0  0.08
  H  H65  1  0.127950  0.301040  0.443060  1.0  0.097
  H  H66  1  0.069130  0.362350  0.499390  1.0  0.0766
  H  H67  1  0.443060  0.127950  0.127950  1.0  0.0845
  H  H68  1  0.498770  0.071660  0.071660  1.0  0.0788
  H  H69  1  0.698960  0.872050  0.872050  1.0  0.087
  H  H70  1  0.642090  0.928340  0.928340  1.0  0.0792
  H  H71  1  0.872050  0.698960  0.556940  1.0  0.0844
  H  H72  1  0.928340  0.642090  0.501230  1.0  0.0792
  H  H73  1  0.556940  0.872050  0.872050  1.0  0.0934
  H  H74  1  0.500610  0.930870  0.930870  1.0  0.078
  H  H75  1  0.872050  0.556940  0.698960  1.0  0.0831
  H  H76  1  0.928340  0.501230  0.642090  1.0  0.0782
  H  H77  1  0.872050  0.872050  0.556940  1.0  0.0954
  H  H78  1  0.930870  0.930870  0.500610  1.0  0.0774
  H  H79  1  0.556940  0.698960  0.872050  1.0  0.0898
  H  H80  1  0.501230  0.642090  0.928340  1.0  0.0819
  H  H81  1  0.872050  0.872050  0.698960  1.0  0.0821
  H  H82  1  0.928340  0.928340  0.642090  1.0  0.0761
  H  H83  1  0.698960  0.556940  0.872050  1.0  0.0877
  H  H84  1  0.642090  0.501230  0.928340  1.0  0.0762
  H  H85  1  0.556940  0.872050  0.698960  1.0  0.0836
  H  H86  1  0.501230  0.928340  0.642090  1.0  0.0819
  H  H87  1  0.872050  0.698960  0.872050  1.0  0.0858
  H  H88  1  0.928340  0.642090  0.928340  1.0  0.0819
  H  H89  1  0.698960  0.872050  0.556940  1.0  0.0889
  H  H90  1  0.642090  0.928340  0.501230  1.0  0.0763
  H  H91  1  0.872050  0.556940  0.872050  1.0  0.0941
  H  H92  1  0.930870  0.500610  0.930870  1.0  0.0755
  H  H93  1  0.850070  0.496660  0.156600  1.0  0.1847
  H  H94  1  0.496660  0.850070  0.496660  1.0  0.1805
  H  H95  1  0.850070  0.156600  0.496660  1.0  0.1858
  H  H96  1  0.496660  0.496660  0.156600  1.0  0.1812
  H  H97  1  0.156600  0.496660  0.496660  1.0  0.1728
  H  H98  1  0.496660  0.850070  0.156600  1.0  0.1789
  H  H99  1  0.101160  0.470350  0.958140  1.0  0.088
  H  H100  1  0.470350  0.101160  0.470350  1.0  0.0935
  H  H101  1  0.101160  0.958140  0.470350  1.0  0.0912
  H  H102  1  0.470350  0.470350  0.958140  1.0  0.0876
  H  H103  1  0.958140  0.470350  0.470350  1.0  0.0886
  H  H104  1  0.470350  0.101160  0.958140  1.0  0.0951
  H  H105  1  0.898790  0.529880  0.529880  1.0  0.0923
  H  H106  1  0.529650  0.041860  0.898840  1.0  0.092
  H  H107  1  0.041450  0.898790  0.529880  1.0  0.0931
  H  H108  1  0.529880  0.529880  0.898790  1.0  0.0958
  H  H109  1  0.041450  0.529880  0.898790  1.0  0.0908
  H  H110  1  0.529650  0.041860  0.529650  1.0  0.0901
  C  C111  1  0.166300  0.333700  0.166300  1.0  0.6362
  C  C112  1  0.133600  0.366400  0.133600  1.0  0.0376
  C  C113  1  0.064900  0.435100  0.064900  1.0  0.1533
  C  C114  1  0.032800  0.467200  0.032800  1.0  0.0835
  C  C115  1  0.333700  0.166300  0.333700  1.0  0.6384
  C  C116  1  0.366400  0.133600  0.366400  1.0  0.0297
  C  C117  1  0.435100  0.064900  0.435100  1.0  0.19
  C  C118  1  0.467200  0.032800  0.467200  1.0  0.0996
  C  C119  1  0.166300  0.166300  0.333700  1.0  0.6373
  C  C120  1  0.133600  0.133600  0.366400  1.0  0.0422
  C  C121  1  0.064900  0.064900  0.435100  1.0  0.1869
  C  C122  1  0.032800  0.032800  0.467200  1.0  0.0909
  C  C123  1  0.333700  0.333700  0.166300  1.0  0.6365
  C  C124  1  0.366400  0.366400  0.133600  1.0  0.0417
  C  C125  1  0.435100  0.435100  0.064900  1.0  0.1906
  C  C126  1  0.467200  0.467200  0.032800  1.0  0.0971
  C  C127  1  0.166300  0.333700  0.333700  1.0  0.6348
  C  C128  1  0.133600  0.366400  0.366400  1.0  0.0366
  C  C129  1  0.064900  0.435100  0.435100  1.0  0.1598
  C  C130  1  0.032800  0.467200  0.467200  1.0  0.0829
  C  C131  1  0.333700  0.166300  0.166300  1.0  0.6344
  C  C132  1  0.366400  0.133600  0.133600  1.0  0.0372
  C  C133  1  0.435100  0.064900  0.064900  1.0  0.1969
  C  C134  1  0.467200  0.032800  0.032800  1.0  0.0998
  C  C135  1  0.666300  0.833700  0.833700  1.0  0.6375
  C  C136  1  0.633600  0.866400  0.866400  1.0  0.0312
  C  C137  1  0.564900  0.935100  0.935100  1.0  0.169
  C  C138  1  0.532800  0.967200  0.967200  1.0  0.0845
  C  C139  1  0.833700  0.666300  0.666300  1.0  0.6395
  C  C140  1  0.866400  0.633600  0.633600  1.0  0.0338
  C  C141  1  0.935100  0.564900  0.564900  1.0  0.1944
  C  C142  1  0.967200  0.532800  0.532800  1.0  0.0972
  C  C143  1  0.833700  0.833700  0.666300  1.0  0.6428
  C  C144  1  0.866400  0.866400  0.633600  1.0  0.04
  C  C145  1  0.935100  0.935100  0.564900  1.0  0.1461
  C  C146  1  0.967200  0.967200  0.532800  1.0  0.0834
  C  C147  1  0.666300  0.666300  0.833700  1.0  0.6378
  C  C148  1  0.633600  0.633600  0.866400  1.0  0.0355
  C  C149  1  0.564900  0.564900  0.935100  1.0  0.188
  C  C150  1  0.532800  0.532800  0.967200  1.0  0.0957
  C  C151  1  0.666300  0.833700  0.666300  1.0  0.6381
  C  C152  1  0.633600  0.866400  0.633600  1.0  0.0291
  C  C153  1  0.564900  0.935100  0.564900  1.0  0.1916
  C  C154  1  0.532800  0.967200  0.532800  1.0  0.0986
  C  C155  1  0.833700  0.666300  0.833700  1.0  0.6336
  C  C156  1  0.866400  0.633600  0.866400  1.0  0.035
  C  C157  1  0.935100  0.564900  0.935100  1.0  0.1448
  C  C158  1  0.967200  0.532800  0.967200  1.0  0.0828
  C  C159  1  0.116100  0.346500  0.116100  1.0  -0.1467
  C  C160  1  0.082900  0.380700  0.082900  1.0  -0.0752
  C  C161  1  0.346500  0.116100  0.421300  1.0  -0.1494
  C  C162  1  0.380700  0.082900  0.453500  1.0  -0.1014
  C  C163  1  0.116100  0.421300  0.116100  1.0  -0.1464
  C  C164  1  0.082900  0.453500  0.082900  1.0  -0.1038
  C  C165  1  0.421300  0.116100  0.346500  1.0  -0.147
  C  C166  1  0.453500  0.082900  0.380700  1.0  -0.0942
  C  C167  1  0.116100  0.116100  0.421300  1.0  -0.1444
  C  C168  1  0.082900  0.082900  0.453500  1.0  -0.0818
  C  C169  1  0.346500  0.421300  0.116100  1.0  -0.1489
  C  C170  1  0.380700  0.453500  0.082900  1.0  -0.1016
  C  C171  1  0.116100  0.116100  0.346500  1.0  -0.1431
  C  C172  1  0.082900  0.082900  0.380700  1.0  -0.0724
  C  C173  1  0.421300  0.346500  0.116100  1.0  -0.1294
  C  C174  1  0.453500  0.380700  0.082900  1.0  -0.1024
  C  C175  1  0.116100  0.421300  0.346500  1.0  -0.1566
  C  C176  1  0.082900  0.453500  0.380700  1.0  -0.1007
  C  C177  1  0.346500  0.116100  0.116100  1.0  -0.15
  C  C178  1  0.380700  0.082900  0.082900  1.0  -0.1021
  C  C179  1  0.116100  0.346500  0.421300  1.0  -0.145
  C  C180  1  0.082900  0.380700  0.453500  1.0  -0.0842
  C  C181  1  0.421300  0.116100  0.116100  1.0  -0.1423
  C  C182  1  0.453500  0.082900  0.082900  1.0  -0.1025
  C  C183  1  0.653500  0.883900  0.883900  1.0  -0.1463
  C  C184  1  0.619300  0.917100  0.917100  1.0  -0.1074
  C  C185  1  0.883900  0.653500  0.578700  1.0  -0.1479
  C  C186  1  0.917100  0.619300  0.546500  1.0  -0.0875
  C  C187  1  0.578700  0.883900  0.883900  1.0  -0.145
  C  C188  1  0.546500  0.917100  0.917100  1.0  -0.0901
  C  C189  1  0.883900  0.578700  0.653500  1.0  -0.1433
  C  C190  1  0.917100  0.546500  0.619300  1.0  -0.0898
  C  C191  1  0.883900  0.883900  0.578700  1.0  -0.1272
  C  C192  1  0.917100  0.917100  0.546500  1.0  -0.0672
  C  C193  1  0.578700  0.653500  0.883900  1.0  -0.1378
  C  C194  1  0.546500  0.619300  0.917100  1.0  -0.0961
  C  C195  1  0.883900  0.883900  0.653500  1.0  -0.1419
  C  C196  1  0.917100  0.917100  0.619300  1.0  -0.0952
  C  C197  1  0.653500  0.578700  0.883900  1.0  -0.1285
  C  C198  1  0.619300  0.546500  0.917100  1.0  -0.0967
  C  C199  1  0.578700  0.883900  0.653500  1.0  -0.1227
  C  C200  1  0.546500  0.917100  0.619300  1.0  -0.1034
  C  C201  1  0.883900  0.653500  0.883900  1.0  -0.1317
  C  C202  1  0.917100  0.619300  0.917100  1.0  -0.0915
  C  C203  1  0.653500  0.883900  0.578700  1.0  -0.1566
  C  C204  1  0.619300  0.917100  0.546500  1.0  -0.1147
  C  C205  1  0.883900  0.578700  0.883900  1.0  -0.1388
  C  C206  1  0.917100  0.546500  0.917100  1.0  -0.0755
  C  C207  1  0.055400  0.483400  0.977800  1.0  -0.1592
  C  C208  1  0.483400  0.055400  0.483400  1.0  -0.1342
  C  C209  1  0.977800  0.483400  0.055400  1.0  0.0492
  C  C210  1  0.942800  0.442800  0.171600  1.0  -0.1858
  C  C211  1  0.483400  0.977800  0.483400  1.0  0.0525
  C  C212  1  0.442800  0.942800  0.442800  1.0  -0.1856
  C  C213  1  0.055400  0.977800  0.483400  1.0  -0.1528
  C  C214  1  0.483400  0.483400  0.977800  1.0  -0.1351
  C  C215  1  0.977800  0.055400  0.483400  1.0  0.0318
  C  C216  1  0.942800  0.171600  0.442800  1.0  -0.1779
  C  C217  1  0.483400  0.483400  0.055400  1.0  0.0487
  C  C218  1  0.442800  0.442800  0.171600  1.0  -0.1513
  C  C219  1  0.055400  0.483400  0.483400  1.0  0.0502
  C  C220  1  0.171600  0.442800  0.442800  1.0  -0.182
  C  C221  1  0.483400  0.977800  0.055400  1.0  0.0584
  C  C222  1  0.442800  0.942800  0.171600  1.0  -0.1937
  C  C223  1  0.977800  0.483400  0.483400  1.0  -0.1591
  C  C224  1  0.483400  0.055400  0.977800  1.0  -0.1483
  C  C225  1  0.516600  0.944600  0.022200  1.0  0.049
  C  C226  1  0.557200  0.828400  0.057200  1.0  -0.2173
  C  C227  1  0.944600  0.516600  0.516600  1.0  -0.1431
  C  C228  1  0.516600  0.022200  0.944600  1.0  -0.1608
  C  C229  1  0.022200  0.516600  0.516600  1.0  0.0588
  C  C230  1  0.057200  0.557200  0.557200  1.0  -0.2217
  C  C231  1  0.022200  0.944600  0.516600  1.0  -0.1561
  C  C232  1  0.516600  0.516600  0.022200  1.0  0.059
  C  C233  1  0.557200  0.557200  0.057200  1.0  -0.1966
  C  C234  1  0.944600  0.022200  0.516600  1.0  0.0605
  C  C235  1  0.828400  0.057200  0.557200  1.0  -0.2093
  C  C236  1  0.516600  0.516600  0.944600  1.0  -0.1266
  C  C237  1  0.516600  0.944600  0.516600  1.0  0.051
  C  C238  1  0.557200  0.828400  0.557200  1.0  -0.2081
  C  C239  1  0.022200  0.516600  0.944600  1.0  -0.1454
  C  C240  1  0.516600  0.022200  0.516600  1.0  -0.1386
  C  C241  1  0.944600  0.516600  0.022200  1.0  0.047
  C  C242  1  0.828400  0.557200  0.057200  1.0  -0.2019
  C  C243  1  0.884000  0.500000  0.116000  1.0  0.0962
  C  C244  1  0.500000  0.884000  0.500000  1.0  0.1018
  C  C245  1  0.884000  0.116000  0.500000  1.0  0.1148
  C  C246  1  0.500000  0.500000  0.116000  1.0  0.104
  C  C247  1  0.116000  0.500000  0.500000  1.0  0.1242
  C  C248  1  0.500000  0.884000  0.116000  1.0  0.1234
  N  N249  1  0.940000  0.473000  0.114000  1.0  -0.2716
  N  N250  1  0.473000  0.940000  0.473000  1.0  -0.2698
  N  N251  1  0.940000  0.114000  0.473000  1.0  -0.2696
  N  N252  1  0.473000  0.473000  0.114000  1.0  -0.2728
  N  N253  1  0.114000  0.473000  0.473000  1.0  -0.2716
  N  N254  1  0.473000  0.940000  0.114000  1.0  -0.2712
  N  N255  1  0.527000  0.886000  0.060000  1.0  -0.2847
  N  N256  1  0.060000  0.527000  0.527000  1.0  -0.2748
  N  N257  1  0.527000  0.527000  0.060000  1.0  -0.255
  N  N258  1  0.886000  0.060000  0.527000  1.0  -0.2537
  N  N259  1  0.527000  0.886000  0.527000  1.0  -0.2591
  N  N260  1  0.886000  0.527000  0.060000  1.0  -0.2547
  O  O261  1  0.180800  0.357400  0.180800  1.0  -0.6303
  O  O262  1  0.357400  0.180800  0.281000  1.0  -0.634
  O  O263  1  0.180800  0.281000  0.180800  1.0  -0.6332
  O  O264  1  0.281000  0.180800  0.357400  1.0  -0.631
  O  O265  1  0.180800  0.180800  0.281000  1.0  -0.6313
  O  O266  1  0.357400  0.281000  0.180800  1.0  -0.6322
  O  O267  1  0.180800  0.180800  0.357400  1.0  -0.6318
  O  O268  1  0.281000  0.357400  0.180800  1.0  -0.632
  O  O269  1  0.180800  0.281000  0.357400  1.0  -0.6326
  O  O270  1  0.357400  0.180800  0.180800  1.0  -0.6332
  O  O271  1  0.180800  0.357400  0.281000  1.0  -0.6329
  O  O272  1  0.281000  0.180800  0.180800  1.0  -0.6305
  O  O273  1  0.642600  0.819200  0.819200  1.0  -0.6303
  O  O274  1  0.819200  0.642600  0.719000  1.0  -0.63
  O  O275  1  0.719000  0.819200  0.819200  1.0  -0.6332
  O  O276  1  0.819200  0.719000  0.642600  1.0  -0.6316
  O  O277  1  0.819200  0.819200  0.719000  1.0  -0.6311
  O  O278  1  0.719000  0.642600  0.819200  1.0  -0.6298
  O  O279  1  0.819200  0.819200  0.642600  1.0  -0.6394
  O  O280  1  0.642600  0.719000  0.819200  1.0  -0.6353
  O  O281  1  0.719000  0.819200  0.642600  1.0  -0.6353
  O  O282  1  0.819200  0.642600  0.819200  1.0  -0.6307
  O  O283  1  0.642600  0.819200  0.719000  1.0  -0.6326
  O  O284  1  0.819200  0.719000  0.819200  1.0  -0.6348
  O  O285  1  0.250000  0.250000  0.250000  1.0  -1.3105
  O  O286  1  0.750000  0.750000  0.750000  1.0  -1.3094
