# generated using pymatgen
data_Cd5H36C54N18(ClO3)4
_symmetry_space_group_name_H-M   'P 1'
_cell_length_a   12.94600000
_cell_length_b   17.32100000
_cell_length_c   22.15300000
_cell_angle_alpha   70.13000000
_cell_angle_beta   76.08000000
_cell_angle_gamma   73.31000000
_symmetry_Int_Tables_number   1
_chemical_formula_structural   Cd5H36C54N18(ClO3)4
_chemical_formula_sum   'Cd10 H72 C108 N36 Cl8 O24'
_cell_volume   4418.28655204
_cell_formula_units_Z   2
loop_
 _symmetry_equiv_pos_site_id
 _symmetry_equiv_pos_as_xyz
  1  'x, y, z'
loop_
 _atom_site_type_symbol
 _atom_site_label
 _atom_site_symmetry_multiplicity
 _atom_site_fract_x
 _atom_site_fract_y
 _atom_site_fract_z
 _atom_site_occupancy
 _atom_site_charge
  Cd  Cd1  1  0.165150  0.548650  0.013100  1.0  1.0193
  Cd  Cd2  1  0.178090  0.734050  0.090750  1.0  0.9396
  Cd  Cd3  1  0.174650  0.776850  0.248080  1.0  0.9347
  Cd  Cd4  1  0.176310  0.811870  0.408310  1.0  0.8206
  Cd  Cd5  1  0.167460  0.005260  0.483190  1.0  1.0715
  Cd  Cd6  1  0.834850  0.451350  0.986900  1.0  1.0176
  Cd  Cd7  1  0.821910  0.265950  0.909250  1.0  0.9397
  Cd  Cd8  1  0.825350  0.223150  0.751920  1.0  0.9349
  Cd  Cd9  1  0.823690  0.188130  0.591690  1.0  0.8209
  Cd  Cd10  1  0.832540  0.994740  0.516810  1.0  1.0731
  H  H11  1  0.130300  0.549600  0.609100  1.0  0.0841
  H  H12  1  0.192600  0.769700  0.565700  1.0  0.0909
  H  H13  1  0.096000  0.757300  0.684200  1.0  0.1014
  H  H14  1  0.096100  0.734400  0.793000  1.0  0.1059
  H  H15  1  0.243900  0.491600  0.808000  1.0  0.089
  H  H16  1  0.239600  0.516300  0.699000  1.0  0.1223
  H  H17  1  0.893000  0.583000  0.059200  1.0  0.1092
  H  H18  1  0.891200  0.765900  0.126800  1.0  0.0941
  H  H19  1  0.707800  0.695000  0.201400  1.0  0.127
  H  H20  1  0.518500  0.728900  0.214600  1.0  0.105
  H  H21  1  0.533700  0.724600  0.035200  1.0  0.1002
  H  H22  1  0.721000  0.706300  0.017300  1.0  0.1169
  H  H23  1  0.195400  0.516700  0.173800  1.0  0.0938
  H  H24  1  0.156200  0.569100  0.338700  1.0  0.1002
  H  H25  1  0.220300  0.422600  0.384400  1.0  0.1245
  H  H26  1  0.219900  0.281400  0.439100  1.0  0.1021
  H  H27  1  0.103200  0.264200  0.294400  1.0  0.099
  H  H28  1  0.102200  0.404700  0.240600  1.0  0.1139
  H  H29  1  0.177900  0.032600  0.322800  1.0  0.0994
  H  H30  1  0.180000  0.986800  0.160100  1.0  0.1036
  H  H31  1  0.068400  0.139400  0.137800  1.0  0.1141
  H  H32  1  0.062500  0.280100  0.080400  1.0  0.0936
  H  H33  1  0.277400  0.283800  0.181500  1.0  0.1059
  H  H34  1  0.286500  0.142700  0.236900  1.0  0.1325
  H  H35  1  0.882900  0.801000  0.282500  1.0  0.1001
  H  H36  1  0.889900  0.826500  0.450500  1.0  0.1005
  H  H37  1  0.706800  0.917800  0.432500  1.0  0.1101
  H  H38  1  0.518100  0.945100  0.454700  1.0  0.1094
  H  H39  1  0.520900  0.780700  0.362900  1.0  0.1066
  H  H40  1  0.711300  0.750800  0.342700  1.0  0.1312
  H  H41  1  0.128700  0.007800  0.897200  1.0  0.0808
  H  H42  1  0.178700  0.764500  0.933300  1.0  0.0962
  H  H43  1  0.053400  0.006300  0.799500  1.0  0.116
  H  H44  1  0.078800  0.021000  0.688800  1.0  0.0872
  H  H45  1  0.304100  0.803700  0.713700  1.0  0.1126
  H  H46  1  0.288500  0.792600  0.822400  1.0  0.1248
  H  H47  1  0.869700  0.450400  0.390900  1.0  0.0831
  H  H48  1  0.807400  0.230300  0.434300  1.0  0.0905
  H  H49  1  0.904000  0.242700  0.315800  1.0  0.1012
  H  H50  1  0.903900  0.265600  0.207000  1.0  0.1055
  H  H51  1  0.756100  0.508400  0.192000  1.0  0.0899
  H  H52  1  0.760400  0.483700  0.301000  1.0  0.1228
  H  H53  1  0.107000  0.417000  0.940800  1.0  0.1099
  H  H54  1  0.108800  0.234100  0.873200  1.0  0.0944
  H  H55  1  0.292200  0.305000  0.798600  1.0  0.126
  H  H56  1  0.481500  0.271100  0.785400  1.0  0.1052
  H  H57  1  0.466300  0.275400  0.964800  1.0  0.1003
  H  H58  1  0.279000  0.293700  0.982700  1.0  0.1172
  H  H59  1  0.804600  0.483300  0.826200  1.0  0.0939
  H  H60  1  0.843800  0.430900  0.661300  1.0  0.1005
  H  H61  1  0.779700  0.577400  0.615600  1.0  0.1247
  H  H62  1  0.780100  0.718600  0.560900  1.0  0.1026
  H  H63  1  0.896800  0.735800  0.705600  1.0  0.0992
  H  H64  1  0.897800  0.595300  0.759400  1.0  0.1143
  H  H65  1  0.822100  0.967400  0.677200  1.0  0.0984
  H  H66  1  0.820000  0.013200  0.839900  1.0  0.1035
  H  H67  1  0.931600  0.860600  0.862200  1.0  0.1139
  H  H68  1  0.937500  0.719900  0.919600  1.0  0.094
  H  H69  1  0.722600  0.716200  0.818500  1.0  0.1056
  H  H70  1  0.713500  0.857300  0.763100  1.0  0.1333
  H  H71  1  0.117100  0.199000  0.717500  1.0  0.0999
  H  H72  1  0.110100  0.173500  0.549500  1.0  0.0999
  H  H73  1  0.293200  0.082200  0.567500  1.0  0.1093
  H  H74  1  0.481900  0.054900  0.545300  1.0  0.1095
  H  H75  1  0.479100  0.219300  0.637100  1.0  0.1073
  H  H76  1  0.288700  0.249200  0.657300  1.0  0.1314
  H  H77  1  0.871300  0.992200  0.102800  1.0  0.0812
  H  H78  1  0.821300  0.235500  0.066700  1.0  0.0959
  H  H79  1  0.946600  0.993700  0.200500  1.0  0.1158
  H  H80  1  0.921200  0.979000  0.311200  1.0  0.0871
  H  H81  1  0.695900  0.196300  0.286300  1.0  0.1143
  H  H82  1  0.711500  0.207400  0.177600  1.0  0.1252
  C  C83  1  0.142000  0.603200  0.586300  1.0  0.2081
  C  C84  1  0.176100  0.722200  0.563100  1.0  0.1425
  C  C85  1  0.167300  0.638800  0.682100  1.0  0.1535
  C  C86  1  0.125200  0.703800  0.709700  1.0  -0.1501
  C  C87  1  0.125800  0.690500  0.774400  1.0  -0.0124
  C  C88  1  0.171400  0.610300  0.811800  1.0  -0.1298
  C  C89  1  0.213800  0.545200  0.783200  1.0  -0.0183
  C  C90  1  0.211400  0.559800  0.718100  1.0  -0.1701
  C  C91  1  0.172600  0.594300  0.883000  1.0  0.6892
  C  C92  1  0.915200  0.621600  0.071200  1.0  0.1443
  C  C93  1  0.914500  0.721800  0.108200  1.0  0.1791
  C  C94  1  0.729900  0.700800  0.107800  1.0  0.1833
  C  C95  1  0.672200  0.705100  0.166800  1.0  -0.1971
  C  C96  1  0.559200  0.724700  0.174700  1.0  -0.025
  C  C97  1  0.506500  0.737900  0.123600  1.0  -0.0997
  C  C98  1  0.568300  0.724200  0.067600  1.0  -0.0265
  C  C99  1  0.680300  0.709800  0.057400  1.0  -0.2321
  C  C100  1  0.382300  0.757600  0.133600  1.0  0.7595
  C  C101  1  0.187200  0.545200  0.204000  1.0  0.1134
  C  C102  1  0.165600  0.573900  0.294700  1.0  0.1182
  C  C103  1  0.166800  0.424700  0.306000  1.0  0.1127
  C  C104  1  0.198400  0.390400  0.365800  1.0  -0.1758
  C  C105  1  0.197100  0.305900  0.398700  1.0  -0.0139
  C  C106  1  0.162800  0.259200  0.372300  1.0  -0.1361
  C  C107  1  0.127400  0.295800  0.312600  1.0  -0.0336
  C  C108  1  0.128000  0.379300  0.280100  1.0  -0.18
  C  C109  1  0.164300  0.167700  0.407200  1.0  0.6901
  C  C110  1  0.178700  0.005300  0.293000  1.0  0.1512
  C  C111  1  0.180100  0.980200  0.203500  1.0  0.1165
  C  C112  1  0.175900  0.129700  0.193000  1.0  0.1402
  C  C113  1  0.110300  0.168800  0.146500  1.0  -0.1819
  C  C114  1  0.106700  0.253100  0.112400  1.0  -0.0099
  C  C115  1  0.168000  0.297100  0.125400  1.0  -0.1577
  C  C116  1  0.235200  0.255000  0.172400  1.0  -0.064
  C  C117  1  0.240300  0.170800  0.206000  1.0  -0.174
  C  C118  1  0.159800  0.390500  0.090400  1.0  0.6611
  C  C119  1  0.907400  0.803300  0.317800  1.0  0.1447
  C  C120  1  0.911800  0.817500  0.409800  1.0  0.1237
  C  C121  1  0.725000  0.832500  0.386500  1.0  0.1127
  C  C122  1  0.669100  0.889800  0.419200  1.0  -0.1762
  C  C123  1  0.556500  0.906200  0.432400  1.0  -0.0388
  C  C124  1  0.500700  0.864000  0.412000  1.0  -0.1274
  C  C125  1  0.558400  0.807400  0.377700  1.0  -0.0369
  C  C126  1  0.672100  0.789800  0.364900  1.0  -0.1847
  C  C127  1  0.377300  0.883600  0.424400  1.0  0.7055
  C  C128  1  0.140200  0.950400  0.918600  1.0  0.1634
  C  C129  1  0.167600  0.817800  0.937800  1.0  0.1186
  C  C130  1  0.169700  0.898500  0.820700  1.0  0.1767
  C  C131  1  0.105000  0.966600  0.781800  1.0  -0.1789
  C  C132  1  0.119100  0.974400  0.716000  1.0  -0.0106
  C  C133  1  0.192000  0.913600  0.690800  1.0  -0.1356
  C  C134  1  0.255100  0.844900  0.730900  1.0  -0.034
  C  C135  1  0.245200  0.837600  0.795800  1.0  -0.1922
  C  C136  1  0.205800  0.919900  0.619500  1.0  0.6955
  C  C137  1  0.858000  0.396800  0.413700  1.0  0.2064
  C  C138  1  0.823900  0.277800  0.436900  1.0  0.1433
  C  C139  1  0.832700  0.361200  0.317900  1.0  0.1526
  C  C140  1  0.874800  0.296200  0.290300  1.0  -0.1513
  C  C141  1  0.874200  0.309500  0.225600  1.0  -0.0112
  C  C142  1  0.828600  0.389700  0.188200  1.0  -0.1277
  C  C143  1  0.786200  0.454800  0.216800  1.0  -0.0193
  C  C144  1  0.788600  0.440200  0.281900  1.0  -0.1693
  C  C145  1  0.827400  0.405700  0.117000  1.0  0.6887
  C  C146  1  0.084800  0.378400  0.928800  1.0  0.1443
  C  C147  1  0.085500  0.278200  0.891800  1.0  0.1789
  C  C148  1  0.270100  0.299200  0.892200  1.0  0.1839
  C  C149  1  0.327800  0.294900  0.833200  1.0  -0.1963
  C  C150  1  0.440800  0.275300  0.825300  1.0  -0.0239
  C  C151  1  0.493500  0.262100  0.876400  1.0  -0.1005
  C  C152  1  0.431700  0.275800  0.932400  1.0  -0.0257
  C  C153  1  0.319700  0.290200  0.942600  1.0  -0.2308
  C  C154  1  0.617700  0.242400  0.866400  1.0  0.7574
  C  C155  1  0.812800  0.454800  0.796000  1.0  0.1131
  C  C156  1  0.834400  0.426100  0.705300  1.0  0.1194
  C  C157  1  0.833200  0.575300  0.694000  1.0  0.1139
  C  C158  1  0.801600  0.609600  0.634200  1.0  -0.1758
  C  C159  1  0.802900  0.694100  0.601300  1.0  -0.0121
  C  C160  1  0.837200  0.740800  0.627700  1.0  -0.1367
  C  C161  1  0.872600  0.704200  0.687400  1.0  -0.0333
  C  C162  1  0.872000  0.620700  0.719900  1.0  -0.1793
  C  C163  1  0.835700  0.832300  0.592800  1.0  0.6895
  C  C164  1  0.821300  0.994700  0.707000  1.0  0.1514
  C  C165  1  0.819900  0.019800  0.796500  1.0  0.1181
  C  C166  1  0.824100  0.870300  0.807000  1.0  0.1387
  C  C167  1  0.889700  0.831200  0.853500  1.0  -0.1807
  C  C168  1  0.893300  0.746900  0.887600  1.0  -0.0103
  C  C169  1  0.832000  0.702900  0.874600  1.0  -0.1604
  C  C170  1  0.764800  0.745000  0.827600  1.0  -0.065
  C  C171  1  0.759700  0.829200  0.794000  1.0  -0.176
  C  C172  1  0.840200  0.609500  0.909600  1.0  0.6626
  C  C173  1  0.092600  0.196700  0.682200  1.0  0.1448
  C  C174  1  0.088200  0.182500  0.590200  1.0  0.1242
  C  C175  1  0.275000  0.167500  0.613500  1.0  0.1123
  C  C176  1  0.330900  0.110200  0.580800  1.0  -0.1767
  C  C177  1  0.443500  0.093800  0.567600  1.0  -0.0376
  C  C178  1  0.499300  0.136000  0.588000  1.0  -0.128
  C  C179  1  0.441600  0.192600  0.622300  1.0  -0.0365
  C  C180  1  0.327900  0.210200  0.635100  1.0  -0.1867
  C  C181  1  0.622700  0.116400  0.575600  1.0  0.7041
  C  C182  1  0.859800  0.049600  0.081400  1.0  0.1632
  C  C183  1  0.832400  0.182200  0.062200  1.0  0.1194
  C  C184  1  0.830300  0.101500  0.179300  1.0  0.1769
  C  C185  1  0.895000  0.033400  0.218200  1.0  -0.1795
  C  C186  1  0.880900  0.025600  0.284000  1.0  -0.0113
  C  C187  1  0.808000  0.086400  0.309200  1.0  -0.1357
  C  C188  1  0.744900  0.155100  0.269100  1.0  -0.0349
  C  C189  1  0.754800  0.162400  0.204200  1.0  -0.1938
  C  C190  1  0.794200  0.080100  0.380500  1.0  0.6917
  N  N191  1  0.139900  0.636000  0.525200  1.0  -0.2857
  N  N192  1  0.163100  0.713000  0.511000  1.0  -0.1669
  N  N193  1  0.162800  0.653600  0.614300  1.0  -0.0301
  N  N194  1  0.016800  0.626300  0.065000  1.0  -0.1971
  N  N195  1  0.015900  0.689800  0.088800  1.0  -0.2043
  N  N196  1  0.847400  0.681900  0.097800  1.0  0.0319
  N  N197  1  0.187400  0.624200  0.190300  1.0  -0.1898
  N  N198  1  0.173700  0.642800  0.247400  1.0  -0.2317
  N  N199  1  0.173000  0.510400  0.270200  1.0  0.0145
  N  N200  1  0.180900  0.909400  0.250500  1.0  -0.2031
  N  N201  1  0.179100  0.925300  0.307300  1.0  -0.2054
  N  N202  1  0.179500  0.042400  0.228000  1.0  0.0313
  N  N203  1  0.011200  0.802800  0.381500  1.0  -0.1931
  N  N204  1  0.011700  0.792300  0.322200  1.0  -0.2703
  N  N205  1  0.842700  0.818100  0.371900  1.0  0.05
  N  N206  1  0.140900  0.919300  0.979500  1.0  -0.2388
  N  N207  1  0.159100  0.832500  0.991900  1.0  -0.2143
  N  N208  1  0.158300  0.890200  0.888200  1.0  -0.0027
  N  N209  1  0.860100  0.364000  0.474800  1.0  -0.2897
  N  N210  1  0.836900  0.287000  0.489000  1.0  -0.1701
  N  N211  1  0.837200  0.346400  0.385700  1.0  -0.0293
  N  N212  1  0.983200  0.373700  0.935000  1.0  -0.1966
  N  N213  1  0.984100  0.310200  0.911200  1.0  -0.2016
  N  N214  1  0.152600  0.318100  0.902200  1.0  0.0322
  N  N215  1  0.812600  0.375800  0.809700  1.0  -0.191
  N  N216  1  0.826300  0.357200  0.752600  1.0  -0.2307
  N  N217  1  0.827000  0.489600  0.729800  1.0  0.0148
  N  N218  1  0.819100  0.090600  0.749500  1.0  -0.203
  N  N219  1  0.820900  0.074700  0.692700  1.0  -0.2046
  N  N220  1  0.820500  0.957600  0.772000  1.0  0.0319
  N  N221  1  0.988800  0.197200  0.618500  1.0  -0.1892
  N  N222  1  0.988300  0.207700  0.677800  1.0  -0.2704
  N  N223  1  0.157300  0.181900  0.628100  1.0  0.0511
  N  N224  1  0.859100  0.080700  0.020500  1.0  -0.2365
  N  N225  1  0.840900  0.167500  0.008100  1.0  -0.2121
  N  N226  1  0.841700  0.109800  0.111800  1.0  -0.0002
  Cl  Cl227  1  0.292310  0.620300  0.031490  1.0  -0.4333
  Cl  Cl228  1  0.055320  0.837230  0.154910  1.0  -0.5409
  Cl  Cl229  1  0.279520  0.704580  0.347250  1.0  -0.5079
  Cl  Cl230  1  0.055360  0.919540  0.468100  1.0  -0.5059
  Cl  Cl231  1  0.707690  0.379700  0.968510  1.0  -0.4335
  Cl  Cl232  1  0.944680  0.162770  0.845090  1.0  -0.5417
  Cl  Cl233  1  0.720480  0.295420  0.652750  1.0  -0.5076
  Cl  Cl234  1  0.944640  0.080460  0.531900  1.0  -0.5064
  O  O235  1  0.202500  0.519600  0.916800  1.0  -0.6392
  O  O236  1  0.143600  0.654800  0.906300  1.0  -0.6697
  O  O237  1  0.341400  0.756000  0.088800  1.0  -0.6308
  O  O238  1  0.336000  0.772900  0.183800  1.0  -0.6542
  O  O239  1  0.197300  0.137400  0.461500  1.0  -0.6201
  O  O240  1  0.135700  0.124800  0.381700  1.0  -0.6529
  O  O241  1  0.214200  0.428300  0.103600  1.0  -0.6259
  O  O242  1  0.098000  0.424700  0.049200  1.0  -0.5905
  O  O243  1  0.333333  0.829700  0.423100  1.0  -0.6891
  O  O244  1  0.331000  0.953500  0.434100  1.0  -0.6532
  O  O245  1  0.244200  0.857000  0.600200  1.0  -0.5822
  O  O246  1  0.171600  0.993700  0.583700  1.0  -0.59
  O  O247  1  0.797500  0.480400  0.083200  1.0  -0.6363
  O  O248  1  0.856400  0.345200  0.093700  1.0  -0.6728
  O  O249  1  0.658600  0.244000  0.911200  1.0  -0.631
  O  O250  1  0.664000  0.227100  0.816200  1.0  -0.655
  O  O251  1  0.802700  0.862600  0.538500  1.0  -0.6196
  O  O252  1  0.864300  0.875200  0.618300  1.0  -0.654
  O  O253  1  0.785800  0.571700  0.896400  1.0  -0.6292
  O  O254  1  0.902000  0.575300  0.950800  1.0  -0.5909
  O  O255  1  0.666667  0.170300  0.576900  1.0  -0.688
  O  O256  1  0.669000  0.046500  0.565900  1.0  -0.6534
  O  O257  1  0.755800  0.143000  0.399800  1.0  -0.5831
  O  O258  1  0.828400  0.006300  0.416300  1.0  -0.5875
