# generated using pymatgen
data_Zn(SO3)2
_symmetry_space_group_name_H-M   'P 1'
_cell_length_a   14.42110000
_cell_length_b   12.11810000
_cell_length_c   14.06920000
_cell_angle_alpha   90.00000000
_cell_angle_beta   90.00000000
_cell_angle_gamma   90.00000000
_symmetry_Int_Tables_number   1
_chemical_formula_structural   Zn(SO3)2
_chemical_formula_sum   'Zn8 S16 O48'
_cell_volume   2458.68178491
_cell_formula_units_Z   8
loop_
 _symmetry_equiv_pos_site_id
 _symmetry_equiv_pos_as_xyz
  1  'x, y, z'
loop_
 _atom_site_type_symbol
 _atom_site_label
 _atom_site_symmetry_multiplicity
 _atom_site_fract_x
 _atom_site_fract_y
 _atom_site_fract_z
 _atom_site_occupancy
 _atom_site_charge
  Zn  Zn1  1  0.250000  0.750000  0.019000  1.0  1.3053
  Zn  Zn2  1  0.250000  0.250000  0.519000  1.0  1.3053
  Zn  Zn3  1  0.750000  0.250000  0.019000  1.0  1.3053
  Zn  Zn4  1  0.750000  0.750000  0.519000  1.0  1.3053
  Zn  Zn5  1  0.500000  0.500000  0.269000  1.0  1.3054
  Zn  Zn6  1  0.500000  0.000000  0.769000  1.0  1.3054
  Zn  Zn7  1  0.000000  0.000000  0.269000  1.0  1.3054
  Zn  Zn8  1  0.000000  0.500000  0.769000  1.0  1.3054
  S  S9  1  0.163090  0.866260  0.188590  1.0  0.5394
  S  S10  1  0.163090  0.366260  0.688590  1.0  0.5394
  S  S11  1  0.663090  0.866260  0.688590  1.0  0.5394
  S  S12  1  0.663090  0.366260  0.188590  1.0  0.5394
  S  S13  1  0.836910  0.133740  0.188590  1.0  0.54
  S  S14  1  0.836910  0.633740  0.688590  1.0  0.54
  S  S15  1  0.336910  0.133740  0.688590  1.0  0.54
  S  S16  1  0.336910  0.633740  0.188590  1.0  0.54
  S  S17  1  0.413090  0.383740  0.438590  1.0  0.5392
  S  S18  1  0.413090  0.883740  0.938590  1.0  0.5392
  S  S19  1  0.913090  0.383740  0.938590  1.0  0.5392
  S  S20  1  0.913090  0.883740  0.438590  1.0  0.5392
  S  S21  1  0.086910  0.116260  0.438590  1.0  0.5402
  S  S22  1  0.086910  0.616260  0.938590  1.0  0.5402
  S  S23  1  0.586910  0.116260  0.938590  1.0  0.5402
  S  S24  1  0.586910  0.616260  0.438590  1.0  0.5402
  O  O25  1  0.221400  0.879000  0.096500  1.0  -0.4551
  O  O26  1  0.223900  0.904400  0.266500  1.0  -0.2876
  O  O27  1  0.091700  0.957300  0.173800  1.0  -0.4498
  O  O28  1  0.221400  0.379000  0.596500  1.0  -0.4551
  O  O29  1  0.223900  0.404400  0.766500  1.0  -0.2876
  O  O30  1  0.091700  0.457300  0.673800  1.0  -0.4498
  O  O31  1  0.721400  0.879000  0.596500  1.0  -0.4551
  O  O32  1  0.723900  0.904400  0.766500  1.0  -0.2876
  O  O33  1  0.591700  0.957300  0.673800  1.0  -0.4498
  O  O34  1  0.721400  0.379000  0.096500  1.0  -0.4551
  O  O35  1  0.723900  0.404400  0.266500  1.0  -0.2876
  O  O36  1  0.591700  0.457300  0.173800  1.0  -0.4498
  O  O37  1  0.778600  0.121000  0.096500  1.0  -0.4552
  O  O38  1  0.776100  0.095600  0.266500  1.0  -0.2867
  O  O39  1  0.908300  0.042700  0.173800  1.0  -0.4503
  O  O40  1  0.778600  0.621000  0.596500  1.0  -0.4552
  O  O41  1  0.776100  0.595600  0.766500  1.0  -0.2867
  O  O42  1  0.908300  0.542700  0.673800  1.0  -0.4503
  O  O43  1  0.278600  0.121000  0.596500  1.0  -0.4552
  O  O44  1  0.276100  0.095600  0.766500  1.0  -0.2867
  O  O45  1  0.408300  0.042700  0.673800  1.0  -0.4503
  O  O46  1  0.278600  0.621000  0.096500  1.0  -0.4552
  O  O47  1  0.276100  0.595600  0.266500  1.0  -0.2867
  O  O48  1  0.408300  0.542700  0.173800  1.0  -0.4503
  O  O49  1  0.471400  0.371000  0.346500  1.0  -0.4551
  O  O50  1  0.473900  0.345600  0.516500  1.0  -0.2876
  O  O51  1  0.341700  0.292700  0.423800  1.0  -0.4504
  O  O52  1  0.471400  0.871000  0.846500  1.0  -0.4551
  O  O53  1  0.473900  0.845600  0.016500  1.0  -0.2876
  O  O54  1  0.341700  0.792700  0.923800  1.0  -0.4504
  O  O55  1  0.971400  0.371000  0.846500  1.0  -0.4551
  O  O56  1  0.973900  0.345600  0.016500  1.0  -0.2876
  O  O57  1  0.841700  0.292700  0.923800  1.0  -0.4504
  O  O58  1  0.971400  0.871000  0.346500  1.0  -0.4551
  O  O59  1  0.973900  0.845600  0.516500  1.0  -0.2876
  O  O60  1  0.841700  0.792700  0.423800  1.0  -0.4504
  O  O61  1  0.028600  0.129000  0.346500  1.0  -0.4553
  O  O62  1  0.026100  0.154400  0.516500  1.0  -0.2868
  O  O63  1  0.158300  0.207300  0.423800  1.0  -0.4497
  O  O64  1  0.028600  0.629000  0.846500  1.0  -0.4553
  O  O65  1  0.026100  0.654400  0.016500  1.0  -0.2868
  O  O66  1  0.158300  0.707300  0.923800  1.0  -0.4497
  O  O67  1  0.528600  0.129000  0.846500  1.0  -0.4553
  O  O68  1  0.526100  0.154400  0.016500  1.0  -0.2868
  O  O69  1  0.658300  0.207300  0.923800  1.0  -0.4497
  O  O70  1  0.528600  0.629000  0.346500  1.0  -0.4553
  O  O71  1  0.526100  0.654400  0.516500  1.0  -0.2868
  O  O72  1  0.658300  0.707300  0.423800  1.0  -0.4497
