# generated using pymatgen
data_EuH3(CO)6
_symmetry_space_group_name_H-M   'P 1'
_cell_length_a   8.87640000
_cell_length_b   9.19080000
_cell_length_c   15.82000000
_cell_angle_alpha   90.00000000
_cell_angle_beta   90.00000000
_cell_angle_gamma   90.00000000
_symmetry_Int_Tables_number   1
_chemical_formula_structural   EuH3(CO)6
_chemical_formula_sum   'Eu4 H12 C24 O24'
_cell_volume   1290.61485484
_cell_formula_units_Z   4
loop_
 _symmetry_equiv_pos_site_id
 _symmetry_equiv_pos_as_xyz
  1  'x, y, z'
loop_
 _atom_site_type_symbol
 _atom_site_label
 _atom_site_symmetry_multiplicity
 _atom_site_fract_x
 _atom_site_fract_y
 _atom_site_fract_z
 _atom_site_occupancy
 _atom_site_charge
  Eu  Eu1  1  0.000000  0.728470  0.815520  1.0  2.0414
  Eu  Eu2  1  0.000000  0.271530  0.184480  1.0  2.0416
  Eu  Eu3  1  0.500000  0.771530  0.315520  1.0  2.0411
  Eu  Eu4  1  0.500000  0.228470  0.684480  1.0  2.042
  H  H5  1  0.648300  0.389100  0.937300  1.0  0.0868
  H  H6  1  0.648300  0.610900  0.062700  1.0  0.0874
  H  H7  1  0.851700  0.110900  0.437300  1.0  0.088
  H  H8  1  0.851700  0.889100  0.562700  1.0  0.0882
  H  H9  1  0.351700  0.610900  0.062700  1.0  0.0878
  H  H10  1  0.351700  0.389100  0.937300  1.0  0.0871
  H  H11  1  0.148300  0.889100  0.562700  1.0  0.0877
  H  H12  1  0.148300  0.110900  0.437300  1.0  0.0878
  H  H13  1  0.500000  0.664300  0.921900  1.0  0.0953
  H  H14  1  0.500000  0.335700  0.078100  1.0  0.0926
  H  H15  1  0.000000  0.835700  0.421900  1.0  0.093
  H  H16  1  0.000000  0.164300  0.578100  1.0  0.0952
  C  C17  1  0.778300  0.568900  0.911600  1.0  0.685
  C  C18  1  0.644100  0.492700  0.951800  1.0  -0.1347
  C  C19  1  0.778300  0.431100  0.088400  1.0  0.683
  C  C20  1  0.644100  0.507300  0.048200  1.0  -0.1344
  C  C21  1  0.721700  0.931100  0.411600  1.0  0.6866
  C  C22  1  0.855900  0.007300  0.451800  1.0  -0.1355
  C  C23  1  0.721700  0.068900  0.588400  1.0  0.6825
  C  C24  1  0.855900  0.992700  0.548200  1.0  -0.1339
  C  C25  1  0.221700  0.431100  0.088400  1.0  0.685
  C  C26  1  0.355900  0.507300  0.048200  1.0  -0.1341
  C  C27  1  0.221700  0.568900  0.911600  1.0  0.6848
  C  C28  1  0.355900  0.492700  0.951800  1.0  -0.135
  C  C29  1  0.278300  0.068900  0.588400  1.0  0.6839
  C  C30  1  0.144100  0.992700  0.548200  1.0  -0.134
  C  C31  1  0.278300  0.931100  0.411600  1.0  0.6834
  C  C32  1  0.144100  0.007300  0.451800  1.0  -0.1355
  C  C33  1  0.500000  0.558800  0.912800  1.0  -0.1063
  C  C34  1  0.500000  0.528600  0.820600  1.0  0.6779
  C  C35  1  0.500000  0.441200  0.087200  1.0  -0.1076
  C  C36  1  0.500000  0.471400  0.179400  1.0  0.6743
  C  C37  1  0.000000  0.941200  0.412800  1.0  -0.1074
  C  C38  1  0.000000  0.971400  0.320600  1.0  0.6782
  C  C39  1  0.000000  0.058800  0.587200  1.0  -0.1079
  C  C40  1  0.000000  0.028600  0.679400  1.0  0.674
  O  O41  1  0.834500  0.683400  0.943300  1.0  -0.6741
  O  O42  1  0.828000  0.521900  0.841200  1.0  -0.7025
  O  O43  1  0.834500  0.316600  0.056700  1.0  -0.6774
  O  O44  1  0.828000  0.478100  0.158800  1.0  -0.7016
  O  O45  1  0.665500  0.816600  0.443300  1.0  -0.6753
  O  O46  1  0.672000  0.978100  0.341200  1.0  -0.7025
  O  O47  1  0.665500  0.183400  0.556700  1.0  -0.6743
  O  O48  1  0.672000  0.021900  0.658800  1.0  -0.7043
  O  O49  1  0.165500  0.316600  0.056700  1.0  -0.6771
  O  O50  1  0.172000  0.478100  0.158800  1.0  -0.7022
  O  O51  1  0.165500  0.683400  0.943300  1.0  -0.674
  O  O52  1  0.172000  0.521900  0.841200  1.0  -0.7004
  O  O53  1  0.334500  0.183400  0.556700  1.0  -0.6743
  O  O54  1  0.328000  0.021900  0.658800  1.0  -0.7012
  O  O55  1  0.334500  0.816600  0.443300  1.0  -0.6757
  O  O56  1  0.328000  0.978100  0.341200  1.0  -0.701
  O  O57  1  0.500000  0.394300  0.797800  1.0  -0.7284
  O  O58  1  0.500000  0.632800  0.767100  1.0  -0.4941
  O  O59  1  0.500000  0.605700  0.202200  1.0  -0.729
  O  O60  1  0.500000  0.367200  0.232900  1.0  -0.4967
  O  O61  1  0.000000  0.105700  0.297800  1.0  -0.732
  O  O62  1  0.000000  0.867200  0.267100  1.0  -0.4947
  O  O63  1  0.000000  0.894300  0.702200  1.0  -0.7267
  O  O64  1  0.000000  0.132800  0.732900  1.0  -0.4959
