# generated using pymatgen
data_CuH3(C5O2)2
_symmetry_space_group_name_H-M   'P 1'
_cell_length_a   17.38840000
_cell_length_b   17.38840000
_cell_length_c   17.38840000
_cell_angle_alpha   65.35440000
_cell_angle_beta   65.35440000
_cell_angle_gamma   65.35440000
_symmetry_Int_Tables_number   1
_chemical_formula_structural   CuH3(C5O2)2
_chemical_formula_sum   'Cu6 H18 C60 O24'
_cell_volume   4150.92517320
_cell_formula_units_Z   6
loop_
 _symmetry_equiv_pos_site_id
 _symmetry_equiv_pos_as_xyz
  1  'x, y, z'
loop_
 _atom_site_type_symbol
 _atom_site_label
 _atom_site_symmetry_multiplicity
 _atom_site_fract_x
 _atom_site_fract_y
 _atom_site_fract_z
 _atom_site_occupancy
 _atom_site_charge
  Cu  Cu1  1  0.573020  0.003880  0.003880  1.0  0.9095
  Cu  Cu2  1  0.003880  0.573020  0.003880  1.0  0.9086
  Cu  Cu3  1  0.003880  0.003880  0.573020  1.0  0.9086
  Cu  Cu4  1  0.996120  0.426980  0.996120  1.0  0.9089
  Cu  Cu5  1  0.426980  0.996120  0.996120  1.0  0.9091
  Cu  Cu6  1  0.996120  0.996120  0.426980  1.0  0.9077
  H  H7  1  0.506400  0.721000  0.020200  1.0  0.1263
  H  H8  1  0.020200  0.506400  0.721000  1.0  0.1269
  H  H9  1  0.721000  0.020200  0.506400  1.0  0.1262
  H  H10  1  0.279000  0.493600  0.979800  1.0  0.1258
  H  H11  1  0.493600  0.979800  0.279000  1.0  0.1263
  H  H12  1  0.979800  0.279000  0.493600  1.0  0.1258
  H  H13  1  0.493600  0.279000  0.979800  1.0  0.1265
  H  H14  1  0.979800  0.493600  0.279000  1.0  0.1265
  H  H15  1  0.279000  0.979800  0.493600  1.0  0.1259
  H  H16  1  0.721000  0.506400  0.020200  1.0  0.1262
  H  H17  1  0.506400  0.020200  0.721000  1.0  0.1263
  H  H18  1  0.020200  0.721000  0.506400  1.0  0.1255
  H  H19  1  0.730500  0.730500  0.027800  1.0  0.1137
  H  H20  1  0.027800  0.730500  0.730500  1.0  0.1145
  H  H21  1  0.730500  0.027800  0.730500  1.0  0.1144
  H  H22  1  0.269500  0.269500  0.972200  1.0  0.1131
  H  H23  1  0.269500  0.972200  0.269500  1.0  0.1139
  H  H24  1  0.972200  0.269500  0.269500  1.0  0.1137
  C  C25  1  0.611750  0.740550  0.024750  1.0  -0.1465
  C  C26  1  0.564830  0.693930  0.021330  1.0  -0.0541
  C  C27  1  0.569020  0.836420  0.021020  1.0  0.6932
  C  C28  1  0.024750  0.611750  0.740550  1.0  -0.1474
  C  C29  1  0.021330  0.564830  0.693930  1.0  -0.053
  C  C30  1  0.021020  0.569020  0.836420  1.0  0.6933
  C  C31  1  0.740550  0.024750  0.611750  1.0  -0.147
  C  C32  1  0.693930  0.021330  0.564830  1.0  -0.052
  C  C33  1  0.836420  0.021020  0.569020  1.0  0.6918
  C  C34  1  0.259450  0.388250  0.975250  1.0  -0.1472
  C  C35  1  0.306070  0.435170  0.978670  1.0  -0.0528
  C  C36  1  0.163580  0.430980  0.978980  1.0  0.6923
  C  C37  1  0.388250  0.975250  0.259450  1.0  -0.1475
  C  C38  1  0.435170  0.978670  0.306070  1.0  -0.0507
  C  C39  1  0.430980  0.978980  0.163580  1.0  0.6933
  C  C40  1  0.975250  0.259450  0.388250  1.0  -0.1468
  C  C41  1  0.978670  0.306070  0.435170  1.0  -0.0517
  C  C42  1  0.978980  0.163580  0.430980  1.0  0.6928
  C  C43  1  0.388250  0.259450  0.975250  1.0  -0.1467
  C  C44  1  0.435170  0.306070  0.978670  1.0  -0.0527
  C  C45  1  0.430980  0.163580  0.978980  1.0  0.6928
  C  C46  1  0.975250  0.388250  0.259450  1.0  -0.1474
  C  C47  1  0.978670  0.435170  0.306070  1.0  -0.0514
  C  C48  1  0.978980  0.430980  0.163580  1.0  0.6932
  C  C49  1  0.259450  0.975250  0.388250  1.0  -0.1471
  C  C50  1  0.306070  0.978670  0.435170  1.0  -0.0528
  C  C51  1  0.163580  0.978980  0.430980  1.0  0.6923
  C  C52  1  0.740550  0.611750  0.024750  1.0  -0.1466
  C  C53  1  0.693930  0.564830  0.021330  1.0  -0.0523
  C  C54  1  0.836420  0.569020  0.021020  1.0  0.6919
  C  C55  1  0.611750  0.024750  0.740550  1.0  -0.1476
  C  C56  1  0.564830  0.021330  0.693930  1.0  -0.0533
  C  C57  1  0.569020  0.021020  0.836420  1.0  0.6933
  C  C58  1  0.024750  0.740550  0.611750  1.0  -0.1468
  C  C59  1  0.021330  0.693930  0.564830  1.0  -0.0521
  C  C60  1  0.021020  0.836420  0.569020  1.0  0.6931
  C  C61  1  0.560200  0.560200  0.014100  1.0  -0.0791
  C  C62  1  0.522600  0.522600  0.004700  1.0  -0.0315
  C  C63  1  0.699220  0.699220  0.026070  1.0  0.0366
  C  C64  1  0.606400  0.606400  0.019650  1.0  0.0575
  C  C65  1  0.014100  0.560200  0.560200  1.0  -0.0768
  C  C66  1  0.004700  0.522600  0.522600  1.0  -0.0322
  C  C67  1  0.026070  0.699220  0.699220  1.0  0.0352
  C  C68  1  0.019650  0.606400  0.606400  1.0  0.0589
  C  C69  1  0.560200  0.014100  0.560200  1.0  -0.0776
  C  C70  1  0.522600  0.004700  0.522600  1.0  -0.032
  C  C71  1  0.699220  0.026070  0.699220  1.0  0.0348
  C  C72  1  0.606400  0.019650  0.606400  1.0  0.0597
  C  C73  1  0.439800  0.439800  0.985900  1.0  -0.0778
  C  C74  1  0.477400  0.477400  0.995300  1.0  -0.0308
  C  C75  1  0.300780  0.300780  0.973930  1.0  0.0358
  C  C76  1  0.393600  0.393600  0.980350  1.0  0.0589
  C  C77  1  0.439800  0.985900  0.439800  1.0  -0.076
  C  C78  1  0.477400  0.995300  0.477400  1.0  -0.032
  C  C79  1  0.300780  0.973930  0.300780  1.0  0.0341
  C  C80  1  0.393600  0.980350  0.393600  1.0  0.0604
  C  C81  1  0.985900  0.439800  0.439800  1.0  -0.0763
  C  C82  1  0.995300  0.477400  0.477400  1.0  -0.0313
  C  C83  1  0.973930  0.300780  0.300780  1.0  0.0345
  C  C84  1  0.980350  0.393600  0.393600  1.0  0.0604
  O  O85  1  0.614820  0.876160  0.021340  1.0  -0.5584
  O  O86  1  0.491650  0.869610  0.015580  1.0  -0.5659
  O  O87  1  0.021340  0.614820  0.876160  1.0  -0.5576
  O  O88  1  0.015580  0.491650  0.869610  1.0  -0.5663
  O  O89  1  0.876160  0.021340  0.614820  1.0  -0.5576
  O  O90  1  0.869610  0.015580  0.491650  1.0  -0.5662
  O  O91  1  0.123840  0.385180  0.978660  1.0  -0.5578
  O  O92  1  0.130390  0.508350  0.984420  1.0  -0.5657
  O  O93  1  0.385180  0.978660  0.123840  1.0  -0.5571
  O  O94  1  0.508350  0.984420  0.130390  1.0  -0.5659
  O  O95  1  0.978660  0.123840  0.385180  1.0  -0.5576
  O  O96  1  0.984420  0.130390  0.508350  1.0  -0.5652
  O  O97  1  0.385180  0.123840  0.978660  1.0  -0.5572
  O  O98  1  0.508350  0.130390  0.984420  1.0  -0.5658
  O  O99  1  0.978660  0.385180  0.123840  1.0  -0.5574
  O  O100  1  0.984420  0.508350  0.130390  1.0  -0.5656
  O  O101  1  0.123840  0.978660  0.385180  1.0  -0.5575
  O  O102  1  0.130390  0.984420  0.508350  1.0  -0.5658
  O  O103  1  0.876160  0.614820  0.021340  1.0  -0.5587
  O  O104  1  0.869610  0.491650  0.015580  1.0  -0.5675
  O  O105  1  0.614820  0.021340  0.876160  1.0  -0.5573
  O  O106  1  0.491650  0.015580  0.869610  1.0  -0.5663
  O  O107  1  0.021340  0.876160  0.614820  1.0  -0.5577
  O  O108  1  0.015580  0.869610  0.491650  1.0  -0.5651
