# generated using pymatgen
data_ZnCoH15C24(NO)6
_symmetry_space_group_name_H-M   'P 1'
_cell_length_a   7.15990000
_cell_length_b   39.15900000
_cell_length_c   9.71270000
_cell_angle_alpha   90.00000000
_cell_angle_beta   90.00000000
_cell_angle_gamma   90.00000000
_symmetry_Int_Tables_number   1
_chemical_formula_structural   ZnCoH15C24(NO)6
_chemical_formula_sum   'Zn4 Co4 H60 C96 N24 O24'
_cell_volume   2723.19364023
_cell_formula_units_Z   4
loop_
 _symmetry_equiv_pos_site_id
 _symmetry_equiv_pos_as_xyz
  1  'x, y, z'
loop_
 _atom_site_type_symbol
 _atom_site_label
 _atom_site_symmetry_multiplicity
 _atom_site_fract_x
 _atom_site_fract_y
 _atom_site_fract_z
 _atom_site_occupancy
 _atom_site_charge
  Zn  Zn1  1  0.742310  0.035670  0.347740  1.0  0.916
  Zn  Zn2  1  0.757690  0.964330  0.847740  1.0  0.9155
  Zn  Zn3  1  0.257690  0.535670  0.152260  1.0  0.9157
  Zn  Zn4  1  0.242310  0.464330  0.652260  1.0  0.9152
  Co  Co5  1  0.052550  0.322500  0.617940  1.0  0.8804
  Co  Co6  1  0.447450  0.677500  0.117940  1.0  0.8802
  Co  Co7  1  0.947450  0.822500  0.882060  1.0  0.8819
  Co  Co8  1  0.552550  0.177500  0.382060  1.0  0.8809
  H  H9  1  0.032800  0.155800  0.534600  1.0  0.1238
  H  H10  1  0.184700  0.204100  0.885600  1.0  0.1176
  H  H11  1  0.163800  0.101600  0.873000  1.0  0.1058
  H  H12  1  0.195300  0.056200  0.735000  1.0  0.126
  H  H13  1  0.033500  0.014900  0.588200  1.0  0.0903
  H  H14  1  0.883700  0.106400  0.465700  1.0  0.0904
  H  H15  1  0.106200  0.204800  0.421200  1.0  0.1217
  H  H16  1  0.074600  0.267000  0.386500  1.0  0.1013
  H  H17  1  0.067200  0.250700  0.786400  1.0  0.0927
  H  H18  1  0.120600  0.104900  0.108300  1.0  0.1124
  H  H19  1  0.261900  0.116700  0.328900  1.0  0.0912
  H  H20  1  0.393700  0.192600  0.077300  1.0  0.1018
  H  H21  1  0.061100  0.428300  0.321400  1.0  0.0954
  H  H22  1  0.223500  0.361000  0.956400  1.0  0.085
  H  H23  1  0.162800  0.335800  0.165200  1.0  0.1215
  H  H24  1  0.467200  0.844200  0.034600  1.0  0.1244
  H  H25  1  0.315300  0.795900  0.385600  1.0  0.1186
  H  H26  1  0.336200  0.898400  0.373000  1.0  0.1054
  H  H27  1  0.304700  0.943800  0.235000  1.0  0.1256
  H  H28  1  0.466500  0.985100  0.088200  1.0  0.0897
  H  H29  1  0.616300  0.893600  0.965700  1.0  0.0901
  H  H30  1  0.393800  0.795200  0.921200  1.0  0.1214
  H  H31  1  0.425400  0.733000  0.886500  1.0  0.1013
  H  H32  1  0.432800  0.749300  0.286400  1.0  0.0927
  H  H33  1  0.379400  0.895100  0.608300  1.0  0.1121
  H  H34  1  0.238100  0.883300  0.828900  1.0  0.0906
  H  H35  1  0.106300  0.807400  0.577300  1.0  0.1018
  H  H36  1  0.438900  0.571700  0.821400  1.0  0.0956
  H  H37  1  0.276500  0.639000  0.456400  1.0  0.0851
  H  H38  1  0.337200  0.664200  0.665200  1.0  0.1184
  H  H39  1  0.967200  0.655800  0.965400  1.0  0.1234
  H  H40  1  0.815300  0.704100  0.614400  1.0  0.118
  H  H41  1  0.836200  0.601600  0.627000  1.0  0.1057
  H  H42  1  0.804700  0.556200  0.765000  1.0  0.1256
  H  H43  1  0.966500  0.514900  0.911800  1.0  0.0902
  H  H44  1  0.116300  0.606400  0.034300  1.0  0.0898
  H  H45  1  0.893800  0.704800  0.078800  1.0  0.1217
  H  H46  1  0.925400  0.767000  0.113500  1.0  0.1006
  H  H47  1  0.932800  0.750700  0.713600  1.0  0.0921
  H  H48  1  0.879400  0.604900  0.391700  1.0  0.1124
  H  H49  1  0.738100  0.616700  0.171100  1.0  0.0901
  H  H50  1  0.606300  0.692600  0.422700  1.0  0.1014
  H  H51  1  0.938900  0.928300  0.178600  1.0  0.0955
  H  H52  1  0.776500  0.861000  0.543600  1.0  0.0847
  H  H53  1  0.837200  0.835800  0.334800  1.0  0.1217
  H  H54  1  0.532800  0.344200  0.465400  1.0  0.1231
  H  H55  1  0.684700  0.295900  0.114400  1.0  0.1179
  H  H56  1  0.663800  0.398400  0.127000  1.0  0.1055
  H  H57  1  0.695300  0.443800  0.265000  1.0  0.126
  H  H58  1  0.533500  0.485100  0.411800  1.0  0.0893
  H  H59  1  0.383700  0.393600  0.534300  1.0  0.0903
  H  H60  1  0.606200  0.295200  0.578800  1.0  0.1212
  H  H61  1  0.574600  0.233000  0.613500  1.0  0.1006
  H  H62  1  0.567200  0.249300  0.213600  1.0  0.0922
  H  H63  1  0.620600  0.395100  0.891700  1.0  0.1129
  H  H64  1  0.761900  0.383300  0.671100  1.0  0.0904
  H  H65  1  0.893700  0.307400  0.922700  1.0  0.1015
  H  H66  1  0.561100  0.071700  0.678600  1.0  0.0963
  H  H67  1  0.723500  0.139000  0.043600  1.0  0.0849
  H  H68  1  0.662800  0.164200  0.834800  1.0  0.1209
  C  C69  1  0.094900  0.124300  0.692600  1.0  0.0998
  C  C70  1  0.070800  0.154960  0.626100  1.0  -0.1986
  C  C71  1  0.105500  0.185000  0.701300  1.0  0.1256
  C  C72  1  0.161700  0.184100  0.837200  1.0  -0.2102
  C  C73  1  0.183000  0.152400  0.899700  1.0  0.1426
  C  C74  1  0.149700  0.122600  0.829500  1.0  -0.2198
  C  C75  1  0.111700  0.061100  0.664400  1.0  -0.1729
  C  C76  1  0.023700  0.038500  0.582500  1.0  0.0075
  C  C77  1  0.938700  0.088700  0.514600  1.0  0.1384
  C  C78  1  0.094500  0.221400  0.488900  1.0  -0.1609
  C  C79  1  0.077800  0.255900  0.471200  1.0  0.0202
  C  C80  1  0.073200  0.247200  0.691800  1.0  0.131
  C  C81  1  0.193000  0.123800  0.129900  1.0  -0.126
  C  C82  1  0.270700  0.130400  0.251100  1.0  0.0221
  C  C83  1  0.344300  0.172500  0.112600  1.0  0.1145
  C  C84  1  0.103600  0.380200  0.264700  1.0  -0.1763
  C  C85  1  0.098500  0.414700  0.248000  1.0  -0.0625
  C  C86  1  0.147800  0.430200  0.124300  1.0  -0.0683
  C  C87  1  0.192400  0.409600  0.011200  1.0  -0.1591
  C  C88  1  0.194100  0.374900  0.031100  1.0  -0.0447
  C  C89  1  0.155000  0.359400  0.155000  1.0  -0.1391
  C  C90  1  0.052900  0.364900  0.405200  1.0  0.6656
  C  C91  1  0.137700  0.469600  0.124500  1.0  0.6913
  C  C92  1  0.233000  0.423600  0.869000  1.0  0.6877
  C  C93  1  0.405100  0.875700  0.192600  1.0  0.0999
  C  C94  1  0.429200  0.845040  0.126100  1.0  -0.198
  C  C95  1  0.394500  0.815000  0.201300  1.0  0.1256
  C  C96  1  0.338300  0.815900  0.337200  1.0  -0.2118
  C  C97  1  0.317000  0.847600  0.399700  1.0  0.1432
  C  C98  1  0.350300  0.877400  0.329500  1.0  -0.2194
  C  C99  1  0.388300  0.938900  0.164400  1.0  -0.1754
  C  C100  1  0.476300  0.961500  0.082500  1.0  0.009
  C  C101  1  0.561300  0.911300  0.014600  1.0  0.1391
  C  C102  1  0.405500  0.778600  0.988900  1.0  -0.1608
  C  C103  1  0.422200  0.744100  0.971200  1.0  0.02
  C  C104  1  0.426800  0.752800  0.191800  1.0  0.1317
  C  C105  1  0.307000  0.876200  0.629900  1.0  -0.1261
  C  C106  1  0.229300  0.869600  0.751100  1.0  0.0224
  C  C107  1  0.155700  0.827500  0.612600  1.0  0.1137
  C  C108  1  0.396400  0.619800  0.764700  1.0  -0.1761
  C  C109  1  0.401500  0.585300  0.748000  1.0  -0.0602
  C  C110  1  0.352200  0.569800  0.624300  1.0  -0.0688
  C  C111  1  0.307600  0.590400  0.511200  1.0  -0.1593
  C  C112  1  0.305900  0.625100  0.531100  1.0  -0.0459
  C  C113  1  0.345000  0.640600  0.655000  1.0  -0.1389
  C  C114  1  0.447100  0.635100  0.905200  1.0  0.6635
  C  C115  1  0.362300  0.530400  0.624500  1.0  0.6914
  C  C116  1  0.267000  0.576400  0.369000  1.0  0.6873
  C  C117  1  0.905100  0.624300  0.807400  1.0  0.0998
  C  C118  1  0.929200  0.654960  0.873900  1.0  -0.1992
  C  C119  1  0.894500  0.685000  0.798700  1.0  0.1257
  C  C120  1  0.838300  0.684100  0.662800  1.0  -0.2121
  C  C121  1  0.817000  0.652400  0.600300  1.0  0.1432
  C  C122  1  0.850300  0.622600  0.670500  1.0  -0.22
  C  C123  1  0.888300  0.561100  0.835600  1.0  -0.175
  C  C124  1  0.976300  0.538500  0.917500  1.0  0.0078
  C  C125  1  0.061300  0.588700  0.985400  1.0  0.1399
  C  C126  1  0.905500  0.721400  0.011100  1.0  -0.1617
  C  C127  1  0.922200  0.755900  0.028800  1.0  0.0213
  C  C128  1  0.926800  0.747200  0.808200  1.0  0.1329
  C  C129  1  0.807000  0.623800  0.370100  1.0  -0.127
  C  C130  1  0.729300  0.630400  0.248900  1.0  0.0226
  C  C131  1  0.655700  0.672500  0.387400  1.0  0.1133
  C  C132  1  0.896400  0.880200  0.235300  1.0  -0.1768
  C  C133  1  0.901500  0.914700  0.252000  1.0  -0.0601
  C  C134  1  0.852200  0.930200  0.375700  1.0  -0.066
  C  C135  1  0.807600  0.909600  0.488800  1.0  -0.1574
  C  C136  1  0.805900  0.874900  0.468900  1.0  -0.045
  C  C137  1  0.845000  0.859400  0.345000  1.0  -0.1386
  C  C138  1  0.947100  0.864900  0.094800  1.0  0.6655
  C  C139  1  0.862300  0.969600  0.375500  1.0  0.6902
  C  C140  1  0.767000  0.923600  0.631000  1.0  0.6873
  C  C141  1  0.594900  0.375700  0.307400  1.0  0.0999
  C  C142  1  0.570800  0.345040  0.373900  1.0  -0.2013
  C  C143  1  0.605500  0.315000  0.298700  1.0  0.1255
  C  C144  1  0.661700  0.315900  0.162800  1.0  -0.2103
  C  C145  1  0.683000  0.347600  0.100300  1.0  0.1435
  C  C146  1  0.649700  0.377400  0.170500  1.0  -0.2195
  C  C147  1  0.611700  0.438900  0.335600  1.0  -0.1743
  C  C148  1  0.523700  0.461500  0.417500  1.0  0.0084
  C  C149  1  0.438700  0.411300  0.485400  1.0  0.1393
  C  C150  1  0.594500  0.278600  0.511100  1.0  -0.162
  C  C151  1  0.577800  0.244100  0.528800  1.0  0.0213
  C  C152  1  0.573200  0.252800  0.308200  1.0  0.1319
  C  C153  1  0.693000  0.376200  0.870100  1.0  -0.1263
  C  C154  1  0.770700  0.369600  0.748900  1.0  0.0223
  C  C155  1  0.844300  0.327500  0.887400  1.0  0.1141
  C  C156  1  0.603600  0.119800  0.735300  1.0  -0.1764
  C  C157  1  0.598500  0.085300  0.752000  1.0  -0.0607
  C  C158  1  0.647800  0.069800  0.875700  1.0  -0.0671
  C  C159  1  0.692400  0.090400  0.988800  1.0  -0.1575
  C  C160  1  0.694100  0.125100  0.968900  1.0  -0.0444
  C  C161  1  0.655000  0.140600  0.845000  1.0  -0.1389
  C  C162  1  0.552900  0.135100  0.594800  1.0  0.6654
  C  C163  1  0.637700  0.030400  0.875500  1.0  0.6917
  C  C164  1  0.733000  0.076400  0.131000  1.0  0.6872
  N  N165  1  0.915300  0.056440  0.487500  1.0  -0.335
  N  N166  1  0.053400  0.092740  0.623000  1.0  0.0378
  N  N167  1  0.066300  0.272000  0.598800  1.0  -0.3932
  N  N168  1  0.089900  0.216700  0.632800  1.0  0.0532
  N  N169  1  0.366600  0.160900  0.243500  1.0  -0.3633
  N  N170  1  0.238600  0.149930  0.042500  1.0  0.0386
  N  N171  1  0.584700  0.943560  0.987500  1.0  -0.3356
  N  N172  1  0.446600  0.907260  0.123000  1.0  0.0372
  N  N173  1  0.433700  0.728000  0.098800  1.0  -0.3944
  N  N174  1  0.410100  0.783300  0.132800  1.0  0.0536
  N  N175  1  0.133400  0.839100  0.743500  1.0  -0.3649
  N  N176  1  0.261400  0.850070  0.542500  1.0  0.0386
  N  N177  1  0.084700  0.556440  0.012500  1.0  -0.3329
  N  N178  1  0.946600  0.592740  0.877000  1.0  0.0372
  N  N179  1  0.933700  0.772000  0.901200  1.0  -0.3932
  N  N180  1  0.910100  0.716700  0.867200  1.0  0.0532
  N  N181  1  0.633400  0.660900  0.256500  1.0  -0.3646
  N  N182  1  0.761400  0.649930  0.457500  1.0  0.0377
  N  N183  1  0.415300  0.443560  0.512500  1.0  -0.3342
  N  N184  1  0.553400  0.407260  0.377000  1.0  0.038
  N  N185  1  0.566300  0.228000  0.401200  1.0  -0.3942
  N  N186  1  0.589900  0.283300  0.367200  1.0  0.0534
  N  N187  1  0.866600  0.339100  0.756500  1.0  -0.364
  N  N188  1  0.738600  0.350070  0.957500  1.0  0.0375
  O  O189  1  0.064700  0.333380  0.419500  1.0  -0.5897
  O  O190  1  0.004700  0.384370  0.499600  1.0  -0.6179
  O  O191  1  0.285100  0.486420  0.123900  1.0  -0.5739
  O  O192  1  0.980100  0.481630  0.134100  1.0  -0.5635
  O  O193  1  0.215600  0.454800  0.851900  1.0  -0.5863
  O  O194  1  0.270400  0.402950  0.773700  1.0  -0.5839
  O  O195  1  0.435300  0.666667  0.919500  1.0  -0.5902
  O  O196  1  0.495300  0.615630  0.999600  1.0  -0.6182
  O  O197  1  0.214900  0.513580  0.623900  1.0  -0.5745
  O  O198  1  0.519900  0.518370  0.634100  1.0  -0.5632
  O  O199  1  0.284400  0.545200  0.351900  1.0  -0.5862
  O  O200  1  0.229600  0.597050  0.273700  1.0  -0.5852
  O  O201  1  0.935300  0.833380  0.080500  1.0  -0.5901
  O  O202  1  0.995300  0.884370  0.000400  1.0  -0.6181
  O  O203  1  0.714900  0.986420  0.376100  1.0  -0.5749
  O  O204  1  0.019900  0.981630  0.365900  1.0  -0.563
  O  O205  1  0.784400  0.954800  0.648100  1.0  -0.5859
  O  O206  1  0.729600  0.902950  0.726300  1.0  -0.5848
  O  O207  1  0.564700  0.166620  0.580500  1.0  -0.5884
  O  O208  1  0.504700  0.115630  0.500400  1.0  -0.6196
  O  O209  1  0.785100  0.013580  0.876100  1.0  -0.5742
  O  O210  1  0.480100  0.018370  0.865900  1.0  -0.5629
  O  O211  1  0.715600  0.045200  0.148100  1.0  -0.5853
  O  O212  1  0.770400  0.097050  0.226300  1.0  -0.5849
