# generated using pymatgen
data_ZnH5C10N3O4
_symmetry_space_group_name_H-M   'P 1'
_cell_length_a   12.91400000
_cell_length_b   12.91400000
_cell_length_c   14.76500000
_cell_angle_alpha   91.52240000
_cell_angle_beta   91.52240000
_cell_angle_gamma   90.35760000
_symmetry_Int_Tables_number   1
_chemical_formula_structural   ZnH5C10N3O4
_chemical_formula_sum   'Zn6 H30 C60 N18 O24'
_cell_volume   2460.58213796
_cell_formula_units_Z   6
loop_
 _symmetry_equiv_pos_site_id
 _symmetry_equiv_pos_as_xyz
  1  'x, y, z'
loop_
 _atom_site_type_symbol
 _atom_site_label
 _atom_site_symmetry_multiplicity
 _atom_site_fract_x
 _atom_site_fract_y
 _atom_site_fract_z
 _atom_site_occupancy
 _atom_site_charge
  Zn  Zn1  1  0.065840  0.588840  0.774490  1.0  0.8592
  Zn  Zn2  1  0.411160  0.934160  0.725510  1.0  0.8576
  Zn  Zn3  1  0.934160  0.411160  0.225510  1.0  0.8576
  Zn  Zn4  1  0.588840  0.065840  0.274490  1.0  0.857
  Zn  Zn5  1  0.618260  0.381740  0.750000  1.0  0.813
  Zn  Zn6  1  0.381740  0.618260  0.250000  1.0  0.8136
  H  H7  1  0.842000  0.556000  0.509000  1.0  0.4143
  H  H8  1  0.767900  0.476300  0.092900  1.0  0.0836
  H  H9  1  0.735300  0.496100  0.943800  1.0  0.1106
  H  H10  1  0.004200  0.361000  0.890300  1.0  0.1355
  H  H11  1  0.031000  0.342600  0.043200  1.0  0.0934
  H  H12  1  0.452900  0.468700  0.625000  1.0  0.0861
  H  H13  1  0.320700  0.586300  0.624600  1.0  0.1312
  H  H14  1  0.444000  0.158000  0.991000  1.0  0.4142
  H  H15  1  0.523700  0.232100  0.407100  1.0  0.0834
  H  H16  1  0.503900  0.264700  0.556200  1.0  0.1108
  H  H17  1  0.639000  0.995800  0.609700  1.0  0.1354
  H  H18  1  0.657400  0.969000  0.456800  1.0  0.0928
  H  H19  1  0.531300  0.547100  0.875000  1.0  0.0868
  H  H20  1  0.413700  0.679300  0.875400  1.0  0.1301
  H  H21  1  0.158000  0.444000  0.491000  1.0  0.415
  H  H22  1  0.232100  0.523700  0.907100  1.0  0.0839
  H  H23  1  0.264700  0.503900  0.056200  1.0  0.1096
  H  H24  1  0.995800  0.639000  0.109700  1.0  0.1362
  H  H25  1  0.969000  0.657400  0.956800  1.0  0.0929
  H  H26  1  0.547100  0.531300  0.375000  1.0  0.0866
  H  H27  1  0.679300  0.413700  0.375400  1.0  0.131
  H  H28  1  0.556000  0.842000  0.009000  1.0  0.4137
  H  H29  1  0.476300  0.767900  0.592900  1.0  0.084
  H  H30  1  0.496100  0.735300  0.443800  1.0  0.1098
  H  H31  1  0.361000  0.004200  0.390300  1.0  0.1355
  H  H32  1  0.342600  0.031000  0.543200  1.0  0.093
  H  H33  1  0.468700  0.452900  0.125000  1.0  0.0859
  H  H34  1  0.586300  0.320700  0.124600  1.0  0.131
  H  H35  1  0.037000  0.963000  0.750000  1.0  0.3146
  H  H36  1  0.963000  0.037000  0.250000  1.0  0.3154
  C  C37  1  0.852600  0.455600  0.802300  1.0  0.3666
  C  C38  1  0.886800  0.510800  0.670500  1.0  0.0007
  C  C39  1  0.790000  0.470600  0.666200  1.0  0.0146
  C  C40  1  0.947900  0.563700  0.602400  1.0  0.6606
  C  C41  1  0.712400  0.458000  0.591100  1.0  0.6603
  C  C42  1  0.816900  0.454300  0.051700  1.0  0.1596
  C  C43  1  0.797200  0.465800  0.962500  1.0  -0.1509
  C  C44  1  0.866500  0.433700  0.898500  1.0  0.0539
  C  C45  1  0.955600  0.386000  0.930600  1.0  -0.1826
  C  C46  1  0.971700  0.375900  0.022500  1.0  0.1622
  C  C47  1  0.124100  0.799900  0.755600  1.0  -0.0065
  C  C48  1  0.012800  0.806800  0.765600  1.0  0.6424
  C  C49  1  0.442900  0.509300  0.676900  1.0  0.1738
  C  C50  1  0.364800  0.581400  0.675200  1.0  -0.1864
  C  C51  1  0.544400  0.147400  0.697700  1.0  0.3683
  C  C52  1  0.489200  0.113200  0.829500  1.0  -1e-04
  C  C53  1  0.529400  0.210000  0.833800  1.0  0.0156
  C  C54  1  0.436300  0.052100  0.897600  1.0  0.659
  C  C55  1  0.542000  0.287600  0.908900  1.0  0.6593
  C  C56  1  0.545700  0.183100  0.448300  1.0  0.1578
  C  C57  1  0.534200  0.202800  0.537500  1.0  -0.1549
  C  C58  1  0.566300  0.133500  0.601500  1.0  0.0528
  C  C59  1  0.614000  0.044400  0.569400  1.0  -0.1797
  C  C60  1  0.624100  0.028300  0.477500  1.0  0.1646
  C  C61  1  0.200100  0.875900  0.744400  1.0  -0.0065
  C  C62  1  0.193200  0.987200  0.734400  1.0  0.6529
  C  C63  1  0.490700  0.557100  0.823100  1.0  0.1738
  C  C64  1  0.418600  0.635200  0.824800  1.0  -0.1836
  C  C65  1  0.147400  0.544400  0.197700  1.0  0.3665
  C  C66  1  0.113200  0.489200  0.329500  1.0  0.0002
  C  C67  1  0.210000  0.529400  0.333800  1.0  0.0145
  C  C68  1  0.052100  0.436300  0.397600  1.0  0.6609
  C  C69  1  0.287600  0.542000  0.408900  1.0  0.6577
  C  C70  1  0.183100  0.545700  0.948300  1.0  0.1592
  C  C71  1  0.202800  0.534200  0.037500  1.0  -0.1505
  C  C72  1  0.133500  0.566300  0.101500  1.0  0.0528
  C  C73  1  0.044400  0.614000  0.069400  1.0  -0.1821
  C  C74  1  0.028300  0.624100  0.977500  1.0  0.1605
  C  C75  1  0.875900  0.200100  0.244400  1.0  -0.007
  C  C76  1  0.987200  0.193200  0.234400  1.0  0.6397
  C  C77  1  0.557100  0.490700  0.323100  1.0  0.1741
  C  C78  1  0.635200  0.418600  0.324800  1.0  -0.1863
  C  C79  1  0.455600  0.852600  0.302300  1.0  0.368
  C  C80  1  0.510800  0.886800  0.170500  1.0  0.0006
  C  C81  1  0.470600  0.790000  0.166200  1.0  0.0149
  C  C82  1  0.563700  0.947900  0.102400  1.0  0.6576
  C  C83  1  0.458000  0.712400  0.091100  1.0  0.6605
  C  C84  1  0.454300  0.816900  0.551700  1.0  0.1579
  C  C85  1  0.465800  0.797200  0.462500  1.0  -0.155
  C  C86  1  0.433700  0.866500  0.398500  1.0  0.0541
  C  C87  1  0.386000  0.955600  0.430600  1.0  -0.1807
  C  C88  1  0.375900  0.971700  0.522500  1.0  0.1654
  C  C89  1  0.799900  0.124100  0.255600  1.0  -0.0071
  C  C90  1  0.806800  0.012800  0.265600  1.0  0.6445
  C  C91  1  0.509300  0.442900  0.176900  1.0  0.1742
  C  C92  1  0.581400  0.364800  0.175200  1.0  -0.183
  C  C93  1  0.272600  0.727400  0.750000  1.0  0.3833
  C  C94  1  0.353300  0.646700  0.750000  1.0  0.0251
  C  C95  1  0.727400  0.272600  0.250000  1.0  0.3833
  C  C96  1  0.646700  0.353300  0.250000  1.0  0.025
  N  N97  1  0.928600  0.502000  0.756300  1.0  -0.4314
  N  N98  1  0.766000  0.435600  0.751100  1.0  -0.4185
  N  N99  1  0.904900  0.412300  0.082900  1.0  -0.3537
  N  N100  1  0.171700  0.707500  0.756800  1.0  -0.3977
  N  N101  1  0.498000  0.071400  0.743700  1.0  -0.4311
  N  N102  1  0.564400  0.234000  0.748900  1.0  -0.4192
  N  N103  1  0.587700  0.095100  0.417100  1.0  -0.3542
  N  N104  1  0.292500  0.828300  0.743200  1.0  -0.3986
  N  N105  1  0.071400  0.498000  0.243700  1.0  -0.4303
  N  N106  1  0.234000  0.564400  0.248900  1.0  -0.4179
  N  N107  1  0.095100  0.587700  0.917100  1.0  -0.3557
  N  N108  1  0.828300  0.292500  0.243200  1.0  -0.3983
  N  N109  1  0.502000  0.928600  0.256300  1.0  -0.432
  N  N110  1  0.435600  0.766000  0.251100  1.0  -0.4179
  N  N111  1  0.412300  0.904900  0.582900  1.0  -0.354
  N  N112  1  0.707500  0.171700  0.256800  1.0  -0.3983
  N  N113  1  0.505800  0.494200  0.750000  1.0  -0.3299
  N  N114  1  0.494200  0.505800  0.250000  1.0  -0.3303
  O  O115  1  0.036700  0.594900  0.624100  1.0  -0.5322
  O  O116  1  0.907300  0.576100  0.523100  1.0  -0.5021
  O  O117  1  0.631400  0.408600  0.608400  1.0  -0.5851
  O  O118  1  0.731600  0.495600  0.516400  1.0  -0.5876
  O  O119  1  0.964000  0.726000  0.780200  1.0  -0.5649
  O  O120  1  0.969200  0.896000  0.760500  1.0  -0.5091
  O  O121  1  0.405100  0.963300  0.875900  1.0  -0.5317
  O  O122  1  0.423900  0.092700  0.976900  1.0  -0.5026
  O  O123  1  0.591400  0.368600  0.891600  1.0  -0.5858
  O  O124  1  0.504400  0.268400  0.983600  1.0  -0.5878
  O  O125  1  0.274000  0.036000  0.719800  1.0  -0.5669
  O  O126  1  0.104000  0.030800  0.739500  1.0  -0.5111
  O  O127  1  0.963300  0.405100  0.375900  1.0  -0.5301
  O  O128  1  0.092700  0.423900  0.476900  1.0  -0.5033
  O  O129  1  0.368600  0.591400  0.391600  1.0  -0.5858
  O  O130  1  0.268400  0.504400  0.483600  1.0  -0.588
  O  O131  1  0.036000  0.274000  0.219800  1.0  -0.5656
  O  O132  1  0.030800  0.104000  0.239500  1.0  -0.5079
  O  O133  1  0.594900  0.036700  0.124100  1.0  -0.5321
  O  O134  1  0.576100  0.907300  0.023100  1.0  -0.5026
  O  O135  1  0.408600  0.631400  0.108400  1.0  -0.5854
  O  O136  1  0.495600  0.731600  0.016400  1.0  -0.5877
  O  O137  1  0.726000  0.964000  0.280200  1.0  -0.5659
  O  O138  1  0.896000  0.969200  0.260500  1.0  -0.5098
