# generated using pymatgen
data_LaH7C15O7
_symmetry_space_group_name_H-M   'P 1'
_cell_length_a   9.36000000
_cell_length_b   9.93600000
_cell_length_c   11.38400000
_cell_angle_alpha   93.18200000
_cell_angle_beta   97.61700000
_cell_angle_gamma   110.27100000
_symmetry_Int_Tables_number   1
_chemical_formula_structural   LaH7C15O7
_chemical_formula_sum   'La2 H14 C30 O14'
_cell_volume   978.51195067
_cell_formula_units_Z   2
loop_
 _symmetry_equiv_pos_site_id
 _symmetry_equiv_pos_as_xyz
  1  'x, y, z'
loop_
 _atom_site_type_symbol
 _atom_site_label
 _atom_site_symmetry_multiplicity
 _atom_site_fract_x
 _atom_site_fract_y
 _atom_site_fract_z
 _atom_site_occupancy
 _atom_site_charge
  La  La1  1  0.715610  0.951990  0.016910  1.0  2.1393
  La  La2  1  0.284390  0.048010  0.983090  1.0  2.1385
  H  H3  1  0.686700  0.505900  0.965600  1.0  0.112
  H  H4  1  0.809600  0.216200  0.779300  1.0  0.1319
  H  H5  1  0.085800  0.635500  0.835200  1.0  0.1293
  H  H6  1  0.829500  0.400900  0.571100  1.0  0.1357
  H  H7  1  0.741000  0.277400  0.381500  1.0  0.1057
  H  H8  1  0.070200  0.107100  0.425700  1.0  0.1006
  H  H9  1  0.160400  0.228400  0.615100  1.0  0.1415
  H  H10  1  0.313300  0.494100  0.034400  1.0  0.1117
  H  H11  1  0.190400  0.783800  0.220700  1.0  0.1316
  H  H12  1  0.914200  0.364500  0.164800  1.0  0.1295
  H  H13  1  0.170500  0.599100  0.428900  1.0  0.1355
  H  H14  1  0.259000  0.722600  0.618500  1.0  0.1068
  H  H15  1  0.929800  0.892900  0.574300  1.0  0.101
  H  H16  1  0.839600  0.771600  0.384900  1.0  0.1417
  C  C17  1  0.928200  0.741900  0.970400  1.0  0.7628
  C  C18  1  0.892000  0.592800  0.911000  1.0  -0.1361
  C  C19  1  0.756400  0.484700  0.923700  1.0  -0.0116
  C  C20  1  0.723800  0.344100  0.873800  1.0  -0.0903
  C  C21  1  0.578300  0.226500  0.892300  1.0  0.713
  C  C22  1  0.827200  0.310500  0.809500  1.0  -0.152
  C  C23  1  0.958000  0.425500  0.793000  1.0  0.2546
  C  C24  1  0.994500  0.563000  0.844400  1.0  -0.1458
  C  C25  1  0.004300  0.324000  0.611400  1.0  0.2891
  C  C26  1  0.877100  0.340900  0.541900  1.0  -0.2606
  C  C27  1  0.824200  0.266400  0.429100  1.0  0.002
  C  C28  1  0.893300  0.176200  0.386500  1.0  -0.1748
  C  C29  1  0.829200  0.089200  0.267800  1.0  0.6868
  C  C30  1  0.020700  0.164800  0.455700  1.0  0.0037
  C  C31  1  0.075600  0.238000  0.568700  1.0  -0.2224
  C  C32  1  0.071800  0.258100  0.029600  1.0  0.7591
  C  C33  1  0.108000  0.407200  0.089000  1.0  -0.1368
  C  C34  1  0.243600  0.515300  0.076300  1.0  -0.0116
  C  C35  1  0.276200  0.655900  0.126200  1.0  -0.0888
  C  C36  1  0.421700  0.773500  0.107700  1.0  0.7128
  C  C37  1  0.172800  0.689500  0.190500  1.0  -0.152
  C  C38  1  0.042000  0.574500  0.207000  1.0  0.2536
  C  C39  1  0.005500  0.437000  0.155600  1.0  -0.145
  C  C40  1  0.995700  0.676000  0.388600  1.0  0.2887
  C  C41  1  0.122900  0.659100  0.458100  1.0  -0.2587
  C  C42  1  0.175800  0.733600  0.570900  1.0  0.0031
  C  C43  1  0.106700  0.823800  0.613500  1.0  -0.1737
  C  C44  1  0.170800  0.910800  0.732200  1.0  0.6875
  C  C45  1  0.979300  0.835200  0.544300  1.0  0.0059
  C  C46  1  0.924400  0.762000  0.431300  1.0  -0.2238
  O  O47  1  0.058000  0.836100  0.970200  1.0  -0.7699
  O  O48  1  0.822200  0.764100  0.018700  1.0  -0.7117
  O  O49  1  0.455500  0.254400  0.881600  1.0  -0.6167
  O  O50  1  0.583200  0.105400  0.921800  1.0  -0.7931
  O  O51  1  0.062300  0.397800  0.724800  1.0  -0.2641
  O  O52  1  0.713600  0.106100  0.204300  1.0  -0.6992
  O  O53  1  0.886200  0.001600  0.228900  1.0  -0.6583
  O  O54  1  0.942000  0.163900  0.029800  1.0  -0.7689
  O  O55  1  0.177800  0.235900  0.981300  1.0  -0.7107
  O  O56  1  0.544500  0.745600  0.118400  1.0  -0.616
  O  O57  1  0.416800  0.894600  0.078200  1.0  -0.794
  O  O58  1  0.937700  0.602200  0.275200  1.0  -0.2665
  O  O59  1  0.286400  0.893900  0.795700  1.0  -0.7006
  O  O60  1  0.113800  0.998400  0.771100  1.0  -0.6606
