# generated using pymatgen
data_LaH7C15O7
_symmetry_space_group_name_H-M   'P 1'
_cell_length_a   9.37600000
_cell_length_b   9.94000000
_cell_length_c   11.37700000
_cell_angle_alpha   92.97900000
_cell_angle_beta   97.83600000
_cell_angle_gamma   110.33000000
_symmetry_Int_Tables_number   1
_chemical_formula_structural   LaH7C15O7
_chemical_formula_sum   'La2 H14 C30 O14'
_cell_volume   979.32587775
_cell_formula_units_Z   2
loop_
 _symmetry_equiv_pos_site_id
 _symmetry_equiv_pos_as_xyz
  1  'x, y, z'
loop_
 _atom_site_type_symbol
 _atom_site_label
 _atom_site_symmetry_multiplicity
 _atom_site_fract_x
 _atom_site_fract_y
 _atom_site_fract_z
 _atom_site_occupancy
 _atom_site_charge
  La  La1  1  0.715560  0.952290  0.016780  1.0  2.1461
  La  La2  1  0.284440  0.047710  0.983220  1.0  2.1454
  H  H3  1  0.317300  0.497900  0.040100  1.0  0.1098
  H  H4  1  0.192200  0.782700  0.221900  1.0  0.1306
  H  H5  1  0.913800  0.364900  0.163200  1.0  0.1324
  H  H6  1  0.170000  0.596600  0.429000  1.0  0.1343
  H  H7  1  0.261200  0.722000  0.618900  1.0  0.1146
  H  H8  1  0.930300  0.893900  0.573700  1.0  0.1096
  H  H9  1  0.839800  0.769700  0.384200  1.0  0.1421
  H  H10  1  0.682700  0.502100  0.959900  1.0  0.1099
  H  H11  1  0.807800  0.217300  0.778100  1.0  0.1306
  H  H12  1  0.086200  0.635100  0.836800  1.0  0.1323
  H  H13  1  0.830000  0.403400  0.571000  1.0  0.1345
  H  H14  1  0.738800  0.278000  0.381100  1.0  0.1132
  H  H15  1  0.069700  0.106100  0.426300  1.0  0.1095
  H  H16  1  0.160200  0.230300  0.615800  1.0  0.1413
  C  C17  1  0.074300  0.259500  0.029900  1.0  0.7616
  C  C18  1  0.107000  0.406800  0.088700  1.0  -0.1389
  C  C19  1  0.245800  0.518900  0.079700  1.0  -0.0323
  C  C20  1  0.278500  0.657000  0.127000  1.0  -0.0905
  C  C21  1  0.423000  0.772200  0.106300  1.0  0.7378
  C  C22  1  0.174100  0.688600  0.191100  1.0  -0.1629
  C  C23  1  0.043500  0.576100  0.207100  1.0  0.2523
  C  C24  1  0.005600  0.436900  0.154600  1.0  -0.1381
  C  C25  1  0.000600  0.676900  0.388800  1.0  0.2802
  C  C26  1  0.124000  0.657900  0.457800  1.0  -0.2495
  C  C27  1  0.177700  0.732300  0.571000  1.0  -0.0119
  C  C28  1  0.105500  0.823000  0.613000  1.0  -0.1633
  C  C29  1  0.171200  0.908700  0.732600  1.0  0.6812
  C  C30  1  0.979400  0.835800  0.544200  1.0  0.0197
  C  C31  1  0.925400  0.762000  0.431100  1.0  -0.2289
  C  C32  1  0.925700  0.740500  0.970100  1.0  0.7659
  C  C33  1  0.893000  0.593200  0.911300  1.0  -0.138
  C  C34  1  0.754200  0.481100  0.920300  1.0  -0.0336
  C  C35  1  0.721500  0.343000  0.873000  1.0  -0.0922
  C  C36  1  0.577000  0.227800  0.893700  1.0  0.7372
  C  C37  1  0.825900  0.311400  0.808900  1.0  -0.1619
  C  C38  1  0.956500  0.423900  0.792900  1.0  0.2524
  C  C39  1  0.994400  0.563100  0.845400  1.0  -0.1403
  C  C40  1  0.999400  0.323100  0.611200  1.0  0.2806
  C  C41  1  0.876000  0.342100  0.542200  1.0  -0.25
  C  C42  1  0.822300  0.267700  0.429000  1.0  -0.0079
  C  C43  1  0.894500  0.177000  0.387000  1.0  -0.1636
  C  C44  1  0.828800  0.091300  0.267400  1.0  0.6801
  C  C45  1  0.020600  0.164200  0.455800  1.0  0.0182
  C  C46  1  0.074600  0.238000  0.568900  1.0  -0.2295
  O  O47  1  0.940700  0.164200  0.031100  1.0  -0.758
  O  O48  1  0.177600  0.235200  0.982500  1.0  -0.718
  O  O49  1  0.544900  0.747500  0.118200  1.0  -0.6314
  O  O50  1  0.417900  0.893600  0.078600  1.0  -0.8206
  O  O51  1  0.939200  0.603400  0.274100  1.0  -0.2637
  O  O52  1  0.285400  0.895800  0.796300  1.0  -0.688
  O  O53  1  0.114000  0.998800  0.770700  1.0  -0.6586
  O  O54  1  0.059300  0.835800  0.968900  1.0  -0.7602
  O  O55  1  0.822400  0.764800  0.017500  1.0  -0.7142
  O  O56  1  0.455100  0.252500  0.881800  1.0  -0.6297
  O  O57  1  0.582100  0.106400  0.921400  1.0  -0.8209
  O  O58  1  0.060800  0.396600  0.725900  1.0  -0.2614
  O  O59  1  0.714600  0.104200  0.203700  1.0  -0.6866
  O  O60  1  0.886000  0.001200  0.229300  1.0  -0.6589
