# generated using pymatgen
data_LaH9C15O8
_symmetry_space_group_name_H-M   'P 1'
_cell_length_a   9.48000000
_cell_length_b   9.96800000
_cell_length_c   11.25500000
_cell_angle_alpha   92.32900000
_cell_angle_beta   98.80400000
_cell_angle_gamma   110.79600000
_symmetry_Int_Tables_number   1
_chemical_formula_structural   LaH9C15O8
_chemical_formula_sum   'La2 H18 C30 O16'
_cell_volume   977.34807070
_cell_formula_units_Z   2
loop_
 _symmetry_equiv_pos_site_id
 _symmetry_equiv_pos_as_xyz
  1  'x, y, z'
loop_
 _atom_site_type_symbol
 _atom_site_label
 _atom_site_symmetry_multiplicity
 _atom_site_fract_x
 _atom_site_fract_y
 _atom_site_fract_z
 _atom_site_occupancy
 _atom_site_charge
  La  La1  1  0.716300  0.955610  0.015220  1.0  2.1488
  La  La2  1  0.283700  0.044390  0.984780  1.0  2.1521
  H  H3  1  0.676000  0.505700  0.957800  1.0  0.1165
  H  H4  1  0.802800  0.219500  0.783600  1.0  0.1144
  H  H5  1  0.079800  0.636300  0.841000  1.0  0.1241
  H  H6  1  0.836900  0.412800  0.569600  1.0  0.1279
  H  H7  1  0.749500  0.290700  0.376700  1.0  0.1039
  H  H8  1  0.061200  0.103800  0.434200  1.0  0.0954
  H  H9  1  0.150800  0.225600  0.627100  1.0  0.1279
  H  H10  1  0.768000  0.867000  0.791000  1.0  0.4382
  H  H11  1  0.906000  0.987000  0.796000  1.0  0.4588
  H  H12  1  0.324000  0.494300  0.042200  1.0  0.1169
  H  H13  1  0.197200  0.780500  0.216400  1.0  0.1151
  H  H14  1  0.920200  0.363700  0.159000  1.0  0.1246
  H  H15  1  0.163100  0.587200  0.430400  1.0  0.1279
  H  H16  1  0.250500  0.709300  0.623300  1.0  0.1041
  H  H17  1  0.938800  0.896200  0.565800  1.0  0.0949
  H  H18  1  0.849200  0.774400  0.372900  1.0  0.1275
  H  H19  1  0.232000  0.133000  0.209000  1.0  0.4371
  H  H20  1  0.094000  0.013000  0.204000  1.0  0.4606
  C  C21  1  0.924000  0.743700  0.970500  1.0  0.696
  C  C22  1  0.885200  0.593500  0.912000  1.0  -0.145
  C  C23  1  0.747700  0.484900  0.920200  1.0  -0.0063
  C  C24  1  0.717500  0.344700  0.872100  1.0  -0.0982
  C  C25  1  0.573200  0.227700  0.891200  1.0  0.7337
  C  C26  1  0.820900  0.314000  0.812300  1.0  -0.1576
  C  C27  1  0.951700  0.425300  0.795300  1.0  0.2465
  C  C28  1  0.988000  0.563700  0.848000  1.0  -0.1412
  C  C29  1  0.999400  0.327700  0.617400  1.0  0.2801
  C  C30  1  0.880900  0.350000  0.543000  1.0  -0.2485
  C  C31  1  0.829000  0.276700  0.427700  1.0  0.0023
  C  C32  1  0.894800  0.182500  0.387600  1.0  -0.1747
  C  C33  1  0.831500  0.096400  0.264600  1.0  0.6831
  C  C34  1  0.015500  0.164700  0.461700  1.0  -0.0061
  C  C35  1  0.069200  0.237300  0.577200  1.0  -0.199
  C  C36  1  0.076000  0.256300  0.029500  1.0  0.6903
  C  C37  1  0.114800  0.406500  0.088000  1.0  -0.1455
  C  C38  1  0.252300  0.515100  0.079800  1.0  -0.0104
  C  C39  1  0.282500  0.655300  0.127900  1.0  -0.0969
  C  C40  1  0.426800  0.772300  0.108800  1.0  0.7319
  C  C41  1  0.179100  0.686000  0.187700  1.0  -0.1601
  C  C42  1  0.048300  0.574700  0.204700  1.0  0.2474
  C  C43  1  0.012000  0.436300  0.152000  1.0  -0.1401
  C  C44  1  0.000600  0.672300  0.382600  1.0  0.2797
  C  C45  1  0.119100  0.650000  0.457000  1.0  -0.2451
  C  C46  1  0.171000  0.723300  0.572300  1.0  0.0013
  C  C47  1  0.105200  0.817500  0.612400  1.0  -0.1733
  C  C48  1  0.168500  0.903600  0.735400  1.0  0.6827
  C  C49  1  0.984500  0.835300  0.538300  1.0  -0.0048
  C  C50  1  0.930800  0.762700  0.422800  1.0  -0.1989
  O  O51  1  0.817800  0.766200  0.015700  1.0  -0.727
  O  O52  1  0.051900  0.834900  0.972900  1.0  -0.6909
  O  O53  1  0.450600  0.251600  0.879800  1.0  -0.6397
  O  O54  1  0.576900  0.105700  0.919500  1.0  -0.8107
  O  O55  1  0.056700  0.397500  0.733600  1.0  -0.2575
  O  O56  1  0.721900  0.117600  0.197600  1.0  -0.6727
  O  O57  1  0.886800  0.006800  0.232000  1.0  -0.6509
  O  O58  1  0.811600  0.960100  0.808600  1.0  -0.8673
  O  O59  1  0.182200  0.233800  0.984300  1.0  -0.728
  O  O60  1  0.948100  0.165100  0.027100  1.0  -0.6923
  O  O61  1  0.549400  0.748400  0.120200  1.0  -0.64
  O  O62  1  0.423100  0.894300  0.080500  1.0  -0.8111
  O  O63  1  0.943300  0.602500  0.266400  1.0  -0.2587
  O  O64  1  0.278100  0.882400  0.802400  1.0  -0.6747
  O  O65  1  0.113200  0.993200  0.768000  1.0  -0.6518
  O  O66  1  0.188400  0.039900  0.191400  1.0  -0.8669
