# generated using pymatgen
data_LaH7C15O7
_symmetry_space_group_name_H-M   'P 1'
_cell_length_a   9.40400000
_cell_length_b   9.95700000
_cell_length_c   11.45900000
_cell_angle_alpha   93.38100000
_cell_angle_beta   97.71600000
_cell_angle_gamma   110.24200000
_symmetry_Int_Tables_number   1
_chemical_formula_structural   LaH7C15O7
_chemical_formula_sum   'La2 H14 C30 O14'
_cell_volume   991.15420320
_cell_formula_units_Z   2
loop_
 _symmetry_equiv_pos_site_id
 _symmetry_equiv_pos_as_xyz
  1  'x, y, z'
loop_
 _atom_site_type_symbol
 _atom_site_label
 _atom_site_symmetry_multiplicity
 _atom_site_fract_x
 _atom_site_fract_y
 _atom_site_fract_z
 _atom_site_occupancy
 _atom_site_charge
  La  La1  1  0.784470  0.547260  0.481930  1.0  2.1436
  La  La2  1  0.215530  0.452740  0.518070  1.0  2.1444
  H  H3  1  0.582700  0.133400  0.333400  1.0  0.131
  H  H4  1  0.307900  0.717300  0.278700  1.0  0.128
  H  H5  1  0.185600  0.004100  0.465700  1.0  0.1168
  H  H6  1  0.645600  0.718600  0.118400  1.0  0.1373
  H  H7  1  0.559600  0.602400  0.924100  1.0  0.0998
  H  H8  1  0.239700  0.784800  0.881700  1.0  0.1079
  H  H9  1  0.333500  0.909600  0.072100  1.0  0.125
  H  H10  1  0.417300  0.866600  0.666667  1.0  0.1316
  H  H11  1  0.692100  0.282700  0.721300  1.0  0.128
  H  H12  1  0.814400  0.995900  0.534300  1.0  0.1172
  H  H13  1  0.354400  0.281400  0.881600  1.0  0.1358
  H  H14  1  0.440400  0.397600  0.075900  1.0  0.0999
  H  H15  1  0.760300  0.215200  0.118300  1.0  0.1079
  H  H16  1  0.666500  0.090400  0.927900  1.0  0.1255
  C  C17  1  0.428300  0.243200  0.468800  1.0  0.7675
  C  C18  1  0.390200  0.092400  0.409400  1.0  -0.1388
  C  C19  1  0.492000  0.061400  0.343100  1.0  -0.1501
  C  C20  1  0.455300  0.922300  0.292600  1.0  0.2743
  C  C21  1  0.326900  0.811400  0.310000  1.0  -0.1571
  C  C22  1  0.223800  0.843300  0.376800  1.0  -0.0949
  C  C23  1  0.080400  0.728700  0.396200  1.0  0.7396
  C  C24  1  0.254800  0.982700  0.424000  1.0  -0.0381
  C  C25  1  0.495600  0.822200  0.112300  1.0  0.2883
  C  C26  1  0.564600  0.732000  0.070700  1.0  -0.2188
  C  C27  1  0.510600  0.660000  0.954400  1.0  -0.0031
  C  C28  1  0.386100  0.674600  0.885700  1.0  -0.1678
  C  C29  1  0.322200  0.589900  0.766300  1.0  0.6855
  C  C30  1  0.320500  0.770700  0.929000  1.0  -0.0085
  C  C31  1  0.376300  0.845600  0.043500  1.0  -0.2466
  C  C32  1  0.571700  0.756800  0.531200  1.0  0.7651
  C  C33  1  0.609800  0.907600  0.590600  1.0  -0.1385
  C  C34  1  0.508000  0.938600  0.656900  1.0  -0.1501
  C  C35  1  0.544700  0.077700  0.707400  1.0  0.2743
  C  C36  1  0.673100  0.188600  0.690000  1.0  -0.1573
  C  C37  1  0.776200  0.156700  0.623200  1.0  -0.0944
  C  C38  1  0.919600  0.271300  0.603800  1.0  0.7394
  C  C39  1  0.745200  0.017300  0.576000  1.0  -0.0383
  C  C40  1  0.504400  0.177800  0.887700  1.0  0.2877
  C  C41  1  0.435400  0.268000  0.929300  1.0  -0.2186
  C  C42  1  0.489400  0.340000  0.045600  1.0  -0.0032
  C  C43  1  0.613900  0.325400  0.114300  1.0  -0.1668
  C  C44  1  0.677800  0.410100  0.233700  1.0  0.6864
  C  C45  1  0.679500  0.229300  0.071000  1.0  -0.0029
  C  C46  1  0.623700  0.154400  0.956500  1.0  -0.2447
  O  O47  1  0.556400  0.335600  0.465700  1.0  -0.7531
  O  O48  1  0.324400  0.266100  0.518500  1.0  -0.7364
  O  O49  1  0.959300  0.754800  0.384300  1.0  -0.6329
  O  O50  1  0.083600  0.607600  0.424300  1.0  -0.8221
  O  O51  1  0.558500  0.895500  0.225600  1.0  -0.259
  O  O52  1  0.212100  0.610100  0.702400  1.0  -0.6866
  O  O53  1  0.378800  0.499500  0.732100  1.0  -0.6322
  O  O54  1  0.443600  0.664400  0.534300  1.0  -0.7519
  O  O55  1  0.675600  0.733900  0.481500  1.0  -0.7329
  O  O56  1  0.040700  0.245200  0.615700  1.0  -0.6396
  O  O57  1  0.916400  0.392400  0.575700  1.0  -0.8222
  O  O58  1  0.441500  0.104500  0.774400  1.0  -0.2601
  O  O59  1  0.787900  0.389900  0.297600  1.0  -0.6879
  O  O60  1  0.621200  0.500500  0.267900  1.0  -0.6328
