# generated using pymatgen
data_LaH9C15O8
_symmetry_space_group_name_H-M   'P 1'
_cell_length_a   9.49100000
_cell_length_b   10.05200000
_cell_length_c   11.34400000
_cell_angle_alpha   94.42900000
_cell_angle_beta   97.91400000
_cell_angle_gamma   111.38600000
_symmetry_Int_Tables_number   1
_chemical_formula_structural   LaH9C15O8
_chemical_formula_sum   'La2 H18 C30 O16'
_cell_volume   988.56725482
_cell_formula_units_Z   2
loop_
 _symmetry_equiv_pos_site_id
 _symmetry_equiv_pos_as_xyz
  1  'x, y, z'
loop_
 _atom_site_type_symbol
 _atom_site_label
 _atom_site_symmetry_multiplicity
 _atom_site_fract_x
 _atom_site_fract_y
 _atom_site_fract_z
 _atom_site_occupancy
 _atom_site_charge
  La  La1  1  0.214010  0.454090  0.012940  1.0  2.1198
  La  La2  1  0.785990  0.545910  0.987060  1.0  2.124
  H  H3  1  0.819900  0.996700  0.039300  1.0  0.1073
  H  H4  1  0.688800  0.286800  0.211200  1.0  0.1308
  H  H5  1  0.416400  0.863800  0.157700  1.0  0.1258
  H  H6  1  0.654200  0.088900  0.425400  1.0  0.1267
  H  H7  1  0.744900  0.212000  0.614700  1.0  0.0985
  H  H8  1  0.437900  0.394300  0.572500  1.0  0.0964
  H  H9  1  0.352200  0.285000  0.372900  1.0  0.141
  H  H10  1  0.960000  0.192000  0.870000  1.0  0.4383
  H  H11  1  0.070000  0.260000  0.810000  1.0  0.404
  H  H12  1  0.180100  0.003300  0.960700  1.0  0.1076
  H  H13  1  0.311200  0.713200  0.788800  1.0  0.1308
  H  H14  1  0.583600  0.136200  0.842300  1.0  0.1261
  H  H15  1  0.345800  0.911100  0.574600  1.0  0.127
  H  H16  1  0.255100  0.788000  0.385300  1.0  0.0977
  H  H17  1  0.562100  0.605700  0.427500  1.0  0.0973
  H  H18  1  0.647800  0.715000  0.627100  1.0  0.1414
  H  H19  1  0.040000  0.808000  0.130000  1.0  0.4384
  H  H20  1  0.930000  0.740000  0.190000  1.0  0.4036
  C  C21  1  0.580600  0.758600  0.032000  1.0  0.7441
  C  C22  1  0.612700  0.907800  0.087200  1.0  -0.1441
  C  C23  1  0.748000  0.017600  0.077200  1.0  -0.0432
  C  C24  1  0.777400  0.159700  0.123800  1.0  -0.0927
  C  C25  1  0.923000  0.275800  0.106000  1.0  0.7132
  C  C26  1  0.672100  0.192000  0.182900  1.0  -0.1472
  C  C27  1  0.542900  0.079700  0.198100  1.0  0.2422
  C  C28  1  0.507300  0.937000  0.149300  1.0  -0.131
  C  C29  1  0.495100  0.175800  0.378600  1.0  0.2649
  C  C30  1  0.612500  0.153300  0.453300  1.0  -0.2587
  C  C31  1  0.665400  0.226100  0.566500  1.0  0.0132
  C  C32  1  0.604600  0.320000  0.611900  1.0  -0.1691
  C  C33  1  0.665700  0.402100  0.733900  1.0  0.6838
  C  C34  1  0.484500  0.336300  0.540700  1.0  -0.0114
  C  C35  1  0.429700  0.268500  0.421500  1.0  -0.2253
  C  C36  1  0.419400  0.241400  0.968000  1.0  0.7454
  C  C37  1  0.387300  0.092200  0.912800  1.0  -0.1446
  C  C38  1  0.252000  0.982400  0.922800  1.0  -0.0412
  C  C39  1  0.222600  0.840300  0.876200  1.0  -0.0942
  C  C40  1  0.077000  0.724200  0.894000  1.0  0.7123
  C  C41  1  0.327900  0.808000  0.817100  1.0  -0.1469
  C  C42  1  0.457100  0.920300  0.801900  1.0  0.2418
  C  C43  1  0.492700  0.063000  0.850700  1.0  -0.1316
  C  C44  1  0.504900  0.824200  0.621400  1.0  0.2672
  C  C45  1  0.387500  0.846700  0.546700  1.0  -0.2588
  C  C46  1  0.334600  0.773900  0.433500  1.0  0.0132
  C  C47  1  0.395400  0.680000  0.388100  1.0  -0.169
  C  C48  1  0.334300  0.597900  0.266100  1.0  0.6847
  C  C49  1  0.515500  0.663700  0.459300  1.0  -0.0136
  C  C50  1  0.570300  0.731500  0.578500  1.0  -0.2251
  O  O51  1  0.447000  0.663400  0.027000  1.0  -0.7587
  O  O52  1  0.685300  0.738900  0.992300  1.0  -0.6772
  O  O53  1  0.044700  0.251900  0.113900  1.0  -0.6334
  O  O54  1  0.919200  0.396600  0.078600  1.0  -0.8147
  O  O55  1  0.437900  0.107700  0.261600  1.0  -0.2576
  O  O56  1  0.773100  0.379400  0.799900  1.0  -0.6775
  O  O57  1  0.617400  0.494500  0.772600  1.0  -0.6466
  O  O58  1  0.002900  0.278400  0.848300  1.0  -0.7713
  O  O59  1  0.553000  0.336600  0.973000  1.0  -0.7605
  O  O60  1  0.314700  0.261100  0.007700  1.0  -0.6758
  O  O61  1  0.955300  0.748100  0.886100  1.0  -0.6304
  O  O62  1  0.080800  0.603400  0.921400  1.0  -0.804
  O  O63  1  0.562100  0.892300  0.738400  1.0  -0.2575
  O  O64  1  0.226900  0.620600  0.200100  1.0  -0.6778
  O  O65  1  0.382600  0.505500  0.227400  1.0  -0.6467
  O  O66  1  0.997100  0.721600  0.151700  1.0  -0.7709
