# generated using pymatgen
data_Ni2H76C53(NO)12
_symmetry_space_group_name_H-M   'P 1'
_cell_length_a   37.52600000
_cell_length_b   8.84680000
_cell_length_c   29.72000000
_cell_angle_alpha   90.00000000
_cell_angle_beta   127.61000000
_cell_angle_gamma   90.00000000
_symmetry_Int_Tables_number   1
_chemical_formula_structural   Ni2H76C53(NO)12
_chemical_formula_sum   'Ni8 H304 C212 N48 O48'
_cell_volume   7816.14997856
_cell_formula_units_Z   4
loop_
 _symmetry_equiv_pos_site_id
 _symmetry_equiv_pos_as_xyz
  1  'x, y, z'
loop_
 _atom_site_type_symbol
 _atom_site_label
 _atom_site_symmetry_multiplicity
 _atom_site_fract_x
 _atom_site_fract_y
 _atom_site_fract_z
 _atom_site_occupancy
 _atom_site_charge
  Ni  Ni1  1  0.250000  0.750000  0.000000  1.0  0.4536
  Ni  Ni2  1  0.750000  0.750000  0.500000  1.0  0.4536
  Ni  Ni3  1  0.750000  0.250000  0.000000  1.0  0.4536
  Ni  Ni4  1  0.250000  0.250000  0.500000  1.0  0.4536
  Ni  Ni5  1  0.500000  0.000000  0.000000  1.0  0.4492
  Ni  Ni6  1  0.000000  0.500000  0.000000  1.0  0.4492
  Ni  Ni7  1  0.500000  0.000000  0.500000  1.0  0.4492
  Ni  Ni8  1  0.000000  0.500000  0.500000  1.0  0.4492
  H  H9  1  0.279600  0.679700  0.945400  1.0  0.2153
  H  H10  1  0.219800  0.482000  0.968800  1.0  0.1004
  H  H11  1  0.197600  0.827400  0.869900  1.0  0.0952
  H  H12  1  0.224700  0.741200  0.853600  1.0  0.0851
  H  H13  1  0.150700  0.509900  0.882300  1.0  0.0796
  H  H14  1  0.153700  0.685900  0.889400  1.0  0.0873
  H  H15  1  0.260400  0.989200  0.932200  1.0  0.0875
  H  H16  1  0.295100  0.906200  0.927400  1.0  0.0767
  H  H17  1  0.166300  0.477400  0.981700  1.0  0.0813
  H  H18  1  0.159500  0.653700  0.974700  1.0  0.0789
  H  H19  1  0.240800  0.447400  0.914000  1.0  0.1069
  H  H20  1  0.226300  0.474900  0.852800  1.0  0.1168
  H  H21  1  0.195200  0.381100  0.861000  1.0  0.1282
  H  H22  1  0.582900  0.056800  0.073600  1.0  0.0961
  H  H23  1  0.507400  0.242900  0.960800  1.0  0.0993
  H  H24  1  0.441200  0.063300  0.869800  1.0  0.0846
  H  H25  1  0.444900  0.240500  0.871000  1.0  0.0819
  H  H26  1  0.518500  0.998200  0.910300  1.0  0.0944
  H  H27  1  0.526500  0.167900  0.903900  1.0  0.0878
  H  H28  1  0.610200  0.835300  0.118000  1.0  0.0782
  H  H29  1  0.571500  0.743500  0.064600  1.0  0.0845
  H  H30  1  0.619100  0.946100  0.042200  1.0  0.0937
  H  H31  1  0.574900  0.863200  0.993400  1.0  0.0935
  H  H32  1  0.582400  0.266100  0.021800  1.0  0.1161
  H  H33  1  0.593800  0.293300  0.979700  1.0  0.1305
  H  H34  1  0.628000  0.207200  0.037000  1.0  0.115
  H  H35  1  0.545100  0.839400  0.232200  1.0  0.0788
  H  H36  1  0.548200  0.714800  0.272500  1.0  0.0696
  H  H37  1  0.486800  0.034600  0.189400  1.0  0.0718
  H  H38  1  0.448000  0.915200  0.164800  1.0  0.0649
  H  H39  1  0.377800  0.305400  0.040600  1.0  0.1062
  H  H40  1  0.593400  0.416800  0.187700  1.0  0.1067
  H  H41  1  0.577300  0.594500  0.230600  1.0  0.1278
  H  H42  1  0.426500  0.126400  0.107100  1.0  0.1109
  H  H43  1  0.399000  0.276700  0.210900  1.0  0.1192
  H  H44  1  0.349000  0.448800  0.143100  1.0  0.102
  H  H45  1  0.462000  0.364300  0.061500  1.0  0.1021
  H  H46  1  0.445100  0.536800  0.103600  1.0  0.1201
  H  H47  1  0.779600  0.179700  0.945400  1.0  0.2153
  H  H48  1  0.719800  0.982000  0.968800  1.0  0.1004
  H  H49  1  0.697600  0.327400  0.869900  1.0  0.0952
  H  H50  1  0.724700  0.241200  0.853600  1.0  0.0851
  H  H51  1  0.650700  0.009900  0.882300  1.0  0.0796
  H  H52  1  0.653700  0.185900  0.889400  1.0  0.0873
  H  H53  1  0.760400  0.489200  0.932200  1.0  0.0875
  H  H54  1  0.795100  0.406200  0.927400  1.0  0.0767
  H  H55  1  0.666300  0.977400  0.981700  1.0  0.0813
  H  H56  1  0.659500  0.153700  0.974700  1.0  0.0789
  H  H57  1  0.740800  0.947400  0.914000  1.0  0.1069
  H  H58  1  0.726300  0.974900  0.852800  1.0  0.1168
  H  H59  1  0.695200  0.881100  0.861000  1.0  0.1282
  H  H60  1  0.082900  0.556800  0.073600  1.0  0.0961
  H  H61  1  0.007400  0.742900  0.960800  1.0  0.0993
  H  H62  1  0.941200  0.563300  0.869800  1.0  0.0846
  H  H63  1  0.944900  0.740500  0.871000  1.0  0.0819
  H  H64  1  0.018500  0.498200  0.910300  1.0  0.0944
  H  H65  1  0.026500  0.667900  0.903900  1.0  0.0878
  H  H66  1  0.110200  0.335300  0.118000  1.0  0.0782
  H  H67  1  0.071500  0.243500  0.064600  1.0  0.0845
  H  H68  1  0.119100  0.446100  0.042200  1.0  0.0937
  H  H69  1  0.074900  0.363200  0.993400  1.0  0.0935
  H  H70  1  0.082400  0.766100  0.021800  1.0  0.1161
  H  H71  1  0.093800  0.793300  0.979700  1.0  0.1305
  H  H72  1  0.128000  0.707200  0.037000  1.0  0.1143
  H  H73  1  0.045100  0.339400  0.232200  1.0  0.0788
  H  H74  1  0.048200  0.214800  0.272500  1.0  0.0696
  H  H75  1  0.986800  0.534600  0.189400  1.0  0.0718
  H  H76  1  0.948000  0.415200  0.164800  1.0  0.0649
  H  H77  1  0.877800  0.805400  0.040600  1.0  0.1062
  H  H78  1  0.093400  0.916800  0.187700  1.0  0.1067
  H  H79  1  0.077300  0.094500  0.230600  1.0  0.1278
  H  H80  1  0.926500  0.626400  0.107100  1.0  0.1109
  H  H81  1  0.899000  0.776700  0.210900  1.0  0.1192
  H  H82  1  0.849000  0.948800  0.143100  1.0  0.102
  H  H83  1  0.962000  0.864300  0.061500  1.0  0.1021
  H  H84  1  0.945100  0.036800  0.103600  1.0  0.1201
  H  H85  1  0.720400  0.679700  0.554600  1.0  0.2139
  H  H86  1  0.780200  0.482000  0.531200  1.0  0.1
  H  H87  1  0.802400  0.827400  0.630100  1.0  0.0926
  H  H88  1  0.775300  0.741200  0.646400  1.0  0.0853
  H  H89  1  0.849300  0.509900  0.617700  1.0  0.0807
  H  H90  1  0.846300  0.685900  0.610600  1.0  0.0867
  H  H91  1  0.739600  0.989200  0.567800  1.0  0.0856
  H  H92  1  0.704900  0.906200  0.572600  1.0  0.077
  H  H93  1  0.833700  0.477400  0.518300  1.0  0.0809
  H  H94  1  0.840500  0.653700  0.525300  1.0  0.0779
  H  H95  1  0.759200  0.447400  0.586000  1.0  0.1057
  H  H96  1  0.773700  0.474900  0.647200  1.0  0.1157
  H  H97  1  0.804800  0.381100  0.639000  1.0  0.1283
  H  H98  1  0.417100  0.056800  0.426400  1.0  0.0974
  H  H99  1  0.492600  0.242900  0.539200  1.0  0.1006
  H  H100  1  0.558800  0.063300  0.630200  1.0  0.0848
  H  H101  1  0.555100  0.240500  0.629000  1.0  0.0801
  H  H102  1  0.481500  0.998200  0.589700  1.0  0.0947
  H  H103  1  0.473500  0.167900  0.596100  1.0  0.0873
  H  H104  1  0.389800  0.835300  0.382000  1.0  0.0763
  H  H105  1  0.428500  0.743500  0.435400  1.0  0.0856
  H  H106  1  0.380900  0.946100  0.457800  1.0  0.0923
  H  H107  1  0.425100  0.863200  0.506600  1.0  0.095
  H  H108  1  0.417600  0.266100  0.478200  1.0  0.1163
  H  H109  1  0.406200  0.293300  0.520300  1.0  0.13
  H  H110  1  0.372000  0.207200  0.463000  1.0  0.1152
  H  H111  1  0.454900  0.839400  0.267800  1.0  0.0781
  H  H112  1  0.451800  0.714800  0.227500  1.0  0.0698
  H  H113  1  0.513200  0.034600  0.310600  1.0  0.0708
  H  H114  1  0.552000  0.915200  0.335200  1.0  0.0646
  H  H115  1  0.622200  0.305400  0.459400  1.0  0.106
  H  H116  1  0.406600  0.416800  0.312300  1.0  0.1075
  H  H117  1  0.422700  0.594500  0.269400  1.0  0.1278
  H  H118  1  0.573500  0.126400  0.392900  1.0  0.1115
  H  H119  1  0.601000  0.276700  0.289100  1.0  0.1184
  H  H120  1  0.651000  0.448800  0.356900  1.0  0.1018
  H  H121  1  0.538000  0.364300  0.438500  1.0  0.102
  H  H122  1  0.554900  0.536800  0.396400  1.0  0.1193
  H  H123  1  0.220400  0.179700  0.554600  1.0  0.2139
  H  H124  1  0.280200  0.982000  0.531200  1.0  0.1
  H  H125  1  0.302400  0.327400  0.630100  1.0  0.0926
  H  H126  1  0.275300  0.241200  0.646400  1.0  0.0853
  H  H127  1  0.349300  0.009900  0.617700  1.0  0.0807
  H  H128  1  0.346300  0.185900  0.610600  1.0  0.0867
  H  H129  1  0.239600  0.489200  0.567800  1.0  0.0856
  H  H130  1  0.204900  0.406200  0.572600  1.0  0.077
  H  H131  1  0.333700  0.977400  0.518300  1.0  0.0809
  H  H132  1  0.340500  0.153700  0.525300  1.0  0.0779
  H  H133  1  0.259200  0.947400  0.586000  1.0  0.1057
  H  H134  1  0.273700  0.974900  0.647200  1.0  0.1157
  H  H135  1  0.304800  0.881100  0.639000  1.0  0.1283
  H  H136  1  0.917100  0.556800  0.426400  1.0  0.0974
  H  H137  1  0.992600  0.742900  0.539200  1.0  0.1006
  H  H138  1  0.058800  0.563300  0.630200  1.0  0.0848
  H  H139  1  0.055100  0.740500  0.629000  1.0  0.0801
  H  H140  1  0.981500  0.498200  0.589700  1.0  0.0947
  H  H141  1  0.973500  0.667900  0.596100  1.0  0.0873
  H  H142  1  0.889800  0.335300  0.382000  1.0  0.0763
  H  H143  1  0.928500  0.243500  0.435400  1.0  0.0856
  H  H144  1  0.880900  0.446100  0.457800  1.0  0.0923
  H  H145  1  0.925100  0.363200  0.506600  1.0  0.095
  H  H146  1  0.917600  0.766100  0.478200  1.0  0.1163
  H  H147  1  0.906200  0.793300  0.520300  1.0  0.13
  H  H148  1  0.872000  0.707200  0.463000  1.0  0.1145
  H  H149  1  0.954900  0.339400  0.267800  1.0  0.0781
  H  H150  1  0.951800  0.214800  0.227500  1.0  0.0698
  H  H151  1  0.013200  0.534600  0.310600  1.0  0.0708
  H  H152  1  0.052000  0.415200  0.335200  1.0  0.0646
  H  H153  1  0.122200  0.805400  0.459400  1.0  0.106
  H  H154  1  0.906600  0.916800  0.312300  1.0  0.1075
  H  H155  1  0.922700  0.094500  0.269400  1.0  0.1278
  H  H156  1  0.073500  0.626400  0.392900  1.0  0.1115
  H  H157  1  0.101000  0.776700  0.289100  1.0  0.1184
  H  H158  1  0.151000  0.948800  0.356900  1.0  0.1018
  H  H159  1  0.038000  0.864300  0.438500  1.0  0.102
  H  H160  1  0.054900  0.036800  0.396400  1.0  0.1193
  H  H161  1  0.720400  0.320300  0.054600  1.0  0.2134
  H  H162  1  0.780200  0.518000  0.031200  1.0  0.1021
  H  H163  1  0.802400  0.172600  0.130100  1.0  0.0939
  H  H164  1  0.775300  0.258800  0.146400  1.0  0.0855
  H  H165  1  0.849300  0.490100  0.117700  1.0  0.0803
  H  H166  1  0.846300  0.314100  0.110600  1.0  0.0877
  H  H167  1  0.739600  0.010800  0.067800  1.0  0.087
  H  H168  1  0.704900  0.093800  0.072600  1.0  0.0771
  H  H169  1  0.833700  0.522600  0.018300  1.0  0.0811
  H  H170  1  0.840500  0.346300  0.025300  1.0  0.078
  H  H171  1  0.759200  0.552600  0.086000  1.0  0.1053
  H  H172  1  0.773700  0.525100  0.147200  1.0  0.1158
  H  H173  1  0.804800  0.618900  0.139000  1.0  0.1266
  H  H174  1  0.417100  0.943200  0.926400  1.0  0.0965
  H  H175  1  0.492600  0.757100  0.039200  1.0  0.0987
  H  H176  1  0.558800  0.936700  0.130200  1.0  0.0837
  H  H177  1  0.555100  0.759500  0.129000  1.0  0.0815
  H  H178  1  0.481500  0.001800  0.089700  1.0  0.0941
  H  H179  1  0.473500  0.832100  0.096100  1.0  0.0873
  H  H180  1  0.389800  0.164700  0.882000  1.0  0.077
  H  H181  1  0.428500  0.256500  0.935400  1.0  0.0844
  H  H182  1  0.380900  0.053900  0.957800  1.0  0.0928
  H  H183  1  0.425100  0.136800  0.006600  1.0  0.0935
  H  H184  1  0.417600  0.733900  0.978200  1.0  0.1155
  H  H185  1  0.406200  0.706700  0.020300  1.0  0.1308
  H  H186  1  0.372000  0.792800  0.963000  1.0  0.1149
  H  H187  1  0.454900  0.160600  0.767800  1.0  0.0785
  H  H188  1  0.451800  0.285200  0.727500  1.0  0.0702
  H  H189  1  0.513200  0.965400  0.810600  1.0  0.0717
  H  H190  1  0.552000  0.084800  0.835200  1.0  0.0643
  H  H191  1  0.622200  0.694600  0.959400  1.0  0.1062
  H  H192  1  0.406600  0.583200  0.812300  1.0  0.107
  H  H193  1  0.422700  0.405500  0.769400  1.0  0.1279
  H  H194  1  0.573500  0.873600  0.892900  1.0  0.1119
  H  H195  1  0.601000  0.723300  0.789100  1.0  0.1184
  H  H196  1  0.651000  0.551200  0.856900  1.0  0.102
  H  H197  1  0.538000  0.635700  0.938500  1.0  0.1022
  H  H198  1  0.554900  0.463200  0.896400  1.0  0.119
  H  H199  1  0.220400  0.820300  0.054600  1.0  0.2134
  H  H200  1  0.280200  0.018000  0.031200  1.0  0.1021
  H  H201  1  0.302400  0.672600  0.130100  1.0  0.0939
  H  H202  1  0.275300  0.758800  0.146400  1.0  0.0855
  H  H203  1  0.349300  0.990100  0.117700  1.0  0.0803
  H  H204  1  0.346300  0.814100  0.110600  1.0  0.0877
  H  H205  1  0.239600  0.510800  0.067800  1.0  0.087
  H  H206  1  0.204900  0.593800  0.072600  1.0  0.0771
  H  H207  1  0.333700  0.022600  0.018300  1.0  0.0811
  H  H208  1  0.340500  0.846300  0.025300  1.0  0.078
  H  H209  1  0.259200  0.052600  0.086000  1.0  0.1053
  H  H210  1  0.273700  0.025100  0.147200  1.0  0.1158
  H  H211  1  0.304800  0.118900  0.139000  1.0  0.1266
  H  H212  1  0.917100  0.443200  0.926400  1.0  0.0965
  H  H213  1  0.992600  0.257100  0.039200  1.0  0.0987
  H  H214  1  0.058800  0.436700  0.130200  1.0  0.0837
  H  H215  1  0.055100  0.259500  0.129000  1.0  0.0815
  H  H216  1  0.981500  0.501800  0.089700  1.0  0.0941
  H  H217  1  0.973500  0.332100  0.096100  1.0  0.0873
  H  H218  1  0.889800  0.664700  0.882000  1.0  0.077
  H  H219  1  0.928500  0.756500  0.935400  1.0  0.0844
  H  H220  1  0.880900  0.553900  0.957800  1.0  0.0928
  H  H221  1  0.925100  0.636800  0.006600  1.0  0.0935
  H  H222  1  0.917600  0.233900  0.978200  1.0  0.1155
  H  H223  1  0.906200  0.206700  0.020300  1.0  0.1308
  H  H224  1  0.872000  0.292800  0.963000  1.0  0.1149
  H  H225  1  0.954900  0.660600  0.767800  1.0  0.0785
  H  H226  1  0.951800  0.785200  0.727500  1.0  0.0702
  H  H227  1  0.013200  0.465400  0.810600  1.0  0.0717
  H  H228  1  0.052000  0.584800  0.835200  1.0  0.0643
  H  H229  1  0.122200  0.194600  0.959400  1.0  0.1062
  H  H230  1  0.906600  0.083200  0.812300  1.0  0.107
  H  H231  1  0.922700  0.905500  0.769400  1.0  0.1279
  H  H232  1  0.073500  0.373600  0.892900  1.0  0.1119
  H  H233  1  0.101000  0.223300  0.789100  1.0  0.1184
  H  H234  1  0.151000  0.051200  0.856900  1.0  0.102
  H  H235  1  0.038000  0.135700  0.938500  1.0  0.1022
  H  H236  1  0.054900  0.963200  0.896400  1.0  0.119
  H  H237  1  0.279600  0.320300  0.445400  1.0  0.2164
  H  H238  1  0.219800  0.518000  0.468800  1.0  0.1008
  H  H239  1  0.197600  0.172600  0.369900  1.0  0.0941
  H  H240  1  0.224700  0.258800  0.353600  1.0  0.0849
  H  H241  1  0.150700  0.490100  0.382300  1.0  0.0808
  H  H242  1  0.153700  0.314100  0.389400  1.0  0.0883
  H  H243  1  0.260400  0.010800  0.432200  1.0  0.0853
  H  H244  1  0.295100  0.093800  0.427400  1.0  0.0765
  H  H245  1  0.166300  0.522600  0.481700  1.0  0.0801
  H  H246  1  0.159500  0.346300  0.474700  1.0  0.079
  H  H247  1  0.240800  0.552600  0.414000  1.0  0.1081
  H  H248  1  0.226300  0.525100  0.352800  1.0  0.1164
  H  H249  1  0.195200  0.618900  0.361000  1.0  0.1281
  H  H250  1  0.582900  0.943200  0.573600  1.0  0.0964
  H  H251  1  0.507400  0.757100  0.460800  1.0  0.099
  H  H252  1  0.441200  0.936700  0.369800  1.0  0.085
  H  H253  1  0.444900  0.759500  0.371000  1.0  0.081
  H  H254  1  0.518500  0.001800  0.410300  1.0  0.0956
  H  H255  1  0.526500  0.832100  0.403900  1.0  0.0877
  H  H256  1  0.610200  0.164700  0.618000  1.0  0.079
  H  H257  1  0.571500  0.256500  0.564600  1.0  0.0825
  H  H258  1  0.619100  0.053900  0.542200  1.0  0.0937
  H  H259  1  0.574900  0.136800  0.493400  1.0  0.0927
  H  H260  1  0.582400  0.733900  0.521800  1.0  0.1174
  H  H261  1  0.593800  0.706700  0.479700  1.0  0.1305
  H  H262  1  0.628000  0.792800  0.537000  1.0  0.1155
  H  H263  1  0.545100  0.160600  0.732200  1.0  0.0789
  H  H264  1  0.548200  0.285200  0.772500  1.0  0.0691
  H  H265  1  0.486800  0.965400  0.689400  1.0  0.0715
  H  H266  1  0.448000  0.084800  0.664800  1.0  0.0653
  H  H267  1  0.377800  0.694600  0.540600  1.0  0.1061
  H  H268  1  0.593400  0.583200  0.687700  1.0  0.1068
  H  H269  1  0.577300  0.405500  0.730600  1.0  0.1276
  H  H270  1  0.426500  0.873600  0.607100  1.0  0.1108
  H  H271  1  0.399000  0.723300  0.710900  1.0  0.1192
  H  H272  1  0.349000  0.551200  0.643100  1.0  0.1023
  H  H273  1  0.462000  0.635700  0.561500  1.0  0.102
  H  H274  1  0.445100  0.463200  0.603600  1.0  0.12
  H  H275  1  0.779600  0.820300  0.445400  1.0  0.2164
  H  H276  1  0.719800  0.018000  0.468800  1.0  0.1008
  H  H277  1  0.697600  0.672600  0.369900  1.0  0.0941
  H  H278  1  0.724700  0.758800  0.353600  1.0  0.0849
  H  H279  1  0.650700  0.990100  0.382300  1.0  0.0808
  H  H280  1  0.653700  0.814100  0.389400  1.0  0.0883
  H  H281  1  0.760400  0.510800  0.432200  1.0  0.0853
  H  H282  1  0.795100  0.593800  0.427400  1.0  0.0765
  H  H283  1  0.666300  0.022600  0.481700  1.0  0.0801
  H  H284  1  0.659500  0.846300  0.474700  1.0  0.079
  H  H285  1  0.740800  0.052600  0.414000  1.0  0.1081
  H  H286  1  0.726300  0.025100  0.352800  1.0  0.1164
  H  H287  1  0.695200  0.118900  0.361000  1.0  0.1281
  H  H288  1  0.082900  0.443200  0.573600  1.0  0.0964
  H  H289  1  0.007400  0.257100  0.460800  1.0  0.099
  H  H290  1  0.941200  0.436700  0.369800  1.0  0.085
  H  H291  1  0.944900  0.259500  0.371000  1.0  0.081
  H  H292  1  0.018500  0.501800  0.410300  1.0  0.0956
  H  H293  1  0.026500  0.332100  0.403900  1.0  0.0877
  H  H294  1  0.110200  0.664700  0.618000  1.0  0.079
  H  H295  1  0.071500  0.756500  0.564600  1.0  0.0825
  H  H296  1  0.119100  0.553900  0.542200  1.0  0.0937
  H  H297  1  0.074900  0.636800  0.493400  1.0  0.0927
  H  H298  1  0.082400  0.233900  0.521800  1.0  0.1174
  H  H299  1  0.093800  0.206700  0.479700  1.0  0.1305
  H  H300  1  0.128000  0.292800  0.537000  1.0  0.1155
  H  H301  1  0.045100  0.660600  0.732200  1.0  0.0789
  H  H302  1  0.048200  0.785200  0.772500  1.0  0.0691
  H  H303  1  0.986800  0.465400  0.689400  1.0  0.0715
  H  H304  1  0.948000  0.584800  0.664800  1.0  0.0653
  H  H305  1  0.877800  0.194600  0.540600  1.0  0.1061
  H  H306  1  0.093400  0.083200  0.687700  1.0  0.1068
  H  H307  1  0.077300  0.905500  0.730600  1.0  0.1276
  H  H308  1  0.926500  0.373600  0.607100  1.0  0.1108
  H  H309  1  0.899000  0.223300  0.710900  1.0  0.1192
  H  H310  1  0.849000  0.051200  0.643100  1.0  0.1023
  H  H311  1  0.962000  0.135700  0.561500  1.0  0.102
  H  H312  1  0.945100  0.963200  0.603600  1.0  0.12
  C  C313  1  0.217100  0.741300  0.879460  1.0  0.0993
  C  C314  1  0.171290  0.595000  0.898030  1.0  0.1051
  C  C315  1  0.281850  0.906700  0.947000  1.0  0.0006
  C  C316  1  0.181540  0.573200  0.989200  1.0  -0.0073
  C  C317  1  0.215690  0.464800  0.875000  1.0  -0.1838
  C  C318  1  0.449760  0.152300  0.893480  1.0  -0.0204
  C  C319  1  0.528730  0.094700  0.929800  1.0  0.0757
  C  C320  1  0.578490  0.836500  0.085780  1.0  -0.0209
  C  C321  1  0.586570  0.955100  0.015800  1.0  0.077
  C  C322  1  0.596700  0.224100  0.006700  1.0  -0.1681
  C  C323  1  0.527780  0.778400  0.239710  1.0  0.0527
  C  C324  1  0.529630  0.372900  0.119820  1.0  -0.1394
  C  C325  1  0.469140  0.978100  0.197410  1.0  0.0691
  C  C326  1  0.417710  0.183900  0.166210  1.0  0.2278
  C  C327  1  0.381740  0.298900  0.074640  1.0  -0.0822
  C  C328  1  0.357930  0.396800  0.084100  1.0  -0.1399
  C  C329  1  0.563570  0.442000  0.170670  1.0  -0.0151
  C  C330  1  0.509530  0.583300  0.171380  1.0  0.2768
  C  C331  1  0.554140  0.548200  0.196840  1.0  -0.1977
  C  C332  1  0.411260  0.191800  0.114550  1.0  -0.2481
  C  C333  1  0.540240  0.260400  0.091200  1.0  0.6515
  C  C334  1  0.394520  0.281400  0.176490  1.0  -0.222
  C  C335  1  0.364790  0.385300  0.135950  1.0  -0.0182
  C  C336  1  0.485180  0.410100  0.095380  1.0  -0.0334
  C  C337  1  0.325960  0.511200  0.039720  1.0  0.6464
  C  C338  1  0.474990  0.513300  0.120400  1.0  -0.2182
  C  C339  1  0.717100  0.241300  0.879460  1.0  0.0993
  C  C340  1  0.671290  0.095000  0.898030  1.0  0.1051
  C  C341  1  0.781850  0.406700  0.947000  1.0  0.0006
  C  C342  1  0.681540  0.073200  0.989200  1.0  -0.0073
  C  C343  1  0.715690  0.964800  0.875000  1.0  -0.1838
  C  C344  1  0.949760  0.652300  0.893480  1.0  -0.0204
  C  C345  1  0.028730  0.594700  0.929800  1.0  0.0757
  C  C346  1  0.078490  0.336500  0.085780  1.0  -0.0209
  C  C347  1  0.086570  0.455100  0.015800  1.0  0.077
  C  C348  1  0.096700  0.724100  0.006700  1.0  -0.1681
  C  C349  1  0.027780  0.278400  0.239710  1.0  0.0527
  C  C350  1  0.029630  0.872900  0.119820  1.0  -0.1394
  C  C351  1  0.969140  0.478100  0.197410  1.0  0.0691
  C  C352  1  0.917710  0.683900  0.166210  1.0  0.2278
  C  C353  1  0.881740  0.798900  0.074640  1.0  -0.0822
  C  C354  1  0.857930  0.896800  0.084100  1.0  -0.1399
  C  C355  1  0.063570  0.942000  0.170670  1.0  -0.0151
  C  C356  1  0.009530  0.083300  0.171380  1.0  0.2768
  C  C357  1  0.054140  0.048200  0.196840  1.0  -0.1977
  C  C358  1  0.911260  0.691800  0.114550  1.0  -0.2481
  C  C359  1  0.040240  0.760400  0.091200  1.0  0.6515
  C  C360  1  0.894520  0.781400  0.176490  1.0  -0.222
  C  C361  1  0.864790  0.885300  0.135950  1.0  -0.0182
  C  C362  1  0.985180  0.910100  0.095380  1.0  -0.0334
  C  C363  1  0.825960  0.011200  0.039720  1.0  0.6464
  C  C364  1  0.974990  0.013300  0.120400  1.0  -0.2182
  C  C365  1  0.782900  0.741300  0.620540  1.0  0.0989
  C  C366  1  0.828710  0.595000  0.601970  1.0  0.1039
  C  C367  1  0.718150  0.906700  0.553000  1.0  -0.0007
  C  C368  1  0.818460  0.573200  0.510800  1.0  -0.0078
  C  C369  1  0.784310  0.464800  0.625000  1.0  -0.1823
  C  C370  1  0.550240  0.152300  0.606520  1.0  -0.0181
  C  C371  1  0.471270  0.094700  0.570200  1.0  0.0751
  C  C372  1  0.421510  0.836500  0.414220  1.0  -0.0199
  C  C373  1  0.413430  0.955100  0.484200  1.0  0.0758
  C  C374  1  0.403300  0.224100  0.493300  1.0  -0.1691
  C  C375  1  0.472220  0.778400  0.260290  1.0  0.0531
  C  C376  1  0.470370  0.372900  0.380180  1.0  -0.1372
  C  C377  1  0.530860  0.978100  0.302590  1.0  0.0682
  C  C378  1  0.582290  0.183900  0.333790  1.0  0.2289
  C  C379  1  0.618260  0.298900  0.425360  1.0  -0.0836
  C  C380  1  0.642070  0.396800  0.415900  1.0  -0.1399
  C  C381  1  0.436430  0.442000  0.329330  1.0  -0.0164
  C  C382  1  0.490470  0.583300  0.328620  1.0  0.2765
  C  C383  1  0.445860  0.548200  0.303160  1.0  -0.1986
  C  C384  1  0.588740  0.191800  0.385450  1.0  -0.2482
  C  C385  1  0.459760  0.260400  0.408800  1.0  0.6523
  C  C386  1  0.605480  0.281400  0.323510  1.0  -0.2236
  C  C387  1  0.635210  0.385300  0.364050  1.0  -0.0193
  C  C388  1  0.514820  0.410100  0.404620  1.0  -0.0341
  C  C389  1  0.674040  0.511200  0.460280  1.0  0.6462
  C  C390  1  0.525010  0.513300  0.379600  1.0  -0.2182
  C  C391  1  0.282900  0.241300  0.620540  1.0  0.0989
  C  C392  1  0.328710  0.095000  0.601970  1.0  0.1039
  C  C393  1  0.218150  0.406700  0.553000  1.0  -0.0007
  C  C394  1  0.318460  0.073200  0.510800  1.0  -0.0078
  C  C395  1  0.284310  0.964800  0.625000  1.0  -0.1823
  C  C396  1  0.050240  0.652300  0.606520  1.0  -0.0181
  C  C397  1  0.971270  0.594700  0.570200  1.0  0.0751
  C  C398  1  0.921510  0.336500  0.414220  1.0  -0.0199
  C  C399  1  0.913430  0.455100  0.484200  1.0  0.0758
  C  C400  1  0.903300  0.724100  0.493300  1.0  -0.1691
  C  C401  1  0.972220  0.278400  0.260290  1.0  0.0531
  C  C402  1  0.970370  0.872900  0.380180  1.0  -0.1372
  C  C403  1  0.030860  0.478100  0.302590  1.0  0.0682
  C  C404  1  0.082290  0.683900  0.333790  1.0  0.2289
  C  C405  1  0.118260  0.798900  0.425360  1.0  -0.0836
  C  C406  1  0.142070  0.896800  0.415900  1.0  -0.1399
  C  C407  1  0.936430  0.942000  0.329330  1.0  -0.0164
  C  C408  1  0.990470  0.083300  0.328620  1.0  0.2765
  C  C409  1  0.945860  0.048200  0.303160  1.0  -0.1986
  C  C410  1  0.088740  0.691800  0.385450  1.0  -0.2482
  C  C411  1  0.959760  0.760400  0.408800  1.0  0.6523
  C  C412  1  0.105480  0.781400  0.323510  1.0  -0.2236
  C  C413  1  0.135210  0.885300  0.364050  1.0  -0.0193
  C  C414  1  0.014820  0.910100  0.404620  1.0  -0.0341
  C  C415  1  0.174040  0.011200  0.460280  1.0  0.6462
  C  C416  1  0.025010  0.013300  0.379600  1.0  -0.2182
  C  C417  1  0.782900  0.258700  0.120540  1.0  0.0987
  C  C418  1  0.828710  0.405000  0.101970  1.0  0.1039
  C  C419  1  0.718150  0.093300  0.053000  1.0  -0.0005
  C  C420  1  0.818460  0.426800  0.010800  1.0  -0.0062
  C  C421  1  0.784310  0.535200  0.125000  1.0  -0.1847
  C  C422  1  0.550240  0.847700  0.106520  1.0  -0.0186
  C  C423  1  0.471270  0.905300  0.070200  1.0  0.0754
  C  C424  1  0.421510  0.163500  0.914220  1.0  -0.0207
  C  C425  1  0.413430  0.044900  0.984200  1.0  0.0744
  C  C426  1  0.403300  0.775900  0.993300  1.0  -0.1692
  C  C427  1  0.472220  0.221600  0.760290  1.0  0.0526
  C  C428  1  0.470370  0.627100  0.880180  1.0  -0.1364
  C  C429  1  0.530860  0.021900  0.802590  1.0  0.0689
  C  C430  1  0.582290  0.816100  0.833790  1.0  0.2284
  C  C431  1  0.618260  0.701100  0.925360  1.0  -0.0839
  C  C432  1  0.642070  0.603200  0.915900  1.0  -0.1398
  C  C433  1  0.436430  0.558000  0.829330  1.0  -0.0171
  C  C434  1  0.490470  0.416700  0.828620  1.0  0.2769
  C  C435  1  0.445860  0.451800  0.803160  1.0  -0.1994
  C  C436  1  0.588740  0.808200  0.885450  1.0  -0.2482
  C  C437  1  0.459760  0.739600  0.908800  1.0  0.6521
  C  C438  1  0.605480  0.718600  0.823510  1.0  -0.2225
  C  C439  1  0.635210  0.614700  0.864050  1.0  -0.0191
  C  C440  1  0.514820  0.589900  0.904620  1.0  -0.034
  C  C441  1  0.674040  0.488800  0.960280  1.0  0.6473
  C  C442  1  0.525010  0.486700  0.879600  1.0  -0.2177
  C  C443  1  0.282900  0.758700  0.120540  1.0  0.0987
  C  C444  1  0.328710  0.905000  0.101970  1.0  0.1039
  C  C445  1  0.218150  0.593300  0.053000  1.0  -0.0005
  C  C446  1  0.318460  0.926800  0.010800  1.0  -0.0062
  C  C447  1  0.284310  0.035200  0.125000  1.0  -0.1847
  C  C448  1  0.050240  0.347700  0.106520  1.0  -0.0186
  C  C449  1  0.971270  0.405300  0.070200  1.0  0.0754
  C  C450  1  0.921510  0.663500  0.914220  1.0  -0.0207
  C  C451  1  0.913430  0.544900  0.984200  1.0  0.0744
  C  C452  1  0.903300  0.275900  0.993300  1.0  -0.1692
  C  C453  1  0.972220  0.721600  0.760290  1.0  0.0526
  C  C454  1  0.970370  0.127100  0.880180  1.0  -0.1364
  C  C455  1  0.030860  0.521900  0.802590  1.0  0.0689
  C  C456  1  0.082290  0.316100  0.833790  1.0  0.2284
  C  C457  1  0.118260  0.201100  0.925360  1.0  -0.0839
  C  C458  1  0.142070  0.103200  0.915900  1.0  -0.1398
  C  C459  1  0.936430  0.058000  0.829330  1.0  -0.0171
  C  C460  1  0.990470  0.916700  0.828620  1.0  0.2769
  C  C461  1  0.945860  0.951800  0.803160  1.0  -0.1994
  C  C462  1  0.088740  0.308200  0.885450  1.0  -0.2482
  C  C463  1  0.959760  0.239600  0.908800  1.0  0.6521
  C  C464  1  0.105480  0.218600  0.823510  1.0  -0.2225
  C  C465  1  0.135210  0.114700  0.864050  1.0  -0.0191
  C  C466  1  0.014820  0.089900  0.904620  1.0  -0.034
  C  C467  1  0.174040  0.988800  0.960280  1.0  0.6473
  C  C468  1  0.025010  0.986700  0.879600  1.0  -0.2177
  C  C469  1  0.217100  0.258700  0.379460  1.0  0.0986
  C  C470  1  0.171290  0.405000  0.398030  1.0  0.1057
  C  C471  1  0.281850  0.093300  0.447000  1.0  -0.0004
  C  C472  1  0.181540  0.426800  0.489200  1.0  -0.008
  C  C473  1  0.215690  0.535200  0.375000  1.0  -0.1825
  C  C474  1  0.449760  0.847700  0.393480  1.0  -0.0201
  C  C475  1  0.528730  0.905300  0.429800  1.0  0.0757
  C  C476  1  0.578490  0.163500  0.585780  1.0  -0.0209
  C  C477  1  0.586570  0.044900  0.515800  1.0  0.0769
  C  C478  1  0.596700  0.775900  0.506700  1.0  -0.1679
  C  C479  1  0.527780  0.221600  0.739710  1.0  0.0542
  C  C480  1  0.529630  0.627100  0.619820  1.0  -0.1388
  C  C481  1  0.469140  0.021900  0.697410  1.0  0.0711
  C  C482  1  0.417710  0.816100  0.666210  1.0  0.2282
  C  C483  1  0.381740  0.701100  0.574640  1.0  -0.0824
  C  C484  1  0.357930  0.603200  0.584100  1.0  -0.1399
  C  C485  1  0.563570  0.558000  0.670670  1.0  -0.015
  C  C486  1  0.509530  0.416700  0.671380  1.0  0.2764
  C  C487  1  0.554140  0.451800  0.696840  1.0  -0.1978
  C  C488  1  0.411260  0.808200  0.614550  1.0  -0.2478
  C  C489  1  0.540240  0.739600  0.591200  1.0  0.6518
  C  C490  1  0.394520  0.718600  0.676490  1.0  -0.222
  C  C491  1  0.364790  0.614700  0.635950  1.0  -0.0184
  C  C492  1  0.485180  0.589900  0.595380  1.0  -0.0332
  C  C493  1  0.325960  0.488800  0.539720  1.0  0.6476
  C  C494  1  0.474990  0.486700  0.620400  1.0  -0.2178
  C  C495  1  0.717100  0.758700  0.379460  1.0  0.0986
  C  C496  1  0.671290  0.905000  0.398030  1.0  0.1057
  C  C497  1  0.781850  0.593300  0.447000  1.0  -0.0004
  C  C498  1  0.681540  0.926800  0.489200  1.0  -0.008
  C  C499  1  0.715690  0.035200  0.375000  1.0  -0.1825
  C  C500  1  0.949760  0.347700  0.393480  1.0  -0.0201
  C  C501  1  0.028730  0.405300  0.429800  1.0  0.0757
  C  C502  1  0.078490  0.663500  0.585780  1.0  -0.0209
  C  C503  1  0.086570  0.544900  0.515800  1.0  0.0769
  C  C504  1  0.096700  0.275900  0.506700  1.0  -0.1679
  C  C505  1  0.027780  0.721600  0.739710  1.0  0.0542
  C  C506  1  0.029630  0.127100  0.619820  1.0  -0.1388
  C  C507  1  0.969140  0.521900  0.697410  1.0  0.0711
  C  C508  1  0.917710  0.316100  0.666210  1.0  0.2282
  C  C509  1  0.881740  0.201100  0.574640  1.0  -0.0824
  C  C510  1  0.857930  0.103200  0.584100  1.0  -0.1399
  C  C511  1  0.063570  0.058000  0.670670  1.0  -0.015
  C  C512  1  0.009530  0.916700  0.671380  1.0  0.2764
  C  C513  1  0.054140  0.951800  0.696840  1.0  -0.1978
  C  C514  1  0.911260  0.308200  0.614550  1.0  -0.2478
  C  C515  1  0.040240  0.239600  0.591200  1.0  0.6518
  C  C516  1  0.894520  0.218600  0.676490  1.0  -0.222
  C  C517  1  0.864790  0.114700  0.635950  1.0  -0.0184
  C  C518  1  0.985180  0.089900  0.595380  1.0  -0.0332
  C  C519  1  0.825960  0.988800  0.539720  1.0  0.6476
  C  C520  1  0.974990  0.986700  0.620400  1.0  -0.2178
  C  C521  1  0.500000  0.879200  0.250000  1.0  -0.045
  C  C522  1  0.000000  0.379200  0.250000  1.0  -0.045
  C  C523  1  0.500000  0.120800  0.750000  1.0  -0.0451
  C  C524  1  0.000000  0.620800  0.750000  1.0  -0.0451
  N  N525  1  0.258870  0.760900  0.938040  1.0  -0.3319
  N  N526  1  0.203500  0.577200  0.960540  1.0  -0.3538
  N  N527  1  0.192390  0.604400  0.870550  1.0  -0.2391
  N  N528  1  0.568650  0.968300  0.048840  1.0  -0.3438
  N  N529  1  0.497850  0.142300  0.943410  1.0  -0.3502
  N  N530  1  0.575240  0.080800  0.978480  1.0  -0.2246
  N  N531  1  0.758870  0.260900  0.938040  1.0  -0.3319
  N  N532  1  0.703500  0.077200  0.960540  1.0  -0.3538
  N  N533  1  0.692390  0.104400  0.870550  1.0  -0.2391
  N  N534  1  0.068650  0.468300  0.048840  1.0  -0.3438
  N  N535  1  0.997850  0.642300  0.943410  1.0  -0.3502
  N  N536  1  0.075240  0.580800  0.978480  1.0  -0.2246
  N  N537  1  0.741130  0.760900  0.561960  1.0  -0.3299
  N  N538  1  0.796500  0.577200  0.539460  1.0  -0.3545
  N  N539  1  0.807610  0.604400  0.629450  1.0  -0.237
  N  N540  1  0.431350  0.968300  0.451160  1.0  -0.3429
  N  N541  1  0.502150  0.142300  0.556590  1.0  -0.35
  N  N542  1  0.424760  0.080800  0.521520  1.0  -0.2266
  N  N543  1  0.241130  0.260900  0.561960  1.0  -0.3299
  N  N544  1  0.296500  0.077200  0.539460  1.0  -0.3545
  N  N545  1  0.307610  0.104400  0.629450  1.0  -0.237
  N  N546  1  0.931350  0.468300  0.451160  1.0  -0.3429
  N  N547  1  0.002150  0.642300  0.556590  1.0  -0.35
  N  N548  1  0.924760  0.580800  0.521520  1.0  -0.2266
  N  N549  1  0.741130  0.239100  0.061960  1.0  -0.3295
  N  N550  1  0.796500  0.422800  0.039460  1.0  -0.3535
  N  N551  1  0.807610  0.395600  0.129450  1.0  -0.2376
  N  N552  1  0.431350  0.031700  0.951160  1.0  -0.3438
  N  N553  1  0.502150  0.857700  0.056590  1.0  -0.3512
  N  N554  1  0.424760  0.919200  0.021520  1.0  -0.2266
  N  N555  1  0.241130  0.739100  0.061960  1.0  -0.3295
  N  N556  1  0.296500  0.922800  0.039460  1.0  -0.3535
  N  N557  1  0.307610  0.895600  0.129450  1.0  -0.2376
  N  N558  1  0.931350  0.531700  0.951160  1.0  -0.3438
  N  N559  1  0.002150  0.357700  0.056590  1.0  -0.3512
  N  N560  1  0.924760  0.419200  0.021520  1.0  -0.2266
  N  N561  1  0.258870  0.239100  0.438040  1.0  -0.3316
  N  N562  1  0.203500  0.422800  0.460540  1.0  -0.353
  N  N563  1  0.192390  0.395600  0.370550  1.0  -0.2389
  N  N564  1  0.568650  0.031700  0.548840  1.0  -0.3438
  N  N565  1  0.497850  0.857700  0.443410  1.0  -0.3504
  N  N566  1  0.575240  0.919200  0.478480  1.0  -0.2248
  N  N567  1  0.758870  0.739100  0.438040  1.0  -0.3316
  N  N568  1  0.703500  0.922800  0.460540  1.0  -0.353
  N  N569  1  0.692390  0.895600  0.370550  1.0  -0.2389
  N  N570  1  0.068650  0.531700  0.548840  1.0  -0.3438
  N  N571  1  0.997850  0.357700  0.443410  1.0  -0.3504
  N  N572  1  0.075240  0.419200  0.478480  1.0  -0.2248
  O  O573  1  0.495270  0.688100  0.191010  1.0  -0.2526
  O  O574  1  0.507660  0.194300  0.047950  1.0  -0.5955
  O  O575  1  0.581240  0.237200  0.113020  1.0  -0.6042
  O  O576  1  0.301480  0.583600  0.048080  1.0  -0.6062
  O  O577  1  0.326400  0.531000  0.998100  1.0  -0.6031
  O  O578  1  0.445390  0.079700  0.207850  1.0  -0.2611
  O  O579  1  0.995270  0.188100  0.191010  1.0  -0.2526
  O  O580  1  0.007660  0.694300  0.047950  1.0  -0.5955
  O  O581  1  0.081240  0.737200  0.113020  1.0  -0.6042
  O  O582  1  0.801480  0.083600  0.048080  1.0  -0.6062
  O  O583  1  0.826400  0.031000  0.998100  1.0  -0.6031
  O  O584  1  0.945390  0.579700  0.207850  1.0  -0.2611
  O  O585  1  0.504730  0.688100  0.308990  1.0  -0.2529
  O  O586  1  0.492340  0.194300  0.452050  1.0  -0.5979
  O  O587  1  0.418760  0.237200  0.386980  1.0  -0.5978
  O  O588  1  0.698520  0.583600  0.451920  1.0  -0.6072
  O  O589  1  0.673600  0.531000  0.501900  1.0  -0.6059
  O  O590  1  0.554610  0.079700  0.292150  1.0  -0.2605
  O  O591  1  0.004730  0.188100  0.308990  1.0  -0.2529
  O  O592  1  0.992340  0.694300  0.452050  1.0  -0.5979
  O  O593  1  0.918760  0.737200  0.386980  1.0  -0.5978
  O  O594  1  0.198520  0.083600  0.451920  1.0  -0.6072
  O  O595  1  0.173600  0.031000  0.501900  1.0  -0.6059
  O  O596  1  0.054610  0.579700  0.292150  1.0  -0.2605
  O  O597  1  0.504730  0.311900  0.808990  1.0  -0.2522
  O  O598  1  0.492340  0.805700  0.952050  1.0  -0.5975
  O  O599  1  0.418760  0.762800  0.886980  1.0  -0.5984
  O  O600  1  0.698520  0.416400  0.951920  1.0  -0.6056
  O  O601  1  0.673600  0.469000  0.001900  1.0  -0.605
  O  O602  1  0.554610  0.920300  0.792150  1.0  -0.2609
  O  O603  1  0.004730  0.811900  0.808990  1.0  -0.2522
  O  O604  1  0.992340  0.305700  0.952050  1.0  -0.5975
  O  O605  1  0.918760  0.262800  0.886980  1.0  -0.5984
  O  O606  1  0.198520  0.916400  0.951920  1.0  -0.6056
  O  O607  1  0.173600  0.969000  0.001900  1.0  -0.605
  O  O608  1  0.054610  0.420300  0.792150  1.0  -0.2609
  O  O609  1  0.495270  0.311900  0.691010  1.0  -0.2508
  O  O610  1  0.507660  0.805700  0.547950  1.0  -0.5964
  O  O611  1  0.581240  0.762800  0.613020  1.0  -0.6038
  O  O612  1  0.301480  0.416400  0.548080  1.0  -0.6057
  O  O613  1  0.326400  0.469000  0.498100  1.0  -0.6032
  O  O614  1  0.445390  0.920300  0.707850  1.0  -0.2607
  O  O615  1  0.995270  0.811900  0.691010  1.0  -0.2508
  O  O616  1  0.007660  0.305700  0.547950  1.0  -0.5964
  O  O617  1  0.081240  0.262800  0.613020  1.0  -0.6038
  O  O618  1  0.801480  0.916400  0.548080  1.0  -0.6057
  O  O619  1  0.826400  0.969000  0.498100  1.0  -0.6032
  O  O620  1  0.945390  0.420300  0.707850  1.0  -0.2607
