# generated using pymatgen
data_Ni2H76C57(NO)12
_symmetry_space_group_name_H-M   'P 1'
_cell_length_a   37.15300000
_cell_length_b   8.93810000
_cell_length_c   29.41400000
_cell_angle_alpha   90.00000000
_cell_angle_beta   127.96400000
_cell_angle_gamma   90.00000000
_symmetry_Int_Tables_number   1
_chemical_formula_structural   Ni2H76C57(NO)12
_chemical_formula_sum   'Ni8 H304 C228 N48 O48'
_cell_volume   7700.84504303
_cell_formula_units_Z   4
loop_
 _symmetry_equiv_pos_site_id
 _symmetry_equiv_pos_as_xyz
  1  'x, y, z'
loop_
 _atom_site_type_symbol
 _atom_site_label
 _atom_site_symmetry_multiplicity
 _atom_site_fract_x
 _atom_site_fract_y
 _atom_site_fract_z
 _atom_site_occupancy
 _atom_site_charge
  Ni  Ni1  1  0.000000  0.000000  0.000000  1.0  0.5476
  Ni  Ni2  1  0.500000  0.500000  0.000000  1.0  0.5476
  Ni  Ni3  1  0.000000  0.000000  0.500000  1.0  0.5476
  Ni  Ni4  1  0.500000  0.500000  0.500000  1.0  0.5476
  Ni  Ni5  1  0.250000  0.250000  0.500000  1.0  0.5458
  Ni  Ni6  1  0.750000  0.250000  0.000000  1.0  0.5458
  Ni  Ni7  1  0.750000  0.750000  0.500000  1.0  0.5458
  Ni  Ni8  1  0.250000  0.750000  0.000000  1.0  0.5458
  H  H9  1  0.219500  0.316000  0.552900  1.0  0.193
  H  H10  1  0.082900  0.944000  0.073100  1.0  0.0836
  H  H11  1  0.010500  0.846100  0.887600  1.0  0.0745
  H  H12  1  0.010400  0.007700  0.909200  1.0  0.0756
  H  H13  1  0.088200  0.744100  0.034600  1.0  0.0708
  H  H14  1  0.080000  0.664800  0.981000  1.0  0.0898
  H  H15  1  0.006100  0.622600  0.940200  1.0  0.0781
  H  H16  1  0.017400  0.671500  0.999400  1.0  0.071
  H  H17  1  0.079500  0.102900  0.989200  1.0  0.08
  H  H18  1  0.118500  0.997100  0.036400  1.0  0.0884
  H  H19  1  0.070200  0.250900  0.049200  1.0  0.0838
  H  H20  1  0.112700  0.174700  0.105300  1.0  0.0783
  H  H21  1  0.937900  0.732400  0.877900  1.0  0.0868
  H  H22  1  0.932700  0.906600  0.869300  1.0  0.0851
  H  H23  1  0.136500  0.081400  0.373500  1.0  0.0658
  H  H24  1  0.156600  0.245100  0.392100  1.0  0.0866
  H  H25  1  0.188600  0.867000  0.434500  1.0  0.0612
  H  H26  1  0.240600  0.912300  0.478000  1.0  0.0689
  H  H27  1  0.242700  0.976900  0.407200  1.0  0.0579
  H  H28  1  0.195500  0.893300  0.365500  1.0  0.0843
  H  H29  1  0.272400  0.276800  0.645600  1.0  0.0953
  H  H30  1  0.299800  0.166800  0.635700  1.0  0.0932
  H  H31  1  0.205300  0.089400  0.572000  1.0  0.0747
  H  H32  1  0.238700  0.010700  0.563500  1.0  0.0749
  H  H33  1  0.163400  0.985500  0.478800  1.0  0.081
  H  H34  1  0.157200  0.160100  0.474700  1.0  0.0711
  H  H35  1  0.150400  0.553800  0.357500  1.0  0.0907
  H  H36  1  0.101600  0.728700  0.290200  1.0  0.1293
  H  H37  1  0.075900  0.881800  0.396100  1.0  0.1169
  H  H38  1  0.123000  0.698300  0.462000  1.0  0.1002
  H  H39  1  0.051100  0.086400  0.337000  1.0  0.0593
  H  H40  1  0.012500  0.964500  0.309700  1.0  0.0755
  H  H41  1  0.051100  0.276400  0.275600  1.0  0.0746
  H  H42  1  0.044500  0.160000  0.230700  1.0  0.0812
  H  H43  1  0.947600  0.503600  0.118400  1.0  0.1254
  H  H44  1  0.965300  0.680700  0.078200  1.0  0.0869
  H  H45  1  0.097500  0.579000  0.191800  1.0  0.101
  H  H46  1  0.080100  0.393100  0.231100  1.0  0.1164
  H  H47  1  0.719500  0.816000  0.552900  1.0  0.193
  H  H48  1  0.582900  0.444000  0.073100  1.0  0.0836
  H  H49  1  0.510500  0.346100  0.887600  1.0  0.0745
  H  H50  1  0.510400  0.507700  0.909200  1.0  0.0756
  H  H51  1  0.588200  0.244100  0.034600  1.0  0.0708
  H  H52  1  0.580000  0.164800  0.981000  1.0  0.0898
  H  H53  1  0.506100  0.122600  0.940200  1.0  0.0781
  H  H54  1  0.517400  0.171500  0.999400  1.0  0.071
  H  H55  1  0.579500  0.602900  0.989200  1.0  0.08
  H  H56  1  0.618500  0.497100  0.036400  1.0  0.0884
  H  H57  1  0.570200  0.750900  0.049200  1.0  0.0838
  H  H58  1  0.612700  0.674700  0.105300  1.0  0.0783
  H  H59  1  0.437900  0.232400  0.877900  1.0  0.0868
  H  H60  1  0.432700  0.406600  0.869300  1.0  0.0851
  H  H61  1  0.636500  0.581400  0.373500  1.0  0.0658
  H  H62  1  0.656600  0.745100  0.392100  1.0  0.0866
  H  H63  1  0.688600  0.367000  0.434500  1.0  0.0612
  H  H64  1  0.740600  0.412300  0.478000  1.0  0.0689
  H  H65  1  0.742700  0.476900  0.407200  1.0  0.0579
  H  H66  1  0.695500  0.393300  0.365500  1.0  0.0843
  H  H67  1  0.772400  0.776800  0.645600  1.0  0.0953
  H  H68  1  0.799800  0.666800  0.635700  1.0  0.0932
  H  H69  1  0.705300  0.589400  0.572000  1.0  0.0747
  H  H70  1  0.738700  0.510700  0.563500  1.0  0.0749
  H  H71  1  0.663400  0.485500  0.478800  1.0  0.081
  H  H72  1  0.657200  0.660100  0.474700  1.0  0.0711
  H  H73  1  0.650400  0.053800  0.357500  1.0  0.0907
  H  H74  1  0.601600  0.228700  0.290200  1.0  0.1293
  H  H75  1  0.575900  0.381800  0.396100  1.0  0.1169
  H  H76  1  0.623000  0.198300  0.462000  1.0  0.1002
  H  H77  1  0.551100  0.586400  0.337000  1.0  0.0593
  H  H78  1  0.512500  0.464500  0.309700  1.0  0.0755
  H  H79  1  0.551100  0.776400  0.275600  1.0  0.0746
  H  H80  1  0.544500  0.660000  0.230700  1.0  0.0812
  H  H81  1  0.447600  0.003600  0.118400  1.0  0.1254
  H  H82  1  0.465300  0.180700  0.078200  1.0  0.0869
  H  H83  1  0.597500  0.079000  0.191800  1.0  0.101
  H  H84  1  0.580100  0.893100  0.231100  1.0  0.1164
  H  H85  1  0.780500  0.316000  0.947100  1.0  0.1995
  H  H86  1  0.917100  0.944000  0.426900  1.0  0.0822
  H  H87  1  0.989500  0.846100  0.612400  1.0  0.0745
  H  H88  1  0.989600  0.007700  0.590800  1.0  0.0741
  H  H89  1  0.911800  0.744100  0.465400  1.0  0.0707
  H  H90  1  0.920000  0.664800  0.519000  1.0  0.0881
  H  H91  1  0.993900  0.622600  0.559800  1.0  0.0781
  H  H92  1  0.982600  0.671500  0.500600  1.0  0.0705
  H  H93  1  0.920500  0.102900  0.510800  1.0  0.0801
  H  H94  1  0.881500  0.997100  0.463600  1.0  0.0903
  H  H95  1  0.929800  0.250900  0.450800  1.0  0.0855
  H  H96  1  0.887300  0.174700  0.394700  1.0  0.079
  H  H97  1  0.062100  0.732400  0.622100  1.0  0.0885
  H  H98  1  0.067300  0.906600  0.630700  1.0  0.0829
  H  H99  1  0.863500  0.081400  0.126500  1.0  0.0679
  H  H100  1  0.843400  0.245100  0.107900  1.0  0.086
  H  H101  1  0.811400  0.867000  0.065500  1.0  0.0612
  H  H102  1  0.759400  0.912300  0.022000  1.0  0.0682
  H  H103  1  0.757300  0.976900  0.092800  1.0  0.0614
  H  H104  1  0.804500  0.893300  0.134500  1.0  0.0865
  H  H105  1  0.727600  0.276800  0.854400  1.0  0.0943
  H  H106  1  0.700200  0.166800  0.864300  1.0  0.0916
  H  H107  1  0.794700  0.089400  0.928000  1.0  0.0738
  H  H108  1  0.761300  0.010700  0.936500  1.0  0.0749
  H  H109  1  0.836600  0.985500  0.021200  1.0  0.0791
  H  H110  1  0.842800  0.160100  0.025300  1.0  0.0731
  H  H111  1  0.849600  0.553800  0.142500  1.0  0.091
  H  H112  1  0.898400  0.728700  0.209800  1.0  0.1301
  H  H113  1  0.924100  0.881800  0.103900  1.0  0.1164
  H  H114  1  0.877000  0.698300  0.038000  1.0  0.1002
  H  H115  1  0.948900  0.086400  0.163000  1.0  0.061
  H  H116  1  0.987500  0.964500  0.190300  1.0  0.0707
  H  H117  1  0.948900  0.276400  0.224400  1.0  0.0752
  H  H118  1  0.955500  0.160000  0.269300  1.0  0.0811
  H  H119  1  0.052400  0.503600  0.381600  1.0  0.1261
  H  H120  1  0.034700  0.680700  0.421800  1.0  0.087
  H  H121  1  0.902500  0.579000  0.308200  1.0  0.1006
  H  H122  1  0.919900  0.393100  0.268900  1.0  0.1161
  H  H123  1  0.280500  0.816000  0.947100  1.0  0.1995
  H  H124  1  0.417100  0.444000  0.426900  1.0  0.0822
  H  H125  1  0.489500  0.346100  0.612400  1.0  0.0745
  H  H126  1  0.489600  0.507700  0.590800  1.0  0.0741
  H  H127  1  0.411800  0.244100  0.465400  1.0  0.0708
  H  H128  1  0.420000  0.164800  0.519000  1.0  0.0881
  H  H129  1  0.493900  0.122600  0.559800  1.0  0.0781
  H  H130  1  0.482600  0.171500  0.500600  1.0  0.0705
  H  H131  1  0.420500  0.602900  0.510800  1.0  0.0801
  H  H132  1  0.381500  0.497100  0.463600  1.0  0.0903
  H  H133  1  0.429800  0.750900  0.450800  1.0  0.0855
  H  H134  1  0.387300  0.674700  0.394700  1.0  0.079
  H  H135  1  0.562100  0.232400  0.622100  1.0  0.0885
  H  H136  1  0.567300  0.406600  0.630700  1.0  0.0829
  H  H137  1  0.363500  0.581400  0.126500  1.0  0.0679
  H  H138  1  0.343400  0.745100  0.107900  1.0  0.086
  H  H139  1  0.311400  0.367000  0.065500  1.0  0.0612
  H  H140  1  0.259400  0.412300  0.022000  1.0  0.0688
  H  H141  1  0.257300  0.476900  0.092800  1.0  0.0614
  H  H142  1  0.304500  0.393300  0.134500  1.0  0.0865
  H  H143  1  0.227600  0.776800  0.854400  1.0  0.0943
  H  H144  1  0.200200  0.666800  0.864300  1.0  0.0916
  H  H145  1  0.294700  0.589400  0.928000  1.0  0.0738
  H  H146  1  0.261300  0.510700  0.936500  1.0  0.0749
  H  H147  1  0.336600  0.485500  0.021200  1.0  0.0791
  H  H148  1  0.342800  0.660100  0.025300  1.0  0.0731
  H  H149  1  0.349600  0.053800  0.142500  1.0  0.091
  H  H150  1  0.398400  0.228700  0.209800  1.0  0.1301
  H  H151  1  0.424100  0.381800  0.103900  1.0  0.1164
  H  H152  1  0.377000  0.198300  0.038000  1.0  0.1002
  H  H153  1  0.448900  0.586400  0.163000  1.0  0.061
  H  H154  1  0.487500  0.464500  0.190300  1.0  0.0707
  H  H155  1  0.448900  0.776400  0.224400  1.0  0.0752
  H  H156  1  0.455500  0.660000  0.269300  1.0  0.0811
  H  H157  1  0.552400  0.003600  0.381600  1.0  0.1261
  H  H158  1  0.534700  0.180700  0.421800  1.0  0.087
  H  H159  1  0.402500  0.079000  0.308200  1.0  0.1006
  H  H160  1  0.419900  0.893100  0.268900  1.0  0.1153
  H  H161  1  0.780500  0.684000  0.447100  1.0  0.1982
  H  H162  1  0.917100  0.056000  0.926900  1.0  0.0832
  H  H163  1  0.989500  0.153900  0.112400  1.0  0.0746
  H  H164  1  0.989600  0.992300  0.090800  1.0  0.075
  H  H165  1  0.911800  0.255900  0.965400  1.0  0.0724
  H  H166  1  0.920000  0.335200  0.019000  1.0  0.087
  H  H167  1  0.993900  0.377400  0.059800  1.0  0.076
  H  H168  1  0.982600  0.328500  0.000600  1.0  0.0679
  H  H169  1  0.920500  0.897100  0.010800  1.0  0.0824
  H  H170  1  0.881500  0.002900  0.963600  1.0  0.0902
  H  H171  1  0.929800  0.749100  0.950800  1.0  0.0858
  H  H172  1  0.887300  0.825300  0.894700  1.0  0.0783
  H  H173  1  0.062100  0.267600  0.122100  1.0  0.0864
  H  H174  1  0.067300  0.093400  0.130700  1.0  0.0839
  H  H175  1  0.863500  0.918600  0.626500  1.0  0.0676
  H  H176  1  0.843400  0.754900  0.607900  1.0  0.088
  H  H177  1  0.811400  0.133000  0.565500  1.0  0.0603
  H  H178  1  0.759400  0.087700  0.522000  1.0  0.0682
  H  H179  1  0.757300  0.023100  0.592800  1.0  0.061
  H  H180  1  0.804500  0.106700  0.634500  1.0  0.0853
  H  H181  1  0.727600  0.723200  0.354400  1.0  0.0946
  H  H182  1  0.700200  0.833200  0.364300  1.0  0.0938
  H  H183  1  0.794700  0.910600  0.428000  1.0  0.0742
  H  H184  1  0.761300  0.989300  0.436500  1.0  0.0756
  H  H185  1  0.836600  0.014500  0.521200  1.0  0.0798
  H  H186  1  0.842800  0.839900  0.525300  1.0  0.072
  H  H187  1  0.849600  0.446200  0.642500  1.0  0.0907
  H  H188  1  0.898400  0.271300  0.709800  1.0  0.1293
  H  H189  1  0.924100  0.118200  0.603900  1.0  0.1168
  H  H190  1  0.877000  0.301700  0.538000  1.0  0.1004
  H  H191  1  0.948900  0.913600  0.663000  1.0  0.0611
  H  H192  1  0.987500  0.035500  0.690300  1.0  0.0715
  H  H193  1  0.948900  0.723600  0.724400  1.0  0.0746
  H  H194  1  0.955500  0.840000  0.769300  1.0  0.0806
  H  H195  1  0.052400  0.496400  0.881600  1.0  0.1257
  H  H196  1  0.034700  0.319300  0.921800  1.0  0.0867
  H  H197  1  0.902500  0.421000  0.808200  1.0  0.101
  H  H198  1  0.919900  0.606900  0.768900  1.0  0.1162
  H  H199  1  0.280500  0.184000  0.447100  1.0  0.1982
  H  H200  1  0.417100  0.556000  0.926900  1.0  0.0832
  H  H201  1  0.489500  0.653900  0.112400  1.0  0.0746
  H  H202  1  0.489600  0.492300  0.090800  1.0  0.075
  H  H203  1  0.411800  0.755900  0.965400  1.0  0.0724
  H  H204  1  0.420000  0.835200  0.019000  1.0  0.087
  H  H205  1  0.493900  0.877400  0.059800  1.0  0.076
  H  H206  1  0.482600  0.828500  0.000600  1.0  0.0679
  H  H207  1  0.420500  0.397100  0.010800  1.0  0.0824
  H  H208  1  0.381500  0.502900  0.963600  1.0  0.0902
  H  H209  1  0.429800  0.249100  0.950800  1.0  0.0858
  H  H210  1  0.387300  0.325300  0.894700  1.0  0.0783
  H  H211  1  0.562100  0.767600  0.122100  1.0  0.0864
  H  H212  1  0.567300  0.593400  0.130700  1.0  0.0839
  H  H213  1  0.363500  0.418600  0.626500  1.0  0.0676
  H  H214  1  0.343400  0.254900  0.607900  1.0  0.088
  H  H215  1  0.311400  0.633000  0.565500  1.0  0.0603
  H  H216  1  0.259400  0.587700  0.522000  1.0  0.0686
  H  H217  1  0.257300  0.523100  0.592800  1.0  0.061
  H  H218  1  0.304500  0.606700  0.634500  1.0  0.0853
  H  H219  1  0.227600  0.223200  0.354400  1.0  0.0946
  H  H220  1  0.200200  0.333200  0.364300  1.0  0.0938
  H  H221  1  0.294700  0.410600  0.428000  1.0  0.0742
  H  H222  1  0.261300  0.489300  0.436500  1.0  0.0756
  H  H223  1  0.336600  0.514500  0.521200  1.0  0.0798
  H  H224  1  0.342800  0.339900  0.525300  1.0  0.072
  H  H225  1  0.349600  0.946200  0.642500  1.0  0.0907
  H  H226  1  0.398400  0.771300  0.709800  1.0  0.1293
  H  H227  1  0.424100  0.618200  0.603900  1.0  0.1168
  H  H228  1  0.377000  0.801700  0.538000  1.0  0.1004
  H  H229  1  0.448900  0.413600  0.663000  1.0  0.0611
  H  H230  1  0.487500  0.535500  0.690300  1.0  0.0715
  H  H231  1  0.448900  0.223600  0.724400  1.0  0.0746
  H  H232  1  0.455500  0.340000  0.769300  1.0  0.0806
  H  H233  1  0.552400  0.996400  0.881600  1.0  0.1257
  H  H234  1  0.534700  0.819300  0.921800  1.0  0.0867
  H  H235  1  0.402500  0.921000  0.808200  1.0  0.101
  H  H236  1  0.419900  0.106900  0.768900  1.0  0.1162
  H  H237  1  0.219500  0.684000  0.052900  1.0  0.1937
  H  H238  1  0.082900  0.056000  0.573100  1.0  0.0835
  H  H239  1  0.010500  0.153900  0.387600  1.0  0.0744
  H  H240  1  0.010400  0.992300  0.409200  1.0  0.0754
  H  H241  1  0.088200  0.255900  0.534600  1.0  0.0705
  H  H242  1  0.080000  0.335200  0.481000  1.0  0.0891
  H  H243  1  0.006100  0.377400  0.440200  1.0  0.0763
  H  H244  1  0.017400  0.328500  0.499400  1.0  0.0688
  H  H245  1  0.079500  0.897100  0.489200  1.0  0.0813
  H  H246  1  0.118500  0.002900  0.536400  1.0  0.0886
  H  H247  1  0.070200  0.749100  0.549200  1.0  0.0834
  H  H248  1  0.112700  0.825300  0.605300  1.0  0.0774
  H  H249  1  0.937900  0.267600  0.377900  1.0  0.0868
  H  H250  1  0.932700  0.093400  0.369300  1.0  0.0839
  H  H251  1  0.136500  0.918600  0.873500  1.0  0.067
  H  H252  1  0.156600  0.754900  0.892100  1.0  0.0864
  H  H253  1  0.188600  0.133000  0.934500  1.0  0.0605
  H  H254  1  0.240600  0.087700  0.978000  1.0  0.0685
  H  H255  1  0.242700  0.023100  0.907200  1.0  0.0594
  H  H256  1  0.195500  0.106700  0.865500  1.0  0.0843
  H  H257  1  0.272400  0.723200  0.145600  1.0  0.0953
  H  H258  1  0.299800  0.833200  0.135700  1.0  0.0917
  H  H259  1  0.205300  0.910600  0.072000  1.0  0.0743
  H  H260  1  0.238700  0.989300  0.063500  1.0  0.0737
  H  H261  1  0.163400  0.014500  0.978800  1.0  0.0802
  H  H262  1  0.157200  0.839900  0.974700  1.0  0.0712
  H  H263  1  0.150400  0.446200  0.857500  1.0  0.0906
  H  H264  1  0.101600  0.271300  0.790200  1.0  0.1293
  H  H265  1  0.075900  0.118200  0.896100  1.0  0.1167
  H  H266  1  0.123000  0.301700  0.962000  1.0  0.1003
  H  H267  1  0.051100  0.913600  0.837000  1.0  0.0601
  H  H268  1  0.012500  0.035500  0.809700  1.0  0.0747
  H  H269  1  0.051100  0.723600  0.775600  1.0  0.0754
  H  H270  1  0.044500  0.840000  0.730700  1.0  0.081
  H  H271  1  0.947600  0.496400  0.618400  1.0  0.1254
  H  H272  1  0.965300  0.319300  0.578200  1.0  0.0867
  H  H273  1  0.097500  0.421000  0.691800  1.0  0.101
  H  H274  1  0.080100  0.606900  0.731100  1.0  0.1163
  H  H275  1  0.719500  0.184000  0.052900  1.0  0.1937
  H  H276  1  0.582900  0.556000  0.573100  1.0  0.0835
  H  H277  1  0.510500  0.653900  0.387600  1.0  0.0744
  H  H278  1  0.510400  0.492300  0.409200  1.0  0.0754
  H  H279  1  0.588200  0.755900  0.534600  1.0  0.0705
  H  H280  1  0.580000  0.835200  0.481000  1.0  0.0891
  H  H281  1  0.506100  0.877400  0.440200  1.0  0.0763
  H  H282  1  0.517400  0.828500  0.499400  1.0  0.0688
  H  H283  1  0.579500  0.397100  0.489200  1.0  0.0813
  H  H284  1  0.618500  0.502900  0.536400  1.0  0.0886
  H  H285  1  0.570200  0.249100  0.549200  1.0  0.0834
  H  H286  1  0.612700  0.325300  0.605300  1.0  0.0774
  H  H287  1  0.437900  0.767600  0.377900  1.0  0.0868
  H  H288  1  0.432700  0.593400  0.369300  1.0  0.0839
  H  H289  1  0.636500  0.418600  0.873500  1.0  0.067
  H  H290  1  0.656600  0.254900  0.892100  1.0  0.0864
  H  H291  1  0.688600  0.633000  0.934500  1.0  0.0605
  H  H292  1  0.740600  0.587700  0.978000  1.0  0.0685
  H  H293  1  0.742700  0.523100  0.907200  1.0  0.0594
  H  H294  1  0.695500  0.606700  0.865500  1.0  0.0843
  H  H295  1  0.772400  0.223200  0.145600  1.0  0.0953
  H  H296  1  0.799800  0.333200  0.135700  1.0  0.0917
  H  H297  1  0.705300  0.410600  0.072000  1.0  0.0743
  H  H298  1  0.738700  0.489300  0.063500  1.0  0.0737
  H  H299  1  0.663400  0.514500  0.978800  1.0  0.0802
  H  H300  1  0.657200  0.339900  0.974700  1.0  0.072
  H  H301  1  0.650400  0.946200  0.857500  1.0  0.0906
  H  H302  1  0.601600  0.771300  0.790200  1.0  0.1293
  H  H303  1  0.575900  0.618200  0.896100  1.0  0.1167
  H  H304  1  0.623000  0.801700  0.962000  1.0  0.1003
  H  H305  1  0.551100  0.413600  0.837000  1.0  0.0601
  H  H306  1  0.512500  0.535500  0.809700  1.0  0.0747
  H  H307  1  0.551100  0.223600  0.775600  1.0  0.0754
  H  H308  1  0.544500  0.340000  0.730700  1.0  0.081
  H  H309  1  0.447600  0.996400  0.618400  1.0  0.1254
  H  H310  1  0.465300  0.819300  0.578200  1.0  0.0867
  H  H311  1  0.597500  0.921000  0.691800  1.0  0.101
  H  H312  1  0.580100  0.106900  0.731100  1.0  0.1163
  C  C313  1  0.018270  0.903700  0.920500  1.0  0.1168
  C  C314  1  0.068360  0.740000  0.992800  1.0  0.0022
  C  C315  1  0.018700  0.701700  0.968700  1.0  -0.0278
  C  C316  1  0.085640  0.009800  0.009800  1.0  0.0631
  C  C317  1  0.079960  0.167600  0.075500  1.0  -0.0137
  C  C318  1  0.944200  0.827200  0.897600  1.0  -0.022
  C  C319  1  0.164260  0.140500  0.393760  1.0  0.0946
  C  C320  1  0.210740  0.943700  0.444100  1.0  -0.0155
  C  C321  1  0.211500  0.972200  0.394000  1.0  0.0031
  C  C322  1  0.282150  0.258600  0.622090  1.0  0.0487
  C  C323  1  0.217440  0.093100  0.550800  1.0  -0.012
  C  C324  1  0.179060  0.080200  0.486900  1.0  -0.0204
  C  C325  1  0.173890  0.490700  0.462090  1.0  0.6436
  C  C326  1  0.141940  0.605300  0.417260  1.0  -0.0717
  C  C327  1  0.135020  0.618300  0.365130  1.0  -0.0139
  C  C328  1  0.106280  0.723500  0.325020  1.0  -0.2257
  C  C329  1  0.084140  0.822400  0.336580  1.0  0.238
  C  C330  1  0.090540  0.814600  0.388170  1.0  -0.2269
  C  C331  1  0.119020  0.705200  0.427630  1.0  -0.0953
  C  C332  1  0.030840  0.024000  0.303330  1.0  0.0628
  C  C333  1  0.028690  0.220400  0.240870  1.0  0.0612
  C  C334  1  0.012170  0.428000  0.177460  1.0  0.2808
  C  C335  1  0.977640  0.516300  0.132400  1.0  -0.1955
  C  C336  1  0.988450  0.622900  0.108800  1.0  -0.0786
  C  C337  1  0.033320  0.646000  0.129660  1.0  -0.1707
  C  C338  1  0.067170  0.561700  0.176090  1.0  -0.0339
  C  C339  1  0.057020  0.450500  0.200240  1.0  -0.2539
  C  C340  1  0.043410  0.756200  0.100260  1.0  0.6356
  C  C341  1  0.518270  0.403700  0.920500  1.0  0.1168
  C  C342  1  0.568360  0.240000  0.992800  1.0  0.0022
  C  C343  1  0.518700  0.201700  0.968700  1.0  -0.0278
  C  C344  1  0.585640  0.509800  0.009800  1.0  0.0631
  C  C345  1  0.579960  0.667600  0.075500  1.0  -0.0137
  C  C346  1  0.444200  0.327200  0.897600  1.0  -0.022
  C  C347  1  0.664260  0.640500  0.393760  1.0  0.0946
  C  C348  1  0.710740  0.443700  0.444100  1.0  -0.0155
  C  C349  1  0.711500  0.472200  0.394000  1.0  0.0031
  C  C350  1  0.782150  0.758600  0.622090  1.0  0.0487
  C  C351  1  0.717440  0.593100  0.550800  1.0  -0.012
  C  C352  1  0.679060  0.580200  0.486900  1.0  -0.0204
  C  C353  1  0.673890  0.990700  0.462090  1.0  0.6436
  C  C354  1  0.641940  0.105300  0.417260  1.0  -0.0717
  C  C355  1  0.635020  0.118300  0.365130  1.0  -0.0139
  C  C356  1  0.606280  0.223500  0.325020  1.0  -0.2257
  C  C357  1  0.584140  0.322400  0.336580  1.0  0.238
  C  C358  1  0.590540  0.314600  0.388170  1.0  -0.2269
  C  C359  1  0.619020  0.205200  0.427630  1.0  -0.0953
  C  C360  1  0.530840  0.524000  0.303330  1.0  0.0628
  C  C361  1  0.528690  0.720400  0.240870  1.0  0.0595
  C  C362  1  0.512170  0.928000  0.177460  1.0  0.2804
  C  C363  1  0.477640  0.016300  0.132400  1.0  -0.1965
  C  C364  1  0.488450  0.122900  0.108800  1.0  -0.0786
  C  C365  1  0.533320  0.146000  0.129660  1.0  -0.1707
  C  C366  1  0.567170  0.061700  0.176090  1.0  -0.0338
  C  C367  1  0.557020  0.950500  0.200240  1.0  -0.2554
  C  C368  1  0.543410  0.256200  0.100260  1.0  0.6356
  C  C369  1  0.981730  0.903700  0.579500  1.0  0.1153
  C  C370  1  0.931640  0.740000  0.507200  1.0  0.0026
  C  C371  1  0.981300  0.701700  0.531300  1.0  -0.0277
  C  C372  1  0.914360  0.009800  0.490200  1.0  0.0602
  C  C373  1  0.920040  0.167600  0.424500  1.0  -0.0182
  C  C374  1  0.055800  0.827200  0.602400  1.0  -0.0246
  C  C375  1  0.835740  0.140500  0.106240  1.0  0.0924
  C  C376  1  0.789260  0.943700  0.055900  1.0  -0.016
  C  C377  1  0.788500  0.972200  0.106000  1.0  0.0052
  C  C378  1  0.717850  0.258600  0.877910  1.0  0.0479
  C  C379  1  0.782560  0.093100  0.949200  1.0  -0.0133
  C  C380  1  0.820940  0.080200  0.013100  1.0  -0.0221
  C  C381  1  0.826110  0.490700  0.037910  1.0  0.6472
  C  C382  1  0.858060  0.605300  0.082740  1.0  -0.0719
  C  C383  1  0.864980  0.618300  0.134870  1.0  -0.0121
  C  C384  1  0.893720  0.723500  0.174980  1.0  -0.2246
  C  C385  1  0.915860  0.822400  0.163420  1.0  0.2386
  C  C386  1  0.909460  0.814600  0.111830  1.0  -0.2278
  C  C387  1  0.880980  0.705200  0.072370  1.0  -0.0921
  C  C388  1  0.969160  0.024000  0.196670  1.0  0.064
  C  C389  1  0.971310  0.220400  0.259130  1.0  0.0598
  C  C390  1  0.987830  0.428000  0.322540  1.0  0.2813
  C  C391  1  0.022360  0.516300  0.367600  1.0  -0.1969
  C  C392  1  0.011550  0.622900  0.391200  1.0  -0.0791
  C  C393  1  0.966680  0.646000  0.370340  1.0  -0.1692
  C  C394  1  0.932830  0.561700  0.323910  1.0  -0.033
  C  C395  1  0.942980  0.450500  0.299760  1.0  -0.2563
  C  C396  1  0.956590  0.756200  0.399740  1.0  0.6344
  C  C397  1  0.481730  0.403700  0.579500  1.0  0.1153
  C  C398  1  0.431640  0.240000  0.507200  1.0  0.0026
  C  C399  1  0.481300  0.201700  0.531300  1.0  -0.0277
  C  C400  1  0.414360  0.509800  0.490200  1.0  0.0602
  C  C401  1  0.420040  0.667600  0.424500  1.0  -0.0182
  C  C402  1  0.555800  0.327200  0.602400  1.0  -0.0246
  C  C403  1  0.335740  0.640500  0.106240  1.0  0.0924
  C  C404  1  0.289260  0.443700  0.055900  1.0  -0.016
  C  C405  1  0.288500  0.472200  0.106000  1.0  0.0052
  C  C406  1  0.217850  0.758600  0.877910  1.0  0.0479
  C  C407  1  0.282560  0.593100  0.949200  1.0  -0.0133
  C  C408  1  0.320940  0.580200  0.013100  1.0  -0.0221
  C  C409  1  0.326110  0.990700  0.037910  1.0  0.6472
  C  C410  1  0.358060  0.105300  0.082740  1.0  -0.0719
  C  C411  1  0.364980  0.118300  0.134870  1.0  -0.0121
  C  C412  1  0.393720  0.223500  0.174980  1.0  -0.2246
  C  C413  1  0.415860  0.322400  0.163420  1.0  0.2386
  C  C414  1  0.409460  0.314600  0.111830  1.0  -0.2278
  C  C415  1  0.380980  0.205200  0.072370  1.0  -0.0921
  C  C416  1  0.469160  0.524000  0.196670  1.0  0.064
  C  C417  1  0.471310  0.720400  0.259130  1.0  0.0598
  C  C418  1  0.487830  0.928000  0.322540  1.0  0.2811
  C  C419  1  0.522360  0.016300  0.367600  1.0  -0.1969
  C  C420  1  0.511550  0.122900  0.391200  1.0  -0.0791
  C  C421  1  0.466680  0.146000  0.370340  1.0  -0.1692
  C  C422  1  0.432830  0.061700  0.323910  1.0  -0.0333
  C  C423  1  0.442980  0.950500  0.299760  1.0  -0.2552
  C  C424  1  0.456590  0.256200  0.399740  1.0  0.6344
  C  C425  1  0.981730  0.096300  0.079500  1.0  0.1153
  C  C426  1  0.931640  0.260000  0.007200  1.0  0.0018
  C  C427  1  0.981300  0.298300  0.031300  1.0  -0.0283
  C  C428  1  0.914360  0.990200  0.990200  1.0  0.0616
  C  C429  1  0.920040  0.832400  0.924500  1.0  -0.0156
  C  C430  1  0.055800  0.172800  0.102400  1.0  -0.0247
  C  C431  1  0.835740  0.859500  0.606240  1.0  0.0927
  C  C432  1  0.789260  0.056300  0.555900  1.0  -0.014
  C  C433  1  0.788500  0.027800  0.606000  1.0  0.0025
  C  C434  1  0.717850  0.741400  0.377910  1.0  0.0479
  C  C435  1  0.782560  0.906900  0.449200  1.0  -0.0111
  C  C436  1  0.820940  0.919800  0.513100  1.0  -0.0221
  C  C437  1  0.826110  0.509300  0.537910  1.0  0.6469
  C  C438  1  0.858060  0.394700  0.582740  1.0  -0.0719
  C  C439  1  0.864980  0.381700  0.634870  1.0  -0.0119
  C  C440  1  0.893720  0.276500  0.674980  1.0  -0.2249
  C  C441  1  0.915860  0.177600  0.663420  1.0  0.239
  C  C442  1  0.909460  0.185400  0.611830  1.0  -0.2279
  C  C443  1  0.880980  0.294800  0.572370  1.0  -0.092
  C  C444  1  0.969160  0.976000  0.696670  1.0  0.0635
  C  C445  1  0.971310  0.779600  0.759130  1.0  0.0616
  C  C446  1  0.987830  0.572000  0.822540  1.0  0.2857
  C  C447  1  0.022360  0.483700  0.867600  1.0  -0.1968
  C  C448  1  0.011550  0.377100  0.891200  1.0  -0.0809
  C  C449  1  0.966680  0.354000  0.870340  1.0  -0.1696
  C  C450  1  0.932830  0.438300  0.823910  1.0  -0.0334
  C  C451  1  0.942980  0.549500  0.799760  1.0  -0.2544
  C  C452  1  0.956590  0.243800  0.899740  1.0  0.6355
  C  C453  1  0.481730  0.596300  0.079500  1.0  0.1153
  C  C454  1  0.431640  0.760000  0.007200  1.0  0.0018
  C  C455  1  0.481300  0.798300  0.031300  1.0  -0.0283
  C  C456  1  0.414360  0.490200  0.990200  1.0  0.0616
  C  C457  1  0.420040  0.332400  0.924500  1.0  -0.0156
  C  C458  1  0.555800  0.672800  0.102400  1.0  -0.0247
  C  C459  1  0.335740  0.359500  0.606240  1.0  0.0927
  C  C460  1  0.289260  0.556300  0.555900  1.0  -0.014
  C  C461  1  0.288500  0.527800  0.606000  1.0  0.0025
  C  C462  1  0.217850  0.241400  0.377910  1.0  0.0479
  C  C463  1  0.282560  0.406900  0.449200  1.0  -0.0111
  C  C464  1  0.320940  0.419800  0.513100  1.0  -0.0221
  C  C465  1  0.326110  0.009300  0.537910  1.0  0.6469
  C  C466  1  0.358060  0.894700  0.582740  1.0  -0.0719
  C  C467  1  0.364980  0.881700  0.634870  1.0  -0.0119
  C  C468  1  0.393720  0.776500  0.674980  1.0  -0.2249
  C  C469  1  0.415860  0.677600  0.663420  1.0  0.239
  C  C470  1  0.409460  0.685400  0.611830  1.0  -0.2279
  C  C471  1  0.380980  0.794800  0.572370  1.0  -0.0947
  C  C472  1  0.469160  0.476000  0.696670  1.0  0.0635
  C  C473  1  0.471310  0.279600  0.759130  1.0  0.0616
  C  C474  1  0.487830  0.072000  0.822540  1.0  0.2857
  C  C475  1  0.522360  0.983700  0.867600  1.0  -0.1967
  C  C476  1  0.511550  0.877100  0.891200  1.0  -0.0808
  C  C477  1  0.466680  0.854000  0.870340  1.0  -0.1696
  C  C478  1  0.432830  0.938300  0.823910  1.0  -0.0333
  C  C479  1  0.442980  0.049500  0.799760  1.0  -0.2541
  C  C480  1  0.456590  0.743800  0.899740  1.0  0.6355
  C  C481  1  0.018270  0.096300  0.420500  1.0  0.1172
  C  C482  1  0.068360  0.260000  0.492800  1.0  0.0016
  C  C483  1  0.018700  0.298300  0.468700  1.0  -0.0288
  C  C484  1  0.085640  0.990200  0.509800  1.0  0.0613
  C  C485  1  0.079960  0.832400  0.575500  1.0  -0.0157
  C  C486  1  0.944200  0.172800  0.397600  1.0  -0.0231
  C  C487  1  0.164260  0.859500  0.893760  1.0  0.0949
  C  C488  1  0.210740  0.056300  0.944100  1.0  -0.0158
  C  C489  1  0.211500  0.027800  0.894000  1.0  0.0039
  C  C490  1  0.282150  0.741400  0.122090  1.0  0.049
  C  C491  1  0.217440  0.906900  0.050800  1.0  -0.0117
  C  C492  1  0.179060  0.919800  0.986900  1.0  -0.0208
  C  C493  1  0.173890  0.509300  0.962090  1.0  0.6437
  C  C494  1  0.141940  0.394700  0.917260  1.0  -0.0711
  C  C495  1  0.135020  0.381700  0.865130  1.0  -0.0141
  C  C496  1  0.106280  0.276500  0.825020  1.0  -0.2261
  C  C497  1  0.084140  0.177600  0.836580  1.0  0.2384
  C  C498  1  0.090540  0.185400  0.888170  1.0  -0.2268
  C  C499  1  0.119020  0.294800  0.927630  1.0  -0.0945
  C  C500  1  0.030840  0.976000  0.803330  1.0  0.0628
  C  C501  1  0.028690  0.779600  0.740870  1.0  0.0607
  C  C502  1  0.012170  0.572000  0.677460  1.0  0.2857
  C  C503  1  0.977640  0.483700  0.632400  1.0  -0.1956
  C  C504  1  0.988450  0.377100  0.608800  1.0  -0.0808
  C  C505  1  0.033320  0.354000  0.629660  1.0  -0.1703
  C  C506  1  0.067170  0.438300  0.676090  1.0  -0.0341
  C  C507  1  0.057020  0.549500  0.700240  1.0  -0.2513
  C  C508  1  0.043410  0.243800  0.600260  1.0  0.6357
  C  C509  1  0.518270  0.596300  0.420500  1.0  0.1172
  C  C510  1  0.568360  0.760000  0.492800  1.0  0.0016
  C  C511  1  0.518700  0.798300  0.468700  1.0  -0.0288
  C  C512  1  0.585640  0.490200  0.509800  1.0  0.0613
  C  C513  1  0.579960  0.332400  0.575500  1.0  -0.0157
  C  C514  1  0.444200  0.672800  0.397600  1.0  -0.0231
  C  C515  1  0.664260  0.359500  0.893760  1.0  0.0949
  C  C516  1  0.710740  0.556300  0.944100  1.0  -0.0158
  C  C517  1  0.711500  0.527800  0.894000  1.0  0.0039
  C  C518  1  0.782150  0.241400  0.122090  1.0  0.049
  C  C519  1  0.717440  0.406900  0.050800  1.0  -0.0117
  C  C520  1  0.679060  0.419800  0.986900  1.0  -0.0208
  C  C521  1  0.673890  0.009300  0.962090  1.0  0.6437
  C  C522  1  0.641940  0.894700  0.917260  1.0  -0.0711
  C  C523  1  0.635020  0.881700  0.865130  1.0  -0.0141
  C  C524  1  0.606280  0.776500  0.825020  1.0  -0.2261
  C  C525  1  0.584140  0.677600  0.836580  1.0  0.2384
  C  C526  1  0.590540  0.685400  0.888170  1.0  -0.2268
  C  C527  1  0.619020  0.794800  0.927630  1.0  -0.0954
  C  C528  1  0.530840  0.476000  0.803330  1.0  0.0628
  C  C529  1  0.528690  0.279600  0.740870  1.0  0.0601
  C  C530  1  0.512170  0.072000  0.677460  1.0  0.2857
  C  C531  1  0.477640  0.983700  0.632400  1.0  -0.1962
  C  C532  1  0.488450  0.877100  0.608800  1.0  -0.0803
  C  C533  1  0.533320  0.854000  0.629660  1.0  -0.1703
  C  C534  1  0.567170  0.938300  0.676090  1.0  -0.0341
  C  C535  1  0.557020  0.049500  0.700240  1.0  -0.2538
  C  C536  1  0.543410  0.743800  0.600260  1.0  0.6357
  C  C537  1  0.000000  0.121800  0.250000  1.0  -0.0482
  C  C538  1  0.500000  0.621800  0.250000  1.0  -0.0482
  C  C539  1  0.000000  0.878200  0.750000  1.0  -0.048
  C  C540  1  0.500000  0.378200  0.750000  1.0  -0.048
  N  N541  1  0.241050  0.236800  0.561450  1.0  -0.334
  N  N542  1  0.197660  0.089600  0.454220  1.0  -0.1649
  N  N543  1  0.188190  0.117600  0.369330  1.0  -0.3164
  N  N544  1  0.994180  0.844900  0.942330  1.0  -0.1635
  N  N545  1  0.068190  0.023400  0.043910  1.0  -0.3545
  N  N546  1  0.066420  0.888300  0.968640  1.0  -0.3061
  N  N547  1  0.741050  0.736800  0.561450  1.0  -0.334
  N  N548  1  0.697660  0.589600  0.454220  1.0  -0.1649
  N  N549  1  0.688190  0.617600  0.369330  1.0  -0.3164
  N  N550  1  0.494180  0.344900  0.942330  1.0  -0.1635
  N  N551  1  0.568190  0.523400  0.043910  1.0  -0.3545
  N  N552  1  0.566420  0.388300  0.968640  1.0  -0.3061
  N  N553  1  0.758950  0.236800  0.938550  1.0  -0.3341
  N  N554  1  0.802340  0.089600  0.045780  1.0  -0.1665
  N  N555  1  0.811810  0.117600  0.130670  1.0  -0.3149
  N  N556  1  0.005820  0.844900  0.557670  1.0  -0.1633
  N  N557  1  0.931810  0.023400  0.456090  1.0  -0.3558
  N  N558  1  0.933580  0.888300  0.531360  1.0  -0.3069
  N  N559  1  0.258950  0.736800  0.938550  1.0  -0.3341
  N  N560  1  0.302340  0.589600  0.045780  1.0  -0.1665
  N  N561  1  0.311810  0.617600  0.130670  1.0  -0.3149
  N  N562  1  0.505820  0.344900  0.557670  1.0  -0.1633
  N  N563  1  0.431810  0.523400  0.456090  1.0  -0.3558
  N  N564  1  0.433580  0.388300  0.531360  1.0  -0.3069
  N  N565  1  0.758950  0.763200  0.438550  1.0  -0.3315
  N  N566  1  0.802340  0.910400  0.545780  1.0  -0.1666
  N  N567  1  0.811810  0.882400  0.630670  1.0  -0.3158
  N  N568  1  0.005820  0.155100  0.057670  1.0  -0.164
  N  N569  1  0.931810  0.976600  0.956090  1.0  -0.3586
  N  N570  1  0.933580  0.111700  0.031360  1.0  -0.3069
  N  N571  1  0.258950  0.263200  0.438550  1.0  -0.3315
  N  N572  1  0.302340  0.410400  0.545780  1.0  -0.1666
  N  N573  1  0.311810  0.382400  0.630670  1.0  -0.3158
  N  N574  1  0.505820  0.655100  0.057670  1.0  -0.164
  N  N575  1  0.431810  0.476600  0.956090  1.0  -0.359
  N  N576  1  0.433580  0.611700  0.031360  1.0  -0.3069
  N  N577  1  0.241050  0.763200  0.061450  1.0  -0.3309
  N  N578  1  0.197660  0.910400  0.954220  1.0  -0.1647
  N  N579  1  0.188190  0.882400  0.869330  1.0  -0.3153
  N  N580  1  0.994180  0.155100  0.442330  1.0  -0.1644
  N  N581  1  0.068190  0.976600  0.543910  1.0  -0.3581
  N  N582  1  0.066420  0.111700  0.468640  1.0  -0.3061
  N  N583  1  0.741050  0.263200  0.061450  1.0  -0.3309
  N  N584  1  0.697660  0.410400  0.954220  1.0  -0.1647
  N  N585  1  0.688190  0.382400  0.869330  1.0  -0.3153
  N  N586  1  0.494180  0.655100  0.442330  1.0  -0.1644
  N  N587  1  0.568190  0.476600  0.543910  1.0  -0.3557
  N  N588  1  0.566420  0.611700  0.468640  1.0  -0.3061
  O  O589  1  0.199390  0.422700  0.454080  1.0  -0.6255
  O  O590  1  0.173080  0.468700  0.503360  1.0  -0.6101
  O  O591  1  0.056830  0.928500  0.294700  1.0  -0.2617
  O  O592  1  0.996910  0.319600  0.194600  1.0  -0.2563
  O  O593  1  0.084020  0.772700  0.119620  1.0  -0.6202
  O  O594  1  0.010060  0.823600  0.056820  1.0  -0.5919
  O  O595  1  0.699390  0.922700  0.454080  1.0  -0.6255
  O  O596  1  0.673080  0.968700  0.503360  1.0  -0.6101
  O  O597  1  0.556830  0.428500  0.294700  1.0  -0.2617
  O  O598  1  0.496910  0.819600  0.194600  1.0  -0.2563
  O  O599  1  0.584020  0.272700  0.119620  1.0  -0.6202
  O  O600  1  0.510060  0.323600  0.056820  1.0  -0.5919
  O  O601  1  0.800610  0.422700  0.045920  1.0  -0.6258
  O  O602  1  0.826920  0.468700  0.996640  1.0  -0.6104
  O  O603  1  0.943170  0.928500  0.205300  1.0  -0.2601
  O  O604  1  0.003090  0.319600  0.305400  1.0  -0.2586
  O  O605  1  0.915980  0.772700  0.380380  1.0  -0.614
  O  O606  1  0.989940  0.823600  0.443180  1.0  -0.5952
  O  O607  1  0.300610  0.922700  0.045920  1.0  -0.6258
  O  O608  1  0.326920  0.968700  0.996640  1.0  -0.6104
  O  O609  1  0.443170  0.428500  0.205300  1.0  -0.2601
  O  O610  1  0.503090  0.819600  0.305400  1.0  -0.2586
  O  O611  1  0.415980  0.272700  0.380380  1.0  -0.614
  O  O612  1  0.489940  0.323600  0.443180  1.0  -0.5952
  O  O613  1  0.800610  0.577300  0.545920  1.0  -0.6265
  O  O614  1  0.826920  0.531300  0.496640  1.0  -0.6106
  O  O615  1  0.943170  0.071500  0.705300  1.0  -0.26
  O  O616  1  0.003090  0.680400  0.805400  1.0  -0.2575
  O  O617  1  0.915980  0.227300  0.880380  1.0  -0.614
  O  O618  1  0.989940  0.176400  0.943180  1.0  -0.5938
  O  O619  1  0.300610  0.077300  0.545920  1.0  -0.6265
  O  O620  1  0.326920  0.031300  0.496640  1.0  -0.6106
  O  O621  1  0.443170  0.571500  0.705300  1.0  -0.26
  O  O622  1  0.503090  0.180400  0.805400  1.0  -0.2575
  O  O623  1  0.415980  0.727300  0.880380  1.0  -0.614
  O  O624  1  0.489940  0.676400  0.943180  1.0  -0.5938
  O  O625  1  0.199390  0.577300  0.954080  1.0  -0.6267
  O  O626  1  0.173080  0.531300  0.003360  1.0  -0.61
  O  O627  1  0.056830  0.071500  0.794700  1.0  -0.2616
  O  O628  1  0.996910  0.680400  0.694600  1.0  -0.2564
  O  O629  1  0.084020  0.227300  0.619620  1.0  -0.6199
  O  O630  1  0.010060  0.176400  0.556820  1.0  -0.5903
  O  O631  1  0.699390  0.077300  0.954080  1.0  -0.6267
  O  O632  1  0.673080  0.031300  0.003360  1.0  -0.61
  O  O633  1  0.556830  0.571500  0.794700  1.0  -0.2616
  O  O634  1  0.496910  0.180400  0.694600  1.0  -0.2564
  O  O635  1  0.584020  0.727300  0.619620  1.0  -0.6199
  O  O636  1  0.510060  0.676400  0.556820  1.0  -0.5903
