# generated using pymatgen
data_Ni2H84C61(NO)12
_symmetry_space_group_name_H-M   'P 1'
_cell_length_a   37.35200000
_cell_length_b   8.83400000
_cell_length_c   29.56200000
_cell_angle_alpha   90.00000000
_cell_angle_beta   126.83800000
_cell_angle_gamma   90.00000000
_symmetry_Int_Tables_number   1
_chemical_formula_structural   Ni2H84C61(NO)12
_chemical_formula_sum   'Ni8 H336 C244 N48 O48'
_cell_volume   7806.85809607
_cell_formula_units_Z   4
loop_
 _symmetry_equiv_pos_site_id
 _symmetry_equiv_pos_as_xyz
  1  'x, y, z'
loop_
 _atom_site_type_symbol
 _atom_site_label
 _atom_site_symmetry_multiplicity
 _atom_site_fract_x
 _atom_site_fract_y
 _atom_site_fract_z
 _atom_site_occupancy
 _atom_site_charge
  Ni  Ni1  1  0.000000  0.500000  0.500000  1.0  0.5999
  Ni  Ni2  1  0.500000  0.000000  0.500000  1.0  0.5999
  Ni  Ni3  1  0.000000  0.500000  0.000000  1.0  0.5999
  Ni  Ni4  1  0.500000  0.000000  0.000000  1.0  0.5999
  Ni  Ni5  1  0.250000  0.250000  0.500000  1.0  0.5852
  Ni  Ni6  1  0.750000  0.250000  0.000000  1.0  0.5852
  Ni  Ni7  1  0.750000  0.750000  0.500000  1.0  0.5852
  Ni  Ni8  1  0.250000  0.750000  0.000000  1.0  0.5852
  H  H9  1  0.220600  0.178400  0.554300  1.0  0.1127
  H  H10  1  0.918500  0.569700  0.437400  1.0  0.0983
  H  H11  1  0.956300  0.341600  0.270600  1.0  0.0705
  H  H12  1  0.948800  0.228200  0.224400  1.0  0.0679
  H  H13  1  0.011700  0.542500  0.308700  1.0  0.0637
  H  H14  1  0.049000  0.416900  0.335500  1.0  0.0587
  H  H15  1  0.047900  0.978100  0.371600  1.0  0.108
  H  H16  1  0.030700  0.803100  0.413500  1.0  0.0977
  H  H17  1  0.902300  0.930100  0.310300  1.0  0.0985
  H  H18  1  0.919500  0.112500  0.270000  1.0  0.1285
  H  H19  1  0.077000  0.617400  0.395800  1.0  0.1164
  H  H20  1  0.121700  0.806500  0.459200  1.0  0.0933
  H  H21  1  0.146900  0.959000  0.353800  1.0  0.0959
  H  H22  1  0.100000  0.779100  0.288500  1.0  0.1285
  H  H23  1  0.885700  0.350000  0.395700  1.0  0.0661
  H  H24  1  0.925200  0.254600  0.446200  1.0  0.0707
  H  H25  1  0.067400  0.565200  0.627500  1.0  0.0768
  H  H26  1  0.068000  0.742900  0.628000  1.0  0.0949
  H  H27  1  0.008300  0.857300  0.526800  1.0  0.0753
  H  H28  1  0.006300  0.875600  0.578100  1.0  0.0703
  H  H29  1  0.936400  0.938300  0.499100  1.0  0.0789
  H  H30  1  0.934000  0.793700  0.466600  1.0  0.0798
  H  H31  1  0.996800  0.495800  0.598600  1.0  0.0742
  H  H32  1  0.993500  0.660700  0.615400  1.0  0.0853
  H  H33  1  0.887400  0.480800  0.477800  1.0  0.0972
  H  H34  1  0.928800  0.378300  0.519600  1.0  0.0879
  H  H35  1  0.924000  0.802200  0.553900  1.0  0.0847
  H  H36  1  0.888900  0.740600  0.492500  1.0  0.0768
  H  H37  1  0.156500  0.278900  0.393900  1.0  0.0783
  H  H38  1  0.143800  0.449400  0.377000  1.0  0.0808
  H  H39  1  0.179000  0.590700  0.342100  1.0  0.0862
  H  H40  1  0.221100  0.519200  0.350900  1.0  0.068
  H  H41  1  0.238000  0.705300  0.420500  1.0  0.0755
  H  H42  1  0.263800  0.552100  0.445900  1.0  0.0786
  H  H43  1  0.237500  0.612800  0.496100  1.0  0.0825
  H  H44  1  0.189600  0.648100  0.441000  1.0  0.0681
  H  H45  1  0.159400  0.334600  0.472500  1.0  0.0712
  H  H46  1  0.163000  0.511700  0.478200  1.0  0.0824
  H  H47  1  0.235600  0.490000  0.563900  1.0  0.0659
  H  H48  1  0.201400  0.402200  0.568600  1.0  0.0727
  H  H49  1  0.298300  0.343900  0.629900  1.0  0.0972
  H  H50  1  0.272300  0.242900  0.644900  1.0  0.0861
  H  H51  1  0.720600  0.678400  0.554300  1.0  0.1127
  H  H52  1  0.418500  0.069700  0.437400  1.0  0.0983
  H  H53  1  0.456300  0.841600  0.270600  1.0  0.0705
  H  H54  1  0.448800  0.728200  0.224400  1.0  0.0679
  H  H55  1  0.511700  0.042500  0.308700  1.0  0.0637
  H  H56  1  0.549000  0.916900  0.335500  1.0  0.0587
  H  H57  1  0.547900  0.478100  0.371600  1.0  0.108
  H  H58  1  0.530700  0.303100  0.413500  1.0  0.0977
  H  H59  1  0.402300  0.430100  0.310300  1.0  0.0985
  H  H60  1  0.419500  0.612500  0.270000  1.0  0.1285
  H  H61  1  0.577000  0.117400  0.395800  1.0  0.1164
  H  H62  1  0.621700  0.306500  0.459200  1.0  0.0933
  H  H63  1  0.646900  0.459000  0.353800  1.0  0.0959
  H  H64  1  0.600000  0.279100  0.288500  1.0  0.1285
  H  H65  1  0.385700  0.850000  0.395700  1.0  0.0661
  H  H66  1  0.425200  0.754600  0.446200  1.0  0.0707
  H  H67  1  0.567400  0.065200  0.627500  1.0  0.0768
  H  H68  1  0.568000  0.242900  0.628000  1.0  0.0949
  H  H69  1  0.508300  0.357300  0.526800  1.0  0.0753
  H  H70  1  0.506300  0.375600  0.578100  1.0  0.0703
  H  H71  1  0.436400  0.438300  0.499100  1.0  0.0789
  H  H72  1  0.434000  0.293700  0.466600  1.0  0.0798
  H  H73  1  0.496800  0.995800  0.598600  1.0  0.0742
  H  H74  1  0.493500  0.160700  0.615400  1.0  0.0853
  H  H75  1  0.387400  0.980800  0.477800  1.0  0.0972
  H  H76  1  0.428800  0.878300  0.519600  1.0  0.0879
  H  H77  1  0.424000  0.302200  0.553900  1.0  0.0847
  H  H78  1  0.388900  0.240600  0.492500  1.0  0.0768
  H  H79  1  0.656500  0.778900  0.393900  1.0  0.0783
  H  H80  1  0.643800  0.949400  0.377000  1.0  0.0808
  H  H81  1  0.679000  0.090700  0.342100  1.0  0.0862
  H  H82  1  0.721100  0.019200  0.350900  1.0  0.068
  H  H83  1  0.738000  0.205300  0.420500  1.0  0.0755
  H  H84  1  0.763800  0.052100  0.445900  1.0  0.0786
  H  H85  1  0.737500  0.112800  0.496100  1.0  0.0825
  H  H86  1  0.689600  0.148100  0.441000  1.0  0.0681
  H  H87  1  0.659400  0.834600  0.472500  1.0  0.0712
  H  H88  1  0.663000  0.011700  0.478200  1.0  0.0824
  H  H89  1  0.735600  0.990000  0.563900  1.0  0.0659
  H  H90  1  0.701400  0.902200  0.568600  1.0  0.0727
  H  H91  1  0.798300  0.843900  0.629900  1.0  0.0972
  H  H92  1  0.772300  0.742900  0.644900  1.0  0.0861
  H  H93  1  0.779400  0.178400  0.945700  1.0  0.1123
  H  H94  1  0.081500  0.569700  0.062600  1.0  0.0992
  H  H95  1  0.043700  0.341600  0.229400  1.0  0.0695
  H  H96  1  0.051200  0.228200  0.275600  1.0  0.0684
  H  H97  1  0.988300  0.542500  0.191300  1.0  0.0637
  H  H98  1  0.951000  0.416900  0.164500  1.0  0.0598
  H  H99  1  0.952100  0.978100  0.128400  1.0  0.1078
  H  H100  1  0.969300  0.803100  0.086500  1.0  0.0971
  H  H101  1  0.097700  0.930100  0.189700  1.0  0.0982
  H  H102  1  0.080500  0.112500  0.230000  1.0  0.128
  H  H103  1  0.923000  0.617400  0.104200  1.0  0.1167
  H  H104  1  0.878300  0.806500  0.040800  1.0  0.0933
  H  H105  1  0.853100  0.959000  0.146200  1.0  0.0952
  H  H106  1  0.900000  0.779100  0.211500  1.0  0.1296
  H  H107  1  0.114300  0.350000  0.104300  1.0  0.0676
  H  H108  1  0.074800  0.254600  0.053800  1.0  0.07
  H  H109  1  0.932600  0.565200  0.872500  1.0  0.0774
  H  H110  1  0.932000  0.742900  0.872000  1.0  0.0977
  H  H111  1  0.991700  0.857300  0.973200  1.0  0.0748
  H  H112  1  0.993700  0.875600  0.921900  1.0  0.0705
  H  H113  1  0.063600  0.938300  0.000900  1.0  0.0766
  H  H114  1  0.066000  0.793700  0.033400  1.0  0.0792
  H  H115  1  0.003200  0.495800  0.901400  1.0  0.0736
  H  H116  1  0.006500  0.660700  0.884600  1.0  0.0854
  H  H117  1  0.112600  0.480800  0.022200  1.0  0.0974
  H  H118  1  0.071200  0.378300  0.980400  1.0  0.0873
  H  H119  1  0.076000  0.802200  0.946100  1.0  0.0848
  H  H120  1  0.111100  0.740600  0.007500  1.0  0.0783
  H  H121  1  0.843500  0.278900  0.106100  1.0  0.0798
  H  H122  1  0.856200  0.449400  0.123000  1.0  0.0821
  H  H123  1  0.821000  0.590700  0.157900  1.0  0.088
  H  H124  1  0.778900  0.519200  0.149100  1.0  0.0679
  H  H125  1  0.762000  0.705300  0.079500  1.0  0.0738
  H  H126  1  0.736200  0.552100  0.054100  1.0  0.0781
  H  H127  1  0.762500  0.612800  0.003900  1.0  0.0834
  H  H128  1  0.810400  0.648100  0.059000  1.0  0.0677
  H  H129  1  0.840600  0.334600  0.027500  1.0  0.0703
  H  H130  1  0.837000  0.511700  0.021800  1.0  0.0831
  H  H131  1  0.764400  0.490000  0.936100  1.0  0.0679
  H  H132  1  0.798600  0.402200  0.931400  1.0  0.0723
  H  H133  1  0.701700  0.343900  0.870100  1.0  0.0988
  H  H134  1  0.727700  0.242900  0.855100  1.0  0.0857
  H  H135  1  0.279400  0.678400  0.945700  1.0  0.1123
  H  H136  1  0.581500  0.069700  0.062600  1.0  0.0992
  H  H137  1  0.543700  0.841600  0.229400  1.0  0.0695
  H  H138  1  0.551200  0.728200  0.275600  1.0  0.0684
  H  H139  1  0.488300  0.042500  0.191300  1.0  0.0637
  H  H140  1  0.451000  0.916900  0.164500  1.0  0.0598
  H  H141  1  0.452100  0.478100  0.128400  1.0  0.1078
  H  H142  1  0.469300  0.303100  0.086500  1.0  0.0971
  H  H143  1  0.597700  0.430100  0.189700  1.0  0.0982
  H  H144  1  0.580500  0.612500  0.230000  1.0  0.128
  H  H145  1  0.423000  0.117400  0.104200  1.0  0.1167
  H  H146  1  0.378300  0.306500  0.040800  1.0  0.0933
  H  H147  1  0.353100  0.459000  0.146200  1.0  0.0952
  H  H148  1  0.400000  0.279100  0.211500  1.0  0.1296
  H  H149  1  0.614300  0.850000  0.104300  1.0  0.0676
  H  H150  1  0.574800  0.754600  0.053800  1.0  0.07
  H  H151  1  0.432600  0.065200  0.872500  1.0  0.0774
  H  H152  1  0.432000  0.242900  0.872000  1.0  0.0977
  H  H153  1  0.491700  0.357300  0.973200  1.0  0.0748
  H  H154  1  0.493700  0.375600  0.921900  1.0  0.0705
  H  H155  1  0.563600  0.438300  0.000900  1.0  0.0766
  H  H156  1  0.566000  0.293700  0.033400  1.0  0.0792
  H  H157  1  0.503200  0.995800  0.901400  1.0  0.0736
  H  H158  1  0.506500  0.160700  0.884600  1.0  0.0854
  H  H159  1  0.612600  0.980800  0.022200  1.0  0.0974
  H  H160  1  0.571200  0.878300  0.980400  1.0  0.0873
  H  H161  1  0.576000  0.302200  0.946100  1.0  0.0848
  H  H162  1  0.611100  0.240600  0.007500  1.0  0.0783
  H  H163  1  0.343500  0.778900  0.106100  1.0  0.0798
  H  H164  1  0.356200  0.949400  0.123000  1.0  0.0821
  H  H165  1  0.321000  0.090700  0.157900  1.0  0.088
  H  H166  1  0.278900  0.019200  0.149100  1.0  0.0679
  H  H167  1  0.262000  0.205300  0.079500  1.0  0.0738
  H  H168  1  0.236200  0.052100  0.054100  1.0  0.0781
  H  H169  1  0.262500  0.112800  0.003900  1.0  0.0834
  H  H170  1  0.310400  0.148100  0.059000  1.0  0.0677
  H  H171  1  0.340600  0.834600  0.027500  1.0  0.0703
  H  H172  1  0.337000  0.011700  0.021800  1.0  0.0831
  H  H173  1  0.264400  0.990000  0.936100  1.0  0.0679
  H  H174  1  0.298600  0.902200  0.931400  1.0  0.0723
  H  H175  1  0.201700  0.843900  0.870100  1.0  0.0988
  H  H176  1  0.227700  0.742900  0.855100  1.0  0.0857
  H  H177  1  0.779400  0.821600  0.445700  1.0  0.1117
  H  H178  1  0.081500  0.430300  0.562600  1.0  0.1007
  H  H179  1  0.043700  0.658400  0.729400  1.0  0.0691
  H  H180  1  0.051200  0.771800  0.775600  1.0  0.068
  H  H181  1  0.988300  0.457500  0.691300  1.0  0.0638
  H  H182  1  0.951000  0.583100  0.664500  1.0  0.0594
  H  H183  1  0.952100  0.021900  0.628400  1.0  0.1077
  H  H184  1  0.969300  0.196900  0.586500  1.0  0.0971
  H  H185  1  0.097700  0.069900  0.689700  1.0  0.0981
  H  H186  1  0.080500  0.887500  0.730000  1.0  0.1286
  H  H187  1  0.923000  0.382600  0.604200  1.0  0.1167
  H  H188  1  0.878300  0.193500  0.540800  1.0  0.0933
  H  H189  1  0.853100  0.041000  0.646200  1.0  0.0952
  H  H190  1  0.900000  0.220900  0.711500  1.0  0.1296
  H  H191  1  0.114300  0.650000  0.604300  1.0  0.0679
  H  H192  1  0.074800  0.745400  0.553800  1.0  0.0693
  H  H193  1  0.932600  0.434800  0.372500  1.0  0.078
  H  H194  1  0.932000  0.257100  0.372000  1.0  0.0966
  H  H195  1  0.991700  0.142700  0.473200  1.0  0.0755
  H  H196  1  0.993700  0.124400  0.421900  1.0  0.0695
  H  H197  1  0.063600  0.061700  0.500900  1.0  0.0772
  H  H198  1  0.066000  0.206300  0.533400  1.0  0.0779
  H  H199  1  0.003200  0.504200  0.401400  1.0  0.075
  H  H200  1  0.006500  0.339300  0.384600  1.0  0.0856
  H  H201  1  0.112600  0.519200  0.522200  1.0  0.0966
  H  H202  1  0.071200  0.621700  0.480400  1.0  0.0858
  H  H203  1  0.076000  0.197800  0.446100  1.0  0.0848
  H  H204  1  0.111100  0.259400  0.507500  1.0  0.0782
  H  H205  1  0.843500  0.721100  0.606100  1.0  0.0791
  H  H206  1  0.856200  0.550600  0.623000  1.0  0.0823
  H  H207  1  0.821000  0.409300  0.657900  1.0  0.0892
  H  H208  1  0.778900  0.480800  0.649100  1.0  0.0678
  H  H209  1  0.762000  0.294700  0.579500  1.0  0.0767
  H  H210  1  0.736200  0.447900  0.554100  1.0  0.0783
  H  H211  1  0.762500  0.387200  0.503900  1.0  0.0824
  H  H212  1  0.810400  0.351900  0.559000  1.0  0.0671
  H  H213  1  0.840600  0.665400  0.527500  1.0  0.0705
  H  H214  1  0.837000  0.488300  0.521800  1.0  0.0821
  H  H215  1  0.764400  0.510000  0.436100  1.0  0.067
  H  H216  1  0.798600  0.597800  0.431400  1.0  0.0723
  H  H217  1  0.701700  0.656100  0.370100  1.0  0.0972
  H  H218  1  0.727700  0.757100  0.355100  1.0  0.0855
  H  H219  1  0.279400  0.321600  0.445700  1.0  0.1117
  H  H220  1  0.581500  0.930300  0.562600  1.0  0.1007
  H  H221  1  0.543700  0.158400  0.729400  1.0  0.0691
  H  H222  1  0.551200  0.271800  0.775600  1.0  0.068
  H  H223  1  0.488300  0.957500  0.691300  1.0  0.0638
  H  H224  1  0.451000  0.083100  0.664500  1.0  0.0594
  H  H225  1  0.452100  0.521900  0.628400  1.0  0.1077
  H  H226  1  0.469300  0.696900  0.586500  1.0  0.0971
  H  H227  1  0.597700  0.569900  0.689700  1.0  0.0981
  H  H228  1  0.580500  0.387500  0.730000  1.0  0.1286
  H  H229  1  0.423000  0.882600  0.604200  1.0  0.1167
  H  H230  1  0.378300  0.693500  0.540800  1.0  0.0933
  H  H231  1  0.353100  0.541000  0.646200  1.0  0.0952
  H  H232  1  0.400000  0.720900  0.711500  1.0  0.1296
  H  H233  1  0.614300  0.150000  0.604300  1.0  0.0679
  H  H234  1  0.574800  0.245400  0.553800  1.0  0.0693
  H  H235  1  0.432600  0.934800  0.372500  1.0  0.078
  H  H236  1  0.432000  0.757100  0.372000  1.0  0.0966
  H  H237  1  0.491700  0.642700  0.473200  1.0  0.0755
  H  H238  1  0.493700  0.624400  0.421900  1.0  0.0695
  H  H239  1  0.563600  0.561700  0.500900  1.0  0.0772
  H  H240  1  0.566000  0.706300  0.533400  1.0  0.0779
  H  H241  1  0.503200  0.004200  0.401400  1.0  0.075
  H  H242  1  0.506500  0.839300  0.384600  1.0  0.0856
  H  H243  1  0.612600  0.019200  0.522200  1.0  0.0966
  H  H244  1  0.571200  0.121700  0.480400  1.0  0.0858
  H  H245  1  0.576000  0.697800  0.446100  1.0  0.0848
  H  H246  1  0.611100  0.759400  0.507500  1.0  0.0782
  H  H247  1  0.343500  0.221100  0.606100  1.0  0.0791
  H  H248  1  0.356200  0.050600  0.623000  1.0  0.0823
  H  H249  1  0.321000  0.909300  0.657900  1.0  0.0892
  H  H250  1  0.278900  0.980800  0.649100  1.0  0.0678
  H  H251  1  0.262000  0.794700  0.579500  1.0  0.0767
  H  H252  1  0.236200  0.947900  0.554100  1.0  0.0783
  H  H253  1  0.262500  0.887200  0.503900  1.0  0.0824
  H  H254  1  0.310400  0.851900  0.559000  1.0  0.0671
  H  H255  1  0.340600  0.165400  0.527500  1.0  0.0705
  H  H256  1  0.337000  0.988300  0.521800  1.0  0.0821
  H  H257  1  0.264400  0.010000  0.436100  1.0  0.067
  H  H258  1  0.298600  0.097800  0.431400  1.0  0.0723
  H  H259  1  0.201700  0.156100  0.370100  1.0  0.0972
  H  H260  1  0.227700  0.257100  0.355100  1.0  0.0855
  H  H261  1  0.220600  0.821600  0.054300  1.0  0.1117
  H  H262  1  0.918500  0.430300  0.937400  1.0  0.0992
  H  H263  1  0.956300  0.658400  0.770600  1.0  0.0709
  H  H264  1  0.948800  0.771800  0.724400  1.0  0.0683
  H  H265  1  0.011700  0.457500  0.808700  1.0  0.0643
  H  H266  1  0.049000  0.583100  0.835500  1.0  0.0578
  H  H267  1  0.047900  0.021900  0.871600  1.0  0.108
  H  H268  1  0.030700  0.196900  0.913500  1.0  0.0977
  H  H269  1  0.902300  0.069900  0.810300  1.0  0.0981
  H  H270  1  0.919500  0.887500  0.770000  1.0  0.1285
  H  H271  1  0.077000  0.382600  0.895800  1.0  0.117
  H  H272  1  0.121700  0.193500  0.959200  1.0  0.0936
  H  H273  1  0.146900  0.041000  0.853800  1.0  0.096
  H  H274  1  0.100000  0.220900  0.788500  1.0  0.1284
  H  H275  1  0.885700  0.650000  0.895700  1.0  0.0662
  H  H276  1  0.925200  0.745400  0.946200  1.0  0.0694
  H  H277  1  0.067400  0.434800  0.127500  1.0  0.0753
  H  H278  1  0.068000  0.257100  0.128000  1.0  0.0954
  H  H279  1  0.008300  0.142700  0.026800  1.0  0.0757
  H  H280  1  0.006300  0.124400  0.078100  1.0  0.0701
  H  H281  1  0.936400  0.061700  0.999100  1.0  0.0778
  H  H282  1  0.934000  0.206300  0.966600  1.0  0.0787
  H  H283  1  0.996800  0.504200  0.098600  1.0  0.0745
  H  H284  1  0.993500  0.339300  0.115400  1.0  0.0849
  H  H285  1  0.887400  0.519200  0.977800  1.0  0.0972
  H  H286  1  0.928800  0.621700  0.019600  1.0  0.0868
  H  H287  1  0.924000  0.197800  0.053900  1.0  0.0845
  H  H288  1  0.888900  0.259400  0.992500  1.0  0.0754
  H  H289  1  0.156500  0.721100  0.893900  1.0  0.0788
  H  H290  1  0.143800  0.550600  0.877000  1.0  0.0808
  H  H291  1  0.179000  0.409300  0.842100  1.0  0.0857
  H  H292  1  0.221100  0.480800  0.850900  1.0  0.0675
  H  H293  1  0.238000  0.294700  0.920500  1.0  0.0738
  H  H294  1  0.263800  0.447900  0.945900  1.0  0.0777
  H  H295  1  0.237500  0.387200  0.996100  1.0  0.0825
  H  H296  1  0.189600  0.351900  0.941000  1.0  0.0677
  H  H297  1  0.159400  0.665400  0.972500  1.0  0.0708
  H  H298  1  0.163000  0.488300  0.978200  1.0  0.0838
  H  H299  1  0.235600  0.510000  0.063900  1.0  0.0688
  H  H300  1  0.201400  0.597800  0.068600  1.0  0.0731
  H  H301  1  0.298300  0.656100  0.129900  1.0  0.099
  H  H302  1  0.272300  0.757100  0.144900  1.0  0.0867
  H  H303  1  0.720600  0.321600  0.054300  1.0  0.1117
  H  H304  1  0.418500  0.930300  0.937400  1.0  0.0992
  H  H305  1  0.456300  0.158400  0.770600  1.0  0.0709
  H  H306  1  0.448800  0.271800  0.724400  1.0  0.0683
  H  H307  1  0.511700  0.957500  0.808700  1.0  0.0643
  H  H308  1  0.549000  0.083100  0.835500  1.0  0.0578
  H  H309  1  0.547900  0.521900  0.871600  1.0  0.108
  H  H310  1  0.530700  0.696900  0.913500  1.0  0.0977
  H  H311  1  0.402300  0.569900  0.810300  1.0  0.0981
  H  H312  1  0.419500  0.387500  0.770000  1.0  0.1285
  H  H313  1  0.577000  0.882600  0.895800  1.0  0.117
  H  H314  1  0.621700  0.693500  0.959200  1.0  0.0936
  H  H315  1  0.646900  0.541000  0.853800  1.0  0.096
  H  H316  1  0.600000  0.720900  0.788500  1.0  0.1284
  H  H317  1  0.385700  0.150000  0.895700  1.0  0.0662
  H  H318  1  0.425200  0.245400  0.946200  1.0  0.0694
  H  H319  1  0.567400  0.934800  0.127500  1.0  0.0753
  H  H320  1  0.568000  0.757100  0.128000  1.0  0.0954
  H  H321  1  0.508300  0.642700  0.026800  1.0  0.0757
  H  H322  1  0.506300  0.624400  0.078100  1.0  0.0701
  H  H323  1  0.436400  0.561700  0.999100  1.0  0.0778
  H  H324  1  0.434000  0.706300  0.966600  1.0  0.0787
  H  H325  1  0.496800  0.004200  0.098600  1.0  0.0745
  H  H326  1  0.493500  0.839300  0.115400  1.0  0.0849
  H  H327  1  0.387400  0.019200  0.977800  1.0  0.0972
  H  H328  1  0.428800  0.121700  0.019600  1.0  0.0868
  H  H329  1  0.424000  0.697800  0.053900  1.0  0.0845
  H  H330  1  0.388900  0.759400  0.992500  1.0  0.0754
  H  H331  1  0.656500  0.221100  0.893900  1.0  0.0788
  H  H332  1  0.643800  0.050600  0.877000  1.0  0.0808
  H  H333  1  0.679000  0.909300  0.842100  1.0  0.0857
  H  H334  1  0.721100  0.980800  0.850900  1.0  0.0675
  H  H335  1  0.738000  0.794700  0.920500  1.0  0.0738
  H  H336  1  0.763800  0.947900  0.945900  1.0  0.0777
  H  H337  1  0.737500  0.887200  0.996100  1.0  0.0825
  H  H338  1  0.689600  0.851900  0.941000  1.0  0.0677
  H  H339  1  0.659400  0.165400  0.972500  1.0  0.0708
  H  H340  1  0.663000  0.988300  0.978200  1.0  0.0838
  H  H341  1  0.735600  0.010000  0.063900  1.0  0.0688
  H  H342  1  0.701400  0.097800  0.068600  1.0  0.0731
  H  H343  1  0.798300  0.156100  0.129900  1.0  0.099
  H  H344  1  0.772300  0.257100  0.144900  1.0  0.0867
  C  C345  1  0.971250  0.281500  0.259000  1.0  0.0553
  C  C346  1  0.029900  0.480700  0.302580  1.0  0.0687
  C  C347  1  0.985830  0.067300  0.319160  1.0  0.3015
  C  C348  1  0.018800  0.971100  0.360500  1.0  -0.2077
  C  C349  1  0.008370  0.865500  0.385000  1.0  -0.0922
  C  C350  1  0.964370  0.850800  0.367650  1.0  -0.0635
  C  C351  1  0.931920  0.942400  0.323780  1.0  -0.0839
  C  C352  1  0.941860  0.051700  0.299160  1.0  -0.2621
  C  C353  1  0.083290  0.681700  0.335460  1.0  0.2579
  C  C354  1  0.090350  0.687800  0.386840  1.0  -0.209
  C  C355  1  0.117710  0.800300  0.424980  1.0  -0.0997
  C  C356  1  0.139130  0.903300  0.413650  1.0  -0.0801
  C  C357  1  0.169750  0.021400  0.457070  1.0  0.629
  C  C358  1  0.132310  0.891900  0.362100  1.0  -0.0502
  C  C359  1  0.104570  0.783900  0.323100  1.0  -0.2259
  C  C360  1  0.954880  0.744800  0.398800  1.0  0.6292
  C  C361  1  0.917910  0.346300  0.424300  1.0  -0.0158
  C  C362  1  0.058770  0.654500  0.603940  1.0  -0.0246
  C  C363  1  0.995170  0.816600  0.544400  1.0  -0.0366
  C  C364  1  0.944290  0.832000  0.503400  1.0  -0.1056
  C  C365  1  0.986060  0.597200  0.584100  1.0  0.0971
  C  C366  1  0.919760  0.475500  0.500480  1.0  0.0757
  C  C367  1  0.920570  0.746500  0.523300  1.0  -0.0098
  C  C368  1  0.168490  0.378300  0.396040  1.0  0.0953
  C  C369  1  0.204700  0.526000  0.366700  1.0  -0.0029
  C  C370  1  0.234470  0.598600  0.424700  1.0  -0.1032
  C  C371  1  0.215170  0.581400  0.457300  1.0  -0.0291
  C  C372  1  0.179950  0.419500  0.486300  1.0  -0.0288
  C  C373  1  0.215380  0.404300  0.549640  1.0  -0.0093
  C  C374  1  0.281460  0.250700  0.620380  1.0  0.0741
  C  C375  1  0.471250  0.781500  0.259000  1.0  0.0553
  C  C376  1  0.529900  0.980700  0.302580  1.0  0.0687
  C  C377  1  0.485830  0.567300  0.319160  1.0  0.3015
  C  C378  1  0.518800  0.471100  0.360500  1.0  -0.2077
  C  C379  1  0.508370  0.365500  0.385000  1.0  -0.0922
  C  C380  1  0.464370  0.350800  0.367650  1.0  -0.0635
  C  C381  1  0.431920  0.442400  0.323780  1.0  -0.0839
  C  C382  1  0.441860  0.551700  0.299160  1.0  -0.2621
  C  C383  1  0.583290  0.181700  0.335460  1.0  0.2579
  C  C384  1  0.590350  0.187800  0.386840  1.0  -0.209
  C  C385  1  0.617710  0.300300  0.424980  1.0  -0.0997
  C  C386  1  0.639130  0.403300  0.413650  1.0  -0.0801
  C  C387  1  0.669750  0.521400  0.457070  1.0  0.629
  C  C388  1  0.632310  0.391900  0.362100  1.0  -0.0502
  C  C389  1  0.604570  0.283900  0.323100  1.0  -0.2259
  C  C390  1  0.454880  0.244800  0.398800  1.0  0.6292
  C  C391  1  0.417910  0.846300  0.424300  1.0  -0.0158
  C  C392  1  0.558770  0.154500  0.603940  1.0  -0.0246
  C  C393  1  0.495170  0.316600  0.544400  1.0  -0.0366
  C  C394  1  0.444290  0.332000  0.503400  1.0  -0.1056
  C  C395  1  0.486060  0.097200  0.584100  1.0  0.0971
  C  C396  1  0.419760  0.975500  0.500480  1.0  0.0757
  C  C397  1  0.420570  0.246500  0.523300  1.0  -0.0098
  C  C398  1  0.668490  0.878300  0.396040  1.0  0.0953
  C  C399  1  0.704700  0.026000  0.366700  1.0  -0.0029
  C  C400  1  0.734470  0.098600  0.424700  1.0  -0.1032
  C  C401  1  0.715170  0.081400  0.457300  1.0  -0.0291
  C  C402  1  0.679950  0.919500  0.486300  1.0  -0.0288
  C  C403  1  0.715380  0.904300  0.549640  1.0  -0.0093
  C  C404  1  0.781460  0.750700  0.620380  1.0  0.0741
  C  C405  1  0.028750  0.281500  0.241000  1.0  0.0562
  C  C406  1  0.970100  0.480700  0.197420  1.0  0.0693
  C  C407  1  0.014170  0.067300  0.180840  1.0  0.3019
  C  C408  1  0.981200  0.971100  0.139500  1.0  -0.2059
  C  C409  1  0.991630  0.865500  0.115000  1.0  -0.0906
  C  C410  1  0.035630  0.850800  0.132350  1.0  -0.0625
  C  C411  1  0.068080  0.942400  0.176220  1.0  -0.0846
  C  C412  1  0.058140  0.051700  0.200840  1.0  -0.2621
  C  C413  1  0.916710  0.681700  0.164540  1.0  0.2582
  C  C414  1  0.909650  0.687800  0.113160  1.0  -0.2093
  C  C415  1  0.882290  0.800300  0.075020  1.0  -0.0988
  C  C416  1  0.860870  0.903300  0.086350  1.0  -0.079
  C  C417  1  0.830250  0.021400  0.042930  1.0  0.6283
  C  C418  1  0.867690  0.891900  0.137900  1.0  -0.048
  C  C419  1  0.895430  0.783900  0.176900  1.0  -0.2281
  C  C420  1  0.045120  0.744800  0.101200  1.0  0.628
  C  C421  1  0.082090  0.346300  0.075700  1.0  -0.0148
  C  C422  1  0.941230  0.654500  0.896060  1.0  -0.0264
  C  C423  1  0.004830  0.816600  0.955600  1.0  -0.0387
  C  C424  1  0.055710  0.832000  0.996600  1.0  -0.1069
  C  C425  1  0.013940  0.597200  0.915900  1.0  0.097
  C  C426  1  0.080240  0.475500  0.999520  1.0  0.0761
  C  C427  1  0.079430  0.746500  0.976700  1.0  -0.0081
  C  C428  1  0.831510  0.378300  0.103960  1.0  0.0955
  C  C429  1  0.795300  0.526000  0.133300  1.0  -0.0036
  C  C430  1  0.765530  0.598600  0.075300  1.0  -0.1044
  C  C431  1  0.784830  0.581400  0.042700  1.0  -0.028
  C  C432  1  0.820050  0.419500  0.013700  1.0  -0.0252
  C  C433  1  0.784620  0.404300  0.950360  1.0  -0.011
  C  C434  1  0.718540  0.250700  0.879620  1.0  0.0742
  C  C435  1  0.528750  0.781500  0.241000  1.0  0.0562
  C  C436  1  0.470100  0.980700  0.197420  1.0  0.0693
  C  C437  1  0.514170  0.567300  0.180840  1.0  0.3019
  C  C438  1  0.481200  0.471100  0.139500  1.0  -0.2059
  C  C439  1  0.491630  0.365500  0.115000  1.0  -0.0906
  C  C440  1  0.535630  0.350800  0.132350  1.0  -0.0625
  C  C441  1  0.568080  0.442400  0.176220  1.0  -0.0846
  C  C442  1  0.558140  0.551700  0.200840  1.0  -0.2621
  C  C443  1  0.416710  0.181700  0.164540  1.0  0.2582
  C  C444  1  0.409650  0.187800  0.113160  1.0  -0.2093
  C  C445  1  0.382290  0.300300  0.075020  1.0  -0.0988
  C  C446  1  0.360870  0.403300  0.086350  1.0  -0.079
  C  C447  1  0.330250  0.521400  0.042930  1.0  0.6283
  C  C448  1  0.367690  0.391900  0.137900  1.0  -0.048
  C  C449  1  0.395430  0.283900  0.176900  1.0  -0.2281
  C  C450  1  0.545120  0.244800  0.101200  1.0  0.628
  C  C451  1  0.582090  0.846300  0.075700  1.0  -0.0148
  C  C452  1  0.441230  0.154500  0.896060  1.0  -0.0264
  C  C453  1  0.504830  0.316600  0.955600  1.0  -0.0387
  C  C454  1  0.555710  0.332000  0.996600  1.0  -0.1069
  C  C455  1  0.513940  0.097200  0.915900  1.0  0.097
  C  C456  1  0.580240  0.975500  0.999520  1.0  0.0761
  C  C457  1  0.579430  0.246500  0.976700  1.0  -0.0081
  C  C458  1  0.331510  0.878300  0.103960  1.0  0.0955
  C  C459  1  0.295300  0.026000  0.133300  1.0  -0.0036
  C  C460  1  0.265530  0.098600  0.075300  1.0  -0.1044
  C  C461  1  0.284830  0.081400  0.042700  1.0  -0.028
  C  C462  1  0.320050  0.919500  0.013700  1.0  -0.0252
  C  C463  1  0.284620  0.904300  0.950360  1.0  -0.011
  C  C464  1  0.218540  0.750700  0.879620  1.0  0.0742
  C  C465  1  0.028750  0.718500  0.741000  1.0  0.0568
  C  C466  1  0.970100  0.519300  0.697420  1.0  0.0708
  C  C467  1  0.014170  0.932700  0.680840  1.0  0.302
  C  C468  1  0.981200  0.028900  0.639500  1.0  -0.2065
  C  C469  1  0.991630  0.134500  0.615000  1.0  -0.0902
  C  C470  1  0.035630  0.149200  0.632350  1.0  -0.0627
  C  C471  1  0.068080  0.057600  0.676220  1.0  -0.0849
  C  C472  1  0.058140  0.948300  0.700840  1.0  -0.2618
  C  C473  1  0.916710  0.318300  0.664540  1.0  0.2583
  C  C474  1  0.909650  0.312200  0.613160  1.0  -0.2097
  C  C475  1  0.882290  0.199700  0.575020  1.0  -0.0981
  C  C476  1  0.860870  0.096700  0.586350  1.0  -0.0795
  C  C477  1  0.830250  0.978600  0.542930  1.0  0.6279
  C  C478  1  0.867690  0.108100  0.637900  1.0  -0.0473
  C  C479  1  0.895430  0.216100  0.676900  1.0  -0.2284
  C  C480  1  0.045120  0.255200  0.601200  1.0  0.6277
  C  C481  1  0.082090  0.653700  0.575700  1.0  -0.0149
  C  C482  1  0.941230  0.345500  0.396060  1.0  -0.026
  C  C483  1  0.004830  0.183400  0.455600  1.0  -0.0367
  C  C484  1  0.055710  0.168000  0.496600  1.0  -0.107
  C  C485  1  0.013940  0.402800  0.415900  1.0  0.0976
  C  C486  1  0.080240  0.524500  0.499520  1.0  0.0768
  C  C487  1  0.079430  0.253500  0.476700  1.0  -0.0095
  C  C488  1  0.831510  0.621700  0.603960  1.0  0.0955
  C  C489  1  0.795300  0.474000  0.633300  1.0  -0.003
  C  C490  1  0.765530  0.401400  0.575300  1.0  -0.1027
  C  C491  1  0.784830  0.418600  0.542700  1.0  -0.0275
  C  C492  1  0.820050  0.580500  0.513700  1.0  -0.0252
  C  C493  1  0.784620  0.595700  0.450360  1.0  -0.0114
  C  C494  1  0.718540  0.749300  0.379620  1.0  0.0735
  C  C495  1  0.528750  0.218500  0.741000  1.0  0.0568
  C  C496  1  0.470100  0.019300  0.697420  1.0  0.0708
  C  C497  1  0.514170  0.432700  0.680840  1.0  0.302
  C  C498  1  0.481200  0.528900  0.639500  1.0  -0.2065
  C  C499  1  0.491630  0.634500  0.615000  1.0  -0.0902
  C  C500  1  0.535630  0.649200  0.632350  1.0  -0.0627
  C  C501  1  0.568080  0.557600  0.676220  1.0  -0.0849
  C  C502  1  0.558140  0.448300  0.700840  1.0  -0.2618
  C  C503  1  0.416710  0.818300  0.664540  1.0  0.2583
  C  C504  1  0.409650  0.812200  0.613160  1.0  -0.2097
  C  C505  1  0.382290  0.699700  0.575020  1.0  -0.0981
  C  C506  1  0.360870  0.596700  0.586350  1.0  -0.0795
  C  C507  1  0.330250  0.478600  0.542930  1.0  0.6279
  C  C508  1  0.367690  0.608100  0.637900  1.0  -0.0473
  C  C509  1  0.395430  0.716100  0.676900  1.0  -0.2284
  C  C510  1  0.545120  0.755200  0.601200  1.0  0.6277
  C  C511  1  0.582090  0.153700  0.575700  1.0  -0.0149
  C  C512  1  0.441230  0.845500  0.396060  1.0  -0.026
  C  C513  1  0.504830  0.683400  0.455600  1.0  -0.0367
  C  C514  1  0.555710  0.668000  0.496600  1.0  -0.107
  C  C515  1  0.513940  0.902800  0.415900  1.0  0.0976
  C  C516  1  0.580240  0.024500  0.499520  1.0  0.0768
  C  C517  1  0.579430  0.753500  0.476700  1.0  -0.0095
  C  C518  1  0.331510  0.121700  0.603960  1.0  0.0955
  C  C519  1  0.295300  0.974000  0.633300  1.0  -0.003
  C  C520  1  0.265530  0.901400  0.575300  1.0  -0.1027
  C  C521  1  0.284830  0.918600  0.542700  1.0  -0.0275
  C  C522  1  0.320050  0.080500  0.513700  1.0  -0.0252
  C  C523  1  0.284620  0.095700  0.450360  1.0  -0.0114
  C  C524  1  0.218540  0.249300  0.379620  1.0  0.0735
  C  C525  1  0.971250  0.718500  0.759000  1.0  0.0546
  C  C526  1  0.029900  0.519300  0.802580  1.0  0.0688
  C  C527  1  0.985830  0.932700  0.819160  1.0  0.3021
  C  C528  1  0.018800  0.028900  0.860500  1.0  -0.2078
  C  C529  1  0.008370  0.134500  0.885000  1.0  -0.0921
  C  C530  1  0.964370  0.149200  0.867650  1.0  -0.0629
  C  C531  1  0.931920  0.057600  0.823780  1.0  -0.0843
  C  C532  1  0.941860  0.948300  0.799160  1.0  -0.2622
  C  C533  1  0.083290  0.318300  0.835460  1.0  0.2578
  C  C534  1  0.090350  0.312200  0.886840  1.0  -0.2095
  C  C535  1  0.117710  0.199700  0.924980  1.0  -0.1003
  C  C536  1  0.139130  0.096700  0.913650  1.0  -0.0809
  C  C537  1  0.169750  0.978600  0.957070  1.0  0.6287
  C  C538  1  0.132310  0.108100  0.862100  1.0  -0.0506
  C  C539  1  0.104570  0.216100  0.823100  1.0  -0.2252
  C  C540  1  0.954880  0.255200  0.898800  1.0  0.6281
  C  C541  1  0.917910  0.653700  0.924300  1.0  -0.0159
  C  C542  1  0.058770  0.345500  0.103940  1.0  -0.0247
  C  C543  1  0.995170  0.183400  0.044400  1.0  -0.0364
  C  C544  1  0.944290  0.168000  0.003400  1.0  -0.1062
  C  C545  1  0.986060  0.402800  0.084100  1.0  0.0971
  C  C546  1  0.919760  0.524500  0.000480  1.0  0.0748
  C  C547  1  0.920570  0.253500  0.023300  1.0  -0.0094
  C  C548  1  0.168490  0.621700  0.896040  1.0  0.0958
  C  C549  1  0.204700  0.474000  0.866700  1.0  -0.0023
  C  C550  1  0.234470  0.401400  0.924700  1.0  -0.1056
  C  C551  1  0.215170  0.418600  0.957300  1.0  -0.0273
  C  C552  1  0.179950  0.580500  0.986300  1.0  -0.0287
  C  C553  1  0.215380  0.595700  0.049640  1.0  -0.0097
  C  C554  1  0.281460  0.749300  0.120380  1.0  0.0739
  C  C555  1  0.471250  0.218500  0.759000  1.0  0.0546
  C  C556  1  0.529900  0.019300  0.802580  1.0  0.0688
  C  C557  1  0.485830  0.432700  0.819160  1.0  0.3021
  C  C558  1  0.518800  0.528900  0.860500  1.0  -0.2078
  C  C559  1  0.508370  0.634500  0.885000  1.0  -0.0921
  C  C560  1  0.464370  0.649200  0.867650  1.0  -0.0629
  C  C561  1  0.431920  0.557600  0.823780  1.0  -0.0843
  C  C562  1  0.441860  0.448300  0.799160  1.0  -0.2622
  C  C563  1  0.583290  0.818300  0.835460  1.0  0.2578
  C  C564  1  0.590350  0.812200  0.886840  1.0  -0.2095
  C  C565  1  0.617710  0.699700  0.924980  1.0  -0.1003
  C  C566  1  0.639130  0.596700  0.913650  1.0  -0.0809
  C  C567  1  0.669750  0.478600  0.957070  1.0  0.6287
  C  C568  1  0.632310  0.608100  0.862100  1.0  -0.0506
  C  C569  1  0.604570  0.716100  0.823100  1.0  -0.2252
  C  C570  1  0.454880  0.755200  0.898800  1.0  0.6281
  C  C571  1  0.417910  0.153700  0.924300  1.0  -0.0159
  C  C572  1  0.558770  0.845500  0.103940  1.0  -0.0247
  C  C573  1  0.495170  0.683400  0.044400  1.0  -0.0364
  C  C574  1  0.444290  0.668000  0.003400  1.0  -0.1062
  C  C575  1  0.486060  0.902800  0.084100  1.0  0.0971
  C  C576  1  0.419760  0.024500  0.000480  1.0  0.0748
  C  C577  1  0.420570  0.753500  0.023300  1.0  -0.0094
  C  C578  1  0.668490  0.121700  0.896040  1.0  0.0958
  C  C579  1  0.704700  0.974000  0.866700  1.0  -0.0023
  C  C580  1  0.734470  0.901400  0.924700  1.0  -0.1056
  C  C581  1  0.715170  0.918600  0.957300  1.0  -0.0273
  C  C582  1  0.679950  0.080500  0.986300  1.0  -0.0287
  C  C583  1  0.715380  0.095700  0.049640  1.0  -0.0097
  C  C584  1  0.781460  0.249300  0.120380  1.0  0.0739
  C  C585  1  0.000000  0.383000  0.250000  1.0  -0.0407
  C  C586  1  0.500000  0.883000  0.250000  1.0  -0.0407
  C  C587  1  0.000000  0.617000  0.750000  1.0  -0.0406
  C  C588  1  0.500000  0.117000  0.750000  1.0  -0.0406
  N  N589  1  0.188980  0.374700  0.367220  1.0  -0.2727
  N  N590  1  0.200980  0.423500  0.456920  1.0  -0.2443
  N  N591  1  0.240330  0.262300  0.560700  1.0  -0.3649
  N  N592  1  0.938230  0.593100  0.542670  1.0  -0.2173
  N  N593  1  0.933010  0.480900  0.461740  1.0  -0.3692
  N  N594  1  0.009390  0.656400  0.560650  1.0  -0.2454
  N  N595  1  0.688980  0.874700  0.367220  1.0  -0.2727
  N  N596  1  0.700980  0.923500  0.456920  1.0  -0.2443
  N  N597  1  0.740330  0.762300  0.560700  1.0  -0.3649
  N  N598  1  0.438230  0.093100  0.542670  1.0  -0.2173
  N  N599  1  0.433010  0.980900  0.461740  1.0  -0.3692
  N  N600  1  0.509390  0.156400  0.560650  1.0  -0.2454
  N  N601  1  0.811020  0.374700  0.132780  1.0  -0.269
  N  N602  1  0.799020  0.423500  0.043080  1.0  -0.245
  N  N603  1  0.759670  0.262300  0.939300  1.0  -0.3676
  N  N604  1  0.061770  0.593100  0.957330  1.0  -0.2167
  N  N605  1  0.066990  0.480900  0.038260  1.0  -0.3672
  N  N606  1  0.990610  0.656400  0.939350  1.0  -0.2457
  N  N607  1  0.311020  0.874700  0.132780  1.0  -0.269
  N  N608  1  0.299020  0.923500  0.043080  1.0  -0.245
  N  N609  1  0.259670  0.762300  0.939300  1.0  -0.3676
  N  N610  1  0.561770  0.093100  0.957330  1.0  -0.2167
  N  N611  1  0.566990  0.980900  0.038260  1.0  -0.3672
  N  N612  1  0.490610  0.156400  0.939350  1.0  -0.2457
  N  N613  1  0.811020  0.625300  0.632780  1.0  -0.269
  N  N614  1  0.799020  0.576500  0.543080  1.0  -0.2451
  N  N615  1  0.759670  0.737700  0.439300  1.0  -0.3682
  N  N616  1  0.061770  0.406900  0.457330  1.0  -0.2165
  N  N617  1  0.066990  0.519100  0.538260  1.0  -0.3669
  N  N618  1  0.990610  0.343600  0.439350  1.0  -0.2457
  N  N619  1  0.311020  0.125300  0.632780  1.0  -0.269
  N  N620  1  0.299020  0.076500  0.543080  1.0  -0.2451
  N  N621  1  0.259670  0.237700  0.439300  1.0  -0.3682
  N  N622  1  0.561770  0.906900  0.457330  1.0  -0.2165
  N  N623  1  0.566990  0.019100  0.538260  1.0  -0.3669
  N  N624  1  0.490610  0.843600  0.439350  1.0  -0.2457
  N  N625  1  0.188980  0.625300  0.867220  1.0  -0.2716
  N  N626  1  0.200980  0.576500  0.956920  1.0  -0.2443
  N  N627  1  0.240330  0.737700  0.060700  1.0  -0.3646
  N  N628  1  0.938230  0.406900  0.042670  1.0  -0.2172
  N  N629  1  0.933010  0.519100  0.961740  1.0  -0.3688
  N  N630  1  0.009390  0.343600  0.060650  1.0  -0.2456
  N  N631  1  0.688980  0.125300  0.867220  1.0  -0.2716
  N  N632  1  0.700980  0.076500  0.956920  1.0  -0.2443
  N  N633  1  0.740330  0.237700  0.060700  1.0  -0.3646
  N  N634  1  0.438230  0.906900  0.042670  1.0  -0.2172
  N  N635  1  0.433010  0.019100  0.961740  1.0  -0.3688
  N  N636  1  0.509390  0.843600  0.060650  1.0  -0.2456
  O  O637  1  0.198470  0.080700  0.452980  1.0  -0.6237
  O  O638  1  0.164390  0.053300  0.494130  1.0  -0.6048
  O  O639  1  0.914130  0.720900  0.378380  1.0  -0.6071
  O  O640  1  0.987690  0.684700  0.443430  1.0  -0.5944
  O  O641  1  0.001650  0.176800  0.302510  1.0  -0.2655
  O  O642  1  0.056660  0.575600  0.294250  1.0  -0.2642
  O  O643  1  0.698470  0.580700  0.452980  1.0  -0.6237
  O  O644  1  0.664390  0.553300  0.494130  1.0  -0.6048
  O  O645  1  0.414130  0.220900  0.378380  1.0  -0.6071
  O  O646  1  0.487690  0.184700  0.443430  1.0  -0.5944
  O  O647  1  0.501650  0.676800  0.302510  1.0  -0.2655
  O  O648  1  0.556660  0.075600  0.294250  1.0  -0.2642
  O  O649  1  0.801530  0.080700  0.047020  1.0  -0.6229
  O  O650  1  0.835610  0.053300  0.005870  1.0  -0.6047
  O  O651  1  0.085870  0.720900  0.121620  1.0  -0.6107
  O  O652  1  0.012310  0.684700  0.056570  1.0  -0.5931
  O  O653  1  0.998350  0.176800  0.197490  1.0  -0.2637
  O  O654  1  0.943340  0.575600  0.205750  1.0  -0.2651
  O  O655  1  0.301530  0.580700  0.047020  1.0  -0.6229
  O  O656  1  0.335610  0.553300  0.005870  1.0  -0.6047
  O  O657  1  0.585870  0.220900  0.121620  1.0  -0.6107
  O  O658  1  0.512310  0.184700  0.056570  1.0  -0.5931
  O  O659  1  0.498350  0.676800  0.197490  1.0  -0.2637
  O  O660  1  0.443340  0.075600  0.205750  1.0  -0.2651
  O  O661  1  0.801530  0.919300  0.547020  1.0  -0.6224
  O  O662  1  0.835610  0.946700  0.505870  1.0  -0.6047
  O  O663  1  0.085870  0.279100  0.621620  1.0  -0.6113
  O  O664  1  0.012310  0.315300  0.556570  1.0  -0.5954
  O  O665  1  0.998350  0.823200  0.697490  1.0  -0.2619
  O  O666  1  0.943340  0.424400  0.705750  1.0  -0.2641
  O  O667  1  0.301530  0.419300  0.547020  1.0  -0.6224
  O  O668  1  0.335610  0.446700  0.505870  1.0  -0.6047
  O  O669  1  0.585870  0.779100  0.621620  1.0  -0.6113
  O  O670  1  0.512310  0.815300  0.556570  1.0  -0.5954
  O  O671  1  0.498350  0.323200  0.697490  1.0  -0.2619
  O  O672  1  0.443340  0.924400  0.705750  1.0  -0.2641
  O  O673  1  0.198470  0.919300  0.952980  1.0  -0.6225
  O  O674  1  0.164390  0.946700  0.994130  1.0  -0.6051
  O  O675  1  0.914130  0.279100  0.878380  1.0  -0.6072
  O  O676  1  0.987690  0.315300  0.943430  1.0  -0.5958
  O  O677  1  0.001650  0.823200  0.802510  1.0  -0.2645
  O  O678  1  0.056660  0.424400  0.794250  1.0  -0.2634
  O  O679  1  0.698470  0.419300  0.952980  1.0  -0.6225
  O  O680  1  0.664390  0.446700  0.994130  1.0  -0.6051
  O  O681  1  0.414130  0.779100  0.878380  1.0  -0.6072
  O  O682  1  0.487690  0.815300  0.943430  1.0  -0.5958
  O  O683  1  0.501650  0.323200  0.802510  1.0  -0.2645
  O  O684  1  0.556660  0.924400  0.794250  1.0  -0.2634
