# generated using pymatgen
data_CdH24C22N3O2
_symmetry_space_group_name_H-M   'P 1'
_cell_length_a   20.62710000
_cell_length_b   13.66690000
_cell_length_c   20.68390000
_cell_angle_alpha   90.00000000
_cell_angle_beta   90.00000000
_cell_angle_gamma   90.00000000
_symmetry_Int_Tables_number   1
_chemical_formula_structural   CdH24C22N3O2
_chemical_formula_sum   'Cd8 H192 C176 N24 O16'
_cell_volume   5830.96749183
_cell_formula_units_Z   8
loop_
 _symmetry_equiv_pos_site_id
 _symmetry_equiv_pos_as_xyz
  1  'x, y, z'
loop_
 _atom_site_type_symbol
 _atom_site_label
 _atom_site_symmetry_multiplicity
 _atom_site_fract_x
 _atom_site_fract_y
 _atom_site_fract_z
 _atom_site_occupancy
 _atom_site_charge
  Cd  Cd1  1  0.671890  0.627440  0.810440  1.0  0.6892
  Cd  Cd2  1  0.171890  0.127440  0.810440  1.0  0.6892
  Cd  Cd3  1  0.328110  0.372560  0.310440  1.0  0.6889
  Cd  Cd4  1  0.828110  0.872560  0.310440  1.0  0.6889
  Cd  Cd5  1  0.328110  0.627440  0.689560  1.0  0.6859
  Cd  Cd6  1  0.828110  0.127440  0.689560  1.0  0.6859
  Cd  Cd7  1  0.671890  0.372560  0.189560  1.0  0.6875
  Cd  Cd8  1  0.171890  0.872560  0.189560  1.0  0.6875
  H  H9  1  0.556300  0.615700  0.703200  1.0  0.0575
  H  H10  1  0.678400  0.413700  0.752300  1.0  0.064
  H  H11  1  0.805600  0.681400  0.884400  1.0  0.057
  H  H12  1  0.638000  0.802300  0.915100  1.0  0.062
  H  H13  1  0.533100  0.891700  0.842100  1.0  0.1118
  H  H14  1  0.483200  0.811100  0.822200  1.0  0.0988
  H  H15  1  0.500200  0.511100  0.640000  1.0  0.1245
  H  H16  1  0.626300  0.300900  0.689000  1.0  0.1206
  H  H17  1  0.852800  0.772700  0.962200  1.0  0.1041
  H  H18  1  0.682200  0.905600  0.991200  1.0  0.1197
  H  H19  1  0.535500  0.950600  0.737800  1.0  0.0874
  H  H20  1  0.548400  0.266000  0.603800  1.0  0.0733
  H  H21  1  0.507000  0.352000  0.574900  1.0  0.0843
  H  H22  1  0.833600  0.881400  0.061300  1.0  0.0891
  H  H23  1  0.773200  0.951100  0.059900  1.0  0.0845
  H  H24  1  0.433700  0.339800  0.661000  1.0  0.0814
  H  H25  1  0.475700  0.257000  0.692400  1.0  0.0793
  H  H26  1  0.873800  0.035900  0.028900  1.0  0.0876
  H  H27  1  0.408700  0.232500  0.573600  1.0  0.0881
  H  H28  1  0.447900  0.149200  0.608400  1.0  0.0877
  H  H29  1  0.304700  0.284600  0.623400  1.0  0.0893
  H  H30  1  0.396900  0.062300  0.698300  1.0  0.1131
  H  H31  1  0.222600  0.259700  0.694400  1.0  0.0695
  H  H32  1  0.312900  0.044500  0.768000  1.0  0.063
  H  H33  1  0.056300  0.115700  0.703200  1.0  0.0575
  H  H34  1  0.178400  0.913700  0.752300  1.0  0.064
  H  H35  1  0.305600  0.181400  0.884400  1.0  0.057
  H  H36  1  0.138000  0.302300  0.915100  1.0  0.062
  H  H37  1  0.033100  0.391700  0.842100  1.0  0.1118
  H  H38  1  0.983200  0.311100  0.822200  1.0  0.0988
  H  H39  1  0.000200  0.011100  0.640000  1.0  0.1245
  H  H40  1  0.126300  0.800900  0.689000  1.0  0.1206
  H  H41  1  0.352800  0.272700  0.962200  1.0  0.1041
  H  H42  1  0.182200  0.405600  0.991200  1.0  0.1197
  H  H43  1  0.035500  0.450600  0.737800  1.0  0.0874
  H  H44  1  0.048400  0.766000  0.603800  1.0  0.0733
  H  H45  1  0.007000  0.852000  0.574900  1.0  0.0843
  H  H46  1  0.333600  0.381400  0.061300  1.0  0.0891
  H  H47  1  0.273200  0.451100  0.059900  1.0  0.0845
  H  H48  1  0.933700  0.839800  0.661000  1.0  0.0814
  H  H49  1  0.975700  0.757000  0.692400  1.0  0.0793
  H  H50  1  0.373800  0.535900  0.028900  1.0  0.0876
  H  H51  1  0.908700  0.732500  0.573600  1.0  0.0881
  H  H52  1  0.947900  0.649200  0.608400  1.0  0.0877
  H  H53  1  0.804700  0.784600  0.623400  1.0  0.0893
  H  H54  1  0.896900  0.562300  0.698300  1.0  0.1131
  H  H55  1  0.722600  0.759700  0.694400  1.0  0.0695
  H  H56  1  0.812900  0.544500  0.768000  1.0  0.0631
  H  H57  1  0.443700  0.384300  0.203200  1.0  0.0571
  H  H58  1  0.321600  0.586300  0.252300  1.0  0.0644
  H  H59  1  0.194400  0.318600  0.384400  1.0  0.0581
  H  H60  1  0.362000  0.197700  0.415100  1.0  0.0619
  H  H61  1  0.466900  0.108300  0.342100  1.0  0.1115
  H  H62  1  0.516800  0.188900  0.322200  1.0  0.0961
  H  H63  1  0.499800  0.488900  0.140000  1.0  0.1247
  H  H64  1  0.373700  0.699100  0.189000  1.0  0.1208
  H  H65  1  0.147200  0.227300  0.462200  1.0  0.1071
  H  H66  1  0.317800  0.094400  0.491200  1.0  0.1203
  H  H67  1  0.464500  0.049400  0.237800  1.0  0.0883
  H  H68  1  0.451600  0.734000  0.103800  1.0  0.0734
  H  H69  1  0.493000  0.648000  0.074900  1.0  0.0842
  H  H70  1  0.166400  0.118600  0.561300  1.0  0.0891
  H  H71  1  0.226800  0.048900  0.559900  1.0  0.0844
  H  H72  1  0.566300  0.660200  0.161000  1.0  0.0818
  H  H73  1  0.524300  0.743000  0.192400  1.0  0.0786
  H  H74  1  0.126200  0.964100  0.528900  1.0  0.0881
  H  H75  1  0.591300  0.767500  0.073600  1.0  0.0879
  H  H76  1  0.552100  0.850800  0.108400  1.0  0.0884
  H  H77  1  0.695300  0.715400  0.123400  1.0  0.0895
  H  H78  1  0.603100  0.937700  0.198300  1.0  0.1134
  H  H79  1  0.777400  0.740300  0.194400  1.0  0.07
  H  H80  1  0.687100  0.955500  0.268000  1.0  0.0634
  H  H81  1  0.943700  0.884300  0.203200  1.0  0.0571
  H  H82  1  0.821600  0.086300  0.252300  1.0  0.0644
  H  H83  1  0.694400  0.818600  0.384400  1.0  0.0581
  H  H84  1  0.862000  0.697700  0.415100  1.0  0.0619
  H  H85  1  0.966900  0.608300  0.342100  1.0  0.1115
  H  H86  1  0.016800  0.688900  0.322200  1.0  0.0961
  H  H87  1  0.999800  0.988900  0.140000  1.0  0.1247
  H  H88  1  0.873700  0.199100  0.189000  1.0  0.1208
  H  H89  1  0.647200  0.727300  0.462200  1.0  0.1071
  H  H90  1  0.817800  0.594400  0.491200  1.0  0.1203
  H  H91  1  0.964500  0.549400  0.237800  1.0  0.0883
  H  H92  1  0.951600  0.234000  0.103800  1.0  0.0734
  H  H93  1  0.993000  0.148000  0.074900  1.0  0.0842
  H  H94  1  0.666400  0.618600  0.561300  1.0  0.0891
  H  H95  1  0.726800  0.548900  0.559900  1.0  0.0844
  H  H96  1  0.066300  0.160200  0.161000  1.0  0.0818
  H  H97  1  0.024300  0.243000  0.192400  1.0  0.0786
  H  H98  1  0.626200  0.464100  0.528900  1.0  0.0881
  H  H99  1  0.091300  0.267500  0.073600  1.0  0.0879
  H  H100  1  0.052100  0.350800  0.108400  1.0  0.0884
  H  H101  1  0.195300  0.215400  0.123400  1.0  0.0895
  H  H102  1  0.103100  0.437700  0.198300  1.0  0.1134
  H  H103  1  0.277400  0.240300  0.194400  1.0  0.07
  H  H104  1  0.187100  0.455500  0.268000  1.0  0.0634
  H  H105  1  0.443700  0.615700  0.796800  1.0  0.0566
  H  H106  1  0.321600  0.413700  0.747700  1.0  0.0634
  H  H107  1  0.194400  0.681400  0.615600  1.0  0.0564
  H  H108  1  0.362000  0.802300  0.584900  1.0  0.0621
  H  H109  1  0.466900  0.891700  0.657900  1.0  0.1098
  H  H110  1  0.516800  0.811100  0.677800  1.0  0.0963
  H  H111  1  0.499800  0.511100  0.860000  1.0  0.125
  H  H112  1  0.373700  0.300900  0.811000  1.0  0.1214
  H  H113  1  0.147200  0.772700  0.537800  1.0  0.105
  H  H114  1  0.317800  0.905600  0.508800  1.0  0.1204
  H  H115  1  0.464500  0.950600  0.762200  1.0  0.0845
  H  H116  1  0.451600  0.266000  0.896200  1.0  0.0745
  H  H117  1  0.493000  0.352000  0.925100  1.0  0.0835
  H  H118  1  0.166400  0.881400  0.438700  1.0  0.0891
  H  H119  1  0.226800  0.951100  0.440100  1.0  0.0834
  H  H120  1  0.566300  0.339800  0.839000  1.0  0.0816
  H  H121  1  0.524300  0.257000  0.807600  1.0  0.0789
  H  H122  1  0.126200  0.035900  0.471100  1.0  0.0887
  H  H123  1  0.591300  0.232500  0.926400  1.0  0.0885
  H  H124  1  0.552100  0.149200  0.891600  1.0  0.0892
  H  H125  1  0.695300  0.284600  0.876600  1.0  0.0889
  H  H126  1  0.603100  0.062300  0.801700  1.0  0.113
  H  H127  1  0.777400  0.259700  0.805600  1.0  0.0698
  H  H128  1  0.687100  0.044500  0.732000  1.0  0.0636
  H  H129  1  0.943700  0.115700  0.796800  1.0  0.0566
  H  H130  1  0.821600  0.913700  0.747700  1.0  0.0634
  H  H131  1  0.694400  0.181400  0.615600  1.0  0.0564
  H  H132  1  0.862000  0.302300  0.584900  1.0  0.0621
  H  H133  1  0.966900  0.391700  0.657900  1.0  0.1098
  H  H134  1  0.016800  0.311100  0.677800  1.0  0.0963
  H  H135  1  0.999800  0.011100  0.860000  1.0  0.125
  H  H136  1  0.873700  0.800900  0.811000  1.0  0.1214
  H  H137  1  0.647200  0.272700  0.537800  1.0  0.105
  H  H138  1  0.817800  0.405600  0.508800  1.0  0.1204
  H  H139  1  0.964500  0.450600  0.762200  1.0  0.0845
  H  H140  1  0.951600  0.766000  0.896200  1.0  0.0745
  H  H141  1  0.993000  0.852000  0.925100  1.0  0.0835
  H  H142  1  0.666400  0.381400  0.438700  1.0  0.0891
  H  H143  1  0.726800  0.451100  0.440100  1.0  0.0834
  H  H144  1  0.066300  0.839800  0.839000  1.0  0.0816
  H  H145  1  0.024300  0.757000  0.807600  1.0  0.0789
  H  H146  1  0.626200  0.535900  0.471100  1.0  0.0887
  H  H147  1  0.091300  0.732500  0.926400  1.0  0.0885
  H  H148  1  0.052100  0.649200  0.891600  1.0  0.0892
  H  H149  1  0.195300  0.784600  0.876600  1.0  0.0889
  H  H150  1  0.103100  0.562300  0.801700  1.0  0.113
  H  H151  1  0.277400  0.759700  0.805600  1.0  0.0698
  H  H152  1  0.187100  0.544500  0.732000  1.0  0.0635
  H  H153  1  0.556300  0.384300  0.296800  1.0  0.0569
  H  H154  1  0.678400  0.586300  0.247700  1.0  0.0641
  H  H155  1  0.805600  0.318600  0.115600  1.0  0.0573
  H  H156  1  0.638000  0.197700  0.084900  1.0  0.062
  H  H157  1  0.533100  0.108300  0.157900  1.0  0.1104
  H  H158  1  0.483200  0.188900  0.177800  1.0  0.0978
  H  H159  1  0.500200  0.488900  0.360000  1.0  0.1242
  H  H160  1  0.626300  0.699100  0.311000  1.0  0.1211
  H  H161  1  0.852800  0.227300  0.037800  1.0  0.1058
  H  H162  1  0.682200  0.094400  0.008800  1.0  0.1197
  H  H163  1  0.535500  0.049400  0.262200  1.0  0.0855
  H  H164  1  0.548400  0.734000  0.396200  1.0  0.0731
  H  H165  1  0.507000  0.648000  0.425100  1.0  0.0834
  H  H166  1  0.833600  0.118600  0.938700  1.0  0.089
  H  H167  1  0.773200  0.048900  0.940100  1.0  0.0845
  H  H168  1  0.433700  0.660200  0.339000  1.0  0.0824
  H  H169  1  0.475700  0.743000  0.307600  1.0  0.0787
  H  H170  1  0.873800  0.964100  0.971100  1.0  0.0884
  H  H171  1  0.408700  0.767500  0.426400  1.0  0.0891
  H  H172  1  0.447900  0.850800  0.391600  1.0  0.0872
  H  H173  1  0.304700  0.715400  0.376600  1.0  0.0894
  H  H174  1  0.396900  0.937700  0.301700  1.0  0.1134
  H  H175  1  0.222600  0.740300  0.305600  1.0  0.0691
  H  H176  1  0.312900  0.955500  0.232000  1.0  0.063
  H  H177  1  0.056300  0.884300  0.296800  1.0  0.0569
  H  H178  1  0.178400  0.086300  0.247700  1.0  0.0641
  H  H179  1  0.305600  0.818600  0.115600  1.0  0.0573
  H  H180  1  0.138000  0.697700  0.084900  1.0  0.062
  H  H181  1  0.033100  0.608300  0.157900  1.0  0.1104
  H  H182  1  0.983200  0.688900  0.177800  1.0  0.0978
  H  H183  1  0.000200  0.988900  0.360000  1.0  0.1242
  H  H184  1  0.126300  0.199100  0.311000  1.0  0.1211
  H  H185  1  0.352800  0.727300  0.037800  1.0  0.1058
  H  H186  1  0.182200  0.594400  0.008800  1.0  0.1197
  H  H187  1  0.035500  0.549400  0.262200  1.0  0.0855
  H  H188  1  0.048400  0.234000  0.396200  1.0  0.0731
  H  H189  1  0.007000  0.148000  0.425100  1.0  0.0834
  H  H190  1  0.333600  0.618600  0.938700  1.0  0.089
  H  H191  1  0.273200  0.548900  0.940100  1.0  0.0845
  H  H192  1  0.933700  0.160200  0.339000  1.0  0.0824
  H  H193  1  0.975700  0.243000  0.307600  1.0  0.0787
  H  H194  1  0.373800  0.464100  0.971100  1.0  0.0884
  H  H195  1  0.908700  0.267500  0.426400  1.0  0.0891
  H  H196  1  0.947900  0.350800  0.391600  1.0  0.0872
  H  H197  1  0.804700  0.215400  0.376600  1.0  0.0894
  H  H198  1  0.896900  0.437700  0.301700  1.0  0.1134
  H  H199  1  0.722600  0.240300  0.305600  1.0  0.0691
  H  H200  1  0.812900  0.455500  0.232000  1.0  0.063
  C  C201  1  0.575100  0.777100  0.796200  1.0  0.7375
  C  C202  1  0.570400  0.551300  0.700400  1.0  0.1786
  C  C203  1  0.642000  0.433200  0.729100  1.0  0.1628
  C  C204  1  0.780200  0.726600  0.906500  1.0  0.1596
  C  C205  1  0.682200  0.798000  0.923800  1.0  0.1668
  C  C206  1  0.520600  0.847800  0.807400  1.0  -0.3559
  C  C207  1  0.536700  0.489400  0.662100  1.0  -0.2379
  C  C208  1  0.611200  0.364900  0.691100  1.0  -0.2366
  C  C209  1  0.809200  0.782300  0.952400  1.0  -0.2157
  C  C210  1  0.708500  0.860200  0.970200  1.0  -0.2469
  C  C211  1  0.557400  0.393000  0.656000  1.0  0.1513
  C  C212  1  0.773800  0.854200  0.985100  1.0  0.1222
  C  C213  1  0.520500  0.320800  0.614800  1.0  -0.1991
  C  C214  1  0.806100  0.920100  0.033200  1.0  -0.2614
  C  C215  1  0.461500  0.284400  0.651500  1.0  -0.0905
  C  C216  1  0.421700  0.207200  0.615400  1.0  -0.2336
  C  C217  1  0.362000  0.180700  0.654500  1.0  0.1484
  C  C218  1  0.308300  0.234500  0.653500  1.0  -0.1964
  C  C219  1  0.362200  0.105700  0.696800  1.0  -0.2341
  C  C220  1  0.258300  0.218300  0.695700  1.0  0.177
  C  C221  1  0.310600  0.094500  0.737500  1.0  0.1924
  C  C222  1  0.075100  0.277100  0.796200  1.0  0.7375
  C  C223  1  0.070400  0.051300  0.700400  1.0  0.1786
  C  C224  1  0.142000  0.933200  0.729100  1.0  0.1628
  C  C225  1  0.280200  0.226600  0.906500  1.0  0.1596
  C  C226  1  0.182200  0.298000  0.923800  1.0  0.1668
  C  C227  1  0.020600  0.347800  0.807400  1.0  -0.3559
  C  C228  1  0.036700  0.989400  0.662100  1.0  -0.2379
  C  C229  1  0.111200  0.864900  0.691100  1.0  -0.2366
  C  C230  1  0.309200  0.282300  0.952400  1.0  -0.2157
  C  C231  1  0.208500  0.360200  0.970200  1.0  -0.2469
  C  C232  1  0.057400  0.893000  0.656000  1.0  0.1513
  C  C233  1  0.273800  0.354200  0.985100  1.0  0.1222
  C  C234  1  0.020500  0.820800  0.614800  1.0  -0.1991
  C  C235  1  0.306100  0.420100  0.033200  1.0  -0.2614
  C  C236  1  0.961500  0.784400  0.651500  1.0  -0.0905
  C  C237  1  0.921700  0.707200  0.615400  1.0  -0.2336
  C  C238  1  0.862000  0.680700  0.654500  1.0  0.1484
  C  C239  1  0.808300  0.734500  0.653500  1.0  -0.1964
  C  C240  1  0.862200  0.605700  0.696800  1.0  -0.2341
  C  C241  1  0.758300  0.718300  0.695700  1.0  0.177
  C  C242  1  0.810600  0.594500  0.737500  1.0  0.1924
  C  C243  1  0.424900  0.222900  0.296200  1.0  0.736
  C  C244  1  0.429600  0.448700  0.200400  1.0  0.1782
  C  C245  1  0.358000  0.566800  0.229100  1.0  0.1626
  C  C246  1  0.219800  0.273400  0.406500  1.0  0.1588
  C  C247  1  0.317800  0.202000  0.423800  1.0  0.1673
  C  C248  1  0.479400  0.152200  0.307400  1.0  -0.3544
  C  C249  1  0.463300  0.510600  0.162100  1.0  -0.2361
  C  C250  1  0.388800  0.635100  0.191100  1.0  -0.236
  C  C251  1  0.190800  0.217700  0.452400  1.0  -0.2151
  C  C252  1  0.291500  0.139800  0.470200  1.0  -0.2465
  C  C253  1  0.442600  0.607000  0.156000  1.0  0.151
  C  C254  1  0.226200  0.145800  0.485100  1.0  0.1228
  C  C255  1  0.479500  0.679200  0.114800  1.0  -0.2003
  C  C256  1  0.193900  0.079900  0.533200  1.0  -0.263
  C  C257  1  0.538500  0.715600  0.151500  1.0  -0.0913
  C  C258  1  0.578300  0.792800  0.115400  1.0  -0.2326
  C  C259  1  0.638000  0.819300  0.154500  1.0  0.1493
  C  C260  1  0.691700  0.765500  0.153500  1.0  -0.195
  C  C261  1  0.637800  0.894300  0.196800  1.0  -0.2326
  C  C262  1  0.741700  0.781700  0.195700  1.0  0.1768
  C  C263  1  0.689400  0.905500  0.237500  1.0  0.1908
  C  C264  1  0.924900  0.722900  0.296200  1.0  0.736
  C  C265  1  0.929600  0.948700  0.200400  1.0  0.1782
  C  C266  1  0.858000  0.066800  0.229100  1.0  0.1626
  C  C267  1  0.719800  0.773400  0.406500  1.0  0.1588
  C  C268  1  0.817800  0.702000  0.423800  1.0  0.1673
  C  C269  1  0.979400  0.652200  0.307400  1.0  -0.3544
  C  C270  1  0.963300  0.010600  0.162100  1.0  -0.2361
  C  C271  1  0.888800  0.135100  0.191100  1.0  -0.236
  C  C272  1  0.690800  0.717700  0.452400  1.0  -0.2151
  C  C273  1  0.791500  0.639800  0.470200  1.0  -0.2465
  C  C274  1  0.942600  0.107000  0.156000  1.0  0.151
  C  C275  1  0.726200  0.645800  0.485100  1.0  0.1228
  C  C276  1  0.979500  0.179200  0.114800  1.0  -0.2003
  C  C277  1  0.693900  0.579900  0.533200  1.0  -0.263
  C  C278  1  0.038500  0.215600  0.151500  1.0  -0.0913
  C  C279  1  0.078300  0.292800  0.115400  1.0  -0.2326
  C  C280  1  0.138000  0.319300  0.154500  1.0  0.1493
  C  C281  1  0.191700  0.265500  0.153500  1.0  -0.195
  C  C282  1  0.137800  0.394300  0.196800  1.0  -0.2326
  C  C283  1  0.241700  0.281700  0.195700  1.0  0.1768
  C  C284  1  0.189400  0.405500  0.237500  1.0  0.1908
  C  C285  1  0.424900  0.777100  0.703800  1.0  0.7355
  C  C286  1  0.429600  0.551300  0.799600  1.0  0.1788
  C  C287  1  0.358000  0.433200  0.770900  1.0  0.1624
  C  C288  1  0.219800  0.726600  0.593500  1.0  0.1589
  C  C289  1  0.317800  0.798000  0.576200  1.0  0.1676
  C  C290  1  0.479400  0.847800  0.692600  1.0  -0.3554
  C  C291  1  0.463300  0.489400  0.837900  1.0  -0.237
  C  C292  1  0.388800  0.364900  0.808900  1.0  -0.2363
  C  C293  1  0.190800  0.782300  0.547600  1.0  -0.2132
  C  C294  1  0.291500  0.860200  0.529800  1.0  -0.2477
  C  C295  1  0.442600  0.393000  0.844000  1.0  0.1506
  C  C296  1  0.226200  0.854200  0.514900  1.0  0.1226
  C  C297  1  0.479500  0.320800  0.885200  1.0  -0.2013
  C  C298  1  0.193900  0.920100  0.466800  1.0  -0.2625
  C  C299  1  0.538500  0.284400  0.848500  1.0  -0.0916
  C  C300  1  0.578300  0.207200  0.884600  1.0  -0.2359
  C  C301  1  0.638000  0.180700  0.845500  1.0  0.1493
  C  C302  1  0.691700  0.234500  0.846500  1.0  -0.1986
  C  C303  1  0.637800  0.105700  0.803200  1.0  -0.2345
  C  C304  1  0.741700  0.218300  0.804300  1.0  0.1768
  C  C305  1  0.689400  0.094500  0.762500  1.0  0.1914
  C  C306  1  0.924900  0.277100  0.703800  1.0  0.7355
  C  C307  1  0.929600  0.051300  0.799600  1.0  0.1788
  C  C308  1  0.858000  0.933200  0.770900  1.0  0.1624
  C  C309  1  0.719800  0.226600  0.593500  1.0  0.1589
  C  C310  1  0.817800  0.298000  0.576200  1.0  0.1676
  C  C311  1  0.979400  0.347800  0.692600  1.0  -0.3554
  C  C312  1  0.963300  0.989400  0.837900  1.0  -0.237
  C  C313  1  0.888800  0.864900  0.808900  1.0  -0.2363
  C  C314  1  0.690800  0.282300  0.547600  1.0  -0.2132
  C  C315  1  0.791500  0.360200  0.529800  1.0  -0.2477
  C  C316  1  0.942600  0.893000  0.844000  1.0  0.1506
  C  C317  1  0.726200  0.354200  0.514900  1.0  0.1226
  C  C318  1  0.979500  0.820800  0.885200  1.0  -0.2013
  C  C319  1  0.693900  0.420100  0.466800  1.0  -0.2625
  C  C320  1  0.038500  0.784400  0.848500  1.0  -0.0916
  C  C321  1  0.078300  0.707200  0.884600  1.0  -0.2359
  C  C322  1  0.138000  0.680700  0.845500  1.0  0.1493
  C  C323  1  0.191700  0.734500  0.846500  1.0  -0.1986
  C  C324  1  0.137800  0.605700  0.803200  1.0  -0.2345
  C  C325  1  0.241700  0.718300  0.804300  1.0  0.1768
  C  C326  1  0.189400  0.594500  0.762500  1.0  0.1914
  C  C327  1  0.575100  0.222900  0.203800  1.0  0.7356
  C  C328  1  0.570400  0.448700  0.299600  1.0  0.1779
  C  C329  1  0.642000  0.566800  0.270900  1.0  0.1625
  C  C330  1  0.780200  0.273400  0.093500  1.0  0.1597
  C  C331  1  0.682200  0.202000  0.076200  1.0  0.1653
  C  C332  1  0.520600  0.152200  0.192600  1.0  -0.3535
  C  C333  1  0.536700  0.510600  0.337900  1.0  -0.2355
  C  C334  1  0.611200  0.635100  0.308900  1.0  -0.2368
  C  C335  1  0.809200  0.217700  0.047600  1.0  -0.216
  C  C336  1  0.708500  0.139800  0.029800  1.0  -0.246
  C  C337  1  0.557400  0.607000  0.344000  1.0  0.151
  C  C338  1  0.773800  0.145800  0.014900  1.0  0.1221
  C  C339  1  0.520500  0.679200  0.385200  1.0  -0.2009
  C  C340  1  0.806100  0.079900  0.966800  1.0  -0.2625
  C  C341  1  0.461500  0.715600  0.348500  1.0  -0.0914
  C  C342  1  0.421700  0.792800  0.384600  1.0  -0.2354
  C  C343  1  0.362000  0.819300  0.345500  1.0  0.1498
  C  C344  1  0.308300  0.765500  0.346500  1.0  -0.1953
  C  C345  1  0.362200  0.894300  0.303200  1.0  -0.2309
  C  C346  1  0.258300  0.781700  0.304300  1.0  0.177
  C  C347  1  0.310600  0.905500  0.262500  1.0  0.1928
  C  C348  1  0.075100  0.722900  0.203800  1.0  0.7356
  C  C349  1  0.070400  0.948700  0.299600  1.0  0.1779
  C  C350  1  0.142000  0.066800  0.270900  1.0  0.1625
  C  C351  1  0.280200  0.773400  0.093500  1.0  0.1597
  C  C352  1  0.182200  0.702000  0.076200  1.0  0.1653
  C  C353  1  0.020600  0.652200  0.192600  1.0  -0.3535
  C  C354  1  0.036700  0.010600  0.337900  1.0  -0.2355
  C  C355  1  0.111200  0.135100  0.308900  1.0  -0.2368
  C  C356  1  0.309200  0.717700  0.047600  1.0  -0.216
  C  C357  1  0.208500  0.639800  0.029800  1.0  -0.246
  C  C358  1  0.057400  0.107000  0.344000  1.0  0.151
  C  C359  1  0.273800  0.645800  0.014900  1.0  0.1221
  C  C360  1  0.020500  0.179200  0.385200  1.0  -0.2009
  C  C361  1  0.306100  0.579900  0.966800  1.0  -0.2625
  C  C362  1  0.961500  0.215600  0.348500  1.0  -0.0914
  C  C363  1  0.921700  0.292800  0.384600  1.0  -0.2354
  C  C364  1  0.862000  0.319300  0.345500  1.0  0.1498
  C  C365  1  0.808300  0.265500  0.346500  1.0  -0.1953
  C  C366  1  0.862200  0.394300  0.303200  1.0  -0.2309
  C  C367  1  0.758300  0.281700  0.304300  1.0  0.177
  C  C368  1  0.810600  0.405500  0.262500  1.0  0.1928
  C  C369  1  0.500000  0.909200  0.750000  1.0  -0.0673
  C  C370  1  0.000000  0.409200  0.750000  1.0  -0.0673
  C  C371  1  0.500000  0.090800  0.250000  1.0  -0.0666
  C  C372  1  0.000000  0.590800  0.250000  1.0  -0.0666
  C  C373  1  0.847300  0.000000  0.000000  1.0  -0.1273
  C  C374  1  0.347300  0.500000  0.000000  1.0  -0.1273
  C  C375  1  0.152700  0.000000  0.500000  1.0  -0.1289
  C  C376  1  0.652700  0.500000  0.500000  1.0  -0.1289
  N  N377  1  0.622400  0.525800  0.734400  1.0  -0.3725
  N  N378  1  0.717500  0.732300  0.890900  1.0  -0.3702
  N  N379  1  0.258700  0.147500  0.737300  1.0  -0.3384
  N  N380  1  0.122400  0.025800  0.734400  1.0  -0.3725
  N  N381  1  0.217500  0.232300  0.890900  1.0  -0.3702
  N  N382  1  0.758700  0.647500  0.737300  1.0  -0.3384
  N  N383  1  0.377600  0.474200  0.234400  1.0  -0.3717
  N  N384  1  0.282500  0.267700  0.390900  1.0  -0.369
  N  N385  1  0.741300  0.852500  0.237300  1.0  -0.3376
  N  N386  1  0.877600  0.974200  0.234400  1.0  -0.3717
  N  N387  1  0.782500  0.767700  0.390900  1.0  -0.369
  N  N388  1  0.241300  0.352500  0.237300  1.0  -0.3376
  N  N389  1  0.377600  0.525800  0.765600  1.0  -0.3705
  N  N390  1  0.282500  0.732300  0.609100  1.0  -0.3691
  N  N391  1  0.741300  0.147500  0.762700  1.0  -0.3404
  N  N392  1  0.877600  0.025800  0.765600  1.0  -0.3705
  N  N393  1  0.782500  0.232300  0.609100  1.0  -0.3691
  N  N394  1  0.241300  0.647500  0.762700  1.0  -0.3404
  N  N395  1  0.622400  0.474200  0.265600  1.0  -0.3714
  N  N396  1  0.717500  0.267700  0.109100  1.0  -0.3703
  N  N397  1  0.258700  0.852500  0.262700  1.0  -0.3399
  N  N398  1  0.122400  0.974200  0.265600  1.0  -0.3714
  N  N399  1  0.217500  0.767700  0.109100  1.0  -0.3703
  N  N400  1  0.758700  0.352500  0.262700  1.0  -0.3399
  O  O401  1  0.575000  0.699900  0.831300  1.0  -0.6454
  O  O402  1  0.619000  0.793200  0.757300  1.0  -0.6475
  O  O403  1  0.075000  0.199900  0.831300  1.0  -0.6454
  O  O404  1  0.119000  0.293200  0.757300  1.0  -0.6472
  O  O405  1  0.425000  0.300100  0.331300  1.0  -0.647
  O  O406  1  0.381000  0.206800  0.257300  1.0  -0.6494
  O  O407  1  0.925000  0.800100  0.331300  1.0  -0.647
  O  O408  1  0.881000  0.706800  0.257300  1.0  -0.6492
  O  O409  1  0.425000  0.699900  0.668700  1.0  -0.6465
  O  O410  1  0.381000  0.793200  0.742700  1.0  -0.6481
  O  O411  1  0.925000  0.199900  0.668700  1.0  -0.6465
  O  O412  1  0.881000  0.293200  0.742700  1.0  -0.6477
  O  O413  1  0.575000  0.300100  0.168700  1.0  -0.6483
  O  O414  1  0.619000  0.206800  0.242700  1.0  -0.6468
  O  O415  1  0.075000  0.800100  0.168700  1.0  -0.6483
  O  O416  1  0.119000  0.706800  0.242700  1.0  -0.6464
