# generated using pymatgen
data_Cd2H11C24(N2O7)3
_symmetry_space_group_name_H-M   'P 1'
_cell_length_a   12.17700000
_cell_length_b   13.17500000
_cell_length_c   15.81400000
_cell_angle_alpha   66.02800000
_cell_angle_beta   87.24900000
_cell_angle_gamma   89.98600000
_symmetry_Int_Tables_number   1
_chemical_formula_structural   Cd2H11C24(N2O7)3
_chemical_formula_sum   'Cd4 H22 C48 N12 O42'
_cell_volume   2315.04687600
_cell_formula_units_Z   2
loop_
 _symmetry_equiv_pos_site_id
 _symmetry_equiv_pos_as_xyz
  1  'x, y, z'
loop_
 _atom_site_type_symbol
 _atom_site_label
 _atom_site_symmetry_multiplicity
 _atom_site_fract_x
 _atom_site_fract_y
 _atom_site_fract_z
 _atom_site_occupancy
 _atom_site_charge
  Cd  Cd1  1  0.520000  0.315110  0.469360  1.0  1.0561
  Cd  Cd2  1  0.302490  0.070610  0.605590  1.0  1.1313
  Cd  Cd3  1  0.022080  0.143720  0.523160  1.0  1.1151
  Cd  Cd4  1  0.736800  0.121330  0.455280  1.0  1.1108
  H  H5  1  0.230000  0.465600  0.368300  1.0  0.1178
  H  H6  1  0.316600  0.473700  0.231600  1.0  0.1572
  H  H7  1  0.228500  0.376700  0.268000  1.0  0.1592
  H  H8  1  0.353500  0.350500  0.282100  1.0  0.1568
  H  H9  1  0.183500  0.042100  0.860200  1.0  0.1426
  H  H10  1  0.930600  0.237200  0.770100  1.0  0.1294
  H  H11  1  0.100500  0.234100  0.211500  1.0  0.1371
  H  H12  1  0.850200  0.010500  0.273800  1.0  0.1516
  H  H13  1  0.919000  0.915700  0.813300  1.0  0.1488
  H  H14  1  0.675300  0.803500  0.711800  1.0  0.1316
  H  H15  1  0.570300  0.518200  0.200900  1.0  0.1567
  H  H16  1  0.829400  0.360400  0.153700  1.0  0.1396
  H  H17  1  0.008400  0.902200  0.500900  1.0  0.1361
  H  H18  1  0.114300  0.703300  0.745400  1.0  0.1256
  H  H19  1  0.985900  0.380700  0.492300  1.0  0.1353
  H  H20  1  0.700300  0.372800  0.633500  1.0  0.1453
  H  H21  1  0.506700  0.955400  0.396800  1.0  0.1266
  H  H22  1  0.611900  0.804400  0.485700  1.0  0.1451
  H  H23  1  0.506500  0.813400  0.542900  1.0  0.1568
  H  H24  1  0.621100  0.854000  0.560000  1.0  0.1451
  H  H25  1  0.405300  0.524800  0.375700  1.0  0.1786
  H  H26  1  0.682500  0.999400  0.342500  1.0  0.1518
  C  C27  1  0.256500  0.301400  0.447200  1.0  0.6807
  C  C28  1  0.287200  0.412300  0.370700  1.0  0.1284
  C  C29  1  0.297400  0.402400  0.280000  1.0  -0.317
  C  C30  1  0.093000  0.152100  0.705100  1.0  0.7742
  C  C31  1  0.061700  0.139100  0.801200  1.0  -0.0862
  C  C32  1  0.121800  0.077700  0.870800  1.0  -0.0231
  C  C33  1  0.090300  0.066900  0.963100  1.0  0.0379
  C  C34  1  0.013100  0.126800  0.982500  1.0  0.0726
  C  C35  1  0.950300  0.194100  0.905600  1.0  0.0622
  C  C36  1  0.974500  0.196100  0.818400  1.0  -0.0584
  C  C37  1  0.995300  0.130100  0.074600  1.0  0.0398
  C  C38  1  0.064200  0.195300  0.106000  1.0  -0.0137
  C  C39  1  0.053600  0.191300  0.193800  1.0  -0.0361
  C  C40  1  0.973900  0.124500  0.256200  1.0  -0.1284
  C  C41  1  0.903000  0.057800  0.231800  1.0  -0.054
  C  C42  1  0.916400  0.066800  0.141000  1.0  0.0093
  C  C43  1  0.968800  0.120900  0.352900  1.0  0.723
  C  C44  1  0.826600  0.966000  0.650400  1.0  0.6852
  C  C45  1  0.800500  0.869300  0.746300  1.0  -0.0759
  C  C46  1  0.862500  0.864300  0.821900  1.0  -0.079
  C  C47  1  0.837600  0.784500  0.905200  1.0  0.1262
  C  C48  1  0.759300  0.698900  0.923300  1.0  0.0422
  C  C49  1  0.702600  0.704200  0.849000  1.0  0.021
  C  C50  1  0.720300  0.795900  0.759800  1.0  0.0121
  C  C51  1  0.740500  0.600600  0.015700  1.0  0.032
  C  C52  1  0.652600  0.605200  0.074100  1.0  0.0471
  C  C53  1  0.630100  0.516300  0.162700  1.0  -0.0145
  C  C54  1  0.699900  0.427700  0.189700  1.0  -0.1047
  C  C55  1  0.784300  0.421800  0.134300  1.0  -0.018
  C  C56  1  0.803700  0.506800  0.049200  1.0  0.0992
  C  C57  1  0.673400  0.332100  0.286000  1.0  0.7282
  C  C58  1  0.149700  0.912000  0.621700  1.0  0.7093
  C  C59  1  0.075000  0.819200  0.621300  1.0  -0.1042
  C  C60  1  0.012800  0.832800  0.549600  1.0  -0.0681
  C  C61  1  0.954600  0.741700  0.549000  1.0  0.0721
  C  C62  1  0.958300  0.635400  0.618900  1.0  0.0503
  C  C63  1  0.022000  0.627200  0.691400  1.0  0.2192
  C  C64  1  0.075100  0.713400  0.693600  1.0  -0.008
  C  C65  1  0.916400  0.539100  0.604400  1.0  0.0042
  C  C66  1  0.982400  0.497900  0.551000  1.0  0.0731
  C  C67  1  0.940600  0.410300  0.525200  1.0  -0.0482
  C  C68  1  0.831800  0.372100  0.550600  1.0  -0.1138
  C  C69  1  0.768400  0.406600  0.609200  1.0  -0.0153
  C  C70  1  0.805000  0.487800  0.630400  1.0  0.0426
  C  C71  1  0.793000  0.280800  0.521300  1.0  0.7384
  C  C72  1  0.496500  0.033000  0.488900  1.0  0.6828
  C  C73  1  0.556200  0.963100  0.441000  1.0  0.0842
  C  C74  1  0.575700  0.848200  0.514100  1.0  -0.3231
  N  N75  1  0.035200  0.517500  0.764100  1.0  0.6069
  N  N76  1  0.158700  0.988900  0.038600  1.0  0.6325
  N  N77  1  0.862600  0.258800  0.920600  1.0  0.6288
  N  N78  1  0.152300  0.268700  0.042800  1.0  0.6103
  N  N79  1  0.841600  0.993300  0.117700  1.0  0.6505
  N  N80  1  0.894500  0.792500  0.983900  1.0  0.6285
  N  N81  1  0.575200  0.695700  0.053500  1.0  0.6337
  N  N82  1  0.899300  0.503900  0.992500  1.0  0.6339
  N  N83  1  0.611200  0.625500  0.854900  1.0  0.6357
  N  N84  1  0.736600  0.523800  0.691800  1.0  0.6564
  N  N85  1  0.091400  0.536200  0.518200  1.0  0.5862
  N  N86  1  0.891000  0.758200  0.468700  1.0  0.6023
  O  O87  1  0.338600  0.241600  0.489500  1.0  -0.6563
  O  O88  1  0.158300  0.279800  0.465700  1.0  -0.6438
  O  O89  1  0.390700  0.449700  0.392100  1.0  -0.5417
  O  O90  1  0.188100  0.120400  0.695100  1.0  -0.7256
  O  O91  1  0.023600  0.187000  0.646400  1.0  -0.528
  O  O92  1  0.252000  0.971900  0.017500  1.0  -0.3222
  O  O93  1  0.113000  0.940600  0.111900  1.0  -0.3334
  O  O94  1  0.786400  0.280100  0.864700  1.0  -0.4497
  O  O95  1  0.861300  0.290600  0.981900  1.0  -0.4389
  O  O96  1  0.171200  0.265900  0.971600  1.0  -0.3156
  O  O97  1  0.192200  0.337900  0.064900  1.0  -0.3282
  O  O98  1  0.798400  0.035500  0.042700  1.0  -0.4553
  O  O99  1  0.822400  0.900400  0.176400  1.0  -0.3947
  O  O100  1  0.895000  0.054500  0.410600  1.0  -0.6792
  O  O101  1  0.038300  0.177300  0.370800  1.0  -0.578
  O  O102  1  0.919900  0.003300  0.633800  1.0  -0.5654
  O  O103  1  0.744300  0.987100  0.597400  1.0  -0.5768
  O  O104  1  0.931400  0.876500  0.975300  1.0  -0.331
  O  O105  1  0.924000  0.704300  0.043600  1.0  -0.3462
  O  O106  1  0.618600  0.530800  0.913400  1.0  -0.3332
  O  O107  1  0.540500  0.658300  0.802100  1.0  -0.3647
  O  O108  1  0.618300  0.791700  0.013600  1.0  -0.4208
  O  O109  1  0.481200  0.682200  0.065400  1.0  -0.3226
  O  O110  1  0.904100  0.551300  0.908800  1.0  -0.3543
  O  O111  1  0.973100  0.449200  0.032500  1.0  -0.3672
  O  O112  1  0.746000  0.262100  0.313700  1.0  -0.5551
  O  O113  1  0.584400  0.339200  0.329800  1.0  -0.6237
  O  O114  1  0.219400  0.891100  0.680900  1.0  -0.6005
  O  O115  1  0.147100  0.006200  0.552800  1.0  -0.6647
  O  O116  1  0.118700  0.504300  0.813200  1.0  -0.5001
  O  O117  1  0.965800  0.444500  0.779000  1.0  -0.4777
  O  O118  1  0.941400  0.819600  0.391500  1.0  -0.4747
  O  O119  1  0.803800  0.712300  0.480100  1.0  -0.48
  O  O120  1  0.760200  0.605600  0.702800  1.0  -0.3741
  O  O121  1  0.649700  0.476600  0.718400  1.0  -0.3335
  O  O122  1  0.153700  0.519100  0.581700  1.0  -0.4607
  O  O123  1  0.116300  0.578800  0.441900  1.0  -0.3823
  O  O124  1  0.691900  0.258200  0.533200  1.0  -0.6778
  O  O125  1  0.861300  0.241400  0.484100  1.0  -0.6168
  O  O126  1  0.547800  0.115800  0.489500  1.0  -0.6232
  O  O127  1  0.399200  0.000800  0.520100  1.0  -0.5718
  O  O128  1  0.653500  0.010500  0.393500  1.0  -0.6122
