# generated using pymatgen
data_LaH12C21NO6
_symmetry_space_group_name_H-M   'P 1'
_cell_length_a   24.19700000
_cell_length_b   24.19700000
_cell_length_c   13.14260000
_cell_angle_alpha   90.00000000
_cell_angle_beta   90.00000000
_cell_angle_gamma   120.00000000
_symmetry_Int_Tables_number   1
_chemical_formula_structural   LaH12C21NO6
_chemical_formula_sum   'La9 H108 C189 N9 O54'
_cell_volume   6663.99973067
_cell_formula_units_Z   9
loop_
 _symmetry_equiv_pos_site_id
 _symmetry_equiv_pos_as_xyz
  1  'x, y, z'
loop_
 _atom_site_type_symbol
 _atom_site_label
 _atom_site_symmetry_multiplicity
 _atom_site_fract_x
 _atom_site_fract_y
 _atom_site_fract_z
 _atom_site_occupancy
 _atom_site_charge
  La  La1  1  0.648280  0.981610  0.166670  1.0  2.1687
  La  La2  1  0.314950  0.314950  0.500000  1.0  2.1688
  La  La3  1  0.018390  0.666667  0.166670  1.0  2.1679
  La  La4  1  0.685050  0.000000  0.500000  1.0  2.1679
  La  La5  1  0.333333  0.351720  0.166670  1.0  2.1691
  La  La6  1  0.000000  0.685050  0.500000  1.0  2.1689
  La  La7  1  0.981610  0.648280  0.833330  1.0  2.1686
  La  La8  1  0.666667  0.018390  0.833330  1.0  2.1689
  La  La9  1  0.351720  0.333333  0.833330  1.0  2.168
  H  H10  1  0.884400  0.281200  0.945400  1.0  0.127
  H  H11  1  0.790100  0.184900  0.961300  1.0  0.099
  H  H12  1  0.977800  0.203700  0.088400  1.0  0.1205
  H  H13  1  0.880700  0.108200  0.104600  1.0  0.1125
  H  H14  1  0.953000  0.355000  0.131500  1.0  0.1127
  H  H15  1  0.958600  0.452800  0.135500  1.0  0.0984
  H  H16  1  0.551070  0.614530  0.278730  1.0  0.127
  H  H17  1  0.456770  0.518230  0.294630  1.0  0.0969
  H  H18  1  0.644470  0.537030  0.421730  1.0  0.1205
  H  H19  1  0.547370  0.441530  0.437930  1.0  0.1127
  H  H20  1  0.619670  0.688330  0.464830  1.0  0.1129
  H  H21  1  0.625270  0.786130  0.468830  1.0  0.0984
  H  H22  1  0.217730  0.947870  0.612070  1.0  0.1271
  H  H23  1  0.123430  0.851570  0.627970  1.0  0.0988
  H  H24  1  0.311130  0.870370  0.755070  1.0  0.1205
  H  H25  1  0.214030  0.774870  0.771270  1.0  0.1125
  H  H26  1  0.286330  0.021670  0.798170  1.0  0.1128
  H  H27  1  0.291930  0.119470  0.802170  1.0  0.0984
  H  H28  1  0.718800  0.603200  0.945400  1.0  0.1274
  H  H29  1  0.815100  0.605200  0.961300  1.0  0.0976
  H  H30  1  0.796300  0.774100  0.088400  1.0  0.1173
  H  H31  1  0.891800  0.772500  0.104600  1.0  0.1104
  H  H32  1  0.645000  0.598000  0.131500  1.0  0.1118
  H  H33  1  0.547200  0.505800  0.135500  1.0  0.0989
  H  H34  1  0.385470  0.936530  0.278730  1.0  0.1274
  H  H35  1  0.481770  0.938530  0.294630  1.0  0.0981
  H  H36  1  0.462970  0.107430  0.421730  1.0  0.1173
  H  H37  1  0.558470  0.105830  0.437930  1.0  0.1118
  H  H38  1  0.311670  0.931330  0.464830  1.0  0.112
  H  H39  1  0.213870  0.839130  0.468830  1.0  0.0989
  H  H40  1  0.052130  0.269870  0.612070  1.0  0.1274
  H  H41  1  0.148430  0.271870  0.627970  1.0  0.0973
  H  H42  1  0.129630  0.440770  0.755070  1.0  0.1173
  H  H43  1  0.225130  0.439170  0.771270  1.0  0.1104
  H  H44  1  0.978330  0.264670  0.798170  1.0  0.112
  H  H45  1  0.880530  0.172470  0.802170  1.0  0.0989
  H  H46  1  0.396800  0.115600  0.945400  1.0  0.1292
  H  H47  1  0.394800  0.209900  0.961300  1.0  0.0988
  H  H48  1  0.225900  0.022200  0.088400  1.0  0.1167
  H  H49  1  0.227500  0.119300  0.104600  1.0  0.1098
  H  H50  1  0.402000  0.047000  0.131500  1.0  0.111
  H  H51  1  0.494200  0.041400  0.135500  1.0  0.0989
  H  H52  1  0.063470  0.448930  0.278730  1.0  0.1292
  H  H53  1  0.061470  0.543230  0.294630  1.0  0.0985
  H  H54  1  0.892570  0.355530  0.421730  1.0  0.1167
  H  H55  1  0.894170  0.452630  0.437930  1.0  0.1114
  H  H56  1  0.068670  0.380330  0.464830  1.0  0.1109
  H  H57  1  0.160870  0.374730  0.468830  1.0  0.0989
  H  H58  1  0.730130  0.782270  0.612070  1.0  0.1292
  H  H59  1  0.728130  0.876570  0.627970  1.0  0.0971
  H  H60  1  0.559230  0.688870  0.755070  1.0  0.1167
  H  H61  1  0.560830  0.785970  0.771270  1.0  0.1098
  H  H62  1  0.735330  0.713670  0.798170  1.0  0.111
  H  H63  1  0.827530  0.708070  0.802170  1.0  0.0989
  H  H64  1  0.281200  0.884400  0.054600  1.0  0.1296
  H  H65  1  0.184900  0.790100  0.038700  1.0  0.0988
  H  H66  1  0.203700  0.977800  0.911600  1.0  0.1165
  H  H67  1  0.108200  0.880700  0.895400  1.0  0.1114
  H  H68  1  0.355000  0.953000  0.868500  1.0  0.1103
  H  H69  1  0.452800  0.958600  0.864500  1.0  0.0985
  H  H70  1  0.947870  0.217730  0.387930  1.0  0.1297
  H  H71  1  0.851570  0.123430  0.372030  1.0  0.0984
  H  H72  1  0.870370  0.311130  0.244930  1.0  0.1165
  H  H73  1  0.774870  0.214030  0.228730  1.0  0.1114
  H  H74  1  0.021670  0.286330  0.201830  1.0  0.1104
  H  H75  1  0.119470  0.291930  0.197830  1.0  0.0985
  H  H76  1  0.614530  0.551070  0.721270  1.0  0.1296
  H  H77  1  0.518230  0.456770  0.705370  1.0  0.0965
  H  H78  1  0.537030  0.644470  0.578270  1.0  0.1165
  H  H79  1  0.441530  0.547370  0.562070  1.0  0.1111
  H  H80  1  0.688330  0.619670  0.535170  1.0  0.1105
  H  H81  1  0.786130  0.625270  0.531170  1.0  0.0985
  H  H82  1  0.603200  0.718800  0.054600  1.0  0.1274
  H  H83  1  0.605200  0.815100  0.038700  1.0  0.0981
  H  H84  1  0.774100  0.796300  0.911600  1.0  0.1208
  H  H85  1  0.772500  0.891800  0.895400  1.0  0.1113
  H  H86  1  0.598000  0.645000  0.868500  1.0  0.112
  H  H87  1  0.505800  0.547200  0.864500  1.0  0.0982
  H  H88  1  0.269870  0.052130  0.387930  1.0  0.1274
  H  H89  1  0.271870  0.148430  0.372030  1.0  0.0981
  H  H90  1  0.440770  0.129630  0.244930  1.0  0.1208
  H  H91  1  0.439170  0.225130  0.228730  1.0  0.1113
  H  H92  1  0.264670  0.978330  0.201830  1.0  0.1123
  H  H93  1  0.172470  0.880530  0.197830  1.0  0.0982
  H  H94  1  0.936530  0.385470  0.721270  1.0  0.1274
  H  H95  1  0.938530  0.481770  0.705370  1.0  0.0992
  H  H96  1  0.107430  0.462970  0.578270  1.0  0.1208
  H  H97  1  0.105830  0.558470  0.562070  1.0  0.1126
  H  H98  1  0.931330  0.311670  0.535170  1.0  0.1122
  H  H99  1  0.839130  0.213870  0.531170  1.0  0.0982
  H  H100  1  0.115600  0.396800  0.054600  1.0  0.1275
  H  H101  1  0.209900  0.394800  0.038700  1.0  0.0982
  H  H102  1  0.022200  0.225900  0.911600  1.0  0.1168
  H  H103  1  0.119300  0.227500  0.895400  1.0  0.1106
  H  H104  1  0.047000  0.402000  0.868500  1.0  0.1106
  H  H105  1  0.041400  0.494200  0.864500  1.0  0.099
  H  H106  1  0.782270  0.730130  0.387930  1.0  0.1275
  H  H107  1  0.876570  0.728130  0.372030  1.0  0.0964
  H  H108  1  0.688870  0.559230  0.244930  1.0  0.1168
  H  H109  1  0.785970  0.560830  0.228730  1.0  0.1106
  H  H110  1  0.713670  0.735330  0.201830  1.0  0.1106
  H  H111  1  0.708070  0.827530  0.197830  1.0  0.099
  H  H112  1  0.448930  0.063470  0.721270  1.0  0.1275
  H  H113  1  0.543230  0.061470  0.705370  1.0  0.0978
  H  H114  1  0.355530  0.892570  0.578270  1.0  0.1168
  H  H115  1  0.452630  0.894170  0.562070  1.0  0.1113
  H  H116  1  0.380330  0.068670  0.535170  1.0  0.1106
  H  H117  1  0.374730  0.160870  0.531170  1.0  0.099
  C  C118  1  0.941600  0.252200  0.012400  1.0  0.1344
  C  C119  1  0.884400  0.246700  0.976100  1.0  -0.1788
  C  C120  1  0.827500  0.188500  0.986800  1.0  0.0142
  C  C121  1  0.825300  0.137900  0.032800  1.0  -0.0893
  C  C122  1  0.940600  0.200200  0.062300  1.0  -0.2094
  C  C123  1  0.882100  0.143000  0.072100  1.0  -0.0624
  C  C124  1  0.766100  0.076300  0.048600  1.0  0.672
  C  C125  1  0.972700  0.384000  0.078900  1.0  -0.1883
  C  C126  1  0.974700  0.441800  0.079800  1.0  -0.0271
  C  C127  1  0.608270  0.585530  0.345730  1.0  0.1344
  C  C128  1  0.551070  0.580030  0.309430  1.0  -0.1788
  C  C129  1  0.494170  0.521830  0.320130  1.0  0.0142
  C  C130  1  0.491970  0.471230  0.366130  1.0  -0.0893
  C  C131  1  0.607270  0.533530  0.395630  1.0  -0.2094
  C  C132  1  0.548770  0.476330  0.405430  1.0  -0.0624
  C  C133  1  0.432770  0.409630  0.381930  1.0  0.672
  C  C134  1  0.639370  0.717330  0.412230  1.0  -0.1883
  C  C135  1  0.641370  0.775130  0.413130  1.0  -0.0271
  C  C136  1  0.274930  0.918870  0.679070  1.0  0.1333
  C  C137  1  0.217730  0.913370  0.642770  1.0  -0.1789
  C  C138  1  0.160830  0.855170  0.653470  1.0  0.0143
  C  C139  1  0.158630  0.804570  0.699470  1.0  -0.0893
  C  C140  1  0.273930  0.866870  0.728970  1.0  -0.2094
  C  C141  1  0.215430  0.809670  0.738770  1.0  -0.0624
  C  C142  1  0.099430  0.742970  0.715270  1.0  0.672
  C  C143  1  0.306030  0.050670  0.745570  1.0  -0.1883
  C  C144  1  0.308030  0.108470  0.746470  1.0  -0.0271
  C  C145  1  0.747800  0.689400  0.012400  1.0  0.1355
  C  C146  1  0.753300  0.637700  0.976100  1.0  -0.1785
  C  C147  1  0.811500  0.639000  0.986800  1.0  0.0076
  C  C148  1  0.862100  0.687400  0.032800  1.0  -0.093
  C  C149  1  0.799800  0.740400  0.062300  1.0  -0.2069
  C  C150  1  0.857000  0.739100  0.072100  1.0  -0.0626
  C  C151  1  0.923700  0.689800  0.048600  1.0  0.668
  C  C152  1  0.616000  0.588700  0.078900  1.0  -0.1896
  C  C153  1  0.558200  0.532900  0.079800  1.0  -0.0263
  C  C154  1  0.414470  0.022730  0.345730  1.0  0.1356
  C  C155  1  0.419970  0.971030  0.309430  1.0  -0.1785
  C  C156  1  0.478170  0.972330  0.320130  1.0  0.0076
  C  C157  1  0.528770  0.020730  0.366130  1.0  -0.0932
  C  C158  1  0.466470  0.073730  0.395630  1.0  -0.2068
  C  C159  1  0.523670  0.072430  0.405430  1.0  -0.0624
  C  C160  1  0.590370  0.023130  0.381930  1.0  0.668
  C  C161  1  0.282670  0.922030  0.412230  1.0  -0.1896
  C  C162  1  0.224870  0.866230  0.413130  1.0  -0.0263
  C  C163  1  0.081130  0.356070  0.679070  1.0  0.1348
  C  C164  1  0.086630  0.304370  0.642770  1.0  -0.1785
  C  C165  1  0.144830  0.305670  0.653470  1.0  0.0075
  C  C166  1  0.195430  0.354070  0.699470  1.0  -0.093
  C  C167  1  0.133130  0.407070  0.728970  1.0  -0.2068
  C  C168  1  0.190330  0.405770  0.738770  1.0  -0.0626
  C  C169  1  0.257030  0.356470  0.715270  1.0  0.668
  C  C170  1  0.949330  0.255370  0.745570  1.0  -0.1896
  C  C171  1  0.891530  0.199570  0.746470  1.0  -0.0263
  C  C172  1  0.310600  0.058400  0.012400  1.0  0.1339
  C  C173  1  0.362300  0.115600  0.976100  1.0  -0.1851
  C  C174  1  0.361000  0.172500  0.986800  1.0  0.0087
  C  C175  1  0.312600  0.174700  0.032800  1.0  -0.0937
  C  C176  1  0.259600  0.059400  0.062300  1.0  -0.2106
  C  C177  1  0.260900  0.117900  0.072100  1.0  -0.0601
  C  C178  1  0.310200  0.233900  0.048600  1.0  0.6683
  C  C179  1  0.411300  0.027300  0.078900  1.0  -0.1823
  C  C180  1  0.467100  0.025300  0.079800  1.0  -0.0265
  C  C181  1  0.977270  0.391730  0.345730  1.0  0.1345
  C  C182  1  0.028970  0.448930  0.309430  1.0  -0.1851
  C  C183  1  0.027670  0.505830  0.320130  1.0  0.0087
  C  C184  1  0.979270  0.508030  0.366130  1.0  -0.0937
  C  C185  1  0.926270  0.392730  0.395630  1.0  -0.2106
  C  C186  1  0.927570  0.451230  0.405430  1.0  -0.06
  C  C187  1  0.976870  0.567230  0.381930  1.0  0.6683
  C  C188  1  0.077970  0.360630  0.412230  1.0  -0.1824
  C  C189  1  0.133770  0.358630  0.413130  1.0  -0.0266
  C  C190  1  0.643930  0.725070  0.679070  1.0  0.1322
  C  C191  1  0.695630  0.782270  0.642770  1.0  -0.1851
  C  C192  1  0.694330  0.839170  0.653470  1.0  0.0088
  C  C193  1  0.645930  0.841370  0.699470  1.0  -0.0937
  C  C194  1  0.592930  0.726070  0.728970  1.0  -0.2106
  C  C195  1  0.594230  0.784570  0.738770  1.0  -0.06
  C  C196  1  0.643530  0.900570  0.715270  1.0  0.6683
  C  C197  1  0.744630  0.693970  0.745570  1.0  -0.1834
  C  C198  1  0.800430  0.691970  0.746470  1.0  -0.0265
  C  C199  1  0.252200  0.941600  0.987600  1.0  0.1339
  C  C200  1  0.246700  0.884400  0.023900  1.0  -0.183
  C  C201  1  0.188500  0.827500  0.013200  1.0  0.0089
  C  C202  1  0.137900  0.825300  0.967200  1.0  -0.0943
  C  C203  1  0.200200  0.940600  0.937700  1.0  -0.2104
  C  C204  1  0.143000  0.882100  0.927900  1.0  -0.0594
  C  C205  1  0.076300  0.766100  0.951400  1.0  0.6689
  C  C206  1  0.384000  0.972700  0.921100  1.0  -0.1818
  C  C207  1  0.441800  0.974700  0.920200  1.0  -0.0319
  C  C208  1  0.918870  0.274930  0.320930  1.0  0.1328
  C  C209  1  0.913370  0.217730  0.357230  1.0  -0.1831
  C  C210  1  0.855170  0.160830  0.346530  1.0  0.009
  C  C211  1  0.804570  0.158630  0.300530  1.0  -0.0943
  C  C212  1  0.866870  0.273930  0.271030  1.0  -0.2104
  C  C213  1  0.809670  0.215430  0.261230  1.0  -0.0594
  C  C214  1  0.742970  0.099430  0.284730  1.0  0.6689
  C  C215  1  0.050670  0.306030  0.254430  1.0  -0.1818
  C  C216  1  0.108470  0.308030  0.253530  1.0  -0.0319
  C  C217  1  0.585530  0.608270  0.654270  1.0  0.1339
  C  C218  1  0.580030  0.551070  0.690570  1.0  -0.183
  C  C219  1  0.521830  0.494170  0.679870  1.0  0.0089
  C  C220  1  0.471230  0.491970  0.633870  1.0  -0.0943
  C  C221  1  0.533530  0.607270  0.604370  1.0  -0.2104
  C  C222  1  0.476330  0.548770  0.594570  1.0  -0.0594
  C  C223  1  0.409630  0.432770  0.618070  1.0  0.6689
  C  C224  1  0.717330  0.639370  0.587770  1.0  -0.1818
  C  C225  1  0.775130  0.641370  0.586870  1.0  -0.032
  C  C226  1  0.689400  0.747800  0.987600  1.0  0.1345
  C  C227  1  0.637700  0.753300  0.023900  1.0  -0.1776
  C  C228  1  0.639000  0.811500  0.013200  1.0  0.0156
  C  C229  1  0.687400  0.862100  0.967200  1.0  -0.0882
  C  C230  1  0.740400  0.799800  0.937700  1.0  -0.2102
  C  C231  1  0.739100  0.857000  0.927900  1.0  -0.0611
  C  C232  1  0.689800  0.923700  0.951400  1.0  0.6723
  C  C233  1  0.588700  0.616000  0.921100  1.0  -0.1878
  C  C234  1  0.532900  0.558200  0.920200  1.0  -0.0309
  C  C235  1  0.356070  0.081130  0.320930  1.0  0.1338
  C  C236  1  0.304370  0.086630  0.357230  1.0  -0.1776
  C  C237  1  0.305670  0.144830  0.346530  1.0  0.0156
  C  C238  1  0.354070  0.195430  0.300530  1.0  -0.0882
  C  C239  1  0.407070  0.133130  0.271030  1.0  -0.2102
  C  C240  1  0.405770  0.190330  0.261230  1.0  -0.0611
  C  C241  1  0.356470  0.257030  0.284730  1.0  0.6723
  C  C242  1  0.255370  0.949330  0.254430  1.0  -0.1878
  C  C243  1  0.199570  0.891530  0.253530  1.0  -0.0309
  C  C244  1  0.022730  0.414470  0.654270  1.0  0.1346
  C  C245  1  0.971030  0.419970  0.690570  1.0  -0.1776
  C  C246  1  0.972330  0.478170  0.679870  1.0  0.0157
  C  C247  1  0.020730  0.528770  0.633870  1.0  -0.0884
  C  C248  1  0.073730  0.466470  0.604370  1.0  -0.2102
  C  C249  1  0.072430  0.523670  0.594570  1.0  -0.0609
  C  C250  1  0.023130  0.590370  0.618070  1.0  0.6723
  C  C251  1  0.922030  0.282670  0.587770  1.0  -0.1877
  C  C252  1  0.866230  0.224870  0.586870  1.0  -0.0309
  C  C253  1  0.058400  0.310600  0.987600  1.0  0.1355
  C  C254  1  0.115600  0.362300  0.023900  1.0  -0.18
  C  C255  1  0.172500  0.361000  0.013200  1.0  0.0092
  C  C256  1  0.174700  0.312600  0.967200  1.0  -0.0927
  C  C257  1  0.059400  0.259600  0.937700  1.0  -0.2065
  C  C258  1  0.117900  0.260900  0.927900  1.0  -0.0626
  C  C259  1  0.233900  0.310200  0.951400  1.0  0.6682
  C  C260  1  0.027300  0.411300  0.921100  1.0  -0.1895
  C  C261  1  0.025300  0.467100  0.920200  1.0  -0.033
  C  C262  1  0.725070  0.643930  0.320930  1.0  0.1338
  C  C263  1  0.782270  0.695630  0.357230  1.0  -0.18
  C  C264  1  0.839170  0.694330  0.346530  1.0  0.0093
  C  C265  1  0.841370  0.645930  0.300530  1.0  -0.0927
  C  C266  1  0.726070  0.592930  0.271030  1.0  -0.2065
  C  C267  1  0.784570  0.594230  0.261230  1.0  -0.0625
  C  C268  1  0.900570  0.643530  0.284730  1.0  0.6682
  C  C269  1  0.693970  0.744630  0.254430  1.0  -0.1905
  C  C270  1  0.691970  0.800430  0.253530  1.0  -0.033
  C  C271  1  0.391730  0.977270  0.654270  1.0  0.136
  C  C272  1  0.448930  0.028970  0.690570  1.0  -0.18
  C  C273  1  0.505830  0.027670  0.679870  1.0  0.0092
  C  C274  1  0.508030  0.979270  0.633870  1.0  -0.0927
  C  C275  1  0.392730  0.926270  0.604370  1.0  -0.2065
  C  C276  1  0.451230  0.927570  0.594570  1.0  -0.0625
  C  C277  1  0.567230  0.976870  0.618070  1.0  0.6682
  C  C278  1  0.360630  0.077970  0.587770  1.0  -0.1895
  C  C279  1  0.358630  0.133770  0.586870  1.0  -0.033
  C  C280  1  0.000000  0.369700  0.000000  1.0  0.1459
  C  C281  1  0.000000  0.483500  0.000000  1.0  -0.1371
  C  C282  1  0.000000  0.545700  0.000000  1.0  0.7483
  C  C283  1  0.666667  0.703030  0.333333  1.0  0.1459
  C  C284  1  0.666667  0.816830  0.333333  1.0  -0.1372
  C  C285  1  0.666667  0.879030  0.333333  1.0  0.7484
  C  C286  1  0.333333  0.036370  0.666667  1.0  0.1459
  C  C287  1  0.333333  0.150170  0.666667  1.0  -0.1372
  C  C288  1  0.333333  0.212370  0.666667  1.0  0.7485
  C  C289  1  0.630300  0.630300  0.000000  1.0  0.146
  C  C290  1  0.516500  0.516500  0.000000  1.0  -0.1382
  C  C291  1  0.454300  0.454300  0.000000  1.0  0.7474
  C  C292  1  0.296970  0.963630  0.333333  1.0  0.146
  C  C293  1  0.183170  0.849830  0.333333  1.0  -0.138
  C  C294  1  0.120970  0.787630  0.333333  1.0  0.7475
  C  C295  1  0.963630  0.296970  0.666667  1.0  0.1461
  C  C296  1  0.849830  0.183170  0.666667  1.0  -0.138
  C  C297  1  0.787630  0.120970  0.666667  1.0  0.7475
  C  C298  1  0.369700  0.000000  0.000000  1.0  0.1466
  C  C299  1  0.483500  0.000000  0.000000  1.0  -0.1381
  C  C300  1  0.545700  0.000000  0.000000  1.0  0.7501
  C  C301  1  0.036370  0.333333  0.333333  1.0  0.1467
  C  C302  1  0.150170  0.333333  0.333333  1.0  -0.138
  C  C303  1  0.212370  0.333333  0.333333  1.0  0.7499
  C  C304  1  0.703030  0.666667  0.666667  1.0  0.1466
  C  C305  1  0.816830  0.666667  0.666667  1.0  -0.1381
  C  C306  1  0.879030  0.666667  0.666667  1.0  0.7501
  N  N307  1  0.000000  0.310000  0.000000  1.0  -0.1704
  N  N308  1  0.666667  0.643330  0.333333  1.0  -0.1702
  N  N309  1  0.333333  0.976670  0.666667  1.0  -0.1704
  N  N310  1  0.690000  0.690000  0.000000  1.0  -0.1705
  N  N311  1  0.356670  0.023330  0.333333  1.0  -0.1703
  N  N312  1  0.023330  0.356670  0.666667  1.0  -0.1704
  N  N313  1  0.310000  0.000000  0.000000  1.0  -0.1706
  N  N314  1  0.976670  0.333333  0.333333  1.0  -0.1704
  N  N315  1  0.643330  0.666667  0.666667  1.0  -0.1705
  O  O316  1  0.764260  0.035600  0.108400  1.0  -0.6175
  O  O317  1  0.715590  0.069530  0.001700  1.0  -0.7258
  O  O318  1  0.993600  0.567500  0.084200  1.0  -0.7541
  O  O319  1  0.430930  0.368930  0.441730  1.0  -0.6175
  O  O320  1  0.382260  0.402860  0.335030  1.0  -0.7258
  O  O321  1  0.660270  0.900830  0.417530  1.0  -0.7538
  O  O322  1  0.097590  0.702270  0.775070  1.0  -0.6175
  O  O323  1  0.048920  0.736200  0.668370  1.0  -0.7258
  O  O324  1  0.326930  0.234170  0.750870  1.0  -0.7539
  O  O325  1  0.964400  0.728660  0.108400  1.0  -0.6159
  O  O326  1  0.930470  0.646060  0.001700  1.0  -0.726
  O  O327  1  0.432500  0.426100  0.084200  1.0  -0.7551
  O  O328  1  0.631070  0.061990  0.441730  1.0  -0.6158
  O  O329  1  0.597140  0.979390  0.335030  1.0  -0.726
  O  O330  1  0.099170  0.759430  0.417530  1.0  -0.7556
  O  O331  1  0.297730  0.395330  0.775070  1.0  -0.6159
  O  O332  1  0.263800  0.312730  0.668370  1.0  -0.726
  O  O333  1  0.765830  0.092770  0.750870  1.0  -0.7552
  O  O334  1  0.271340  0.235740  0.108400  1.0  -0.6178
  O  O335  1  0.353940  0.284410  0.001700  1.0  -0.7256
  O  O336  1  0.573900  0.006400  0.084200  1.0  -0.7575
  O  O337  1  0.938010  0.569070  0.441730  1.0  -0.6179
  O  O338  1  0.020610  0.617740  0.335030  1.0  -0.7256
  O  O339  1  0.240570  0.339730  0.417530  1.0  -0.7572
  O  O340  1  0.604670  0.902410  0.775070  1.0  -0.6178
  O  O341  1  0.687270  0.951080  0.668370  1.0  -0.7256
  O  O342  1  0.907230  0.673070  0.750870  1.0  -0.7576
  O  O343  1  0.035600  0.764260  0.891600  1.0  -0.6186
  O  O344  1  0.069530  0.715590  0.998300  1.0  -0.7243
  O  O345  1  0.567500  0.993600  0.915800  1.0  -0.7603
  O  O346  1  0.702270  0.097590  0.224930  1.0  -0.6186
  O  O347  1  0.736200  0.048920  0.331630  1.0  -0.7243
  O  O348  1  0.234170  0.326930  0.249130  1.0  -0.7601
  O  O349  1  0.368930  0.430930  0.558270  1.0  -0.6186
  O  O350  1  0.402860  0.382260  0.664970  1.0  -0.7243
  O  O351  1  0.900830  0.660270  0.582470  1.0  -0.76
  O  O352  1  0.728660  0.964400  0.891600  1.0  -0.6171
  O  O353  1  0.646060  0.930470  0.998300  1.0  -0.7245
  O  O354  1  0.426100  0.432500  0.915800  1.0  -0.756
  O  O355  1  0.395330  0.297730  0.224930  1.0  -0.6171
  O  O356  1  0.312730  0.263800  0.331630  1.0  -0.7245
  O  O357  1  0.092770  0.765830  0.249130  1.0  -0.7561
  O  O358  1  0.061990  0.631070  0.558270  1.0  -0.617
  O  O359  1  0.979390  0.597140  0.664970  1.0  -0.7245
  O  O360  1  0.759430  0.099170  0.582470  1.0  -0.7564
  O  O361  1  0.235740  0.271340  0.891600  1.0  -0.6156
  O  O362  1  0.284410  0.353940  0.998300  1.0  -0.7241
  O  O363  1  0.006400  0.573900  0.915800  1.0  -0.759
  O  O364  1  0.902410  0.604670  0.224930  1.0  -0.6156
  O  O365  1  0.951080  0.687270  0.331630  1.0  -0.7241
  O  O366  1  0.673070  0.907230  0.249130  1.0  -0.7591
  O  O367  1  0.569070  0.938010  0.558270  1.0  -0.6157
  O  O368  1  0.617740  0.020610  0.664970  1.0  -0.7241
  O  O369  1  0.339730  0.240570  0.582470  1.0  -0.7587
