# generated using pymatgen
data_LaH12C21NO6
_symmetry_space_group_name_H-M   'P 1'
_cell_length_a   24.20090000
_cell_length_b   24.20090000
_cell_length_c   12.96480000
_cell_angle_alpha   90.00000000
_cell_angle_beta   90.00000000
_cell_angle_gamma   120.00000000
_symmetry_Int_Tables_number   1
_chemical_formula_structural   LaH12C21NO6
_chemical_formula_sum   'La9 H108 C189 N9 O54'
_cell_volume   6575.96491628
_cell_formula_units_Z   9
loop_
 _symmetry_equiv_pos_site_id
 _symmetry_equiv_pos_as_xyz
  1  'x, y, z'
loop_
 _atom_site_type_symbol
 _atom_site_label
 _atom_site_symmetry_multiplicity
 _atom_site_fract_x
 _atom_site_fract_y
 _atom_site_fract_z
 _atom_site_occupancy
 _atom_site_charge
  La  La1  1  0.666667  0.018880  0.333333  1.0  2.1672
  La  La2  1  0.981120  0.647780  0.333333  1.0  2.1673
  La  La3  1  0.352220  0.333333  0.333333  1.0  2.1659
  La  La4  1  0.018880  0.666667  0.666667  1.0  2.1659
  La  La5  1  0.685550  0.000000  0.000000  1.0  2.166
  La  La6  1  0.647780  0.981120  0.666667  1.0  2.1673
  La  La7  1  0.314450  0.314450  0.000000  1.0  2.1674
  La  La8  1  0.333333  0.352220  0.666667  1.0  2.1672
  La  La9  1  0.000000  0.685550  0.000000  1.0  2.1674
  H  H10  1  0.448300  0.062300  0.220100  1.0  0.1138
  H  H11  1  0.542900  0.061900  0.205400  1.0  0.1218
  H  H12  1  0.451300  0.891900  0.060800  1.0  0.1158
  H  H13  1  0.354500  0.891100  0.079700  1.0  0.1102
  H  H14  1  0.383800  0.069600  0.034900  1.0  0.1015
  H  H15  1  0.381800  0.165300  0.032000  1.0  0.1162
  H  H16  1  0.114970  0.395630  0.553430  1.0  0.1139
  H  H17  1  0.209570  0.395230  0.538730  1.0  0.1218
  H  H18  1  0.117970  0.225230  0.394130  1.0  0.1143
  H  H19  1  0.021170  0.224430  0.413030  1.0  0.1102
  H  H20  1  0.050470  0.402930  0.368230  1.0  0.1015
  H  H21  1  0.048470  0.498630  0.365330  1.0  0.1162
  H  H22  1  0.781630  0.728970  0.886770  1.0  0.1138
  H  H23  1  0.876230  0.728570  0.872070  1.0  0.1229
  H  H24  1  0.784630  0.558570  0.727470  1.0  0.1158
  H  H25  1  0.687830  0.557770  0.746370  1.0  0.1103
  H  H26  1  0.717130  0.736270  0.701570  1.0  0.1016
  H  H27  1  0.715130  0.831970  0.698670  1.0  0.1162
  H  H28  1  0.937700  0.386000  0.220100  1.0  0.1136
  H  H29  1  0.938100  0.481000  0.205400  1.0  0.1212
  H  H30  1  0.108100  0.559400  0.060800  1.0  0.1175
  H  H31  1  0.108900  0.463400  0.079700  1.0  0.114
  H  H32  1  0.930400  0.314200  0.034900  1.0  0.1035
  H  H33  1  0.834700  0.216500  0.032000  1.0  0.1157
  H  H34  1  0.604370  0.719330  0.553430  1.0  0.1136
  H  H35  1  0.604770  0.814330  0.538730  1.0  0.1212
  H  H36  1  0.774770  0.892730  0.394130  1.0  0.1159
  H  H37  1  0.775570  0.796730  0.413030  1.0  0.1141
  H  H38  1  0.597070  0.647530  0.368230  1.0  0.1034
  H  H39  1  0.501370  0.549830  0.365330  1.0  0.1157
  H  H40  1  0.271030  0.052670  0.886770  1.0  0.1136
  H  H41  1  0.271430  0.147670  0.872070  1.0  0.1224
  H  H42  1  0.441430  0.226070  0.727470  1.0  0.1175
  H  H43  1  0.442230  0.130070  0.746370  1.0  0.1141
  H  H44  1  0.263730  0.980870  0.701570  1.0  0.1033
  H  H45  1  0.168030  0.883170  0.698670  1.0  0.1157
  H  H46  1  0.614000  0.551700  0.220100  1.0  0.1161
  H  H47  1  0.519000  0.457100  0.205400  1.0  0.1234
  H  H48  1  0.440600  0.548700  0.060800  1.0  0.1154
  H  H49  1  0.536600  0.645500  0.079700  1.0  0.1081
  H  H50  1  0.685800  0.616200  0.034900  1.0  0.1021
  H  H51  1  0.783500  0.618200  0.032000  1.0  0.1161
  H  H52  1  0.280670  0.885030  0.553430  1.0  0.1161
  H  H53  1  0.185670  0.790430  0.538730  1.0  0.1234
  H  H54  1  0.107270  0.882030  0.394130  1.0  0.1172
  H  H55  1  0.203270  0.978830  0.413030  1.0  0.108
  H  H56  1  0.352470  0.949530  0.368230  1.0  0.1021
  H  H57  1  0.450170  0.951530  0.365330  1.0  0.1161
  H  H58  1  0.947330  0.218370  0.886770  1.0  0.1161
  H  H59  1  0.852330  0.123770  0.872070  1.0  0.1224
  H  H60  1  0.773930  0.215370  0.727470  1.0  0.1154
  H  H61  1  0.869930  0.312170  0.746370  1.0  0.1081
  H  H62  1  0.019130  0.282870  0.701570  1.0  0.102
  H  H63  1  0.116830  0.284870  0.698670  1.0  0.1161
  H  H64  1  0.062300  0.448300  0.779900  1.0  0.1152
  H  H65  1  0.061900  0.542900  0.794600  1.0  0.1225
  H  H66  1  0.891900  0.451300  0.939200  1.0  0.1166
  H  H67  1  0.891100  0.354500  0.920300  1.0  0.1084
  H  H68  1  0.069600  0.383800  0.965100  1.0  0.1024
  H  H69  1  0.165300  0.381800  0.968000  1.0  0.1158
  H  H70  1  0.728970  0.781630  0.113230  1.0  0.1152
  H  H71  1  0.728570  0.876230  0.127930  1.0  0.1234
  H  H72  1  0.558570  0.784630  0.272530  1.0  0.1166
  H  H73  1  0.557770  0.687830  0.253630  1.0  0.1084
  H  H74  1  0.736270  0.717130  0.298430  1.0  0.1025
  H  H75  1  0.831970  0.715130  0.301330  1.0  0.1158
  H  H76  1  0.395630  0.114970  0.446570  1.0  0.1152
  H  H77  1  0.395230  0.209570  0.461270  1.0  0.1225
  H  H78  1  0.225230  0.117970  0.605870  1.0  0.1148
  H  H79  1  0.224430  0.021170  0.586970  1.0  0.1084
  H  H80  1  0.402930  0.050470  0.631770  1.0  0.1024
  H  H81  1  0.498630  0.048470  0.634670  1.0  0.1158
  H  H82  1  0.386000  0.937700  0.779900  1.0  0.1139
  H  H83  1  0.481000  0.938100  0.794600  1.0  0.122
  H  H84  1  0.559400  0.108100  0.939200  1.0  0.1156
  H  H85  1  0.463400  0.108900  0.920300  1.0  0.1106
  H  H86  1  0.314200  0.930400  0.965100  1.0  0.1026
  H  H87  1  0.216500  0.834700  0.968000  1.0  0.1159
  H  H88  1  0.052670  0.271030  0.113230  1.0  0.1139
  H  H89  1  0.147670  0.271430  0.127930  1.0  0.1231
  H  H90  1  0.226070  0.441430  0.272530  1.0  0.1156
  H  H91  1  0.130070  0.442230  0.253630  1.0  0.1107
  H  H92  1  0.980870  0.263730  0.298430  1.0  0.1024
  H  H93  1  0.883170  0.168030  0.301330  1.0  0.1159
  H  H94  1  0.719330  0.604370  0.446570  1.0  0.1139
  H  H95  1  0.814330  0.604770  0.461270  1.0  0.122
  H  H96  1  0.892730  0.774770  0.605870  1.0  0.1145
  H  H97  1  0.796730  0.775570  0.586970  1.0  0.1107
  H  H98  1  0.647530  0.597070  0.631770  1.0  0.1025
  H  H99  1  0.549830  0.501370  0.634670  1.0  0.1159
  H  H100  1  0.551700  0.614000  0.779900  1.0  0.1135
  H  H101  1  0.457100  0.519000  0.794600  1.0  0.1221
  H  H102  1  0.548700  0.440600  0.939200  1.0  0.1158
  H  H103  1  0.645500  0.536600  0.920300  1.0  0.1169
  H  H104  1  0.616200  0.685800  0.965100  1.0  0.1038
  H  H105  1  0.618200  0.783500  0.968000  1.0  0.1152
  H  H106  1  0.218370  0.947330  0.113230  1.0  0.1135
  H  H107  1  0.123770  0.852330  0.127930  1.0  0.1209
  H  H108  1  0.215370  0.773930  0.272530  1.0  0.1158
  H  H109  1  0.312170  0.869930  0.253630  1.0  0.1169
  H  H110  1  0.282870  0.019130  0.298430  1.0  0.1036
  H  H111  1  0.284870  0.116830  0.301330  1.0  0.1152
  H  H112  1  0.885030  0.280670  0.446570  1.0  0.1135
  H  H113  1  0.790430  0.185670  0.461270  1.0  0.1221
  H  H114  1  0.882030  0.107270  0.605870  1.0  0.1174
  H  H115  1  0.978830  0.203270  0.586970  1.0  0.1168
  H  H116  1  0.949530  0.352470  0.631770  1.0  0.1038
  H  H117  1  0.951530  0.450170  0.634670  1.0  0.1152
  C  C118  1  0.391200  0.976200  0.155000  1.0  0.1354
  C  C119  1  0.448500  0.027600  0.189800  1.0  -0.1482
  C  C120  1  0.505400  0.027900  0.180000  1.0  -0.0577
  C  C121  1  0.506500  0.976800  0.131900  1.0  -0.1292
  C  C122  1  0.450300  0.925600  0.093700  1.0  -0.0219
  C  C123  1  0.392100  0.925100  0.105100  1.0  -0.1734
  C  C124  1  0.567900  0.977400  0.117400  1.0  0.6532
  C  C125  1  0.363300  0.078700  0.087300  1.0  -0.1696
  C  C126  1  0.362800  0.136600  0.085900  1.0  -0.0313
  C  C127  1  0.057870  0.309530  0.488330  1.0  0.1353
  C  C128  1  0.115170  0.360930  0.523130  1.0  -0.1454
  C  C129  1  0.172070  0.361230  0.513330  1.0  -0.0577
  C  C130  1  0.173170  0.310130  0.465230  1.0  -0.1293
  C  C131  1  0.116970  0.258930  0.427030  1.0  -0.0216
  C  C132  1  0.058770  0.258430  0.438430  1.0  -0.1734
  C  C133  1  0.234570  0.310730  0.450730  1.0  0.6532
  C  C134  1  0.029970  0.412030  0.420630  1.0  -0.1692
  C  C135  1  0.029470  0.469930  0.419230  1.0  -0.0308
  C  C136  1  0.724530  0.642870  0.821670  1.0  0.1355
  C  C137  1  0.781830  0.694270  0.856470  1.0  -0.1486
  C  C138  1  0.838730  0.694570  0.846670  1.0  -0.0577
  C  C139  1  0.839830  0.643470  0.798570  1.0  -0.1293
  C  C140  1  0.783630  0.592270  0.760370  1.0  -0.0219
  C  C141  1  0.725430  0.591770  0.771770  1.0  -0.1734
  C  C142  1  0.901230  0.644070  0.784070  1.0  0.6532
  C  C143  1  0.696630  0.745370  0.753970  1.0  -0.1701
  C  C144  1  0.696130  0.803270  0.752570  1.0  -0.0319
  C  C145  1  0.023800  0.415000  0.155000  1.0  0.1346
  C  C146  1  0.972400  0.420900  0.189800  1.0  -0.1458
  C  C147  1  0.972100  0.477500  0.180000  1.0  -0.0547
  C  C148  1  0.023200  0.529700  0.131900  1.0  -0.1287
  C  C149  1  0.074400  0.524700  0.093700  1.0  -0.0208
  C  C150  1  0.074900  0.467000  0.105100  1.0  -0.1817
  C  C151  1  0.022600  0.590500  0.117400  1.0  0.6559
  C  C152  1  0.921300  0.284600  0.087300  1.0  -0.1672
  C  C153  1  0.863400  0.226200  0.085900  1.0  -0.0282
  C  C154  1  0.690470  0.748330  0.488330  1.0  0.1346
  C  C155  1  0.639070  0.754230  0.523130  1.0  -0.1458
  C  C156  1  0.638770  0.810830  0.513330  1.0  -0.0547
  C  C157  1  0.689870  0.863030  0.465230  1.0  -0.1286
  C  C158  1  0.741070  0.858030  0.427030  1.0  -0.0211
  C  C159  1  0.741570  0.800330  0.438430  1.0  -0.1817
  C  C160  1  0.689270  0.923830  0.450730  1.0  0.6559
  C  C161  1  0.587970  0.617930  0.420630  1.0  -0.1674
  C  C162  1  0.530070  0.559530  0.419230  1.0  -0.0283
  C  C163  1  0.357130  0.081670  0.821670  1.0  0.1344
  C  C164  1  0.305730  0.087570  0.856470  1.0  -0.1426
  C  C165  1  0.305430  0.144170  0.846670  1.0  -0.0547
  C  C166  1  0.356530  0.196370  0.798570  1.0  -0.1287
  C  C167  1  0.407730  0.191370  0.760370  1.0  -0.0208
  C  C168  1  0.408230  0.133670  0.771770  1.0  -0.1817
  C  C169  1  0.355930  0.257170  0.784070  1.0  0.6559
  C  C170  1  0.254630  0.951270  0.753970  1.0  -0.1671
  C  C171  1  0.196730  0.892870  0.752570  1.0  -0.028
  C  C172  1  0.585000  0.608800  0.155000  1.0  0.1342
  C  C173  1  0.579100  0.551500  0.189800  1.0  -0.1532
  C  C174  1  0.522500  0.494600  0.180000  1.0  -0.0542
  C  C175  1  0.470300  0.493500  0.131900  1.0  -0.1307
  C  C176  1  0.475300  0.549700  0.093700  1.0  -0.0173
  C  C177  1  0.533000  0.607900  0.105100  1.0  -0.1842
  C  C178  1  0.409500  0.432100  0.117400  1.0  0.6562
  C  C179  1  0.715400  0.636700  0.087300  1.0  -0.1642
  C  C180  1  0.773800  0.637200  0.085900  1.0  -0.0304
  C  C181  1  0.251670  0.942130  0.488330  1.0  0.1342
  C  C182  1  0.245770  0.884830  0.523130  1.0  -0.1501
  C  C183  1  0.189170  0.827930  0.513330  1.0  -0.0543
  C  C184  1  0.136970  0.826830  0.465230  1.0  -0.1307
  C  C185  1  0.141970  0.883030  0.427030  1.0  -0.0175
  C  C186  1  0.199670  0.941230  0.438430  1.0  -0.1842
  C  C187  1  0.076170  0.765430  0.450730  1.0  0.6562
  C  C188  1  0.382070  0.970030  0.420630  1.0  -0.1642
  C  C189  1  0.440470  0.970530  0.419230  1.0  -0.0301
  C  C190  1  0.918330  0.275470  0.821670  1.0  0.1342
  C  C191  1  0.912430  0.218170  0.856470  1.0  -0.1532
  C  C192  1  0.855830  0.161270  0.846670  1.0  -0.0542
  C  C193  1  0.803630  0.160170  0.798570  1.0  -0.1307
  C  C194  1  0.808630  0.216370  0.760370  1.0  -0.0173
  C  C195  1  0.866330  0.274570  0.771770  1.0  -0.1842
  C  C196  1  0.742830  0.098770  0.784070  1.0  0.6562
  C  C197  1  0.048730  0.303370  0.753970  1.0  -0.1635
  C  C198  1  0.107130  0.303870  0.752570  1.0  -0.0307
  C  C199  1  0.976200  0.391200  0.845000  1.0  0.1342
  C  C200  1  0.027600  0.448500  0.810200  1.0  -0.1548
  C  C201  1  0.027900  0.505400  0.820000  1.0  -0.0545
  C  C202  1  0.976800  0.506500  0.868100  1.0  -0.1306
  C  C203  1  0.925600  0.450300  0.906300  1.0  -0.0181
  C  C204  1  0.925100  0.392100  0.894900  1.0  -0.186
  C  C205  1  0.977400  0.567900  0.882600  1.0  0.6558
  C  C206  1  0.078700  0.363300  0.912700  1.0  -0.1649
  C  C207  1  0.136600  0.362800  0.914100  1.0  -0.0297
  C  C208  1  0.642870  0.724530  0.178330  1.0  0.1343
  C  C209  1  0.694270  0.781830  0.143530  1.0  -0.1552
  C  C210  1  0.694570  0.838730  0.153330  1.0  -0.0545
  C  C211  1  0.643470  0.839830  0.201430  1.0  -0.1306
  C  C212  1  0.592270  0.783630  0.239630  1.0  -0.0181
  C  C213  1  0.591770  0.725430  0.228230  1.0  -0.186
  C  C214  1  0.644070  0.901230  0.215930  1.0  0.6558
  C  C215  1  0.745370  0.696630  0.246030  1.0  -0.1653
  C  C216  1  0.803270  0.696130  0.247430  1.0  -0.0304
  C  C217  1  0.309530  0.057870  0.511670  1.0  0.1341
  C  C218  1  0.360930  0.115170  0.476870  1.0  -0.152
  C  C219  1  0.361230  0.172070  0.486670  1.0  -0.0545
  C  C220  1  0.310130  0.173170  0.534770  1.0  -0.1306
  C  C221  1  0.258930  0.116970  0.572970  1.0  -0.0177
  C  C222  1  0.258430  0.058770  0.561570  1.0  -0.186
  C  C223  1  0.310730  0.234570  0.549270  1.0  0.6559
  C  C224  1  0.412030  0.029970  0.579370  1.0  -0.1645
  C  C225  1  0.469930  0.029470  0.580770  1.0  -0.0292
  C  C226  1  0.415000  0.023800  0.845000  1.0  0.1353
  C  C227  1  0.420900  0.972400  0.810200  1.0  -0.1473
  C  C228  1  0.477500  0.972100  0.820000  1.0  -0.0564
  C  C229  1  0.529700  0.023200  0.868100  1.0  -0.1297
  C  C230  1  0.524700  0.074400  0.906300  1.0  -0.0217
  C  C231  1  0.467000  0.074900  0.894900  1.0  -0.177
  C  C232  1  0.590500  0.022600  0.882600  1.0  0.6531
  C  C233  1  0.284600  0.921300  0.912700  1.0  -0.1702
  C  C234  1  0.226200  0.863400  0.914100  1.0  -0.0308
  C  C235  1  0.081670  0.357130  0.178330  1.0  0.1351
  C  C236  1  0.087570  0.305730  0.143530  1.0  -0.1442
  C  C237  1  0.144170  0.305430  0.153330  1.0  -0.0564
  C  C238  1  0.196370  0.356530  0.201430  1.0  -0.1297
  C  C239  1  0.191370  0.407730  0.239630  1.0  -0.0218
  C  C240  1  0.133670  0.408230  0.228230  1.0  -0.177
  C  C241  1  0.257170  0.355930  0.215930  1.0  0.6531
  C  C242  1  0.951270  0.254630  0.246030  1.0  -0.1702
  C  C243  1  0.892870  0.196730  0.247430  1.0  -0.0309
  C  C244  1  0.748330  0.690470  0.511670  1.0  0.1353
  C  C245  1  0.754230  0.639070  0.476870  1.0  -0.1473
  C  C246  1  0.810830  0.638770  0.486670  1.0  -0.0564
  C  C247  1  0.863030  0.689870  0.534770  1.0  -0.1296
  C  C248  1  0.858030  0.741070  0.572970  1.0  -0.0221
  C  C249  1  0.800330  0.741570  0.561570  1.0  -0.177
  C  C250  1  0.923830  0.689270  0.549270  1.0  0.653
  C  C251  1  0.617930  0.587970  0.579370  1.0  -0.1704
  C  C252  1  0.559530  0.530070  0.580770  1.0  -0.0309
  C  C253  1  0.608800  0.585000  0.845000  1.0  0.1347
  C  C254  1  0.551500  0.579100  0.810200  1.0  -0.1475
  C  C255  1  0.494600  0.522500  0.820000  1.0  -0.0555
  C  C256  1  0.493500  0.470300  0.868100  1.0  -0.13
  C  C257  1  0.549700  0.475300  0.906300  1.0  -0.022
  C  C258  1  0.607900  0.533000  0.894900  1.0  -0.1812
  C  C259  1  0.432100  0.409500  0.882600  1.0  0.6563
  C  C260  1  0.636700  0.715400  0.912700  1.0  -0.1671
  C  C261  1  0.637200  0.773800  0.914100  1.0  -0.0287
  C  C262  1  0.275470  0.918330  0.178330  1.0  0.1347
  C  C263  1  0.218170  0.912430  0.143530  1.0  -0.1475
  C  C264  1  0.161270  0.855830  0.153330  1.0  -0.0555
  C  C265  1  0.160170  0.803630  0.201430  1.0  -0.13
  C  C266  1  0.216370  0.808630  0.239630  1.0  -0.022
  C  C267  1  0.274570  0.866330  0.228230  1.0  -0.1812
  C  C268  1  0.098770  0.742830  0.215930  1.0  0.6564
  C  C269  1  0.303370  0.048730  0.246030  1.0  -0.1664
  C  C270  1  0.303870  0.107130  0.247430  1.0  -0.0289
  C  C271  1  0.942130  0.251670  0.511670  1.0  0.1347
  C  C272  1  0.884830  0.245770  0.476870  1.0  -0.1443
  C  C273  1  0.827930  0.189170  0.486670  1.0  -0.0555
  C  C274  1  0.826830  0.136970  0.534770  1.0  -0.1299
  C  C275  1  0.883030  0.141970  0.572970  1.0  -0.0222
  C  C276  1  0.941230  0.199670  0.561570  1.0  -0.1812
  C  C277  1  0.765430  0.076170  0.549270  1.0  0.6563
  C  C278  1  0.970030  0.382070  0.579370  1.0  -0.1671
  C  C279  1  0.970530  0.440470  0.580770  1.0  -0.0285
  C  C280  1  0.333333  0.034920  0.166670  1.0  0.1174
  C  C281  1  0.333333  0.150020  0.166670  1.0  -0.0928
  C  C282  1  0.333333  0.213220  0.166670  1.0  0.7311
  C  C283  1  0.000000  0.368250  0.500000  1.0  0.1166
  C  C284  1  0.000000  0.483350  0.500000  1.0  -0.0927
  C  C285  1  0.000000  0.546550  0.500000  1.0  0.7313
  C  C286  1  0.965080  0.298420  0.166670  1.0  0.1173
  C  C287  1  0.849980  0.183320  0.166670  1.0  -0.0921
  C  C288  1  0.786780  0.120120  0.166670  1.0  0.7313
  C  C289  1  0.631750  0.631750  0.500000  1.0  0.1176
  C  C290  1  0.516650  0.516650  0.500000  1.0  -0.0921
  C  C291  1  0.453450  0.453450  0.500000  1.0  0.7313
  C  C292  1  0.701580  0.666667  0.166670  1.0  0.1183
  C  C293  1  0.816680  0.666667  0.166670  1.0  -0.094
  C  C294  1  0.879880  0.666667  0.166670  1.0  0.7352
  C  C295  1  0.368250  0.000000  0.500000  1.0  0.118
  C  C296  1  0.483350  0.000000  0.500000  1.0  -0.0922
  C  C297  1  0.546550  0.000000  0.500000  1.0  0.7351
  C  C298  1  0.034920  0.333333  0.833330  1.0  0.1191
  C  C299  1  0.150020  0.333333  0.833330  1.0  -0.0922
  C  C300  1  0.213220  0.333333  0.833330  1.0  0.7353
  C  C301  1  0.298420  0.965080  0.833330  1.0  0.1174
  C  C302  1  0.183320  0.849980  0.833330  1.0  -0.0921
  C  C303  1  0.120120  0.786780  0.833330  1.0  0.7312
  C  C304  1  0.666667  0.701580  0.833330  1.0  0.1168
  C  C305  1  0.666667  0.816680  0.833330  1.0  -0.0945
  C  C306  1  0.666667  0.879880  0.833330  1.0  0.7311
  N  N307  1  0.333333  0.975720  0.166670  1.0  -0.1585
  N  N308  1  0.000000  0.309050  0.500000  1.0  -0.1588
  N  N309  1  0.024280  0.357620  0.166670  1.0  -0.1589
  N  N310  1  0.690950  0.690950  0.500000  1.0  -0.1589
  N  N311  1  0.642380  0.666667  0.166670  1.0  -0.1587
  N  N312  1  0.309050  0.000000  0.500000  1.0  -0.1587
  N  N313  1  0.975720  0.333333  0.833330  1.0  -0.1585
  N  N314  1  0.357620  0.024280  0.833330  1.0  -0.159
  N  N315  1  0.666667  0.642380  0.833330  1.0  -0.1588
  O  O316  1  0.569300  0.936600  0.057500  1.0  -0.6622
  O  O317  1  0.618500  0.020500  0.162600  1.0  -0.7401
  O  O318  1  0.322300  0.231200  0.251500  1.0  -0.7196
  O  O319  1  0.235970  0.269930  0.390830  1.0  -0.6622
  O  O320  1  0.285170  0.353830  0.495930  1.0  -0.7401
  O  O321  1  0.988970  0.564530  0.584830  1.0  -0.7196
  O  O322  1  0.902630  0.603270  0.724170  1.0  -0.6622
  O  O323  1  0.951830  0.687170  0.829270  1.0  -0.7401
  O  O324  1  0.655630  0.897870  0.918170  1.0  -0.7195
  O  O325  1  0.063400  0.632700  0.057500  1.0  -0.665
  O  O326  1  0.979500  0.598000  0.162600  1.0  -0.7394
  O  O327  1  0.768800  0.091100  0.251500  1.0  -0.7179
  O  O328  1  0.730070  0.966030  0.390830  1.0  -0.665
  O  O329  1  0.646170  0.931330  0.495930  1.0  -0.7393
  O  O330  1  0.435470  0.424430  0.584830  1.0  -0.718
  O  O331  1  0.396730  0.299370  0.724170  1.0  -0.665
  O  O332  1  0.312830  0.264670  0.829270  1.0  -0.7393
  O  O333  1  0.102130  0.757770  0.918170  1.0  -0.718
  O  O334  1  0.367300  0.430700  0.057500  1.0  -0.6655
  O  O335  1  0.402000  0.381500  0.162600  1.0  -0.7395
  O  O336  1  0.908900  0.677700  0.251500  1.0  -0.7201
  O  O337  1  0.033970  0.764030  0.390830  1.0  -0.6655
  O  O338  1  0.068670  0.714830  0.495930  1.0  -0.7394
  O  O339  1  0.575570  0.011030  0.584830  1.0  -0.7202
  O  O340  1  0.700630  0.097370  0.724170  1.0  -0.6655
  O  O341  1  0.735330  0.048170  0.829270  1.0  -0.7395
  O  O342  1  0.242230  0.344370  0.918170  1.0  -0.7201
  O  O343  1  0.936600  0.569300  0.942500  1.0  -0.6641
  O  O344  1  0.020500  0.618500  0.837400  1.0  -0.7397
  O  O345  1  0.231200  0.322300  0.748500  1.0  -0.7217
  O  O346  1  0.603270  0.902630  0.275830  1.0  -0.6641
  O  O347  1  0.687170  0.951830  0.170730  1.0  -0.7397
  O  O348  1  0.897870  0.655630  0.081830  1.0  -0.7216
  O  O349  1  0.269930  0.235970  0.609170  1.0  -0.6641
  O  O350  1  0.353830  0.285170  0.504070  1.0  -0.7397
  O  O351  1  0.564530  0.988970  0.415170  1.0  -0.7217
  O  O352  1  0.632700  0.063400  0.942500  1.0  -0.6619
  O  O353  1  0.598000  0.979500  0.837400  1.0  -0.7404
  O  O354  1  0.091100  0.768800  0.748500  1.0  -0.7199
  O  O355  1  0.299370  0.396730  0.275830  1.0  -0.6619
  O  O356  1  0.264670  0.312830  0.170730  1.0  -0.7404
  O  O357  1  0.757770  0.102130  0.081830  1.0  -0.72
  O  O358  1  0.966030  0.730070  0.609170  1.0  -0.6619
  O  O359  1  0.931330  0.646170  0.504070  1.0  -0.7404
  O  O360  1  0.424430  0.435470  0.415170  1.0  -0.72
  O  O361  1  0.430700  0.367300  0.942500  1.0  -0.6636
  O  O362  1  0.381500  0.402000  0.837400  1.0  -0.7397
  O  O363  1  0.677700  0.908900  0.748500  1.0  -0.7191
  O  O364  1  0.097370  0.700630  0.275830  1.0  -0.6636
  O  O365  1  0.048170  0.735330  0.170730  1.0  -0.7397
  O  O366  1  0.344370  0.242230  0.081830  1.0  -0.7191
  O  O367  1  0.764030  0.033970  0.609170  1.0  -0.6637
  O  O368  1  0.714830  0.068670  0.504070  1.0  -0.7397
  O  O369  1  0.011030  0.575570  0.415170  1.0  -0.7192
