# generated using pymatgen
data_LaH12C21NO6
_symmetry_space_group_name_H-M   'P 1'
_cell_length_a   24.24470000
_cell_length_b   24.24470000
_cell_length_c   13.17050000
_cell_angle_alpha   90.00000000
_cell_angle_beta   90.00000000
_cell_angle_gamma   120.00000000
_symmetry_Int_Tables_number   1
_chemical_formula_structural   LaH12C21NO6
_chemical_formula_sum   'La9 H108 C189 N9 O54'
_cell_volume   6704.50198287
_cell_formula_units_Z   9
loop_
 _symmetry_equiv_pos_site_id
 _symmetry_equiv_pos_as_xyz
  1  'x, y, z'
loop_
 _atom_site_type_symbol
 _atom_site_label
 _atom_site_symmetry_multiplicity
 _atom_site_fract_x
 _atom_site_fract_y
 _atom_site_fract_z
 _atom_site_occupancy
 _atom_site_charge
  La  La1  1  0.649030  0.982360  0.166670  1.0  2.1772
  La  La2  1  0.315700  0.315700  0.500000  1.0  2.1772
  La  La3  1  0.017640  0.666667  0.166670  1.0  2.1769
  La  La4  1  0.684300  0.000000  0.500000  1.0  2.1768
  La  La5  1  0.333333  0.350970  0.166670  1.0  2.1771
  La  La6  1  0.000000  0.684300  0.500000  1.0  2.1771
  La  La7  1  0.982360  0.649030  0.833330  1.0  2.1771
  La  La8  1  0.666667  0.017640  0.833330  1.0  2.1771
  La  La9  1  0.350970  0.333333  0.833330  1.0  2.1768
  H  H10  1  0.883800  0.281100  0.946600  1.0  0.1252
  H  H11  1  0.790200  0.185000  0.962500  1.0  0.0971
  H  H12  1  0.977600  0.204500  0.088700  1.0  0.1148
  H  H13  1  0.879900  0.107200  0.107100  1.0  0.1375
  H  H14  1  0.952500  0.354700  0.129100  1.0  0.1117
  H  H15  1  0.956200  0.450100  0.133000  1.0  0.0949
  H  H16  1  0.550470  0.614430  0.279930  1.0  0.1252
  H  H17  1  0.456870  0.518330  0.295830  1.0  0.0966
  H  H18  1  0.644270  0.537830  0.422030  1.0  0.1148
  H  H19  1  0.546570  0.440530  0.440430  1.0  0.1368
  H  H20  1  0.619170  0.688030  0.462430  1.0  0.1117
  H  H21  1  0.622870  0.783430  0.466330  1.0  0.0949
  H  H22  1  0.217130  0.947770  0.613270  1.0  0.1253
  H  H23  1  0.123530  0.851670  0.629170  1.0  0.0966
  H  H24  1  0.310930  0.871170  0.755370  1.0  0.1148
  H  H25  1  0.213230  0.773870  0.773770  1.0  0.1375
  H  H26  1  0.285830  0.021370  0.795770  1.0  0.1117
  H  H27  1  0.289530  0.116770  0.799670  1.0  0.0948
  H  H28  1  0.718900  0.602700  0.946600  1.0  0.1249
  H  H29  1  0.815000  0.605200  0.962500  1.0  0.0957
  H  H30  1  0.795500  0.773100  0.088700  1.0  0.1116
  H  H31  1  0.892800  0.772700  0.107100  1.0  0.136
  H  H32  1  0.645300  0.597800  0.129100  1.0  0.1106
  H  H33  1  0.549900  0.506100  0.133000  1.0  0.0955
  H  H34  1  0.385570  0.936030  0.279930  1.0  0.1249
  H  H35  1  0.481670  0.938530  0.295830  1.0  0.098
  H  H36  1  0.462170  0.106430  0.422030  1.0  0.1116
  H  H37  1  0.559470  0.106030  0.440430  1.0  0.1364
  H  H38  1  0.311970  0.931130  0.462430  1.0  0.1105
  H  H39  1  0.216570  0.839430  0.466330  1.0  0.0955
  H  H40  1  0.052230  0.269370  0.613270  1.0  0.1249
  H  H41  1  0.148330  0.271870  0.629170  1.0  0.0958
  H  H42  1  0.128830  0.439770  0.755370  1.0  0.1116
  H  H43  1  0.226130  0.439370  0.773770  1.0  0.136
  H  H44  1  0.978630  0.264470  0.795770  1.0  0.1106
  H  H45  1  0.883230  0.172770  0.799670  1.0  0.0955
  H  H46  1  0.397300  0.116200  0.946600  1.0  0.1272
  H  H47  1  0.394800  0.209800  0.962500  1.0  0.098
  H  H48  1  0.226900  0.022400  0.088700  1.0  0.1117
  H  H49  1  0.227300  0.120100  0.107100  1.0  0.135
  H  H50  1  0.402200  0.047500  0.129100  1.0  0.1105
  H  H51  1  0.493900  0.043800  0.133000  1.0  0.0954
  H  H52  1  0.063970  0.449530  0.279930  1.0  0.1272
  H  H53  1  0.061470  0.543130  0.295830  1.0  0.0977
  H  H54  1  0.893570  0.355730  0.422030  1.0  0.1117
  H  H55  1  0.893970  0.453430  0.440430  1.0  0.137
  H  H56  1  0.068870  0.380830  0.462430  1.0  0.1104
  H  H57  1  0.160570  0.377130  0.466330  1.0  0.0954
  H  H58  1  0.730630  0.782870  0.613270  1.0  0.1272
  H  H59  1  0.728130  0.876470  0.629170  1.0  0.0967
  H  H60  1  0.560230  0.689070  0.755370  1.0  0.1117
  H  H61  1  0.560630  0.786770  0.773770  1.0  0.1351
  H  H62  1  0.735530  0.714170  0.795770  1.0  0.1105
  H  H63  1  0.827230  0.710470  0.799670  1.0  0.0953
  H  H64  1  0.281100  0.883800  0.053400  1.0  0.1277
  H  H65  1  0.185000  0.790200  0.037500  1.0  0.0972
  H  H66  1  0.204500  0.977600  0.911300  1.0  0.1113
  H  H67  1  0.107200  0.879900  0.892900  1.0  0.1368
  H  H68  1  0.354700  0.952500  0.870900  1.0  0.1106
  H  H69  1  0.450100  0.956200  0.867000  1.0  0.0953
  H  H70  1  0.947770  0.217130  0.386730  1.0  0.1278
  H  H71  1  0.851670  0.123530  0.370830  1.0  0.0968
  H  H72  1  0.871170  0.310930  0.244630  1.0  0.1113
  H  H73  1  0.773870  0.213230  0.226230  1.0  0.1368
  H  H74  1  0.021370  0.285830  0.204230  1.0  0.1106
  H  H75  1  0.116770  0.289530  0.200330  1.0  0.0952
  H  H76  1  0.614430  0.550470  0.720070  1.0  0.1277
  H  H77  1  0.518330  0.456870  0.704170  1.0  0.0963
  H  H78  1  0.537830  0.644270  0.577970  1.0  0.1113
  H  H79  1  0.440530  0.546570  0.559570  1.0  0.1355
  H  H80  1  0.688030  0.619170  0.537570  1.0  0.1106
  H  H81  1  0.783430  0.622870  0.533670  1.0  0.0953
  H  H82  1  0.602700  0.718900  0.053400  1.0  0.1255
  H  H83  1  0.605200  0.815000  0.037500  1.0  0.0956
  H  H84  1  0.773100  0.795500  0.911300  1.0  0.1149
  H  H85  1  0.772700  0.892800  0.892900  1.0  0.137
  H  H86  1  0.597800  0.645300  0.870900  1.0  0.1118
  H  H87  1  0.506100  0.549900  0.867000  1.0  0.0949
  H  H88  1  0.269370  0.052230  0.386730  1.0  0.1255
  H  H89  1  0.271870  0.148330  0.370830  1.0  0.0958
  H  H90  1  0.439770  0.128830  0.244630  1.0  0.1149
  H  H91  1  0.439370  0.226130  0.226230  1.0  0.137
  H  H92  1  0.264470  0.978630  0.204230  1.0  0.1118
  H  H93  1  0.172770  0.883230  0.200330  1.0  0.0949
  H  H94  1  0.936030  0.385570  0.720070  1.0  0.1255
  H  H95  1  0.938530  0.481670  0.704170  1.0  0.0986
  H  H96  1  0.106430  0.462170  0.577970  1.0  0.1149
  H  H97  1  0.106030  0.559470  0.559570  1.0  0.1378
  H  H98  1  0.931130  0.311970  0.537570  1.0  0.1117
  H  H99  1  0.839430  0.216570  0.533670  1.0  0.0949
  H  H100  1  0.116200  0.397300  0.053400  1.0  0.1248
  H  H101  1  0.209800  0.394800  0.037500  1.0  0.0968
  H  H102  1  0.022400  0.226900  0.911300  1.0  0.1123
  H  H103  1  0.120100  0.227300  0.892900  1.0  0.1354
  H  H104  1  0.047500  0.402200  0.870900  1.0  0.111
  H  H105  1  0.043800  0.493900  0.867000  1.0  0.0954
  H  H106  1  0.782870  0.730630  0.386730  1.0  0.1248
  H  H107  1  0.876470  0.728130  0.370830  1.0  0.0958
  H  H108  1  0.689070  0.560230  0.244630  1.0  0.1123
  H  H109  1  0.786770  0.560630  0.226230  1.0  0.1355
  H  H110  1  0.714170  0.735530  0.204230  1.0  0.111
  H  H111  1  0.710470  0.827230  0.200330  1.0  0.0953
  H  H112  1  0.449530  0.063970  0.720070  1.0  0.1248
  H  H113  1  0.543130  0.061470  0.704170  1.0  0.0961
  H  H114  1  0.355730  0.893570  0.577970  1.0  0.1123
  H  H115  1  0.453430  0.893970  0.559570  1.0  0.1367
  H  H116  1  0.380830  0.068870  0.537570  1.0  0.111
  H  H117  1  0.377130  0.160570  0.533670  1.0  0.0954
  C  C118  1  0.942200  0.253800  0.012000  1.0  0.1205
  C  C119  1  0.884400  0.246800  0.977000  1.0  -0.1842
  C  C120  1  0.827800  0.188600  0.987600  1.0  -0.041
  C  C121  1  0.825500  0.138500  0.031900  1.0  -0.0714
  C  C122  1  0.940300  0.200800  0.062600  1.0  -0.1316
  C  C123  1  0.881500  0.141800  0.073900  1.0  -0.1101
  C  C124  1  0.766000  0.077100  0.046900  1.0  0.6503
  C  C125  1  0.972400  0.384000  0.076900  1.0  -0.189
  C  C126  1  0.973700  0.440300  0.077800  1.0  -0.0518
  C  C127  1  0.608870  0.587130  0.345330  1.0  0.1205
  C  C128  1  0.551070  0.580130  0.310330  1.0  -0.1842
  C  C129  1  0.494470  0.521930  0.320930  1.0  -0.041
  C  C130  1  0.492170  0.471830  0.365230  1.0  -0.0714
  C  C131  1  0.606970  0.534130  0.395930  1.0  -0.1316
  C  C132  1  0.548170  0.475130  0.407230  1.0  -0.1101
  C  C133  1  0.432670  0.410430  0.380230  1.0  0.6503
  C  C134  1  0.639070  0.717330  0.410230  1.0  -0.1887
  C  C135  1  0.640370  0.773630  0.411130  1.0  -0.0519
  C  C136  1  0.275530  0.920470  0.678670  1.0  0.1205
  C  C137  1  0.217730  0.913470  0.643670  1.0  -0.1848
  C  C138  1  0.161130  0.855270  0.654270  1.0  -0.041
  C  C139  1  0.158830  0.805170  0.698570  1.0  -0.0714
  C  C140  1  0.273630  0.867470  0.729270  1.0  -0.1316
  C  C141  1  0.214830  0.808470  0.740570  1.0  -0.1101
  C  C142  1  0.099330  0.743770  0.713570  1.0  0.6503
  C  C143  1  0.305730  0.050670  0.743570  1.0  -0.1891
  C  C144  1  0.307030  0.106970  0.744470  1.0  -0.0516
  C  C145  1  0.746200  0.688400  0.012000  1.0  0.1213
  C  C146  1  0.753200  0.637600  0.977000  1.0  -0.1844
  C  C147  1  0.811400  0.639200  0.987600  1.0  -0.0455
  C  C148  1  0.861500  0.687000  0.031900  1.0  -0.0756
  C  C149  1  0.799200  0.739500  0.062600  1.0  -0.1277
  C  C150  1  0.858200  0.739700  0.073900  1.0  -0.1087
  C  C151  1  0.922900  0.688900  0.046900  1.0  0.6446
  C  C152  1  0.616000  0.588400  0.076900  1.0  -0.1928
  C  C153  1  0.559700  0.533400  0.077800  1.0  -0.0523
  C  C154  1  0.412870  0.021730  0.345330  1.0  0.1213
  C  C155  1  0.419870  0.970930  0.310330  1.0  -0.1844
  C  C156  1  0.478070  0.972530  0.320930  1.0  -0.0455
  C  C157  1  0.528170  0.020330  0.365230  1.0  -0.0756
  C  C158  1  0.465870  0.072830  0.395930  1.0  -0.1277
  C  C159  1  0.524870  0.073030  0.407230  1.0  -0.1087
  C  C160  1  0.589570  0.022230  0.380230  1.0  0.6446
  C  C161  1  0.282670  0.921730  0.410230  1.0  -0.1923
  C  C162  1  0.226370  0.866730  0.411130  1.0  -0.052
  C  C163  1  0.079530  0.355070  0.678670  1.0  0.1213
  C  C164  1  0.086530  0.304270  0.643670  1.0  -0.1844
  C  C165  1  0.144730  0.305870  0.654270  1.0  -0.0455
  C  C166  1  0.194830  0.353670  0.698570  1.0  -0.0756
  C  C167  1  0.132530  0.406170  0.729270  1.0  -0.1277
  C  C168  1  0.191530  0.406370  0.740570  1.0  -0.1087
  C  C169  1  0.256230  0.355570  0.713570  1.0  0.6446
  C  C170  1  0.949330  0.255070  0.743570  1.0  -0.1928
  C  C171  1  0.893030  0.200070  0.744470  1.0  -0.0523
  C  C172  1  0.311600  0.057800  0.012000  1.0  0.1198
  C  C173  1  0.362400  0.115600  0.977000  1.0  -0.1899
  C  C174  1  0.360800  0.172200  0.987600  1.0  -0.0447
  C  C175  1  0.313000  0.174500  0.031900  1.0  -0.0759
  C  C176  1  0.260500  0.059700  0.062600  1.0  -0.1313
  C  C177  1  0.260300  0.118500  0.073900  1.0  -0.105
  C  C178  1  0.311100  0.234000  0.046900  1.0  0.6475
  C  C179  1  0.411600  0.027600  0.076900  1.0  -0.1846
  C  C180  1  0.466600  0.026300  0.077800  1.0  -0.0533
  C  C181  1  0.978270  0.391130  0.345330  1.0  0.1198
  C  C182  1  0.029070  0.448930  0.310330  1.0  -0.1899
  C  C183  1  0.027470  0.505530  0.320930  1.0  -0.0447
  C  C184  1  0.979670  0.507830  0.365230  1.0  -0.0759
  C  C185  1  0.927170  0.393030  0.395930  1.0  -0.1313
  C  C186  1  0.926970  0.451830  0.407230  1.0  -0.105
  C  C187  1  0.977770  0.567330  0.380230  1.0  0.6476
  C  C188  1  0.078270  0.360930  0.410230  1.0  -0.1844
  C  C189  1  0.133270  0.359630  0.411130  1.0  -0.0533
  C  C190  1  0.644930  0.724470  0.678670  1.0  0.1198
  C  C191  1  0.695730  0.782270  0.643670  1.0  -0.1899
  C  C192  1  0.694130  0.838870  0.654270  1.0  -0.0447
  C  C193  1  0.646330  0.841170  0.698570  1.0  -0.0759
  C  C194  1  0.593830  0.726370  0.729270  1.0  -0.1313
  C  C195  1  0.593630  0.785170  0.740570  1.0  -0.105
  C  C196  1  0.644430  0.900670  0.713570  1.0  0.6475
  C  C197  1  0.744930  0.694270  0.743570  1.0  -0.1846
  C  C198  1  0.799930  0.692970  0.744470  1.0  -0.0529
  C  C199  1  0.253800  0.942200  0.988000  1.0  0.1197
  C  C200  1  0.246800  0.884400  0.023000  1.0  -0.1889
  C  C201  1  0.188600  0.827800  0.012400  1.0  -0.0449
  C  C202  1  0.138500  0.825500  0.968100  1.0  -0.0768
  C  C203  1  0.200800  0.940300  0.937400  1.0  -0.1296
  C  C204  1  0.141800  0.881500  0.926100  1.0  -0.1051
  C  C205  1  0.077100  0.766000  0.953100  1.0  0.6481
  C  C206  1  0.384000  0.972400  0.923100  1.0  -0.1837
  C  C207  1  0.440300  0.973700  0.922200  1.0  -0.0586
  C  C208  1  0.920470  0.275530  0.321330  1.0  0.1197
  C  C209  1  0.913470  0.217730  0.356330  1.0  -0.1897
  C  C210  1  0.855270  0.161130  0.345730  1.0  -0.0449
  C  C211  1  0.805170  0.158830  0.301430  1.0  -0.0768
  C  C212  1  0.867470  0.273630  0.270730  1.0  -0.1296
  C  C213  1  0.808470  0.214830  0.259430  1.0  -0.1051
  C  C214  1  0.743770  0.099330  0.286430  1.0  0.6481
  C  C215  1  0.050670  0.305730  0.256430  1.0  -0.1839
  C  C216  1  0.106970  0.307030  0.255530  1.0  -0.0583
  C  C217  1  0.587130  0.608870  0.654670  1.0  0.1197
  C  C218  1  0.580130  0.551070  0.689670  1.0  -0.1889
  C  C219  1  0.521930  0.494470  0.679070  1.0  -0.0449
  C  C220  1  0.471830  0.492170  0.634770  1.0  -0.0768
  C  C221  1  0.534130  0.606970  0.604070  1.0  -0.1296
  C  C222  1  0.475130  0.548170  0.592770  1.0  -0.1052
  C  C223  1  0.410430  0.432670  0.619770  1.0  0.6481
  C  C224  1  0.717330  0.639070  0.589770  1.0  -0.1835
  C  C225  1  0.773630  0.640370  0.588870  1.0  -0.0587
  C  C226  1  0.688400  0.746200  0.988000  1.0  0.1204
  C  C227  1  0.637600  0.753200  0.023000  1.0  -0.1837
  C  C228  1  0.639200  0.811400  0.012400  1.0  -0.04
  C  C229  1  0.687000  0.861500  0.968100  1.0  -0.0692
  C  C230  1  0.739500  0.799200  0.937400  1.0  -0.1313
  C  C231  1  0.739700  0.858200  0.926100  1.0  -0.1093
  C  C232  1  0.688900  0.922900  0.953100  1.0  0.6503
  C  C233  1  0.588400  0.616000  0.923100  1.0  -0.1878
  C  C234  1  0.533400  0.559700  0.922200  1.0  -0.0566
  C  C235  1  0.355070  0.079530  0.321330  1.0  0.1204
  C  C236  1  0.304270  0.086530  0.356330  1.0  -0.1836
  C  C237  1  0.305870  0.144730  0.345730  1.0  -0.04
  C  C238  1  0.353670  0.194830  0.301430  1.0  -0.0692
  C  C239  1  0.406170  0.132530  0.270730  1.0  -0.1313
  C  C240  1  0.406370  0.191530  0.259430  1.0  -0.1093
  C  C241  1  0.355570  0.256230  0.286430  1.0  0.6503
  C  C242  1  0.255070  0.949330  0.256430  1.0  -0.1878
  C  C243  1  0.200070  0.893030  0.255530  1.0  -0.0566
  C  C244  1  0.021730  0.412870  0.654670  1.0  0.1204
  C  C245  1  0.970930  0.419870  0.689670  1.0  -0.1837
  C  C246  1  0.972530  0.478070  0.679070  1.0  -0.04
  C  C247  1  0.020330  0.528170  0.634770  1.0  -0.0692
  C  C248  1  0.072830  0.465870  0.604070  1.0  -0.1313
  C  C249  1  0.073030  0.524870  0.592770  1.0  -0.1093
  C  C250  1  0.022230  0.589570  0.619770  1.0  0.6503
  C  C251  1  0.921730  0.282670  0.589770  1.0  -0.1873
  C  C252  1  0.866730  0.226370  0.588870  1.0  -0.0563
  C  C253  1  0.057800  0.311600  0.988000  1.0  0.1216
  C  C254  1  0.115600  0.362400  0.023000  1.0  -0.1856
  C  C255  1  0.172200  0.360800  0.012400  1.0  -0.0455
  C  C256  1  0.174500  0.313000  0.968100  1.0  -0.0755
  C  C257  1  0.059700  0.260500  0.937400  1.0  -0.1254
  C  C258  1  0.118500  0.260300  0.926100  1.0  -0.1092
  C  C259  1  0.234000  0.311100  0.953100  1.0  0.6446
  C  C260  1  0.027600  0.411600  0.923100  1.0  -0.1921
  C  C261  1  0.026300  0.466600  0.922200  1.0  -0.058
  C  C262  1  0.724470  0.644930  0.321330  1.0  0.1216
  C  C263  1  0.782270  0.695730  0.356330  1.0  -0.1857
  C  C264  1  0.838870  0.694130  0.345730  1.0  -0.0455
  C  C265  1  0.841170  0.646330  0.301430  1.0  -0.0755
  C  C266  1  0.726370  0.593830  0.270730  1.0  -0.1254
  C  C267  1  0.785170  0.593630  0.259430  1.0  -0.1092
  C  C268  1  0.900670  0.644430  0.286430  1.0  0.6446
  C  C269  1  0.694270  0.744930  0.256430  1.0  -0.1921
  C  C270  1  0.692970  0.799930  0.255530  1.0  -0.0577
  C  C271  1  0.391130  0.978270  0.654670  1.0  0.1216
  C  C272  1  0.448930  0.029070  0.689670  1.0  -0.1856
  C  C273  1  0.505530  0.027470  0.679070  1.0  -0.0455
  C  C274  1  0.507830  0.979670  0.634770  1.0  -0.0755
  C  C275  1  0.393030  0.927170  0.604070  1.0  -0.1254
  C  C276  1  0.451830  0.926970  0.592770  1.0  -0.1092
  C  C277  1  0.567330  0.977770  0.619770  1.0  0.6446
  C  C278  1  0.360930  0.078270  0.589770  1.0  -0.1919
  C  C279  1  0.359630  0.133270  0.588870  1.0  -0.058
  C  C280  1  0.000000  0.370500  0.000000  1.0  0.2009
  C  C281  1  0.000000  0.483900  0.000000  1.0  -0.0718
  C  C282  1  0.000000  0.545700  0.000000  1.0  0.7406
  C  C283  1  0.666667  0.703830  0.333333  1.0  0.2
  C  C284  1  0.666667  0.817230  0.333333  1.0  -0.0719
  C  C285  1  0.666667  0.879030  0.333333  1.0  0.7406
  C  C286  1  0.333333  0.037170  0.666667  1.0  0.2
  C  C287  1  0.333333  0.150570  0.666667  1.0  -0.0718
  C  C288  1  0.333333  0.212370  0.666667  1.0  0.7407
  C  C289  1  0.629500  0.629500  0.000000  1.0  0.201
  C  C290  1  0.516100  0.516100  0.000000  1.0  -0.0744
  C  C291  1  0.454300  0.454300  0.000000  1.0  0.7401
  C  C292  1  0.296170  0.962830  0.333333  1.0  0.2
  C  C293  1  0.182770  0.849430  0.333333  1.0  -0.0745
  C  C294  1  0.120970  0.787630  0.333333  1.0  0.7401
  C  C295  1  0.962830  0.296170  0.666667  1.0  0.2
  C  C296  1  0.849430  0.182770  0.666667  1.0  -0.0745
  C  C297  1  0.787630  0.120970  0.666667  1.0  0.7401
  C  C298  1  0.370500  0.000000  0.000000  1.0  0.2019
  C  C299  1  0.483900  0.000000  0.000000  1.0  -0.0746
  C  C300  1  0.545700  0.000000  0.000000  1.0  0.7444
  C  C301  1  0.037170  0.333333  0.333333  1.0  0.2008
  C  C302  1  0.150570  0.333333  0.333333  1.0  -0.0746
  C  C303  1  0.212370  0.333333  0.333333  1.0  0.7444
  C  C304  1  0.703830  0.666667  0.666667  1.0  0.2008
  C  C305  1  0.817230  0.666667  0.666667  1.0  -0.0746
  C  C306  1  0.879030  0.666667  0.666667  1.0  0.7444
  N  N307  1  0.000000  0.311600  0.000000  1.0  -0.1664
  N  N308  1  0.666667  0.644930  0.333333  1.0  -0.1664
  N  N309  1  0.333333  0.978270  0.666667  1.0  -0.1664
  N  N310  1  0.688400  0.688400  0.000000  1.0  -0.1665
  N  N311  1  0.355070  0.021730  0.333333  1.0  -0.1665
  N  N312  1  0.021730  0.355070  0.666667  1.0  -0.1666
  N  N313  1  0.311600  0.000000  0.000000  1.0  -0.1663
  N  N314  1  0.978270  0.333333  0.333333  1.0  -0.166
  N  N315  1  0.644930  0.666667  0.666667  1.0  -0.1664
  O  O316  1  0.764800  0.035700  0.109400  1.0  -0.6326
  O  O317  1  0.715800  0.069800  0.000400  1.0  -0.717
  O  O318  1  0.992900  0.567300  0.083500  1.0  -0.7507
  O  O319  1  0.431470  0.369030  0.442730  1.0  -0.6325
  O  O320  1  0.382470  0.403130  0.333730  1.0  -0.7169
  O  O321  1  0.659570  0.900630  0.416830  1.0  -0.7508
  O  O322  1  0.098130  0.702370  0.776070  1.0  -0.6326
  O  O323  1  0.049130  0.736470  0.667070  1.0  -0.7169
  O  O324  1  0.326230  0.233970  0.750170  1.0  -0.7509
  O  O325  1  0.964300  0.729100  0.109400  1.0  -0.6314
  O  O326  1  0.930200  0.646000  0.000400  1.0  -0.7172
  O  O327  1  0.432700  0.425600  0.083500  1.0  -0.7506
  O  O328  1  0.630970  0.062430  0.442730  1.0  -0.6314
  O  O329  1  0.596870  0.979330  0.333730  1.0  -0.7171
  O  O330  1  0.099370  0.758930  0.416830  1.0  -0.7503
  O  O331  1  0.297630  0.395770  0.776070  1.0  -0.6312
  O  O332  1  0.263530  0.312670  0.667070  1.0  -0.717
  O  O333  1  0.766030  0.092270  0.750170  1.0  -0.7507
  O  O334  1  0.270900  0.235200  0.109400  1.0  -0.6323
  O  O335  1  0.354000  0.284200  0.000400  1.0  -0.7156
  O  O336  1  0.574400  0.007100  0.083500  1.0  -0.7528
  O  O337  1  0.937570  0.568530  0.442730  1.0  -0.6323
  O  O338  1  0.020670  0.617530  0.333730  1.0  -0.7154
  O  O339  1  0.241070  0.340430  0.416830  1.0  -0.7526
  O  O340  1  0.604230  0.901870  0.776070  1.0  -0.6323
  O  O341  1  0.687330  0.950870  0.667070  1.0  -0.7156
  O  O342  1  0.907730  0.673770  0.750170  1.0  -0.7529
  O  O343  1  0.035700  0.764800  0.890600  1.0  -0.634
  O  O344  1  0.069800  0.715800  0.999600  1.0  -0.7159
  O  O345  1  0.567300  0.992900  0.916500  1.0  -0.7555
  O  O346  1  0.702370  0.098130  0.223930  1.0  -0.634
  O  O347  1  0.736470  0.049130  0.332930  1.0  -0.7157
  O  O348  1  0.233970  0.326230  0.249830  1.0  -0.7557
  O  O349  1  0.369030  0.431470  0.557270  1.0  -0.6339
  O  O350  1  0.403130  0.382470  0.666270  1.0  -0.7158
  O  O351  1  0.900630  0.659570  0.583170  1.0  -0.7557
  O  O352  1  0.729100  0.964300  0.890600  1.0  -0.6332
  O  O353  1  0.646000  0.930200  0.999600  1.0  -0.7162
  O  O354  1  0.425600  0.432700  0.916500  1.0  -0.7523
  O  O355  1  0.395770  0.297630  0.223930  1.0  -0.6331
  O  O356  1  0.312670  0.263530  0.332930  1.0  -0.7161
  O  O357  1  0.092270  0.766030  0.249830  1.0  -0.7524
  O  O358  1  0.062430  0.630970  0.557270  1.0  -0.6333
  O  O359  1  0.979330  0.596870  0.666270  1.0  -0.7161
  O  O360  1  0.758930  0.099370  0.583170  1.0  -0.7521
  O  O361  1  0.235200  0.270900  0.890600  1.0  -0.6311
  O  O362  1  0.284200  0.354000  0.999600  1.0  -0.7162
  O  O363  1  0.007100  0.574400  0.916500  1.0  -0.7539
  O  O364  1  0.901870  0.604230  0.223930  1.0  -0.6311
  O  O365  1  0.950870  0.687330  0.332930  1.0  -0.7162
  O  O366  1  0.673770  0.907730  0.249830  1.0  -0.754
  O  O367  1  0.568530  0.937570  0.557270  1.0  -0.631
  O  O368  1  0.617530  0.020670  0.666270  1.0  -0.7161
  O  O369  1  0.340430  0.241070  0.583170  1.0  -0.7537
