# generated using pymatgen
data_LaH12C21NO6
_symmetry_space_group_name_H-M   'P 1'
_cell_length_a   24.18430000
_cell_length_b   24.18430000
_cell_length_c   13.02170000
_cell_angle_alpha   90.00000000
_cell_angle_beta   90.00000000
_cell_angle_gamma   120.00000000
_symmetry_Int_Tables_number   1
_chemical_formula_structural   LaH12C21NO6
_chemical_formula_sum   'La9 H108 C189 N9 O54'
_cell_volume   6595.76783346
_cell_formula_units_Z   9
loop_
 _symmetry_equiv_pos_site_id
 _symmetry_equiv_pos_as_xyz
  1  'x, y, z'
loop_
 _atom_site_type_symbol
 _atom_site_label
 _atom_site_symmetry_multiplicity
 _atom_site_fract_x
 _atom_site_fract_y
 _atom_site_fract_z
 _atom_site_occupancy
 _atom_site_charge
  La  La1  1  0.018230  0.351570  0.166670  1.0  2.1673
  La  La2  1  0.684900  0.684900  0.500000  1.0  2.1674
  La  La3  1  0.648430  0.666667  0.166670  1.0  2.1679
  La  La4  1  0.315100  0.000000  0.500000  1.0  2.1679
  La  La5  1  0.333333  0.981770  0.166670  1.0  2.1666
  La  La6  1  0.000000  0.315100  0.500000  1.0  2.1666
  La  La7  1  0.351570  0.018230  0.833330  1.0  2.1674
  La  La8  1  0.666667  0.648430  0.833330  1.0  2.1666
  La  La9  1  0.981770  0.333333  0.833330  1.0  2.1679
  H  H10  1  0.780800  0.052800  0.389400  1.0  0.1205
  H  H11  1  0.874800  0.148300  0.372400  1.0  0.0963
  H  H12  1  0.785900  0.222800  0.228400  1.0  0.0975
  H  H13  1  0.689200  0.128400  0.244300  1.0  0.1182
  H  H14  1  0.721800  0.982300  0.204800  1.0  0.0985
  H  H15  1  0.718800  0.884000  0.203000  1.0  0.1022
  H  H16  1  0.447470  0.386130  0.722730  1.0  0.1205
  H  H17  1  0.541470  0.481630  0.705730  1.0  0.0958
  H  H18  1  0.452570  0.556130  0.561730  1.0  0.0984
  H  H19  1  0.355870  0.461730  0.577630  1.0  0.1182
  H  H20  1  0.388470  0.315630  0.538130  1.0  0.0971
  H  H21  1  0.385470  0.217330  0.536330  1.0  0.1022
  H  H22  1  0.114130  0.719470  0.056070  1.0  0.1205
  H  H23  1  0.208130  0.814970  0.039070  1.0  0.0963
  H  H24  1  0.119230  0.889470  0.895070  1.0  0.0978
  H  H25  1  0.022530  0.795070  0.910970  1.0  0.1183
  H  H26  1  0.055130  0.648970  0.871470  1.0  0.0985
  H  H27  1  0.052130  0.550670  0.869670  1.0  0.1029
  H  H28  1  0.947200  0.728000  0.389400  1.0  0.1195
  H  H29  1  0.851700  0.726500  0.372400  1.0  0.0978
  H  H30  1  0.777200  0.563100  0.228400  1.0  0.0949
  H  H31  1  0.871600  0.560800  0.244300  1.0  0.1155
  H  H32  1  0.017700  0.739500  0.204800  1.0  0.0965
  H  H33  1  0.116000  0.834800  0.203000  1.0  0.1036
  H  H34  1  0.613870  0.061330  0.722730  1.0  0.1195
  H  H35  1  0.518370  0.059830  0.705730  1.0  0.0949
  H  H36  1  0.443870  0.896430  0.561730  1.0  0.0951
  H  H37  1  0.538270  0.894130  0.577630  1.0  0.1155
  H  H38  1  0.684370  0.072830  0.538130  1.0  0.0965
  H  H39  1  0.782670  0.168130  0.536330  1.0  0.1032
  H  H40  1  0.280530  0.394670  0.056070  1.0  0.1195
  H  H41  1  0.185030  0.393170  0.039070  1.0  0.0978
  H  H42  1  0.110530  0.229770  0.895070  1.0  0.0958
  H  H43  1  0.204930  0.227470  0.910970  1.0  0.1155
  H  H44  1  0.351030  0.406170  0.871470  1.0  0.0965
  H  H45  1  0.449330  0.501470  0.869670  1.0  0.1024
  H  H46  1  0.272000  0.219200  0.389400  1.0  0.1234
  H  H47  1  0.273500  0.125200  0.372400  1.0  0.0971
  H  H48  1  0.436900  0.214100  0.228400  1.0  0.0951
  H  H49  1  0.439200  0.310800  0.244300  1.0  0.1149
  H  H50  1  0.260500  0.278200  0.204800  1.0  0.0949
  H  H51  1  0.165200  0.281200  0.203000  1.0  0.102
  H  H52  1  0.938670  0.552530  0.722730  1.0  0.1235
  H  H53  1  0.940170  0.458530  0.705730  1.0  0.0971
  H  H54  1  0.103570  0.547430  0.561730  1.0  0.0932
  H  H55  1  0.105870  0.644130  0.577630  1.0  0.115
  H  H56  1  0.927170  0.611530  0.538130  1.0  0.0963
  H  H57  1  0.831870  0.614530  0.536330  1.0  0.1023
  H  H58  1  0.605330  0.885870  0.056070  1.0  0.1234
  H  H59  1  0.606830  0.791870  0.039070  1.0  0.0971
  H  H60  1  0.770230  0.880770  0.895070  1.0  0.0961
  H  H61  1  0.772530  0.977470  0.910970  1.0  0.1149
  H  H62  1  0.593830  0.944870  0.871470  1.0  0.095
  H  H63  1  0.498530  0.947870  0.869670  1.0  0.102
  H  H64  1  0.052800  0.780800  0.610600  1.0  0.1234
  H  H65  1  0.148300  0.874800  0.627600  1.0  0.0979
  H  H66  1  0.222800  0.785900  0.771600  1.0  0.0946
  H  H67  1  0.128400  0.689200  0.755700  1.0  0.115
  H  H68  1  0.982300  0.721800  0.795200  1.0  0.0968
  H  H69  1  0.884000  0.718800  0.797000  1.0  0.102
  H  H70  1  0.719470  0.114130  0.943930  1.0  0.1234
  H  H71  1  0.814970  0.208130  0.960930  1.0  0.0979
  H  H72  1  0.889470  0.119230  0.104930  1.0  0.095
  H  H73  1  0.795070  0.022530  0.089030  1.0  0.115
  H  H74  1  0.648970  0.055130  0.128530  1.0  0.0968
  H  H75  1  0.550670  0.052130  0.130330  1.0  0.1029
  H  H76  1  0.386130  0.447470  0.277270  1.0  0.1234
  H  H77  1  0.481630  0.541470  0.294270  1.0  0.0978
  H  H78  1  0.556130  0.452570  0.438270  1.0  0.0957
  H  H79  1  0.461730  0.355870  0.422370  1.0  0.115
  H  H80  1  0.315630  0.388470  0.461870  1.0  0.0954
  H  H81  1  0.217330  0.385470  0.463670  1.0  0.102
  H  H82  1  0.728000  0.947200  0.610600  1.0  0.1207
  H  H83  1  0.726500  0.851700  0.627600  1.0  0.097
  H  H84  1  0.563100  0.777200  0.771600  1.0  0.0955
  H  H85  1  0.560800  0.871600  0.755700  1.0  0.1173
  H  H86  1  0.739500  0.017700  0.795200  1.0  0.0978
  H  H87  1  0.834800  0.116000  0.797000  1.0  0.1031
  H  H88  1  0.394670  0.280530  0.943930  1.0  0.1208
  H  H89  1  0.393170  0.185030  0.960930  1.0  0.097
  H  H90  1  0.229770  0.110530  0.104930  1.0  0.0964
  H  H91  1  0.227470  0.204930  0.089030  1.0  0.1173
  H  H92  1  0.406170  0.351030  0.128530  1.0  0.0978
  H  H93  1  0.501470  0.449330  0.130330  1.0  0.102
  H  H94  1  0.061330  0.613870  0.277270  1.0  0.1208
  H  H95  1  0.059830  0.518370  0.294270  1.0  0.0941
  H  H96  1  0.896430  0.443870  0.438270  1.0  0.0956
  H  H97  1  0.894130  0.538270  0.422370  1.0  0.1173
  H  H98  1  0.072830  0.684370  0.461870  1.0  0.0978
  H  H99  1  0.168130  0.782670  0.463670  1.0  0.1028
  H  H100  1  0.219200  0.272000  0.610600  1.0  0.1195
  H  H101  1  0.125200  0.273500  0.627600  1.0  0.0967
  H  H102  1  0.214100  0.436900  0.771600  1.0  0.0961
  H  H103  1  0.310800  0.439200  0.755700  1.0  0.1162
  H  H104  1  0.278200  0.260500  0.795200  1.0  0.0963
  H  H105  1  0.281200  0.165200  0.797000  1.0  0.1025
  H  H106  1  0.885870  0.605330  0.943930  1.0  0.1195
  H  H107  1  0.791870  0.606830  0.960930  1.0  0.0967
  H  H108  1  0.880770  0.770230  0.104930  1.0  0.0967
  H  H109  1  0.977470  0.772530  0.089030  1.0  0.1161
  H  H110  1  0.944870  0.593830  0.128530  1.0  0.0964
  H  H111  1  0.947870  0.498530  0.130330  1.0  0.1025
  H  H112  1  0.552530  0.938670  0.277270  1.0  0.1195
  H  H113  1  0.458530  0.940170  0.294270  1.0  0.0969
  H  H114  1  0.547430  0.103570  0.438270  1.0  0.0947
  H  H115  1  0.644130  0.105870  0.422370  1.0  0.1162
  H  H116  1  0.611530  0.927170  0.461870  1.0  0.0978
  H  H117  1  0.614530  0.831870  0.463670  1.0  0.1029
  C  C118  1  0.725200  0.081900  0.321100  1.0  0.2114
  C  C119  1  0.780900  0.087300  0.357600  1.0  -0.155
  C  C120  1  0.837300  0.144600  0.346400  1.0  -0.0369
  C  C121  1  0.839600  0.195000  0.299400  1.0  -0.0821
  C  C122  1  0.784800  0.188300  0.262000  1.0  -0.062
  C  C123  1  0.726300  0.131800  0.271300  1.0  -0.1996
  C  C124  1  0.900900  0.257500  0.285300  1.0  0.6746
  C  C125  1  0.699600  0.952000  0.255400  1.0  -0.1766
  C  C126  1  0.698500  0.893500  0.255100  1.0  -0.0193
  C  C127  1  0.391870  0.415230  0.654430  1.0  0.2114
  C  C128  1  0.447570  0.420630  0.690930  1.0  -0.1549
  C  C129  1  0.503970  0.477930  0.679730  1.0  -0.0369
  C  C130  1  0.506270  0.528330  0.632730  1.0  -0.0821
  C  C131  1  0.451470  0.521630  0.595330  1.0  -0.062
  C  C132  1  0.392970  0.465130  0.604630  1.0  -0.1996
  C  C133  1  0.567570  0.590830  0.618630  1.0  0.6746
  C  C134  1  0.366270  0.285330  0.588730  1.0  -0.1766
  C  C135  1  0.365170  0.226830  0.588430  1.0  -0.0189
  C  C136  1  0.058530  0.748570  0.987770  1.0  0.2114
  C  C137  1  0.114230  0.753970  0.024270  1.0  -0.155
  C  C138  1  0.170630  0.811270  0.013070  1.0  -0.0369
  C  C139  1  0.172930  0.861670  0.966070  1.0  -0.0821
  C  C140  1  0.118130  0.854970  0.928670  1.0  -0.062
  C  C141  1  0.059630  0.798470  0.937970  1.0  -0.1996
  C  C142  1  0.234230  0.924170  0.951970  1.0  0.6746
  C  C143  1  0.032930  0.618670  0.922070  1.0  -0.1766
  C  C144  1  0.031830  0.560170  0.921770  1.0  -0.0193
  C  C145  1  0.918100  0.643300  0.321100  1.0  0.2107
  C  C146  1  0.912700  0.693600  0.357600  1.0  -0.1588
  C  C147  1  0.855400  0.692700  0.346400  1.0  -0.0423
  C  C148  1  0.805000  0.644600  0.299400  1.0  -0.0894
  C  C149  1  0.811700  0.596500  0.262000  1.0  -0.0642
  C  C150  1  0.868200  0.594500  0.271300  1.0  -0.1935
  C  C151  1  0.742500  0.643400  0.285300  1.0  0.6695
  C  C152  1  0.048000  0.747600  0.255400  1.0  -0.1792
  C  C153  1  0.106500  0.805000  0.255100  1.0  -0.0226
  C  C154  1  0.584770  0.976630  0.654430  1.0  0.2107
  C  C155  1  0.579370  0.026930  0.690930  1.0  -0.1588
  C  C156  1  0.522070  0.026030  0.679730  1.0  -0.0423
  C  C157  1  0.471670  0.977930  0.632730  1.0  -0.0894
  C  C158  1  0.478370  0.929830  0.595330  1.0  -0.0642
  C  C159  1  0.534870  0.927830  0.604630  1.0  -0.1936
  C  C160  1  0.409170  0.976730  0.618630  1.0  0.6695
  C  C161  1  0.714670  0.080930  0.588730  1.0  -0.1792
  C  C162  1  0.773170  0.138330  0.588430  1.0  -0.0227
  C  C163  1  0.251430  0.309970  0.987770  1.0  0.2107
  C  C164  1  0.246030  0.360270  0.024270  1.0  -0.1588
  C  C165  1  0.188730  0.359370  0.013070  1.0  -0.0423
  C  C166  1  0.138330  0.311270  0.966070  1.0  -0.0894
  C  C167  1  0.145030  0.263170  0.928670  1.0  -0.0642
  C  C168  1  0.201530  0.261170  0.937970  1.0  -0.194
  C  C169  1  0.075830  0.310070  0.951970  1.0  0.6696
  C  C170  1  0.381330  0.414270  0.922070  1.0  -0.1791
  C  C171  1  0.439830  0.471670  0.921770  1.0  -0.0227
  C  C172  1  0.356700  0.274800  0.321100  1.0  0.2101
  C  C173  1  0.306400  0.219100  0.357600  1.0  -0.1609
  C  C174  1  0.307300  0.162700  0.346400  1.0  -0.0434
  C  C175  1  0.355400  0.160400  0.299400  1.0  -0.0831
  C  C176  1  0.403500  0.215200  0.262000  1.0  -0.0633
  C  C177  1  0.405500  0.273700  0.271300  1.0  -0.1969
  C  C178  1  0.356600  0.099100  0.285300  1.0  0.673
  C  C179  1  0.252400  0.300400  0.255400  1.0  -0.1734
  C  C180  1  0.195000  0.301500  0.255100  1.0  -0.0161
  C  C181  1  0.023370  0.608130  0.654430  1.0  0.21
  C  C182  1  0.973070  0.552430  0.690930  1.0  -0.1607
  C  C183  1  0.973970  0.496030  0.679730  1.0  -0.0434
  C  C184  1  0.022070  0.493730  0.632730  1.0  -0.0831
  C  C185  1  0.070170  0.548530  0.595330  1.0  -0.0633
  C  C186  1  0.072170  0.607030  0.604630  1.0  -0.1971
  C  C187  1  0.023270  0.432430  0.618630  1.0  0.673
  C  C188  1  0.919070  0.633730  0.588730  1.0  -0.1734
  C  C189  1  0.861670  0.634830  0.588430  1.0  -0.0161
  C  C190  1  0.690030  0.941470  0.987770  1.0  0.2101
  C  C191  1  0.639730  0.885770  0.024270  1.0  -0.1609
  C  C192  1  0.640630  0.829370  0.013070  1.0  -0.0434
  C  C193  1  0.688730  0.827070  0.966070  1.0  -0.0831
  C  C194  1  0.736830  0.881870  0.928670  1.0  -0.0633
  C  C195  1  0.738830  0.940370  0.937970  1.0  -0.197
  C  C196  1  0.689930  0.765770  0.951970  1.0  0.673
  C  C197  1  0.585730  0.967070  0.922070  1.0  -0.1734
  C  C198  1  0.528330  0.968170  0.921770  1.0  -0.0161
  C  C199  1  0.081900  0.725200  0.678900  1.0  0.2107
  C  C200  1  0.087300  0.780900  0.642400  1.0  -0.1631
  C  C201  1  0.144600  0.837300  0.653600  1.0  -0.0414
  C  C202  1  0.195000  0.839600  0.700600  1.0  -0.0846
  C  C203  1  0.188300  0.784800  0.738000  1.0  -0.0619
  C  C204  1  0.131800  0.726300  0.728700  1.0  -0.1986
  C  C205  1  0.257500  0.900900  0.714700  1.0  0.6725
  C  C206  1  0.952000  0.699600  0.744600  1.0  -0.1743
  C  C207  1  0.893500  0.698500  0.744900  1.0  -0.0186
  C  C208  1  0.748570  0.058530  0.012230  1.0  0.2107
  C  C209  1  0.753970  0.114230  0.975730  1.0  -0.1631
  C  C210  1  0.811270  0.170630  0.986930  1.0  -0.0414
  C  C211  1  0.861670  0.172930  0.033930  1.0  -0.0846
  C  C212  1  0.854970  0.118130  0.071330  1.0  -0.0619
  C  C213  1  0.798470  0.059630  0.062030  1.0  -0.1986
  C  C214  1  0.924170  0.234230  0.048030  1.0  0.6725
  C  C215  1  0.618670  0.032930  0.077930  1.0  -0.1743
  C  C216  1  0.560170  0.031830  0.078230  1.0  -0.0185
  C  C217  1  0.415230  0.391870  0.345570  1.0  0.2107
  C  C218  1  0.420630  0.447570  0.309070  1.0  -0.1629
  C  C219  1  0.477930  0.503970  0.320270  1.0  -0.0414
  C  C220  1  0.528330  0.506270  0.367270  1.0  -0.0846
  C  C221  1  0.521630  0.451470  0.404670  1.0  -0.0619
  C  C222  1  0.465130  0.392970  0.395370  1.0  -0.1987
  C  C223  1  0.590830  0.567570  0.381370  1.0  0.6725
  C  C224  1  0.285330  0.366270  0.411270  1.0  -0.1743
  C  C225  1  0.226830  0.365170  0.411570  1.0  -0.0182
  C  C226  1  0.643300  0.918100  0.678900  1.0  0.2115
  C  C227  1  0.693600  0.912700  0.642400  1.0  -0.1553
  C  C228  1  0.692700  0.855400  0.653600  1.0  -0.0361
  C  C229  1  0.644600  0.805000  0.700600  1.0  -0.0811
  C  C230  1  0.596500  0.811700  0.738000  1.0  -0.0635
  C  C231  1  0.594500  0.868200  0.728700  1.0  -0.198
  C  C232  1  0.643400  0.742500  0.714700  1.0  0.6744
  C  C233  1  0.747600  0.048000  0.744600  1.0  -0.1764
  C  C234  1  0.805000  0.106500  0.744900  1.0  -0.0186
  C  C235  1  0.309970  0.251430  0.012230  1.0  0.2115
  C  C236  1  0.360270  0.246030  0.975730  1.0  -0.1553
  C  C237  1  0.359370  0.188730  0.986930  1.0  -0.0361
  C  C238  1  0.311270  0.138330  0.033930  1.0  -0.0811
  C  C239  1  0.263170  0.145030  0.071330  1.0  -0.0635
  C  C240  1  0.261170  0.201530  0.062030  1.0  -0.1981
  C  C241  1  0.310070  0.075830  0.048030  1.0  0.6744
  C  C242  1  0.414270  0.381330  0.077930  1.0  -0.1763
  C  C243  1  0.471670  0.439830  0.078230  1.0  -0.0186
  C  C244  1  0.976630  0.584770  0.345570  1.0  0.2116
  C  C245  1  0.026930  0.579370  0.309070  1.0  -0.1553
  C  C246  1  0.026030  0.522070  0.320270  1.0  -0.0361
  C  C247  1  0.977930  0.471670  0.367270  1.0  -0.0811
  C  C248  1  0.929830  0.478370  0.404670  1.0  -0.0635
  C  C249  1  0.927830  0.534870  0.395370  1.0  -0.1983
  C  C250  1  0.976730  0.409170  0.381370  1.0  0.6744
  C  C251  1  0.080930  0.714670  0.411270  1.0  -0.1764
  C  C252  1  0.138330  0.773170  0.411570  1.0  -0.0186
  C  C253  1  0.274800  0.356700  0.678900  1.0  0.2107
  C  C254  1  0.219100  0.306400  0.642400  1.0  -0.1591
  C  C255  1  0.162700  0.307300  0.653600  1.0  -0.0432
  C  C256  1  0.160400  0.355400  0.700600  1.0  -0.0892
  C  C257  1  0.215200  0.403500  0.738000  1.0  -0.0622
  C  C258  1  0.273700  0.405500  0.728700  1.0  -0.1925
  C  C259  1  0.099100  0.356600  0.714700  1.0  0.6697
  C  C260  1  0.300400  0.252400  0.744600  1.0  -0.1796
  C  C261  1  0.301500  0.195000  0.744900  1.0  -0.0212
  C  C262  1  0.941470  0.690030  0.012230  1.0  0.2107
  C  C263  1  0.885770  0.639730  0.975730  1.0  -0.1591
  C  C264  1  0.829370  0.640630  0.986930  1.0  -0.0432
  C  C265  1  0.827070  0.688730  0.033930  1.0  -0.0892
  C  C266  1  0.881870  0.736830  0.071330  1.0  -0.0622
  C  C267  1  0.940370  0.738830  0.062030  1.0  -0.1923
  C  C268  1  0.765770  0.689930  0.048030  1.0  0.6696
  C  C269  1  0.967070  0.585730  0.077930  1.0  -0.1796
  C  C270  1  0.968170  0.528330  0.078230  1.0  -0.0212
  C  C271  1  0.608130  0.023370  0.345570  1.0  0.2107
  C  C272  1  0.552430  0.973070  0.309070  1.0  -0.1589
  C  C273  1  0.496030  0.973970  0.320270  1.0  -0.0432
  C  C274  1  0.493730  0.022070  0.367270  1.0  -0.0892
  C  C275  1  0.548530  0.070170  0.404670  1.0  -0.0622
  C  C276  1  0.607030  0.072170  0.395370  1.0  -0.1927
  C  C277  1  0.432430  0.023270  0.381370  1.0  0.6696
  C  C278  1  0.633730  0.919070  0.411270  1.0  -0.1796
  C  C279  1  0.634830  0.861670  0.411570  1.0  -0.0212
  C  C280  1  0.666667  0.964580  0.333333  1.0  0.0997
  C  C281  1  0.666667  0.849480  0.333333  1.0  -0.1036
  C  C282  1  0.666667  0.786580  0.333333  1.0  0.7614
  C  C283  1  0.035420  0.702080  0.333333  1.0  0.0984
  C  C284  1  0.150520  0.817180  0.333333  1.0  -0.1039
  C  C285  1  0.213420  0.880080  0.333333  1.0  0.7626
  C  C286  1  0.297920  0.333333  0.333333  1.0  0.0976
  C  C287  1  0.182820  0.333333  0.333333  1.0  -0.1025
  C  C288  1  0.119920  0.333333  0.333333  1.0  0.7653
  C  C289  1  0.964580  0.666667  0.666667  1.0  0.0988
  C  C290  1  0.849480  0.666667  0.666667  1.0  -0.1023
  C  C291  1  0.786580  0.666667  0.666667  1.0  0.7649
  C  C292  1  0.631250  0.000000  0.000000  1.0  0.0986
  C  C293  1  0.516150  0.000000  0.000000  1.0  -0.1028
  C  C294  1  0.453250  0.000000  0.000000  1.0  0.7653
  C  C295  1  0.702080  0.035420  0.666667  1.0  0.0984
  C  C296  1  0.817180  0.150520  0.666667  1.0  -0.1038
  C  C297  1  0.880080  0.213420  0.666667  1.0  0.7626
  C  C298  1  0.368750  0.368750  0.000000  1.0  0.0981
  C  C299  1  0.483850  0.483850  0.000000  1.0  -0.1035
  C  C300  1  0.546750  0.546750  0.000000  1.0  0.7626
  C  C301  1  0.333333  0.297920  0.666667  1.0  0.0985
  C  C302  1  0.333333  0.182820  0.666667  1.0  -0.104
  C  C303  1  0.333333  0.119920  0.666667  1.0  0.7617
  C  C304  1  0.000000  0.631250  0.000000  1.0  0.0996
  C  C305  1  0.000000  0.516150  0.000000  1.0  -0.1042
  C  C306  1  0.000000  0.453250  0.000000  1.0  0.7617
  N  N307  1  0.666667  0.023980  0.333333  1.0  -0.1734
  N  N308  1  0.976020  0.642680  0.333333  1.0  -0.1728
  N  N309  1  0.357320  0.333333  0.333333  1.0  -0.1716
  N  N310  1  0.023980  0.666667  0.666667  1.0  -0.1718
  N  N311  1  0.690650  0.000000  0.000000  1.0  -0.1716
  N  N312  1  0.642680  0.976020  0.666667  1.0  -0.1728
  N  N313  1  0.309350  0.309350  0.000000  1.0  -0.1735
  N  N314  1  0.333333  0.357320  0.666667  1.0  -0.1731
  N  N315  1  0.000000  0.690650  0.000000  1.0  -0.1732
  O  O316  1  0.902920  0.298400  0.225300  1.0  -0.6253
  O  O317  1  0.951030  0.264280  0.330000  1.0  -0.803
  O  O318  1  0.677700  0.768200  0.250200  1.0  -0.7228
  O  O319  1  0.569590  0.631730  0.558630  1.0  -0.6253
  O  O320  1  0.617700  0.597610  0.663330  1.0  -0.803
  O  O321  1  0.344370  0.101530  0.583530  1.0  -0.7226
  O  O322  1  0.236250  0.965070  0.891970  1.0  -0.6253
  O  O323  1  0.284360  0.930950  0.996670  1.0  -0.803
  O  O324  1  0.011030  0.434870  0.916870  1.0  -0.7228
  O  O325  1  0.701600  0.604520  0.225300  1.0  -0.6218
  O  O326  1  0.735720  0.686750  0.330000  1.0  -0.8027
  O  O327  1  0.231800  0.909500  0.250200  1.0  -0.7226
  O  O328  1  0.368270  0.937850  0.558630  1.0  -0.6218
  O  O329  1  0.402390  0.020080  0.663330  1.0  -0.8027
  O  O330  1  0.898470  0.242830  0.583530  1.0  -0.7228
  O  O331  1  0.034930  0.271190  0.891970  1.0  -0.6218
  O  O332  1  0.069050  0.353420  0.996670  1.0  -0.8027
  O  O333  1  0.565130  0.576170  0.916870  1.0  -0.7226
  O  O334  1  0.395480  0.097080  0.225300  1.0  -0.6269
  O  O335  1  0.313250  0.048970  0.330000  1.0  -0.8012
  O  O336  1  0.090500  0.322300  0.250200  1.0  -0.7229
  O  O337  1  0.062150  0.430410  0.558630  1.0  -0.6269
  O  O338  1  0.979920  0.382300  0.663330  1.0  -0.8012
  O  O339  1  0.757170  0.655630  0.583530  1.0  -0.7227
  O  O340  1  0.728810  0.763750  0.891970  1.0  -0.6269
  O  O341  1  0.646580  0.715640  0.996670  1.0  -0.8013
  O  O342  1  0.423830  0.988970  0.916870  1.0  -0.723
  O  O343  1  0.298400  0.902920  0.774700  1.0  -0.6271
  O  O344  1  0.264280  0.951030  0.670000  1.0  -0.8018
  O  O345  1  0.768200  0.677700  0.749800  1.0  -0.7223
  O  O346  1  0.965070  0.236250  0.108030  1.0  -0.6271
  O  O347  1  0.930950  0.284360  0.003330  1.0  -0.8018
  O  O348  1  0.434870  0.011030  0.083130  1.0  -0.7223
  O  O349  1  0.631730  0.569590  0.441370  1.0  -0.6271
  O  O350  1  0.597610  0.617700  0.336670  1.0  -0.8019
  O  O351  1  0.101530  0.344370  0.416470  1.0  -0.7221
  O  O352  1  0.604520  0.701600  0.774700  1.0  -0.625
  O  O353  1  0.686750  0.735720  0.670000  1.0  -0.8023
  O  O354  1  0.909500  0.231800  0.749800  1.0  -0.7218
  O  O355  1  0.271190  0.034930  0.108030  1.0  -0.625
  O  O356  1  0.353420  0.069050  0.003330  1.0  -0.8023
  O  O357  1  0.576170  0.565130  0.083130  1.0  -0.7218
  O  O358  1  0.937850  0.368270  0.441370  1.0  -0.625
  O  O359  1  0.020080  0.402390  0.336670  1.0  -0.8023
  O  O360  1  0.242830  0.898470  0.416470  1.0  -0.7221
  O  O361  1  0.097080  0.395480  0.774700  1.0  -0.623
  O  O362  1  0.048970  0.313250  0.670000  1.0  -0.803
  O  O363  1  0.322300  0.090500  0.749800  1.0  -0.7209
  O  O364  1  0.763750  0.728810  0.108030  1.0  -0.623
  O  O365  1  0.715640  0.646580  0.003330  1.0  -0.803
  O  O366  1  0.988970  0.423830  0.083130  1.0  -0.7209
  O  O367  1  0.430410  0.062150  0.441370  1.0  -0.623
  O  O368  1  0.382300  0.979920  0.336670  1.0  -0.8029
  O  O369  1  0.655630  0.757170  0.416470  1.0  -0.7207
