# generated using pymatgen
data_LaH12C21NO6
_symmetry_space_group_name_H-M   'P 1'
_cell_length_a   24.23720000
_cell_length_b   24.23720000
_cell_length_c   13.21350000
_cell_angle_alpha   90.00000000
_cell_angle_beta   90.00000000
_cell_angle_gamma   120.00000000
_symmetry_Int_Tables_number   1
_chemical_formula_structural   LaH12C21NO6
_chemical_formula_sum   'La9 H108 C189 N9 O54'
_cell_volume   6722.23040508
_cell_formula_units_Z   9
loop_
 _symmetry_equiv_pos_site_id
 _symmetry_equiv_pos_as_xyz
  1  'x, y, z'
loop_
 _atom_site_type_symbol
 _atom_site_label
 _atom_site_symmetry_multiplicity
 _atom_site_fract_x
 _atom_site_fract_y
 _atom_site_fract_z
 _atom_site_occupancy
 _atom_site_charge
  La  La1  1  0.650710  0.984040  0.166670  1.0  2.1509
  La  La2  1  0.317380  0.317380  0.500000  1.0  2.1509
  La  La3  1  0.015960  0.666667  0.166670  1.0  2.1507
  La  La4  1  0.682620  0.000000  0.500000  1.0  2.1507
  La  La5  1  0.333333  0.349290  0.166670  1.0  2.1511
  La  La6  1  0.000000  0.682620  0.500000  1.0  2.1511
  La  La7  1  0.984040  0.650710  0.833330  1.0  2.1509
  La  La8  1  0.666667  0.015960  0.833330  1.0  2.1511
  La  La9  1  0.349290  0.333333  0.833330  1.0  2.1507
  H  H10  1  0.885200  0.281200  0.941900  1.0  0.1187
  H  H11  1  0.790200  0.185600  0.958500  1.0  0.1145
  H  H12  1  0.882300  0.109900  0.103900  1.0  0.1181
  H  H13  1  0.977300  0.205400  0.087300  1.0  0.1142
  H  H14  1  0.952900  0.356900  0.130100  1.0  0.1107
  H  H15  1  0.953600  0.451400  0.130200  1.0  0.1082
  H  H16  1  0.551870  0.614530  0.275230  1.0  0.1187
  H  H17  1  0.456870  0.518930  0.291830  1.0  0.1134
  H  H18  1  0.548970  0.443230  0.437230  1.0  0.1175
  H  H19  1  0.643970  0.538730  0.420630  1.0  0.1142
  H  H20  1  0.619570  0.690230  0.463430  1.0  0.1107
  H  H21  1  0.620270  0.784730  0.463530  1.0  0.1083
  H  H22  1  0.218530  0.947870  0.608570  1.0  0.1188
  H  H23  1  0.123530  0.852270  0.625170  1.0  0.1137
  H  H24  1  0.215630  0.776570  0.770570  1.0  0.1181
  H  H25  1  0.310630  0.872070  0.753970  1.0  0.1142
  H  H26  1  0.286230  0.023570  0.796770  1.0  0.1107
  H  H27  1  0.286930  0.118070  0.796870  1.0  0.1082
  H  H28  1  0.718800  0.604000  0.941900  1.0  0.1188
  H  H29  1  0.814400  0.604600  0.958500  1.0  0.1155
  H  H30  1  0.890100  0.772400  0.103900  1.0  0.1151
  H  H31  1  0.794600  0.771900  0.087300  1.0  0.1115
  H  H32  1  0.643100  0.596000  0.130100  1.0  0.1099
  H  H33  1  0.548600  0.502200  0.130200  1.0  0.1083
  H  H34  1  0.385470  0.937330  0.275230  1.0  0.1188
  H  H35  1  0.481070  0.937930  0.291830  1.0  0.115
  H  H36  1  0.556770  0.105730  0.437230  1.0  0.1166
  H  H37  1  0.461270  0.105230  0.420630  1.0  0.1115
  H  H38  1  0.309770  0.929330  0.463430  1.0  0.1098
  H  H39  1  0.215270  0.835530  0.463530  1.0  0.1083
  H  H40  1  0.052130  0.270670  0.608570  1.0  0.1188
  H  H41  1  0.147730  0.271270  0.625170  1.0  0.1147
  H  H42  1  0.223430  0.439070  0.770570  1.0  0.115
  H  H43  1  0.127930  0.438570  0.753970  1.0  0.1115
  H  H44  1  0.976430  0.262670  0.796770  1.0  0.1099
  H  H45  1  0.881930  0.168870  0.796870  1.0  0.1083
  H  H46  1  0.396000  0.114800  0.941900  1.0  0.1205
  H  H47  1  0.395400  0.209800  0.958500  1.0  0.1151
  H  H48  1  0.227600  0.117700  0.103900  1.0  0.1159
  H  H49  1  0.228100  0.022700  0.087300  1.0  0.1121
  H  H50  1  0.404000  0.047100  0.130100  1.0  0.1102
  H  H51  1  0.497800  0.046400  0.130200  1.0  0.1084
  H  H52  1  0.062670  0.448130  0.275230  1.0  0.1205
  H  H53  1  0.062070  0.543130  0.291830  1.0  0.1143
  H  H54  1  0.894270  0.451030  0.437230  1.0  0.1165
  H  H55  1  0.894770  0.356030  0.420630  1.0  0.1121
  H  H56  1  0.070670  0.380430  0.463430  1.0  0.1101
  H  H57  1  0.164470  0.379730  0.463530  1.0  0.1084
  H  H58  1  0.729330  0.781470  0.608570  1.0  0.1205
  H  H59  1  0.728730  0.876470  0.625170  1.0  0.1151
  H  H60  1  0.560930  0.784370  0.770570  1.0  0.1159
  H  H61  1  0.561430  0.689370  0.753970  1.0  0.1121
  H  H62  1  0.737330  0.713770  0.796770  1.0  0.1102
  H  H63  1  0.831130  0.713070  0.796870  1.0  0.1084
  H  H64  1  0.281200  0.885200  0.058100  1.0  0.1216
  H  H65  1  0.185600  0.790200  0.041500  1.0  0.1161
  H  H66  1  0.109900  0.882300  0.896100  1.0  0.1172
  H  H67  1  0.205400  0.977300  0.912700  1.0  0.1122
  H  H68  1  0.356900  0.952900  0.869900  1.0  0.1097
  H  H69  1  0.451400  0.953600  0.869800  1.0  0.1084
  H  H70  1  0.947870  0.218530  0.391430  1.0  0.1216
  H  H71  1  0.852270  0.123530  0.374830  1.0  0.1152
  H  H72  1  0.776570  0.215630  0.229430  1.0  0.1172
  H  H73  1  0.872070  0.310630  0.246030  1.0  0.1122
  H  H74  1  0.023570  0.286230  0.203230  1.0  0.1097
  H  H75  1  0.118070  0.286930  0.203130  1.0  0.1084
  H  H76  1  0.614530  0.551870  0.724770  1.0  0.1216
  H  H77  1  0.518930  0.456870  0.708170  1.0  0.1152
  H  H78  1  0.443230  0.548970  0.562770  1.0  0.1165
  H  H79  1  0.538730  0.643970  0.579370  1.0  0.1122
  H  H80  1  0.690230  0.619570  0.536570  1.0  0.1097
  H  H81  1  0.784730  0.620270  0.536470  1.0  0.1085
  H  H82  1  0.604000  0.718800  0.058100  1.0  0.1191
  H  H83  1  0.604600  0.814400  0.041500  1.0  0.1145
  H  H84  1  0.772400  0.890100  0.896100  1.0  0.1164
  H  H85  1  0.771900  0.794600  0.912700  1.0  0.1155
  H  H86  1  0.596000  0.643100  0.869900  1.0  0.1104
  H  H87  1  0.502200  0.548600  0.869800  1.0  0.1084
  H  H88  1  0.270670  0.052130  0.391430  1.0  0.1191
  H  H89  1  0.271270  0.147730  0.374830  1.0  0.1141
  H  H90  1  0.439070  0.223430  0.229430  1.0  0.1163
  H  H91  1  0.438570  0.127930  0.246030  1.0  0.1155
  H  H92  1  0.262670  0.976430  0.203230  1.0  0.1104
  H  H93  1  0.168870  0.881930  0.203130  1.0  0.1084
  H  H94  1  0.937330  0.385470  0.724770  1.0  0.1191
  H  H95  1  0.937930  0.481070  0.708170  1.0  0.1142
  H  H96  1  0.105730  0.556770  0.562770  1.0  0.1178
  H  H97  1  0.105230  0.461270  0.579370  1.0  0.1155
  H  H98  1  0.929330  0.309770  0.536570  1.0  0.1104
  H  H99  1  0.835530  0.215270  0.536470  1.0  0.1084
  H  H100  1  0.114800  0.396000  0.058100  1.0  0.1191
  H  H101  1  0.209800  0.395400  0.041500  1.0  0.1148
  H  H102  1  0.117700  0.227600  0.896100  1.0  0.1159
  H  H103  1  0.022700  0.228100  0.912700  1.0  0.1115
  H  H104  1  0.047100  0.404000  0.869900  1.0  0.1095
  H  H105  1  0.046400  0.497800  0.869800  1.0  0.1085
  H  H106  1  0.781470  0.729330  0.391430  1.0  0.1191
  H  H107  1  0.876470  0.728730  0.374830  1.0  0.115
  H  H108  1  0.784370  0.560930  0.229430  1.0  0.1159
  H  H109  1  0.689370  0.561430  0.246030  1.0  0.1115
  H  H110  1  0.713770  0.737330  0.203230  1.0  0.1095
  H  H111  1  0.713070  0.831130  0.203130  1.0  0.1086
  H  H112  1  0.448130  0.062670  0.724770  1.0  0.1191
  H  H113  1  0.543130  0.062070  0.708170  1.0  0.1143
  H  H114  1  0.451030  0.894270  0.562770  1.0  0.1162
  H  H115  1  0.356030  0.894770  0.579370  1.0  0.1115
  H  H116  1  0.380430  0.070670  0.536570  1.0  0.1095
  H  H117  1  0.379730  0.164470  0.536470  1.0  0.1085
  C  C118  1  0.940700  0.252700  0.012900  1.0  0.1433
  C  C119  1  0.884600  0.246800  0.974400  1.0  -0.1498
  C  C120  1  0.827700  0.189600  0.984300  1.0  -0.0208
  C  C121  1  0.826800  0.138300  0.032900  1.0  -0.1178
  C  C122  1  0.882900  0.144200  0.071400  1.0  -0.0763
  C  C123  1  0.939800  0.201400  0.061500  1.0  -0.1758
  C  C124  1  0.767000  0.077100  0.046100  1.0  0.6851
  C  C125  1  0.972100  0.385600  0.077300  1.0  -0.1525
  C  C126  1  0.972500  0.441700  0.077000  1.0  -0.0243
  C  C127  1  0.607370  0.586030  0.346230  1.0  0.1431
  C  C128  1  0.551270  0.580130  0.307730  1.0  -0.1498
  C  C129  1  0.494370  0.522930  0.317630  1.0  -0.0208
  C  C130  1  0.493470  0.471630  0.366230  1.0  -0.1177
  C  C131  1  0.549570  0.477530  0.404730  1.0  -0.0763
  C  C132  1  0.606470  0.534730  0.394830  1.0  -0.1759
  C  C133  1  0.433670  0.410430  0.379430  1.0  0.685
  C  C134  1  0.638770  0.718930  0.410630  1.0  -0.1525
  C  C135  1  0.639170  0.775030  0.410330  1.0  -0.0244
  C  C136  1  0.274030  0.919370  0.679570  1.0  0.1433
  C  C137  1  0.217930  0.913470  0.641070  1.0  -0.1498
  C  C138  1  0.161030  0.856270  0.650970  1.0  -0.0208
  C  C139  1  0.160130  0.804970  0.699570  1.0  -0.1177
  C  C140  1  0.216230  0.810870  0.738070  1.0  -0.0763
  C  C141  1  0.273130  0.868070  0.728170  1.0  -0.1758
  C  C142  1  0.100330  0.743770  0.712770  1.0  0.685
  C  C143  1  0.305430  0.052270  0.743970  1.0  -0.1525
  C  C144  1  0.305830  0.108370  0.743670  1.0  -0.0241
  C  C145  1  0.747300  0.688000  0.012900  1.0  0.143
  C  C146  1  0.753200  0.637800  0.974400  1.0  -0.1489
  C  C147  1  0.810400  0.638100  0.984300  1.0  -0.0233
  C  C148  1  0.861700  0.688500  0.032900  1.0  -0.1206
  C  C149  1  0.855800  0.738700  0.071400  1.0  -0.0762
  C  C150  1  0.798600  0.738400  0.061500  1.0  -0.1732
  C  C151  1  0.922900  0.689900  0.046100  1.0  0.6811
  C  C152  1  0.614400  0.586500  0.077300  1.0  -0.1564
  C  C153  1  0.558300  0.530800  0.077000  1.0  -0.0277
  C  C154  1  0.413970  0.021330  0.346230  1.0  0.143
  C  C155  1  0.419870  0.971130  0.307730  1.0  -0.1489
  C  C156  1  0.477070  0.971430  0.317630  1.0  -0.0233
  C  C157  1  0.528370  0.021830  0.366230  1.0  -0.1206
  C  C158  1  0.522470  0.072030  0.404730  1.0  -0.0762
  C  C159  1  0.465270  0.071730  0.394830  1.0  -0.1732
  C  C160  1  0.589570  0.023230  0.379430  1.0  0.6811
  C  C161  1  0.281070  0.919830  0.410630  1.0  -0.1564
  C  C162  1  0.224970  0.864130  0.410330  1.0  -0.0275
  C  C163  1  0.080630  0.354670  0.679570  1.0  0.1424
  C  C164  1  0.086530  0.304470  0.641070  1.0  -0.1489
  C  C165  1  0.143730  0.304770  0.650970  1.0  -0.0232
  C  C166  1  0.195030  0.355170  0.699570  1.0  -0.1206
  C  C167  1  0.189130  0.405370  0.738070  1.0  -0.0762
  C  C168  1  0.131930  0.405070  0.728170  1.0  -0.1732
  C  C169  1  0.256230  0.356570  0.712770  1.0  0.6811
  C  C170  1  0.947730  0.253170  0.743970  1.0  -0.1564
  C  C171  1  0.891630  0.197470  0.743670  1.0  -0.0278
  C  C172  1  0.312000  0.059300  0.012900  1.0  0.1422
  C  C173  1  0.362200  0.115400  0.974400  1.0  -0.1564
  C  C174  1  0.361900  0.172300  0.984300  1.0  -0.0227
  C  C175  1  0.311500  0.173200  0.032900  1.0  -0.1196
  C  C176  1  0.261300  0.117100  0.071400  1.0  -0.0722
  C  C177  1  0.261600  0.060200  0.061500  1.0  -0.177
  C  C178  1  0.310100  0.233000  0.046100  1.0  0.6824
  C  C179  1  0.413500  0.027900  0.077300  1.0  -0.1451
  C  C180  1  0.469200  0.027500  0.077000  1.0  -0.0262
  C  C181  1  0.978670  0.392630  0.346230  1.0  0.1422
  C  C182  1  0.028870  0.448730  0.307730  1.0  -0.1564
  C  C183  1  0.028570  0.505630  0.317630  1.0  -0.0227
  C  C184  1  0.978170  0.506530  0.366230  1.0  -0.1196
  C  C185  1  0.927970  0.450430  0.404730  1.0  -0.0722
  C  C186  1  0.928270  0.393530  0.394830  1.0  -0.177
  C  C187  1  0.976770  0.566330  0.379430  1.0  0.6824
  C  C188  1  0.080170  0.361230  0.410630  1.0  -0.1451
  C  C189  1  0.135870  0.360830  0.410330  1.0  -0.026
  C  C190  1  0.645330  0.725970  0.679570  1.0  0.1417
  C  C191  1  0.695530  0.782070  0.641070  1.0  -0.1564
  C  C192  1  0.695230  0.838970  0.650970  1.0  -0.0227
  C  C193  1  0.644830  0.839870  0.699570  1.0  -0.1196
  C  C194  1  0.594630  0.783770  0.738070  1.0  -0.0722
  C  C195  1  0.594930  0.726870  0.728170  1.0  -0.177
  C  C196  1  0.643430  0.899670  0.712770  1.0  0.6824
  C  C197  1  0.746830  0.694570  0.743970  1.0  -0.1451
  C  C198  1  0.802530  0.694170  0.743670  1.0  -0.0259
  C  C199  1  0.252700  0.940700  0.987100  1.0  0.1426
  C  C200  1  0.246800  0.884600  0.025600  1.0  -0.1557
  C  C201  1  0.189600  0.827700  0.015700  1.0  -0.0212
  C  C202  1  0.138300  0.826800  0.967100  1.0  -0.1193
  C  C203  1  0.144200  0.882900  0.928600  1.0  -0.0714
  C  C204  1  0.201400  0.939800  0.938500  1.0  -0.1763
  C  C205  1  0.077100  0.767000  0.953900  1.0  0.6832
  C  C206  1  0.385600  0.972100  0.922700  1.0  -0.1422
  C  C207  1  0.441700  0.972500  0.923000  1.0  -0.0301
  C  C208  1  0.919370  0.274030  0.320430  1.0  0.1426
  C  C209  1  0.913470  0.217930  0.358930  1.0  -0.1557
  C  C210  1  0.856270  0.161030  0.349030  1.0  -0.0211
  C  C211  1  0.804970  0.160130  0.300430  1.0  -0.1193
  C  C212  1  0.810870  0.216230  0.261930  1.0  -0.0714
  C  C213  1  0.868070  0.273130  0.271830  1.0  -0.1763
  C  C214  1  0.743770  0.100330  0.287230  1.0  0.6832
  C  C215  1  0.052270  0.305430  0.256030  1.0  -0.1422
  C  C216  1  0.108370  0.305830  0.256330  1.0  -0.0299
  C  C217  1  0.586030  0.607370  0.653770  1.0  0.1425
  C  C218  1  0.580130  0.551270  0.692270  1.0  -0.1558
  C  C219  1  0.522930  0.494370  0.682370  1.0  -0.0212
  C  C220  1  0.471630  0.493470  0.633770  1.0  -0.1193
  C  C221  1  0.477530  0.549570  0.595270  1.0  -0.0714
  C  C222  1  0.534730  0.606470  0.605170  1.0  -0.1763
  C  C223  1  0.410430  0.433670  0.620570  1.0  0.6832
  C  C224  1  0.718930  0.638770  0.589370  1.0  -0.1422
  C  C225  1  0.775030  0.639170  0.589670  1.0  -0.0302
  C  C226  1  0.688000  0.747300  0.987100  1.0  0.1431
  C  C227  1  0.637800  0.753200  0.025600  1.0  -0.1494
  C  C228  1  0.638100  0.810400  0.015700  1.0  -0.019
  C  C229  1  0.688500  0.861700  0.967100  1.0  -0.1165
  C  C230  1  0.738700  0.855800  0.928600  1.0  -0.0734
  C  C231  1  0.738400  0.798600  0.938500  1.0  -0.1764
  C  C232  1  0.689900  0.922900  0.953900  1.0  0.6857
  C  C233  1  0.586500  0.614400  0.922700  1.0  -0.1513
  C  C234  1  0.530800  0.558300  0.923000  1.0  -0.0278
  C  C235  1  0.354670  0.080630  0.320430  1.0  0.1425
  C  C236  1  0.304470  0.086530  0.358930  1.0  -0.1494
  C  C237  1  0.304770  0.143730  0.349030  1.0  -0.019
  C  C238  1  0.355170  0.195030  0.300430  1.0  -0.1165
  C  C239  1  0.405370  0.189130  0.261930  1.0  -0.0734
  C  C240  1  0.405070  0.131930  0.271830  1.0  -0.1764
  C  C241  1  0.356570  0.256230  0.287230  1.0  0.6857
  C  C242  1  0.253170  0.947730  0.256030  1.0  -0.1513
  C  C243  1  0.197470  0.891630  0.256330  1.0  -0.0277
  C  C244  1  0.021330  0.413970  0.653770  1.0  0.1431
  C  C245  1  0.971130  0.419870  0.692270  1.0  -0.1494
  C  C246  1  0.971430  0.477070  0.682370  1.0  -0.019
  C  C247  1  0.021830  0.528370  0.633770  1.0  -0.1165
  C  C248  1  0.072030  0.522470  0.595270  1.0  -0.0734
  C  C249  1  0.071730  0.465270  0.605170  1.0  -0.1763
  C  C250  1  0.023230  0.589570  0.620570  1.0  0.6857
  C  C251  1  0.919830  0.281070  0.589370  1.0  -0.1513
  C  C252  1  0.864130  0.224970  0.589670  1.0  -0.0276
  C  C253  1  0.059300  0.312000  0.987100  1.0  0.1431
  C  C254  1  0.115400  0.362200  0.025600  1.0  -0.1507
  C  C255  1  0.172300  0.361900  0.015700  1.0  -0.0232
  C  C256  1  0.173200  0.311500  0.967100  1.0  -0.1197
  C  C257  1  0.117100  0.261300  0.928600  1.0  -0.0778
  C  C258  1  0.060200  0.261600  0.938500  1.0  -0.1711
  C  C259  1  0.233000  0.310100  0.953900  1.0  0.6819
  C  C260  1  0.027900  0.413500  0.922700  1.0  -0.1543
  C  C261  1  0.027500  0.469200  0.923000  1.0  -0.0292
  C  C262  1  0.725970  0.645330  0.320430  1.0  0.1425
  C  C263  1  0.782070  0.695530  0.358930  1.0  -0.1507
  C  C264  1  0.838970  0.695230  0.349030  1.0  -0.0232
  C  C265  1  0.839870  0.644830  0.300430  1.0  -0.1197
  C  C266  1  0.783770  0.594630  0.261930  1.0  -0.0778
  C  C267  1  0.726870  0.594930  0.271830  1.0  -0.1711
  C  C268  1  0.899670  0.643430  0.287230  1.0  0.6819
  C  C269  1  0.694570  0.746830  0.256030  1.0  -0.1543
  C  C270  1  0.694170  0.802530  0.256330  1.0  -0.029
  C  C271  1  0.392630  0.978670  0.653770  1.0  0.143
  C  C272  1  0.448730  0.028870  0.692270  1.0  -0.1507
  C  C273  1  0.505630  0.028570  0.682370  1.0  -0.0232
  C  C274  1  0.506530  0.978170  0.633770  1.0  -0.1197
  C  C275  1  0.450430  0.927970  0.595270  1.0  -0.0778
  C  C276  1  0.393530  0.928270  0.605170  1.0  -0.1711
  C  C277  1  0.566330  0.976770  0.620570  1.0  0.6819
  C  C278  1  0.361230  0.080170  0.589370  1.0  -0.1543
  C  C279  1  0.360830  0.135870  0.589670  1.0  -0.029
  C  C280  1  0.000000  0.371500  0.000000  1.0  0.1481
  C  C281  1  0.000000  0.484100  0.000000  1.0  -0.0863
  C  C282  1  0.000000  0.548400  0.000000  1.0  0.7404
  C  C283  1  0.666667  0.704830  0.333333  1.0  0.1485
  C  C284  1  0.666667  0.817430  0.333333  1.0  -0.0864
  C  C285  1  0.666667  0.881730  0.333333  1.0  0.7403
  C  C286  1  0.333333  0.038170  0.666667  1.0  0.1489
  C  C287  1  0.333333  0.150770  0.666667  1.0  -0.0865
  C  C288  1  0.333333  0.215070  0.666667  1.0  0.7405
  C  C289  1  0.628500  0.628500  0.000000  1.0  0.1487
  C  C290  1  0.515900  0.515900  0.000000  1.0  -0.087
  C  C291  1  0.451600  0.451600  0.000000  1.0  0.7414
  C  C292  1  0.295170  0.961830  0.333333  1.0  0.1487
  C  C293  1  0.182570  0.849230  0.333333  1.0  -0.0869
  C  C294  1  0.118270  0.784930  0.333333  1.0  0.7412
  C  C295  1  0.961830  0.295170  0.666667  1.0  0.1488
  C  C296  1  0.849230  0.182570  0.666667  1.0  -0.087
  C  C297  1  0.784930  0.118270  0.666667  1.0  0.7412
  C  C298  1  0.371500  0.000000  0.000000  1.0  0.1482
  C  C299  1  0.484100  0.000000  0.000000  1.0  -0.089
  C  C300  1  0.548400  0.000000  0.000000  1.0  0.7447
  C  C301  1  0.038170  0.333333  0.333333  1.0  0.149
  C  C302  1  0.150770  0.333333  0.333333  1.0  -0.0892
  C  C303  1  0.215070  0.333333  0.333333  1.0  0.7446
  C  C304  1  0.704830  0.666667  0.666667  1.0  0.1484
  C  C305  1  0.817430  0.666667  0.666667  1.0  -0.089
  C  C306  1  0.881730  0.666667  0.666667  1.0  0.7446
  N  N307  1  0.000000  0.310800  0.000000  1.0  -0.214
  N  N308  1  0.666667  0.644130  0.333333  1.0  -0.2139
  N  N309  1  0.333333  0.977470  0.666667  1.0  -0.2139
  N  N310  1  0.689200  0.689200  0.000000  1.0  -0.2139
  N  N311  1  0.355870  0.022530  0.333333  1.0  -0.2139
  N  N312  1  0.022530  0.355870  0.666667  1.0  -0.2139
  N  N313  1  0.310800  0.000000  0.000000  1.0  -0.2141
  N  N314  1  0.977470  0.333333  0.333333  1.0  -0.2139
  N  N315  1  0.644130  0.666667  0.666667  1.0  -0.214
  O  O316  1  0.765300  0.037600  0.108100  1.0  -0.6654
  O  O317  1  0.716600  0.069800  0.998800  1.0  -0.7335
  O  O318  1  0.994000  0.569000  0.083800  1.0  -0.7601
  O  O319  1  0.431970  0.370930  0.441430  1.0  -0.6653
  O  O320  1  0.383270  0.403130  0.332130  1.0  -0.7335
  O  O321  1  0.660670  0.902330  0.417130  1.0  -0.7588
  O  O322  1  0.098630  0.704270  0.774770  1.0  -0.6654
  O  O323  1  0.049930  0.736470  0.665470  1.0  -0.7335
  O  O324  1  0.327330  0.235670  0.750470  1.0  -0.7601
  O  O325  1  0.962400  0.727700  0.108100  1.0  -0.6629
  O  O326  1  0.930200  0.646800  0.998800  1.0  -0.7337
  O  O327  1  0.431000  0.425000  0.083800  1.0  -0.7612
  O  O328  1  0.629070  0.061030  0.441430  1.0  -0.6629
  O  O329  1  0.596870  0.980130  0.332130  1.0  -0.7337
  O  O330  1  0.097670  0.758330  0.417130  1.0  -0.76
  O  O331  1  0.295730  0.394370  0.774770  1.0  -0.6629
  O  O332  1  0.263530  0.313470  0.665470  1.0  -0.7336
  O  O333  1  0.764330  0.091670  0.750470  1.0  -0.7612
  O  O334  1  0.272300  0.234700  0.108100  1.0  -0.6664
  O  O335  1  0.353200  0.283400  0.998800  1.0  -0.7327
  O  O336  1  0.575000  0.006000  0.083800  1.0  -0.7638
  O  O337  1  0.938970  0.568030  0.441430  1.0  -0.6664
  O  O338  1  0.019870  0.616730  0.332130  1.0  -0.7327
  O  O339  1  0.241670  0.339330  0.417130  1.0  -0.7638
  O  O340  1  0.605630  0.901370  0.774770  1.0  -0.6664
  O  O341  1  0.686530  0.950070  0.665470  1.0  -0.7327
  O  O342  1  0.908330  0.672670  0.750470  1.0  -0.7638
  O  O343  1  0.037600  0.765300  0.891900  1.0  -0.6677
  O  O344  1  0.069800  0.716600  0.001200  1.0  -0.7322
  O  O345  1  0.569000  0.994000  0.916200  1.0  -0.7622
  O  O346  1  0.704270  0.098630  0.225230  1.0  -0.6677
  O  O347  1  0.736470  0.049930  0.334530  1.0  -0.7322
  O  O348  1  0.235670  0.327330  0.249530  1.0  -0.7622
  O  O349  1  0.370930  0.431970  0.558570  1.0  -0.6676
  O  O350  1  0.403130  0.383270  0.667870  1.0  -0.7322
  O  O351  1  0.902330  0.660670  0.582870  1.0  -0.761
  O  O352  1  0.727700  0.962400  0.891900  1.0  -0.6654
  O  O353  1  0.646800  0.930200  0.001200  1.0  -0.7325
  O  O354  1  0.425000  0.431000  0.916200  1.0  -0.7581
  O  O355  1  0.394370  0.295730  0.225230  1.0  -0.6654
  O  O356  1  0.313470  0.263530  0.334530  1.0  -0.7325
  O  O357  1  0.091670  0.764330  0.249530  1.0  -0.7581
  O  O358  1  0.061030  0.629070  0.558570  1.0  -0.6653
  O  O359  1  0.980130  0.596870  0.667870  1.0  -0.7325
  O  O360  1  0.758330  0.097670  0.582870  1.0  -0.7569
  O  O361  1  0.234700  0.272300  0.891900  1.0  -0.6627
  O  O362  1  0.283400  0.353200  0.001200  1.0  -0.732
  O  O363  1  0.006000  0.575000  0.916200  1.0  -0.7603
  O  O364  1  0.901370  0.605630  0.225230  1.0  -0.6627
  O  O365  1  0.950070  0.686530  0.334530  1.0  -0.732
  O  O366  1  0.672670  0.908330  0.249530  1.0  -0.7603
  O  O367  1  0.568030  0.938970  0.558570  1.0  -0.6627
  O  O368  1  0.616730  0.019870  0.667870  1.0  -0.732
  O  O369  1  0.339330  0.241670  0.582870  1.0  -0.7602
