# generated using pymatgen
data_LaH12C21NO6
_symmetry_space_group_name_H-M   'P 1'
_cell_length_a   24.31300000
_cell_length_b   24.31300000
_cell_length_c   13.18400000
_cell_angle_alpha   90.00000000
_cell_angle_beta   90.00000000
_cell_angle_gamma   120.00000000
_symmetry_Int_Tables_number   1
_chemical_formula_structural   LaH12C21NO6
_chemical_formula_sum   'La9 H108 C189 N9 O54'
_cell_volume   6749.24084667
_cell_formula_units_Z   9
loop_
 _symmetry_equiv_pos_site_id
 _symmetry_equiv_pos_as_xyz
  1  'x, y, z'
loop_
 _atom_site_type_symbol
 _atom_site_label
 _atom_site_symmetry_multiplicity
 _atom_site_fract_x
 _atom_site_fract_y
 _atom_site_fract_z
 _atom_site_occupancy
 _atom_site_charge
  La  La1  1  0.653660  0.986990  0.166670  1.0  2.1613
  La  La2  1  0.320320  0.320320  0.500000  1.0  2.1613
  La  La3  1  0.013010  0.666667  0.166670  1.0  2.1601
  La  La4  1  0.679670  0.000000  0.500000  1.0  2.1601
  La  La5  1  0.333333  0.346340  0.166670  1.0  2.1611
  La  La6  1  0.000000  0.679680  0.500000  1.0  2.1611
  La  La7  1  0.986990  0.653660  0.833330  1.0  2.1612
  La  La8  1  0.666667  0.013010  0.833330  1.0  2.1611
  La  La9  1  0.346340  0.333333  0.833330  1.0  2.1601
  H  H10  1  0.887800  0.285200  0.942700  1.0  0.1074
  H  H11  1  0.792700  0.190100  0.956600  1.0  0.1049
  H  H12  1  0.883000  0.112200  0.100300  1.0  0.1108
  H  H13  1  0.978100  0.207400  0.086300  1.0  0.1029
  H  H14  1  0.953600  0.356700  0.128700  1.0  0.0902
  H  H15  1  0.953700  0.450700  0.131100  1.0  0.1057
  H  H16  1  0.554470  0.618530  0.276030  1.0  0.1074
  H  H17  1  0.459370  0.523430  0.289930  1.0  0.1057
  H  H18  1  0.549670  0.445530  0.433630  1.0  0.1102
  H  H19  1  0.644770  0.540730  0.419630  1.0  0.1029
  H  H20  1  0.620270  0.690030  0.462030  1.0  0.0902
  H  H21  1  0.620370  0.784030  0.464430  1.0  0.1057
  H  H22  1  0.221130  0.951870  0.609370  1.0  0.1074
  H  H23  1  0.126030  0.856770  0.623270  1.0  0.1046
  H  H24  1  0.216330  0.778870  0.766970  1.0  0.1108
  H  H25  1  0.311430  0.874070  0.752970  1.0  0.1029
  H  H26  1  0.286930  0.023370  0.795370  1.0  0.0902
  H  H27  1  0.287030  0.117370  0.797770  1.0  0.1057
  H  H28  1  0.714800  0.602600  0.942700  1.0  0.1077
  H  H29  1  0.809900  0.602600  0.956600  1.0  0.1042
  H  H30  1  0.887800  0.770800  0.100300  1.0  0.1093
  H  H31  1  0.792600  0.770700  0.086300  1.0  0.0985
  H  H32  1  0.643300  0.596900  0.128700  1.0  0.0891
  H  H33  1  0.549300  0.503000  0.131100  1.0  0.1064
  H  H34  1  0.381470  0.935930  0.276030  1.0  0.1077
  H  H35  1  0.476570  0.935930  0.289930  1.0  0.1042
  H  H36  1  0.554470  0.104130  0.433630  1.0  0.1104
  H  H37  1  0.459270  0.104030  0.419630  1.0  0.0985
  H  H38  1  0.309970  0.930230  0.462030  1.0  0.0891
  H  H39  1  0.215970  0.836330  0.464430  1.0  0.1064
  H  H40  1  0.048130  0.269270  0.609370  1.0  0.1077
  H  H41  1  0.143230  0.269270  0.623270  1.0  0.1038
  H  H42  1  0.221130  0.437470  0.766970  1.0  0.1093
  H  H43  1  0.125930  0.437370  0.752970  1.0  0.0985
  H  H44  1  0.976630  0.263570  0.795370  1.0  0.0891
  H  H45  1  0.882630  0.169670  0.797770  1.0  0.1064
  H  H46  1  0.397400  0.112200  0.942700  1.0  0.1101
  H  H47  1  0.397400  0.207300  0.956600  1.0  0.104
  H  H48  1  0.229200  0.117000  0.100300  1.0  0.109
  H  H49  1  0.229300  0.021900  0.086300  1.0  0.0986
  H  H50  1  0.403100  0.046400  0.128700  1.0  0.0886
  H  H51  1  0.497000  0.046300  0.131100  1.0  0.1059
  H  H52  1  0.064070  0.445530  0.276030  1.0  0.1101
  H  H53  1  0.064070  0.540630  0.289930  1.0  0.1046
  H  H54  1  0.895870  0.450330  0.433630  1.0  0.1102
  H  H55  1  0.895970  0.355230  0.419630  1.0  0.0986
  H  H56  1  0.069770  0.379730  0.462030  1.0  0.0886
  H  H57  1  0.163670  0.379630  0.464430  1.0  0.1059
  H  H58  1  0.730730  0.778870  0.609370  1.0  0.1101
  H  H59  1  0.730730  0.873970  0.623270  1.0  0.1063
  H  H60  1  0.562530  0.783670  0.766970  1.0  0.109
  H  H61  1  0.562630  0.688570  0.752970  1.0  0.0986
  H  H62  1  0.736430  0.713070  0.795370  1.0  0.0886
  H  H63  1  0.830330  0.712970  0.797770  1.0  0.1059
  H  H64  1  0.285200  0.887800  0.057300  1.0  0.1102
  H  H65  1  0.190100  0.792700  0.043400  1.0  0.1061
  H  H66  1  0.112200  0.883000  0.899700  1.0  0.1104
  H  H67  1  0.207400  0.978100  0.913700  1.0  0.1002
  H  H68  1  0.356700  0.953600  0.871300  1.0  0.0889
  H  H69  1  0.450700  0.953700  0.868900  1.0  0.1056
  H  H70  1  0.951870  0.221130  0.390630  1.0  0.1102
  H  H71  1  0.856770  0.126030  0.376730  1.0  0.1059
  H  H72  1  0.778870  0.216330  0.233030  1.0  0.1104
  H  H73  1  0.874070  0.311430  0.247030  1.0  0.1002
  H  H74  1  0.023370  0.286930  0.204630  1.0  0.0889
  H  H75  1  0.117370  0.287030  0.202230  1.0  0.1056
  H  H76  1  0.618530  0.554470  0.723970  1.0  0.1102
  H  H77  1  0.523430  0.459370  0.710070  1.0  0.1065
  H  H78  1  0.445530  0.549670  0.566370  1.0  0.1097
  H  H79  1  0.540730  0.644770  0.580370  1.0  0.1002
  H  H80  1  0.690030  0.620270  0.537970  1.0  0.0889
  H  H81  1  0.784030  0.620370  0.535570  1.0  0.1056
  H  H82  1  0.602600  0.714800  0.057300  1.0  0.1076
  H  H83  1  0.602600  0.809900  0.043400  1.0  0.1037
  H  H84  1  0.770800  0.887800  0.899700  1.0  0.1105
  H  H85  1  0.770700  0.792600  0.913700  1.0  0.1049
  H  H86  1  0.596900  0.643300  0.871300  1.0  0.0903
  H  H87  1  0.503000  0.549300  0.868900  1.0  0.1053
  H  H88  1  0.269270  0.048130  0.390630  1.0  0.1076
  H  H89  1  0.269270  0.143230  0.376730  1.0  0.1034
  H  H90  1  0.437470  0.221130  0.233030  1.0  0.1105
  H  H91  1  0.437370  0.125930  0.247030  1.0  0.1049
  H  H92  1  0.263570  0.976630  0.204630  1.0  0.0903
  H  H93  1  0.169670  0.882630  0.202230  1.0  0.1053
  H  H94  1  0.935930  0.381470  0.723970  1.0  0.1076
  H  H95  1  0.935930  0.476570  0.710070  1.0  0.1044
  H  H96  1  0.104130  0.554470  0.566370  1.0  0.1118
  H  H97  1  0.104030  0.459270  0.580370  1.0  0.1049
  H  H98  1  0.930230  0.309970  0.537970  1.0  0.0903
  H  H99  1  0.836330  0.215970  0.535570  1.0  0.1053
  H  H100  1  0.112200  0.397400  0.057300  1.0  0.1084
  H  H101  1  0.207300  0.397400  0.043400  1.0  0.1041
  H  H102  1  0.117000  0.229200  0.899700  1.0  0.1089
  H  H103  1  0.021900  0.229300  0.913700  1.0  0.1005
  H  H104  1  0.046400  0.403100  0.871300  1.0  0.0888
  H  H105  1  0.046300  0.497000  0.868900  1.0  0.1063
  H  H106  1  0.778870  0.730730  0.390630  1.0  0.1084
  H  H107  1  0.873970  0.730730  0.376730  1.0  0.1061
  H  H108  1  0.783670  0.562530  0.233030  1.0  0.1089
  H  H109  1  0.688570  0.562630  0.247030  1.0  0.1005
  H  H110  1  0.713070  0.736430  0.204630  1.0  0.0888
  H  H111  1  0.712970  0.830330  0.202230  1.0  0.1063
  H  H112  1  0.445530  0.064070  0.723970  1.0  0.1084
  H  H113  1  0.540630  0.064070  0.710070  1.0  0.1047
  H  H114  1  0.450330  0.895870  0.566370  1.0  0.1097
  H  H115  1  0.355230  0.895970  0.580370  1.0  0.1005
  H  H116  1  0.379730  0.069770  0.537970  1.0  0.0888
  H  H117  1  0.379630  0.163670  0.535570  1.0  0.1063
  C  C118  1  0.942400  0.255700  0.013200  1.0  0.1761
  C  C119  1  0.886800  0.250500  0.974300  1.0  -0.1493
  C  C120  1  0.829800  0.193500  0.982600  1.0  -0.063
  C  C121  1  0.828400  0.141700  0.029800  1.0  -0.1434
  C  C122  1  0.884000  0.146900  0.068700  1.0  -0.0636
  C  C123  1  0.940900  0.203900  0.060400  1.0  -0.1951
  C  C124  1  0.770500  0.079100  0.045900  1.0  0.6384
  C  C125  1  0.972900  0.385100  0.075500  1.0  -0.2062
  C  C126  1  0.972800  0.442400  0.076800  1.0  -0.079
  C  C127  1  0.609070  0.589030  0.346530  1.0  0.1761
  C  C128  1  0.553470  0.583830  0.307630  1.0  -0.1493
  C  C129  1  0.496470  0.526830  0.315930  1.0  -0.0629
  C  C130  1  0.495070  0.475030  0.363130  1.0  -0.1435
  C  C131  1  0.550670  0.480230  0.402030  1.0  -0.0636
  C  C132  1  0.607570  0.537230  0.393730  1.0  -0.1952
  C  C133  1  0.437170  0.412430  0.379230  1.0  0.6383
  C  C134  1  0.639570  0.718430  0.408830  1.0  -0.2062
  C  C135  1  0.639470  0.775730  0.410130  1.0  -0.079
  C  C136  1  0.275730  0.922370  0.679870  1.0  0.176
  C  C137  1  0.220130  0.917170  0.640970  1.0  -0.1493
  C  C138  1  0.163130  0.860170  0.649270  1.0  -0.0629
  C  C139  1  0.161730  0.808370  0.696470  1.0  -0.1434
  C  C140  1  0.217330  0.813570  0.735370  1.0  -0.0636
  C  C141  1  0.274230  0.870570  0.727070  1.0  -0.1951
  C  C142  1  0.103830  0.745770  0.712570  1.0  0.6383
  C  C143  1  0.306230  0.051770  0.742170  1.0  -0.2063
  C  C144  1  0.306130  0.109070  0.743470  1.0  -0.0793
  C  C145  1  0.744300  0.686700  0.013200  1.0  0.1761
  C  C146  1  0.749500  0.636300  0.974300  1.0  -0.1444
  C  C147  1  0.806500  0.636300  0.982600  1.0  -0.0636
  C  C148  1  0.858300  0.686700  0.029800  1.0  -0.1435
  C  C149  1  0.853100  0.737100  0.068700  1.0  -0.0626
  C  C150  1  0.796100  0.737000  0.060400  1.0  -0.1911
  C  C151  1  0.920900  0.691400  0.045900  1.0  0.6364
  C  C152  1  0.614900  0.587800  0.075500  1.0  -0.2096
  C  C153  1  0.557600  0.530400  0.076800  1.0  -0.0779
  C  C154  1  0.410970  0.020030  0.346530  1.0  0.1761
  C  C155  1  0.416170  0.969630  0.307630  1.0  -0.1444
  C  C156  1  0.473170  0.969630  0.315930  1.0  -0.0636
  C  C157  1  0.524970  0.020030  0.363130  1.0  -0.1435
  C  C158  1  0.519770  0.070430  0.402030  1.0  -0.0626
  C  C159  1  0.462770  0.070330  0.393730  1.0  -0.1912
  C  C160  1  0.587570  0.024730  0.379230  1.0  0.6364
  C  C161  1  0.281570  0.921130  0.408830  1.0  -0.2096
  C  C162  1  0.224270  0.863730  0.410130  1.0  -0.078
  C  C163  1  0.077630  0.353370  0.679870  1.0  0.1761
  C  C164  1  0.082830  0.302970  0.640970  1.0  -0.1444
  C  C165  1  0.139830  0.302970  0.649270  1.0  -0.0635
  C  C166  1  0.191630  0.353370  0.696470  1.0  -0.1436
  C  C167  1  0.186430  0.403770  0.735370  1.0  -0.0626
  C  C168  1  0.129430  0.403670  0.727070  1.0  -0.1911
  C  C169  1  0.254230  0.358070  0.712570  1.0  0.6363
  C  C170  1  0.948230  0.254470  0.742170  1.0  -0.2097
  C  C171  1  0.890930  0.197070  0.743470  1.0  -0.0779
  C  C172  1  0.313300  0.057600  0.013200  1.0  0.1755
  C  C173  1  0.363700  0.113200  0.974300  1.0  -0.1547
  C  C174  1  0.363700  0.170200  0.982600  1.0  -0.065
  C  C175  1  0.313300  0.171600  0.029800  1.0  -0.1412
  C  C176  1  0.262900  0.116000  0.068700  1.0  -0.0623
  C  C177  1  0.263000  0.059100  0.060400  1.0  -0.1957
  C  C178  1  0.308600  0.229500  0.045900  1.0  0.6366
  C  C179  1  0.412200  0.027100  0.075500  1.0  -0.2054
  C  C180  1  0.469600  0.027200  0.076800  1.0  -0.0789
  C  C181  1  0.979970  0.390930  0.346530  1.0  0.1755
  C  C182  1  0.030370  0.446530  0.307630  1.0  -0.1547
  C  C183  1  0.030370  0.503530  0.315930  1.0  -0.065
  C  C184  1  0.979970  0.504930  0.363130  1.0  -0.1414
  C  C185  1  0.929570  0.449330  0.402030  1.0  -0.0623
  C  C186  1  0.929670  0.392430  0.393730  1.0  -0.1957
  C  C187  1  0.975270  0.562830  0.379230  1.0  0.6365
  C  C188  1  0.078870  0.360430  0.408830  1.0  -0.2054
  C  C189  1  0.136270  0.360530  0.410130  1.0  -0.079
  C  C190  1  0.646630  0.724270  0.679870  1.0  0.1754
  C  C191  1  0.697030  0.779870  0.640970  1.0  -0.1547
  C  C192  1  0.697030  0.836870  0.649270  1.0  -0.065
  C  C193  1  0.646630  0.838270  0.696470  1.0  -0.1414
  C  C194  1  0.596230  0.782670  0.735370  1.0  -0.0623
  C  C195  1  0.596330  0.725770  0.727070  1.0  -0.1958
  C  C196  1  0.641930  0.896170  0.712570  1.0  0.6365
  C  C197  1  0.745530  0.693770  0.742170  1.0  -0.2054
  C  C198  1  0.802930  0.693870  0.743470  1.0  -0.0792
  C  C199  1  0.255700  0.942400  0.986800  1.0  0.1751
  C  C200  1  0.250500  0.886800  0.025700  1.0  -0.1532
  C  C201  1  0.193500  0.829800  0.017400  1.0  -0.0651
  C  C202  1  0.141700  0.828400  0.970200  1.0  -0.1426
  C  C203  1  0.146900  0.884000  0.931300  1.0  -0.0622
  C  C204  1  0.203900  0.940900  0.939600  1.0  -0.1949
  C  C205  1  0.079100  0.770500  0.954100  1.0  0.6379
  C  C206  1  0.385100  0.972900  0.924500  1.0  -0.2085
  C  C207  1  0.442400  0.972800  0.923200  1.0  -0.079
  C  C208  1  0.922370  0.275730  0.320130  1.0  0.175
  C  C209  1  0.917170  0.220130  0.359030  1.0  -0.1532
  C  C210  1  0.860170  0.163130  0.350730  1.0  -0.065
  C  C211  1  0.808370  0.161730  0.303530  1.0  -0.1425
  C  C212  1  0.813570  0.217330  0.264630  1.0  -0.0622
  C  C213  1  0.870570  0.274230  0.272930  1.0  -0.1949
  C  C214  1  0.745770  0.103830  0.287430  1.0  0.6379
  C  C215  1  0.051770  0.306230  0.257830  1.0  -0.2086
  C  C216  1  0.109070  0.306130  0.256530  1.0  -0.0792
  C  C217  1  0.589030  0.609070  0.653470  1.0  0.1751
  C  C218  1  0.583830  0.553470  0.692370  1.0  -0.1532
  C  C219  1  0.526830  0.496470  0.684070  1.0  -0.065
  C  C220  1  0.475030  0.495070  0.636870  1.0  -0.1427
  C  C221  1  0.480230  0.550670  0.597970  1.0  -0.0622
  C  C222  1  0.537230  0.607570  0.606270  1.0  -0.195
  C  C223  1  0.412430  0.437170  0.620770  1.0  0.6379
  C  C224  1  0.718430  0.639570  0.591170  1.0  -0.2084
  C  C225  1  0.775730  0.639470  0.589870  1.0  -0.079
  C  C226  1  0.686700  0.744300  0.986800  1.0  0.1758
  C  C227  1  0.636300  0.749500  0.025700  1.0  -0.1482
  C  C228  1  0.636300  0.806500  0.017400  1.0  -0.0619
  C  C229  1  0.686700  0.858300  0.970200  1.0  -0.1406
  C  C230  1  0.737100  0.853100  0.931300  1.0  -0.0615
  C  C231  1  0.737000  0.796100  0.939600  1.0  -0.1957
  C  C232  1  0.691400  0.920900  0.954100  1.0  0.6384
  C  C233  1  0.587800  0.614900  0.924500  1.0  -0.2093
  C  C234  1  0.530400  0.557600  0.923200  1.0  -0.0787
  C  C235  1  0.353370  0.077630  0.320130  1.0  0.1758
  C  C236  1  0.302970  0.082830  0.359030  1.0  -0.1482
  C  C237  1  0.302970  0.139830  0.350730  1.0  -0.0618
  C  C238  1  0.353370  0.191630  0.303530  1.0  -0.1407
  C  C239  1  0.403770  0.186430  0.264630  1.0  -0.0615
  C  C240  1  0.403670  0.129430  0.272930  1.0  -0.1957
  C  C241  1  0.358070  0.254230  0.287430  1.0  0.6383
  C  C242  1  0.254470  0.948230  0.257830  1.0  -0.2094
  C  C243  1  0.197070  0.890930  0.256530  1.0  -0.0787
  C  C244  1  0.020030  0.410970  0.653470  1.0  0.1759
  C  C245  1  0.969630  0.416170  0.692370  1.0  -0.1482
  C  C246  1  0.969630  0.473170  0.684070  1.0  -0.0619
  C  C247  1  0.020030  0.524970  0.636870  1.0  -0.1405
  C  C248  1  0.070430  0.519770  0.597970  1.0  -0.0615
  C  C249  1  0.070330  0.462770  0.606270  1.0  -0.1958
  C  C250  1  0.024730  0.587570  0.620770  1.0  0.6384
  C  C251  1  0.921130  0.281570  0.591170  1.0  -0.2093
  C  C252  1  0.863730  0.224270  0.589870  1.0  -0.0787
  C  C253  1  0.057600  0.313300  0.986800  1.0  0.1762
  C  C254  1  0.113200  0.363700  0.025700  1.0  -0.1465
  C  C255  1  0.170200  0.363700  0.017400  1.0  -0.0651
  C  C256  1  0.171600  0.313300  0.970200  1.0  -0.1438
  C  C257  1  0.116000  0.262900  0.931300  1.0  -0.0647
  C  C258  1  0.059100  0.263000  0.939600  1.0  -0.1888
  C  C259  1  0.229500  0.308600  0.954100  1.0  0.6375
  C  C260  1  0.027100  0.412200  0.924500  1.0  -0.2117
  C  C261  1  0.027200  0.469600  0.923200  1.0  -0.0757
  C  C262  1  0.724270  0.646630  0.320130  1.0  0.1761
  C  C263  1  0.779870  0.697030  0.359030  1.0  -0.1465
  C  C264  1  0.836870  0.697030  0.350730  1.0  -0.0651
  C  C265  1  0.838270  0.646630  0.303530  1.0  -0.1438
  C  C266  1  0.782670  0.596230  0.264630  1.0  -0.0647
  C  C267  1  0.725770  0.596330  0.272930  1.0  -0.1889
  C  C268  1  0.896170  0.641930  0.287430  1.0  0.6375
  C  C269  1  0.693770  0.745530  0.257830  1.0  -0.2115
  C  C270  1  0.693870  0.802930  0.256530  1.0  -0.0759
  C  C271  1  0.390930  0.979970  0.653470  1.0  0.1762
  C  C272  1  0.446530  0.030370  0.692370  1.0  -0.1465
  C  C273  1  0.503530  0.030370  0.684070  1.0  -0.0651
  C  C274  1  0.504930  0.979970  0.636870  1.0  -0.1438
  C  C275  1  0.449330  0.929570  0.597970  1.0  -0.0647
  C  C276  1  0.392430  0.929670  0.606270  1.0  -0.1888
  C  C277  1  0.562830  0.975270  0.620770  1.0  0.6375
  C  C278  1  0.360430  0.078870  0.591170  1.0  -0.2117
  C  C279  1  0.360530  0.136270  0.589870  1.0  -0.0757
  C  C280  1  0.000000  0.369300  0.000000  1.0  0.2986
  C  C281  1  0.000000  0.487800  0.000000  1.0  -0.0439
  C  C282  1  0.000000  0.550600  0.000000  1.0  0.7191
  C  C283  1  0.666667  0.702630  0.333333  1.0  0.2986
  C  C284  1  0.666667  0.821130  0.333333  1.0  -0.044
  C  C285  1  0.666667  0.883930  0.333333  1.0  0.7192
  C  C286  1  0.333333  0.035970  0.666667  1.0  0.2987
  C  C287  1  0.333333  0.154470  0.666667  1.0  -0.044
  C  C288  1  0.333333  0.217270  0.666667  1.0  0.7191
  C  C289  1  0.630700  0.630700  0.000000  1.0  0.2984
  C  C290  1  0.512200  0.512200  0.000000  1.0  -0.0452
  C  C291  1  0.449400  0.449400  0.000000  1.0  0.7193
  C  C292  1  0.297370  0.964030  0.333333  1.0  0.2984
  C  C293  1  0.178870  0.845530  0.333333  1.0  -0.0453
  C  C294  1  0.116070  0.782730  0.333333  1.0  0.7193
  C  C295  1  0.964030  0.297370  0.666667  1.0  0.2984
  C  C296  1  0.845530  0.178870  0.666667  1.0  -0.0453
  C  C297  1  0.782730  0.116070  0.666667  1.0  0.7193
  C  C298  1  0.369300  0.000000  0.000000  1.0  0.3014
  C  C299  1  0.487800  0.000000  0.000000  1.0  -0.0466
  C  C300  1  0.550600  0.000000  0.000000  1.0  0.7246
  C  C301  1  0.035970  0.333333  0.333333  1.0  0.3014
  C  C302  1  0.154470  0.333333  0.333333  1.0  -0.0466
  C  C303  1  0.217270  0.333333  0.333333  1.0  0.7245
  C  C304  1  0.702630  0.666667  0.666667  1.0  0.3014
  C  C305  1  0.821130  0.666667  0.666667  1.0  -0.0466
  C  C306  1  0.883930  0.666667  0.666667  1.0  0.7247
  N  N307  1  0.000000  0.313600  0.000000  1.0  -0.0865
  N  N308  1  0.666667  0.646930  0.333333  1.0  -0.0877
  N  N309  1  0.333333  0.980270  0.666667  1.0  -0.0877
  N  N310  1  0.686400  0.686400  0.000000  1.0  -0.0861
  N  N311  1  0.353070  0.019730  0.333333  1.0  -0.0861
  N  N312  1  0.019730  0.353070  0.666667  1.0  -0.0861
  N  N313  1  0.313600  0.000000  0.000000  1.0  -0.0857
  N  N314  1  0.980270  0.333333  0.333333  1.0  -0.087
  N  N315  1  0.646930  0.666667  0.666667  1.0  -0.087
  O  O316  1  0.767400  0.038300  0.105300  1.0  -0.5881
  O  O317  1  0.719200  0.072400  0.997400  1.0  -0.7432
  O  O318  1  0.999200  0.571500  0.085000  1.0  -0.7253
  O  O319  1  0.434070  0.371630  0.438630  1.0  -0.5881
  O  O320  1  0.385870  0.405730  0.330730  1.0  -0.7432
  O  O321  1  0.665870  0.904830  0.418330  1.0  -0.7246
  O  O322  1  0.100730  0.704970  0.771970  1.0  -0.5881
  O  O323  1  0.052530  0.739070  0.664070  1.0  -0.7432
  O  O324  1  0.332530  0.238170  0.751670  1.0  -0.7259
  O  O325  1  0.961700  0.729100  0.105300  1.0  -0.5864
  O  O326  1  0.927600  0.646800  0.997400  1.0  -0.7449
  O  O327  1  0.428500  0.427700  0.085000  1.0  -0.7279
  O  O328  1  0.628370  0.062430  0.438630  1.0  -0.5864
  O  O329  1  0.594270  0.980130  0.330730  1.0  -0.7449
  O  O330  1  0.095170  0.761030  0.418330  1.0  -0.7272
  O  O331  1  0.295030  0.395770  0.771970  1.0  -0.5864
  O  O332  1  0.260930  0.313470  0.664070  1.0  -0.7449
  O  O333  1  0.761830  0.094370  0.751670  1.0  -0.7285
  O  O334  1  0.270900  0.232600  0.105300  1.0  -0.5905
  O  O335  1  0.353200  0.280800  0.997400  1.0  -0.744
  O  O336  1  0.572300  0.000800  0.085000  1.0  -0.727
  O  O337  1  0.937570  0.565930  0.438630  1.0  -0.5905
  O  O338  1  0.019870  0.614130  0.330730  1.0  -0.744
  O  O339  1  0.238970  0.334130  0.418330  1.0  -0.7268
  O  O340  1  0.604230  0.899270  0.771970  1.0  -0.5905
  O  O341  1  0.686530  0.947470  0.664070  1.0  -0.744
  O  O342  1  0.905630  0.667470  0.751670  1.0  -0.7275
  O  O343  1  0.038300  0.767400  0.894700  1.0  -0.5913
  O  O344  1  0.072400  0.719200  0.002600  1.0  -0.7425
  O  O345  1  0.571500  0.999200  0.915000  1.0  -0.7275
  O  O346  1  0.704970  0.100730  0.228030  1.0  -0.5913
  O  O347  1  0.739070  0.052530  0.335930  1.0  -0.7425
  O  O348  1  0.238170  0.332530  0.248330  1.0  -0.7282
  O  O349  1  0.371630  0.434070  0.561370  1.0  -0.5913
  O  O350  1  0.405730  0.385870  0.669270  1.0  -0.7425
  O  O351  1  0.904830  0.665870  0.581670  1.0  -0.7267
  O  O352  1  0.729100  0.961700  0.894700  1.0  -0.5873
  O  O353  1  0.646800  0.927600  0.002600  1.0  -0.7411
  O  O354  1  0.427700  0.428500  0.915000  1.0  -0.7251
  O  O355  1  0.395770  0.295030  0.228030  1.0  -0.5873
  O  O356  1  0.313470  0.260930  0.335930  1.0  -0.7411
  O  O357  1  0.094370  0.761830  0.248330  1.0  -0.7257
  O  O358  1  0.062430  0.628370  0.561370  1.0  -0.5873
  O  O359  1  0.980130  0.594270  0.669270  1.0  -0.7411
  O  O360  1  0.761030  0.095170  0.581670  1.0  -0.7245
  O  O361  1  0.232600  0.270900  0.894700  1.0  -0.5868
  O  O362  1  0.280800  0.353200  0.002600  1.0  -0.7436
  O  O363  1  0.000800  0.572300  0.915000  1.0  -0.7281
  O  O364  1  0.899270  0.604230  0.228030  1.0  -0.5868
  O  O365  1  0.947470  0.686530  0.335930  1.0  -0.7436
  O  O366  1  0.667470  0.905630  0.248330  1.0  -0.7287
  O  O367  1  0.565930  0.937570  0.561370  1.0  -0.5868
  O  O368  1  0.614130  0.019870  0.669270  1.0  -0.7436
  O  O369  1  0.334130  0.238970  0.581670  1.0  -0.728
