# generated using pymatgen
data_LaH12C21NO6
_symmetry_space_group_name_H-M   'P 1'
_cell_length_a   24.17190000
_cell_length_b   24.17190000
_cell_length_c   13.01100000
_cell_angle_alpha   90.00000000
_cell_angle_beta   90.00000000
_cell_angle_gamma   120.00000000
_symmetry_Int_Tables_number   1
_chemical_formula_structural   LaH12C21NO6
_chemical_formula_sum   'La9 H108 C189 N9 O54'
_cell_volume   6583.59165905
_cell_formula_units_Z   9
loop_
 _symmetry_equiv_pos_site_id
 _symmetry_equiv_pos_as_xyz
  1  'x, y, z'
loop_
 _atom_site_type_symbol
 _atom_site_label
 _atom_site_symmetry_multiplicity
 _atom_site_fract_x
 _atom_site_fract_y
 _atom_site_fract_z
 _atom_site_occupancy
 _atom_site_charge
  La  La1  1  0.666667  0.018050  0.333333  1.0  2.1687
  La  La2  1  0.981950  0.648610  0.333333  1.0  2.1684
  La  La3  1  0.351390  0.333333  0.333333  1.0  2.1674
  La  La4  1  0.018050  0.666667  0.666667  1.0  2.1673
  La  La5  1  0.684720  0.000000  0.000000  1.0  2.1673
  La  La6  1  0.648610  0.981950  0.666667  1.0  2.1684
  La  La7  1  0.315280  0.315280  0.000000  1.0  2.1682
  La  La8  1  0.333333  0.351390  0.666667  1.0  2.1687
  La  La9  1  0.000000  0.684720  0.000000  1.0  2.1688
  H  H10  1  0.447300  0.061500  0.224300  1.0  0.1129
  H  H11  1  0.542800  0.061700  0.206200  1.0  0.1121
  H  H12  1  0.450400  0.892300  0.061600  1.0  0.1111
  H  H13  1  0.354900  0.892100  0.079700  1.0  0.108
  H  H14  1  0.389000  0.074200  0.040300  1.0  0.0945
  H  H15  1  0.384600  0.166500  0.036500  1.0  0.108
  H  H16  1  0.113970  0.394830  0.557630  1.0  0.1129
  H  H17  1  0.209470  0.395030  0.539530  1.0  0.1121
  H  H18  1  0.117070  0.225630  0.394930  1.0  0.11
  H  H19  1  0.021570  0.225430  0.413030  1.0  0.108
  H  H20  1  0.055670  0.407530  0.373630  1.0  0.0945
  H  H21  1  0.051270  0.499830  0.369830  1.0  0.108
  H  H22  1  0.780630  0.728170  0.890970  1.0  0.1129
  H  H23  1  0.876130  0.728370  0.872870  1.0  0.1122
  H  H24  1  0.783730  0.558970  0.728270  1.0  0.1111
  H  H25  1  0.688230  0.558770  0.746370  1.0  0.108
  H  H26  1  0.722330  0.740870  0.706970  1.0  0.0945
  H  H27  1  0.717930  0.833170  0.703170  1.0  0.108
  H  H28  1  0.938500  0.385800  0.224300  1.0  0.1129
  H  H29  1  0.938300  0.481100  0.206200  1.0  0.1113
  H  H30  1  0.107700  0.558100  0.061600  1.0  0.1131
  H  H31  1  0.107900  0.462800  0.079700  1.0  0.112
  H  H32  1  0.925800  0.314800  0.040300  1.0  0.096
  H  H33  1  0.833500  0.218100  0.036500  1.0  0.1069
  H  H34  1  0.605170  0.719130  0.557630  1.0  0.1129
  H  H35  1  0.604970  0.814430  0.539530  1.0  0.1113
  H  H36  1  0.774370  0.891430  0.394930  1.0  0.1106
  H  H37  1  0.774570  0.796130  0.413030  1.0  0.112
  H  H38  1  0.592470  0.648130  0.373630  1.0  0.096
  H  H39  1  0.500170  0.551430  0.369830  1.0  0.1069
  H  H40  1  0.271830  0.052470  0.890970  1.0  0.1129
  H  H41  1  0.271630  0.147770  0.872870  1.0  0.1116
  H  H42  1  0.441030  0.224770  0.728270  1.0  0.1131
  H  H43  1  0.441230  0.129470  0.746370  1.0  0.112
  H  H44  1  0.259130  0.981470  0.706970  1.0  0.096
  H  H45  1  0.166830  0.884770  0.703170  1.0  0.1069
  H  H46  1  0.614200  0.552700  0.224300  1.0  0.1159
  H  H47  1  0.518900  0.457200  0.206200  1.0  0.1113
  H  H48  1  0.441900  0.549600  0.061600  1.0  0.1107
  H  H49  1  0.537200  0.645100  0.079700  1.0  0.1065
  H  H50  1  0.685200  0.611000  0.040300  1.0  0.0944
  H  H51  1  0.781900  0.615400  0.036500  1.0  0.1077
  H  H52  1  0.280870  0.886030  0.557630  1.0  0.1159
  H  H53  1  0.185570  0.790530  0.539530  1.0  0.1113
  H  H54  1  0.108570  0.882930  0.394930  1.0  0.1124
  H  H55  1  0.203870  0.978430  0.413030  1.0  0.1065
  H  H56  1  0.351870  0.944330  0.373630  1.0  0.0944
  H  H57  1  0.448570  0.948730  0.369830  1.0  0.1077
  H  H58  1  0.947530  0.219370  0.890970  1.0  0.1159
  H  H59  1  0.852230  0.123870  0.872870  1.0  0.1122
  H  H60  1  0.775230  0.216270  0.728270  1.0  0.1107
  H  H61  1  0.870530  0.311770  0.746370  1.0  0.1065
  H  H62  1  0.018530  0.277670  0.706970  1.0  0.0944
  H  H63  1  0.115230  0.282070  0.703170  1.0  0.1077
  H  H64  1  0.061500  0.447300  0.775700  1.0  0.116
  H  H65  1  0.061700  0.542800  0.793800  1.0  0.1125
  H  H66  1  0.892300  0.450400  0.938400  1.0  0.1113
  H  H67  1  0.892100  0.354900  0.920300  1.0  0.1057
  H  H68  1  0.074200  0.389000  0.959700  1.0  0.0947
  H  H69  1  0.166500  0.384600  0.963500  1.0  0.1075
  H  H70  1  0.728170  0.780630  0.109030  1.0  0.116
  H  H71  1  0.728370  0.876130  0.127130  1.0  0.1125
  H  H72  1  0.558970  0.783730  0.271730  1.0  0.1112
  H  H73  1  0.558770  0.688230  0.253630  1.0  0.1057
  H  H74  1  0.740870  0.722330  0.293030  1.0  0.0947
  H  H75  1  0.833170  0.717930  0.296830  1.0  0.1075
  H  H76  1  0.394830  0.113970  0.442370  1.0  0.116
  H  H77  1  0.395030  0.209470  0.460470  1.0  0.1125
  H  H78  1  0.225630  0.117070  0.605070  1.0  0.1094
  H  H79  1  0.225430  0.021570  0.586970  1.0  0.1057
  H  H80  1  0.407530  0.055670  0.626370  1.0  0.0948
  H  H81  1  0.499830  0.051270  0.630170  1.0  0.1075
  H  H82  1  0.385800  0.938500  0.775700  1.0  0.1136
  H  H83  1  0.481100  0.938300  0.793800  1.0  0.1122
  H  H84  1  0.558100  0.107700  0.938400  1.0  0.1116
  H  H85  1  0.462800  0.107900  0.920300  1.0  0.1077
  H  H86  1  0.314800  0.925800  0.959700  1.0  0.0954
  H  H87  1  0.218100  0.833500  0.963500  1.0  0.1076
  H  H88  1  0.052470  0.271830  0.109030  1.0  0.1136
  H  H89  1  0.147770  0.271630  0.127130  1.0  0.1123
  H  H90  1  0.224770  0.441030  0.271730  1.0  0.1116
  H  H91  1  0.129470  0.441230  0.253630  1.0  0.1077
  H  H92  1  0.981470  0.259130  0.293030  1.0  0.0954
  H  H93  1  0.884770  0.166830  0.296830  1.0  0.1076
  H  H94  1  0.719130  0.605170  0.442370  1.0  0.1136
  H  H95  1  0.814430  0.604970  0.460470  1.0  0.1122
  H  H96  1  0.891430  0.774370  0.605070  1.0  0.1092
  H  H97  1  0.796130  0.774570  0.586970  1.0  0.1077
  H  H98  1  0.648130  0.592470  0.626370  1.0  0.0954
  H  H99  1  0.551430  0.500170  0.630170  1.0  0.1076
  H  H100  1  0.552700  0.614200  0.775700  1.0  0.1133
  H  H101  1  0.457200  0.518900  0.793800  1.0  0.1101
  H  H102  1  0.549600  0.441900  0.938400  1.0  0.1118
  H  H103  1  0.645100  0.537200  0.920300  1.0  0.112
  H  H104  1  0.611000  0.685200  0.959700  1.0  0.0955
  H  H105  1  0.615400  0.781900  0.963500  1.0  0.1065
  H  H106  1  0.219370  0.947530  0.109030  1.0  0.1133
  H  H107  1  0.123870  0.852230  0.127130  1.0  0.1109
  H  H108  1  0.216270  0.775230  0.271730  1.0  0.1118
  H  H109  1  0.311770  0.870530  0.253630  1.0  0.112
  H  H110  1  0.277670  0.018530  0.293030  1.0  0.0955
  H  H111  1  0.282070  0.115230  0.296830  1.0  0.1065
  H  H112  1  0.886030  0.280870  0.442370  1.0  0.1133
  H  H113  1  0.790530  0.185570  0.460470  1.0  0.1101
  H  H114  1  0.882930  0.108570  0.605070  1.0  0.113
  H  H115  1  0.978430  0.203870  0.586970  1.0  0.112
  H  H116  1  0.944330  0.351870  0.626370  1.0  0.0955
  H  H117  1  0.948730  0.448570  0.630170  1.0  0.1065
  C  C118  1  0.391600  0.976800  0.153800  1.0  0.1711
  C  C119  1  0.447900  0.027600  0.191700  1.0  -0.1661
  C  C120  1  0.505100  0.027700  0.180800  1.0  -0.0338
  C  C121  1  0.506100  0.977000  0.132100  1.0  -0.1222
  C  C122  1  0.449800  0.926200  0.094200  1.0  -0.0259
  C  C123  1  0.392530  0.926100  0.105100  1.0  -0.1889
  C  C124  1  0.566900  0.974700  0.120000  1.0  0.6722
  C  C125  1  0.366000  0.081300  0.090700  1.0  -0.1436
  C  C126  1  0.364500  0.137500  0.089500  1.0  -0.0418
  C  C127  1  0.058270  0.310130  0.487130  1.0  0.171
  C  C128  1  0.114570  0.360930  0.525030  1.0  -0.1661
  C  C129  1  0.171770  0.361030  0.514130  1.0  -0.0338
  C  C130  1  0.172770  0.310330  0.465430  1.0  -0.1222
  C  C131  1  0.116470  0.259530  0.427530  1.0  -0.0259
  C  C132  1  0.059200  0.259430  0.438430  1.0  -0.1889
  C  C133  1  0.233570  0.308030  0.453330  1.0  0.6722
  C  C134  1  0.032670  0.414630  0.424030  1.0  -0.1422
  C  C135  1  0.031170  0.470830  0.422830  1.0  -0.0419
  C  C136  1  0.724930  0.643470  0.820470  1.0  0.1715
  C  C137  1  0.781230  0.694270  0.858370  1.0  -0.1659
  C  C138  1  0.838430  0.694370  0.847470  1.0  -0.0338
  C  C139  1  0.839430  0.643670  0.798770  1.0  -0.1222
  C  C140  1  0.783130  0.592870  0.760870  1.0  -0.0259
  C  C141  1  0.725860  0.592770  0.771770  1.0  -0.1889
  C  C142  1  0.900230  0.641370  0.786670  1.0  0.6722
  C  C143  1  0.699330  0.747970  0.757370  1.0  -0.1425
  C  C144  1  0.697830  0.804170  0.756170  1.0  -0.0417
  C  C145  1  0.023200  0.414800  0.153800  1.0  0.1715
  C  C146  1  0.972400  0.420300  0.191700  1.0  -0.1675
  C  C147  1  0.972300  0.477400  0.180800  1.0  -0.0304
  C  C148  1  0.023000  0.529100  0.132100  1.0  -0.1181
  C  C149  1  0.073800  0.523600  0.094200  1.0  -0.0227
  C  C150  1  0.073900  0.466430  0.105100  1.0  -0.1946
  C  C151  1  0.025300  0.592200  0.120000  1.0  0.6741
  C  C152  1  0.918700  0.284700  0.090700  1.0  -0.1389
  C  C153  1  0.862500  0.227000  0.089500  1.0  -0.0414
  C  C154  1  0.689870  0.748130  0.487130  1.0  0.1716
  C  C155  1  0.639070  0.753630  0.525030  1.0  -0.1675
  C  C156  1  0.638970  0.810730  0.514130  1.0  -0.0305
  C  C157  1  0.689670  0.862430  0.465430  1.0  -0.1181
  C  C158  1  0.740470  0.856930  0.427530  1.0  -0.0227
  C  C159  1  0.740570  0.799760  0.438430  1.0  -0.1946
  C  C160  1  0.691970  0.925530  0.453330  1.0  0.6741
  C  C161  1  0.585370  0.618030  0.424030  1.0  -0.1387
  C  C162  1  0.529170  0.560330  0.422830  1.0  -0.0414
  C  C163  1  0.356530  0.081470  0.820470  1.0  0.1716
  C  C164  1  0.305730  0.086970  0.858370  1.0  -0.1675
  C  C165  1  0.305630  0.144070  0.847470  1.0  -0.0304
  C  C166  1  0.356330  0.195770  0.798770  1.0  -0.1181
  C  C167  1  0.407130  0.190270  0.760870  1.0  -0.0227
  C  C168  1  0.407230  0.133100  0.771770  1.0  -0.1946
  C  C169  1  0.358630  0.258870  0.786670  1.0  0.6741
  C  C170  1  0.252030  0.951370  0.757370  1.0  -0.1399
  C  C171  1  0.195830  0.893670  0.756170  1.0  -0.0415
  C  C172  1  0.585200  0.608400  0.153800  1.0  0.1705
  C  C173  1  0.579700  0.552100  0.191700  1.0  -0.1717
  C  C174  1  0.522600  0.494900  0.180800  1.0  -0.0333
  C  C175  1  0.470900  0.493900  0.132100  1.0  -0.122
  C  C176  1  0.476400  0.550200  0.094200  1.0  -0.0205
  C  C177  1  0.533570  0.607470  0.105100  1.0  -0.1946
  C  C178  1  0.407800  0.433100  0.120000  1.0  0.6739
  C  C179  1  0.715300  0.634000  0.090700  1.0  -0.1352
  C  C180  1  0.773000  0.635500  0.089500  1.0  -0.0416
  C  C181  1  0.251870  0.941730  0.487130  1.0  0.1703
  C  C182  1  0.246370  0.885430  0.525030  1.0  -0.1717
  C  C183  1  0.189270  0.828230  0.514130  1.0  -0.0333
  C  C184  1  0.137570  0.827230  0.465430  1.0  -0.122
  C  C185  1  0.143070  0.883530  0.427530  1.0  -0.0205
  C  C186  1  0.200240  0.940800  0.438430  1.0  -0.1946
  C  C187  1  0.074470  0.766430  0.453330  1.0  0.6739
  C  C188  1  0.381970  0.967330  0.424030  1.0  -0.1352
  C  C189  1  0.439670  0.968830  0.422830  1.0  -0.0416
  C  C190  1  0.918530  0.275070  0.820470  1.0  0.1703
  C  C191  1  0.913030  0.218770  0.858370  1.0  -0.1718
  C  C192  1  0.855930  0.161570  0.847470  1.0  -0.0333
  C  C193  1  0.804230  0.160570  0.798770  1.0  -0.122
  C  C194  1  0.809730  0.216870  0.760870  1.0  -0.0205
  C  C195  1  0.866900  0.274140  0.771770  1.0  -0.1946
  C  C196  1  0.741130  0.099770  0.786670  1.0  0.6739
  C  C197  1  0.048630  0.300670  0.757370  1.0  -0.1363
  C  C198  1  0.106330  0.302170  0.756170  1.0  -0.0412
  C  C199  1  0.976800  0.391600  0.846200  1.0  0.1706
  C  C200  1  0.027600  0.447900  0.808300  1.0  -0.1735
  C  C201  1  0.027700  0.505100  0.819200  1.0  -0.0325
  C  C202  1  0.977000  0.506100  0.867900  1.0  -0.1217
  C  C203  1  0.926200  0.449800  0.905800  1.0  -0.0207
  C  C204  1  0.926100  0.392530  0.894900  1.0  -0.1952
  C  C205  1  0.974700  0.566900  0.880000  1.0  0.6731
  C  C206  1  0.081300  0.366000  0.909300  1.0  -0.1351
  C  C207  1  0.137500  0.364500  0.910500  1.0  -0.0464
  C  C208  1  0.643470  0.724930  0.179530  1.0  0.1707
  C  C209  1  0.694270  0.781230  0.141630  1.0  -0.1734
  C  C210  1  0.694370  0.838430  0.152530  1.0  -0.0325
  C  C211  1  0.643670  0.839430  0.201230  1.0  -0.1218
  C  C212  1  0.592870  0.783130  0.239130  1.0  -0.0207
  C  C213  1  0.592770  0.725860  0.228230  1.0  -0.1952
  C  C214  1  0.641370  0.900230  0.213330  1.0  0.6731
  C  C215  1  0.747970  0.699330  0.242630  1.0  -0.1339
  C  C216  1  0.804170  0.697830  0.243830  1.0  -0.0463
  C  C217  1  0.310130  0.058270  0.512870  1.0  0.1705
  C  C218  1  0.360930  0.114570  0.474970  1.0  -0.1735
  C  C219  1  0.361030  0.171770  0.485870  1.0  -0.0325
  C  C220  1  0.310330  0.172770  0.534570  1.0  -0.1217
  C  C221  1  0.259530  0.116470  0.572470  1.0  -0.0207
  C  C222  1  0.259430  0.059200  0.561570  1.0  -0.1952
  C  C223  1  0.308030  0.233570  0.546670  1.0  0.6731
  C  C224  1  0.414630  0.032670  0.575970  1.0  -0.1336
  C  C225  1  0.470830  0.031170  0.577170  1.0  -0.0465
  C  C226  1  0.414800  0.023200  0.846200  1.0  0.1713
  C  C227  1  0.420300  0.972400  0.808300  1.0  -0.1645
  C  C228  1  0.477400  0.972300  0.819200  1.0  -0.0352
  C  C229  1  0.529100  0.023000  0.867900  1.0  -0.1229
  C  C230  1  0.523600  0.073800  0.905800  1.0  -0.0242
  C  C231  1  0.466430  0.073900  0.894900  1.0  -0.1901
  C  C232  1  0.592200  0.025300  0.880000  1.0  0.6724
  C  C233  1  0.284700  0.918700  0.909300  1.0  -0.1414
  C  C234  1  0.227000  0.862500  0.910500  1.0  -0.047
  C  C235  1  0.081470  0.356530  0.179530  1.0  0.1711
  C  C236  1  0.086970  0.305730  0.141630  1.0  -0.1645
  C  C237  1  0.144070  0.305630  0.152530  1.0  -0.0352
  C  C238  1  0.195770  0.356330  0.201230  1.0  -0.1229
  C  C239  1  0.190270  0.407130  0.239130  1.0  -0.0242
  C  C240  1  0.133100  0.407230  0.228230  1.0  -0.1901
  C  C241  1  0.258870  0.358630  0.213330  1.0  0.6724
  C  C242  1  0.951370  0.252030  0.242630  1.0  -0.1423
  C  C243  1  0.893670  0.195830  0.243830  1.0  -0.0471
  C  C244  1  0.748130  0.689870  0.512870  1.0  0.1714
  C  C245  1  0.753630  0.639070  0.474970  1.0  -0.1645
  C  C246  1  0.810730  0.638970  0.485870  1.0  -0.0352
  C  C247  1  0.862430  0.689670  0.534570  1.0  -0.1229
  C  C248  1  0.856930  0.740470  0.572470  1.0  -0.0242
  C  C249  1  0.799760  0.740570  0.561570  1.0  -0.1901
  C  C250  1  0.925530  0.691970  0.546670  1.0  0.6724
  C  C251  1  0.618030  0.585370  0.575970  1.0  -0.1411
  C  C252  1  0.560330  0.529170  0.577170  1.0  -0.047
  C  C253  1  0.608400  0.585200  0.846200  1.0  0.1716
  C  C254  1  0.552100  0.579700  0.808300  1.0  -0.1676
  C  C255  1  0.494900  0.522600  0.819200  1.0  -0.0314
  C  C256  1  0.493900  0.470900  0.867900  1.0  -0.1193
  C  C257  1  0.550200  0.476400  0.905800  1.0  -0.0241
  C  C258  1  0.607470  0.533570  0.894900  1.0  -0.1944
  C  C259  1  0.433100  0.407800  0.880000  1.0  0.6743
  C  C260  1  0.634000  0.715300  0.909300  1.0  -0.1365
  C  C261  1  0.635500  0.773000  0.910500  1.0  -0.0473
  C  C262  1  0.275070  0.918530  0.179530  1.0  0.1714
  C  C263  1  0.218770  0.913030  0.141630  1.0  -0.1679
  C  C264  1  0.161570  0.855930  0.152530  1.0  -0.0314
  C  C265  1  0.160570  0.804230  0.201230  1.0  -0.1193
  C  C266  1  0.216870  0.809730  0.239130  1.0  -0.0241
  C  C267  1  0.274140  0.866900  0.228230  1.0  -0.1944
  C  C268  1  0.099770  0.741130  0.213330  1.0  0.6743
  C  C269  1  0.300670  0.048630  0.242630  1.0  -0.138
  C  C270  1  0.302170  0.106330  0.243830  1.0  -0.0469
  C  C271  1  0.941730  0.251870  0.512870  1.0  0.1713
  C  C272  1  0.885430  0.246370  0.474970  1.0  -0.1676
  C  C273  1  0.828230  0.189270  0.485870  1.0  -0.0314
  C  C274  1  0.827230  0.137570  0.534570  1.0  -0.1193
  C  C275  1  0.883530  0.143070  0.572470  1.0  -0.0241
  C  C276  1  0.940800  0.200240  0.561570  1.0  -0.1944
  C  C277  1  0.766430  0.074470  0.546670  1.0  0.6743
  C  C278  1  0.967330  0.381970  0.575970  1.0  -0.1366
  C  C279  1  0.968830  0.439670  0.577170  1.0  -0.0473
  C  C280  1  0.333333  0.034220  0.166670  1.0  0.1288
  C  C281  1  0.333333  0.151420  0.166670  1.0  -0.1246
  C  C282  1  0.333333  0.213020  0.166670  1.0  0.7582
  C  C283  1  0.000000  0.367550  0.500000  1.0  0.1312
  C  C284  1  0.000000  0.484750  0.500000  1.0  -0.1249
  C  C285  1  0.000000  0.546350  0.500000  1.0  0.7575
  C  C286  1  0.965780  0.299120  0.166670  1.0  0.1297
  C  C287  1  0.848580  0.181920  0.166670  1.0  -0.1253
  C  C288  1  0.786980  0.120320  0.166670  1.0  0.7562
  C  C289  1  0.632450  0.632450  0.500000  1.0  0.1297
  C  C290  1  0.515250  0.515250  0.500000  1.0  -0.1255
  C  C291  1  0.453650  0.453650  0.500000  1.0  0.7562
  C  C292  1  0.700880  0.666667  0.166670  1.0  0.1324
  C  C293  1  0.818080  0.666667  0.166670  1.0  -0.1239
  C  C294  1  0.879680  0.666667  0.166670  1.0  0.7597
  C  C295  1  0.367550  0.000000  0.500000  1.0  0.1338
  C  C296  1  0.484750  0.000000  0.500000  1.0  -0.1252
  C  C297  1  0.546350  0.000000  0.500000  1.0  0.7599
  C  C298  1  0.034220  0.333333  0.833330  1.0  0.1315
  C  C299  1  0.151420  0.333333  0.833330  1.0  -0.1248
  C  C300  1  0.213020  0.333333  0.833330  1.0  0.7607
  C  C301  1  0.299120  0.965780  0.833330  1.0  0.1296
  C  C302  1  0.181920  0.848580  0.833330  1.0  -0.1253
  C  C303  1  0.120320  0.786980  0.833330  1.0  0.7562
  C  C304  1  0.666667  0.700880  0.833330  1.0  0.1298
  C  C305  1  0.666667  0.818080  0.833330  1.0  -0.1242
  C  C306  1  0.666667  0.879680  0.833330  1.0  0.7572
  N  N307  1  0.333333  0.975520  0.166670  1.0  -0.1826
  N  N308  1  0.000000  0.308850  0.500000  1.0  -0.1826
  N  N309  1  0.024480  0.357820  0.166670  1.0  -0.1827
  N  N310  1  0.691150  0.691150  0.500000  1.0  -0.1827
  N  N311  1  0.642180  0.666667  0.166670  1.0  -0.1825
  N  N312  1  0.308850  0.000000  0.500000  1.0  -0.1823
  N  N313  1  0.975520  0.333333  0.833330  1.0  -0.1825
  N  N314  1  0.357820  0.024480  0.833330  1.0  -0.1828
  N  N315  1  0.666667  0.642180  0.833330  1.0  -0.1826
  O  O316  1  0.569100  0.938100  0.057800  1.0  -0.6397
  O  O317  1  0.617800  0.019600  0.163600  1.0  -0.7885
  O  O318  1  0.321900  0.232000  0.249000  1.0  -0.7162
  O  O319  1  0.235770  0.271430  0.391130  1.0  -0.6397
  O  O320  1  0.284470  0.352930  0.496930  1.0  -0.7886
  O  O321  1  0.988570  0.565330  0.582330  1.0  -0.7166
  O  O322  1  0.902430  0.604770  0.724470  1.0  -0.6397
  O  O323  1  0.951130  0.686270  0.830270  1.0  -0.7884
  O  O324  1  0.655230  0.898670  0.915670  1.0  -0.7165
  O  O325  1  0.061900  0.631000  0.057800  1.0  -0.6417
  O  O326  1  0.980400  0.598200  0.163600  1.0  -0.7873
  O  O327  1  0.768000  0.089900  0.249000  1.0  -0.7127
  O  O328  1  0.728570  0.964330  0.391130  1.0  -0.6417
  O  O329  1  0.647070  0.931530  0.496930  1.0  -0.7875
  O  O330  1  0.434670  0.423230  0.582330  1.0  -0.7129
  O  O331  1  0.395230  0.297670  0.724470  1.0  -0.6417
  O  O332  1  0.313730  0.264870  0.830270  1.0  -0.7875
  O  O333  1  0.101330  0.756570  0.915670  1.0  -0.7129
  O  O334  1  0.369000  0.430900  0.057800  1.0  -0.6443
  O  O335  1  0.401800  0.382200  0.163600  1.0  -0.7884
  O  O336  1  0.910100  0.678100  0.249000  1.0  -0.7159
  O  O337  1  0.035670  0.764230  0.391130  1.0  -0.6443
  O  O338  1  0.068470  0.715530  0.496930  1.0  -0.7882
  O  O339  1  0.576770  0.011430  0.582330  1.0  -0.7156
  O  O340  1  0.702330  0.097570  0.724470  1.0  -0.6443
  O  O341  1  0.735130  0.048870  0.830270  1.0  -0.7884
  O  O342  1  0.243430  0.344770  0.915670  1.0  -0.7157
  O  O343  1  0.938100  0.569100  0.942200  1.0  -0.644
  O  O344  1  0.019600  0.617800  0.836400  1.0  -0.7882
  O  O345  1  0.232000  0.321900  0.751000  1.0  -0.7172
  O  O346  1  0.604770  0.902430  0.275530  1.0  -0.644
  O  O347  1  0.686270  0.951130  0.169730  1.0  -0.7881
  O  O348  1  0.898670  0.655230  0.084330  1.0  -0.7176
  O  O349  1  0.271430  0.235770  0.608870  1.0  -0.644
  O  O350  1  0.352930  0.284470  0.503070  1.0  -0.7883
  O  O351  1  0.565330  0.988570  0.417670  1.0  -0.7175
  O  O352  1  0.631000  0.061900  0.942200  1.0  -0.6396
  O  O353  1  0.598200  0.980400  0.836400  1.0  -0.7897
  O  O354  1  0.089900  0.768000  0.751000  1.0  -0.7174
  O  O355  1  0.297670  0.395230  0.275530  1.0  -0.6396
  O  O356  1  0.264870  0.313730  0.169730  1.0  -0.7899
  O  O357  1  0.756570  0.101330  0.084330  1.0  -0.7175
  O  O358  1  0.964330  0.728570  0.608870  1.0  -0.6396
  O  O359  1  0.931530  0.647070  0.503070  1.0  -0.7899
  O  O360  1  0.423230  0.434670  0.417670  1.0  -0.7176
  O  O361  1  0.430900  0.369000  0.942200  1.0  -0.643
  O  O362  1  0.382200  0.401800  0.836400  1.0  -0.7885
  O  O363  1  0.678100  0.910100  0.751000  1.0  -0.7158
  O  O364  1  0.097570  0.702330  0.275530  1.0  -0.643
  O  O365  1  0.048870  0.735130  0.169730  1.0  -0.7885
  O  O366  1  0.344770  0.243430  0.084330  1.0  -0.7155
  O  O367  1  0.764230  0.035670  0.608870  1.0  -0.643
  O  O368  1  0.715530  0.068470  0.503070  1.0  -0.7883
  O  O369  1  0.011430  0.576770  0.417670  1.0  -0.7155
