# generated using pymatgen
data_LaH15(C9O2)3
_symmetry_space_group_name_H-M   'P 1'
_cell_length_a   28.32000000
_cell_length_b   28.32000000
_cell_length_c   12.83500000
_cell_angle_alpha   90.00000000
_cell_angle_beta   90.00000000
_cell_angle_gamma   120.00000000
_symmetry_Int_Tables_number   1
_chemical_formula_structural   LaH15(C9O2)3
_chemical_formula_sum   'La9 H135 C243 O54'
_cell_volume   8914.82870394
_cell_formula_units_Z   9
loop_
 _symmetry_equiv_pos_site_id
 _symmetry_equiv_pos_as_xyz
  1  'x, y, z'
loop_
 _atom_site_type_symbol
 _atom_site_label
 _atom_site_symmetry_multiplicity
 _atom_site_fract_x
 _atom_site_fract_y
 _atom_site_fract_z
 _atom_site_occupancy
 _atom_site_charge
  La  La1  1  0.322450  0.000000  0.000000  1.0  2.138
  La  La2  1  0.989120  0.333333  0.333333  1.0  2.1376
  La  La3  1  0.655780  0.666667  0.666667  1.0  2.1378
  La  La4  1  0.000000  0.322450  0.000000  1.0  2.1375
  La  La5  1  0.666667  0.655780  0.333333  1.0  2.1368
  La  La6  1  0.333333  0.989120  0.666667  1.0  2.1371
  La  La7  1  0.677550  0.677550  0.000000  1.0  2.1365
  La  La8  1  0.344220  0.010880  0.333333  1.0  2.1361
  La  La9  1  0.010880  0.344220  0.666667  1.0  2.1359
  H  H10  1  0.267680  0.125170  0.265910  1.0  0.1594
  H  H11  1  0.267680  0.208860  0.265910  1.0  0.1122
  H  H12  1  0.249680  0.264480  0.161970  1.0  0.1163
  H  H13  1  0.190870  0.278120  0.248220  1.0  0.1139
  H  H14  1  0.107220  0.278130  0.243530  1.0  0.1189
  H  H15  1  0.179310  0.418240  0.068490  1.0  0.1212
  H  H16  1  0.262960  0.418230  0.073180  1.0  0.1042
  H  H17  1  0.934350  0.458500  0.599240  1.0  0.1586
  H  H18  1  0.934350  0.542190  0.599240  1.0  0.1122
  H  H19  1  0.916350  0.597810  0.495300  1.0  0.1163
  H  H20  1  0.857540  0.611450  0.581550  1.0  0.1139
  H  H21  1  0.773890  0.611460  0.576860  1.0  0.1189
  H  H22  1  0.845980  0.751570  0.401820  1.0  0.1215
  H  H23  1  0.929630  0.751560  0.406510  1.0  0.1042
  H  H24  1  0.601010  0.791840  0.932580  1.0  0.1596
  H  H25  1  0.601010  0.875530  0.932580  1.0  0.1122
  H  H26  1  0.583010  0.931150  0.828640  1.0  0.1163
  H  H27  1  0.524200  0.944790  0.914890  1.0  0.1139
  H  H28  1  0.440550  0.944800  0.910200  1.0  0.1189
  H  H29  1  0.512640  0.084910  0.735160  1.0  0.1229
  H  H30  1  0.596290  0.084900  0.739850  1.0  0.1043
  H  H31  1  0.874830  0.142510  0.265910  1.0  0.162
  H  H32  1  0.791140  0.058820  0.265910  1.0  0.1119
  H  H33  1  0.735520  0.985200  0.161970  1.0  0.1167
  H  H34  1  0.721880  0.912750  0.248220  1.0  0.1137
  H  H35  1  0.721870  0.829090  0.243530  1.0  0.1184
  H  H36  1  0.581760  0.761070  0.068490  1.0  0.1193
  H  H37  1  0.581770  0.844730  0.073180  1.0  0.102
  H  H38  1  0.541500  0.475840  0.599240  1.0  0.1647
  H  H39  1  0.457810  0.392150  0.599240  1.0  0.1119
  H  H40  1  0.402190  0.318530  0.495300  1.0  0.1167
  H  H41  1  0.388550  0.246080  0.581550  1.0  0.1137
  H  H42  1  0.388540  0.162420  0.576860  1.0  0.1184
  H  H43  1  0.248430  0.094400  0.401820  1.0  0.1209
  H  H44  1  0.248440  0.178060  0.406510  1.0  0.102
  H  H45  1  0.208160  0.809180  0.932580  1.0  0.1627
  H  H46  1  0.124470  0.725490  0.932580  1.0  0.1119
  H  H47  1  0.068850  0.651870  0.828640  1.0  0.1167
  H  H48  1  0.055210  0.579420  0.914890  1.0  0.1137
  H  H49  1  0.055200  0.495760  0.910200  1.0  0.1184
  H  H50  1  0.915090  0.427740  0.735160  1.0  0.1213
  H  H51  1  0.915100  0.511400  0.739850  1.0  0.102
  H  H52  1  0.857490  0.732320  0.265910  1.0  0.1603
  H  H53  1  0.941180  0.732320  0.265910  1.0  0.1101
  H  H54  1  0.014800  0.750320  0.161970  1.0  0.1167
  H  H55  1  0.087250  0.809130  0.248220  1.0  0.1137
  H  H56  1  0.170910  0.892780  0.243530  1.0  0.1192
  H  H57  1  0.238930  0.820690  0.068490  1.0  0.1202
  H  H58  1  0.155270  0.737040  0.073180  1.0  0.1035
  H  H59  1  0.524160  0.065650  0.599240  1.0  0.1578
  H  H60  1  0.607850  0.065650  0.599240  1.0  0.1102
  H  H61  1  0.681470  0.083650  0.495300  1.0  0.1167
  H  H62  1  0.753920  0.142460  0.581550  1.0  0.1137
  H  H63  1  0.837580  0.226110  0.576860  1.0  0.1192
  H  H64  1  0.905600  0.154020  0.401820  1.0  0.1232
  H  H65  1  0.821940  0.070370  0.406510  1.0  0.1035
  H  H66  1  0.190820  0.398990  0.932580  1.0  0.1598
  H  H67  1  0.274510  0.398990  0.932580  1.0  0.1101
  H  H68  1  0.348130  0.416990  0.828640  1.0  0.1168
  H  H69  1  0.420580  0.475800  0.914890  1.0  0.1137
  H  H70  1  0.504240  0.559450  0.910200  1.0  0.1192
  H  H71  1  0.572260  0.487360  0.735160  1.0  0.1236
  H  H72  1  0.488600  0.403710  0.739850  1.0  0.1034
  H  H73  1  0.125170  0.267680  0.734090  1.0  0.1595
  H  H74  1  0.208860  0.267680  0.734090  1.0  0.1107
  H  H75  1  0.264480  0.249680  0.838030  1.0  0.1164
  H  H76  1  0.278120  0.190870  0.751780  1.0  0.1136
  H  H77  1  0.278130  0.107220  0.756470  1.0  0.1185
  H  H78  1  0.418240  0.179310  0.931510  1.0  0.1221
  H  H79  1  0.418230  0.262960  0.926820  1.0  0.1028
  H  H80  1  0.791840  0.601010  0.067420  1.0  0.1599
  H  H81  1  0.875530  0.601010  0.067420  1.0  0.1108
  H  H82  1  0.931150  0.583010  0.171360  1.0  0.1164
  H  H83  1  0.944790  0.524200  0.085110  1.0  0.1136
  H  H84  1  0.944800  0.440550  0.089800  1.0  0.1185
  H  H85  1  0.084910  0.512640  0.264840  1.0  0.1246
  H  H86  1  0.084900  0.596290  0.260150  1.0  0.103
  H  H87  1  0.458500  0.934350  0.400760  1.0  0.1586
  H  H88  1  0.542190  0.934350  0.400760  1.0  0.1107
  H  H89  1  0.597810  0.916350  0.504700  1.0  0.1164
  H  H90  1  0.611450  0.857540  0.418450  1.0  0.1136
  H  H91  1  0.611460  0.773890  0.423140  1.0  0.1185
  H  H92  1  0.751570  0.845980  0.598180  1.0  0.1235
  H  H93  1  0.751560  0.929630  0.593490  1.0  0.1028
  H  H94  1  0.142510  0.874830  0.734090  1.0  0.1574
  H  H95  1  0.058820  0.791140  0.734090  1.0  0.1125
  H  H96  1  0.985200  0.735520  0.838030  1.0  0.1166
  H  H97  1  0.912750  0.721880  0.751780  1.0  0.1145
  H  H98  1  0.829090  0.721870  0.756470  1.0  0.1205
  H  H99  1  0.761070  0.581760  0.931510  1.0  0.1192
  H  H100  1  0.844730  0.581770  0.926820  1.0  0.104
  H  H101  1  0.809180  0.208160  0.067420  1.0  0.1578
  H  H102  1  0.725490  0.124470  0.067420  1.0  0.1125
  H  H103  1  0.651870  0.068850  0.171360  1.0  0.1166
  H  H104  1  0.579420  0.055210  0.085110  1.0  0.1145
  H  H105  1  0.495760  0.055200  0.089800  1.0  0.1205
  H  H106  1  0.427740  0.915090  0.264840  1.0  0.1214
  H  H107  1  0.511400  0.915100  0.260150  1.0  0.104
  H  H108  1  0.475840  0.541500  0.400760  1.0  0.1599
  H  H109  1  0.392150  0.457810  0.400760  1.0  0.1125
  H  H110  1  0.318530  0.402190  0.504700  1.0  0.1166
  H  H111  1  0.246080  0.388550  0.418450  1.0  0.1145
  H  H112  1  0.162420  0.388540  0.423140  1.0  0.1205
  H  H113  1  0.094400  0.248430  0.598180  1.0  0.1207
  H  H114  1  0.178060  0.248440  0.593490  1.0  0.104
  H  H115  1  0.732320  0.857490  0.734090  1.0  0.1648
  H  H116  1  0.732320  0.941180  0.734090  1.0  0.1099
  H  H117  1  0.750320  0.014800  0.838030  1.0  0.1168
  H  H118  1  0.809130  0.087250  0.751780  1.0  0.1139
  H  H119  1  0.892780  0.170910  0.756470  1.0  0.1187
  H  H120  1  0.820690  0.238930  0.931510  1.0  0.1182
  H  H121  1  0.737040  0.155270  0.926820  1.0  0.1029
  H  H122  1  0.398990  0.190820  0.067420  1.0  0.1644
  H  H123  1  0.398990  0.274510  0.067420  1.0  0.1099
  H  H124  1  0.416990  0.348130  0.171360  1.0  0.1168
  H  H125  1  0.475800  0.420580  0.085110  1.0  0.1139
  H  H126  1  0.559450  0.504240  0.089800  1.0  0.1187
  H  H127  1  0.487360  0.572260  0.264840  1.0  0.1208
  H  H128  1  0.403710  0.488600  0.260150  1.0  0.1028
  H  H129  1  0.065650  0.524160  0.400760  1.0  0.1627
  H  H130  1  0.065650  0.607850  0.400760  1.0  0.11
  H  H131  1  0.083650  0.681470  0.504700  1.0  0.1168
  H  H132  1  0.142460  0.753920  0.418450  1.0  0.1139
  H  H133  1  0.226110  0.837580  0.423140  1.0  0.1187
  H  H134  1  0.154020  0.905600  0.598180  1.0  0.1216
  H  H135  1  0.070370  0.821940  0.593490  1.0  0.1027
  H  H136  1  0.333333  0.431830  0.166670  1.0  0.1132
  H  H137  1  0.000000  0.765170  0.500000  1.0  0.1132
  H  H138  1  0.568170  0.901500  0.166670  1.0  0.1135
  H  H139  1  0.234830  0.234830  0.500000  1.0  0.1136
  H  H140  1  0.098500  0.666667  0.166670  1.0  0.1122
  H  H141  1  0.765170  0.000000  0.500000  1.0  0.1121
  H  H142  1  0.431830  0.333333  0.833330  1.0  0.1121
  H  H143  1  0.901500  0.568170  0.833330  1.0  0.1134
  H  H144  1  0.666667  0.098500  0.833330  1.0  0.1132
  C  C145  1  0.295380  0.156680  0.224030  1.0  -0.1628
  C  C146  1  0.295380  0.205050  0.224030  1.0  -0.1723
  C  C147  1  0.284980  0.299780  0.163960  1.0  -0.1531
  C  C148  1  0.284980  0.348170  0.163960  1.0  0.0773
  C  C149  1  0.233450  0.348170  0.161070  1.0  0.0891
  C  C150  1  0.188430  0.307670  0.210300  1.0  -0.1475
  C  C151  1  0.140080  0.307680  0.207590  1.0  -0.107
  C  C152  1  0.136740  0.348190  0.155640  1.0  -0.0876
  C  C153  1  0.181750  0.388690  0.106410  1.0  -0.1164
  C  C154  1  0.230110  0.388670  0.109120  1.0  -0.1904
  C  C155  1  0.084860  0.348200  0.152730  1.0  0.6691
  C  C156  1  0.962050  0.490010  0.557360  1.0  -0.1641
  C  C157  1  0.962050  0.538380  0.557360  1.0  -0.195
  C  C158  1  0.951650  0.633110  0.497290  1.0  -0.1528
  C  C159  1  0.951650  0.681500  0.497290  1.0  0.0774
  C  C160  1  0.900120  0.681500  0.494400  1.0  0.0891
  C  C161  1  0.855100  0.641000  0.543630  1.0  -0.1492
  C  C162  1  0.806750  0.641010  0.540920  1.0  -0.1071
  C  C163  1  0.803410  0.681520  0.488970  1.0  -0.0876
  C  C164  1  0.848420  0.722020  0.439740  1.0  -0.1164
  C  C165  1  0.896780  0.722000  0.442450  1.0  -0.1904
  C  C166  1  0.751530  0.681530  0.486060  1.0  0.6693
  C  C167  1  0.628710  0.823350  0.890700  1.0  -0.1627
  C  C168  1  0.628710  0.871720  0.890700  1.0  -0.1755
  C  C169  1  0.618310  0.966450  0.830630  1.0  -0.1528
  C  C170  1  0.618310  0.014840  0.830630  1.0  0.0773
  C  C171  1  0.566780  0.014840  0.827740  1.0  0.0891
  C  C172  1  0.521760  0.974340  0.876970  1.0  -0.1475
  C  C173  1  0.473410  0.974350  0.874260  1.0  -0.107
  C  C174  1  0.470070  0.014860  0.822310  1.0  -0.0876
  C  C175  1  0.515080  0.055360  0.773080  1.0  -0.1164
  C  C176  1  0.563440  0.055340  0.775790  1.0  -0.1904
  C  C177  1  0.418190  0.014870  0.819400  1.0  0.6691
  C  C178  1  0.843320  0.138700  0.224030  1.0  -0.1464
  C  C179  1  0.794950  0.090330  0.224030  1.0  -0.1776
  C  C180  1  0.700220  0.985200  0.163960  1.0  -0.1472
  C  C181  1  0.651830  0.936810  0.163960  1.0  0.0778
  C  C182  1  0.651830  0.885280  0.161070  1.0  0.0911
  C  C183  1  0.692330  0.880760  0.210300  1.0  -0.1433
  C  C184  1  0.692320  0.832400  0.207590  1.0  -0.0982
  C  C185  1  0.651810  0.788550  0.155640  1.0  -0.0873
  C  C186  1  0.611310  0.793060  0.106410  1.0  -0.1152
  C  C187  1  0.611330  0.841440  0.109120  1.0  -0.1874
  C  C188  1  0.651800  0.736660  0.152730  1.0  0.6707
  C  C189  1  0.509990  0.472030  0.557360  1.0  -0.147
  C  C190  1  0.461620  0.423660  0.557360  1.0  -0.1771
  C  C191  1  0.366890  0.318530  0.497290  1.0  -0.1471
  C  C192  1  0.318500  0.270140  0.497290  1.0  0.0787
  C  C193  1  0.318500  0.218610  0.494400  1.0  0.0911
  C  C194  1  0.359000  0.214090  0.543630  1.0  -0.1433
  C  C195  1  0.358990  0.165730  0.540920  1.0  -0.0982
  C  C196  1  0.318480  0.121880  0.488970  1.0  -0.0873
  C  C197  1  0.277980  0.126390  0.439740  1.0  -0.1152
  C  C198  1  0.278000  0.174770  0.442450  1.0  -0.1873
  C  C199  1  0.318470  0.069990  0.486060  1.0  0.6707
  C  C200  1  0.176650  0.805370  0.890700  1.0  -0.1471
  C  C201  1  0.128280  0.757000  0.890700  1.0  -0.1766
  C  C202  1  0.033550  0.651870  0.830630  1.0  -0.1475
  C  C203  1  0.985160  0.603480  0.830630  1.0  0.0778
  C  C204  1  0.985160  0.551950  0.827740  1.0  0.0911
  C  C205  1  0.025660  0.547430  0.876970  1.0  -0.1411
  C  C206  1  0.025650  0.499070  0.874260  1.0  -0.098
  C  C207  1  0.985140  0.455220  0.822310  1.0  -0.0873
  C  C208  1  0.944640  0.459730  0.773080  1.0  -0.1152
  C  C209  1  0.944660  0.508110  0.775790  1.0  -0.1873
  C  C210  1  0.985130  0.403330  0.819400  1.0  0.6707
  C  C211  1  0.861300  0.704620  0.224030  1.0  -0.1499
  C  C212  1  0.909670  0.704620  0.224030  1.0  -0.204
  C  C213  1  0.014800  0.715020  0.163960  1.0  -0.1522
  C  C214  1  0.063190  0.715020  0.163960  1.0  0.0803
  C  C215  1  0.114720  0.766550  0.161070  1.0  0.0917
  C  C216  1  0.119240  0.811570  0.210300  1.0  -0.1439
  C  C217  1  0.167600  0.859920  0.207590  1.0  -0.1056
  C  C218  1  0.211450  0.863260  0.155640  1.0  -0.0834
  C  C219  1  0.206940  0.818250  0.106410  1.0  -0.1137
  C  C220  1  0.158560  0.769890  0.109120  1.0  -0.1852
  C  C221  1  0.263340  0.915140  0.152730  1.0  0.6735
  C  C222  1  0.527970  0.037950  0.557360  1.0  -0.1625
  C  C223  1  0.576340  0.037950  0.557360  1.0  -0.18
  C  C224  1  0.681470  0.048350  0.497290  1.0  -0.1518
  C  C225  1  0.729860  0.048350  0.497290  1.0  0.0794
  C  C226  1  0.781390  0.099880  0.494400  1.0  0.0917
  C  C227  1  0.785910  0.144900  0.543630  1.0  -0.1458
  C  C228  1  0.834270  0.193250  0.540920  1.0  -0.1056
  C  C229  1  0.878120  0.196590  0.488970  1.0  -0.0834
  C  C230  1  0.873610  0.151580  0.439740  1.0  -0.1137
  C  C231  1  0.825230  0.103220  0.442450  1.0  -0.1852
  C  C232  1  0.930010  0.248470  0.486060  1.0  0.6735
  C  C233  1  0.194630  0.371290  0.890700  1.0  -0.1498
  C  C234  1  0.243000  0.371290  0.890700  1.0  -0.2011
  C  C235  1  0.348130  0.381690  0.830630  1.0  -0.1522
  C  C236  1  0.396520  0.381690  0.830630  1.0  0.0803
  C  C237  1  0.448050  0.433220  0.827740  1.0  0.0917
  C  C238  1  0.452570  0.478240  0.876970  1.0  -0.1458
  C  C239  1  0.500930  0.526590  0.874260  1.0  -0.1057
  C  C240  1  0.544780  0.529930  0.822310  1.0  -0.0834
  C  C241  1  0.540270  0.484920  0.773080  1.0  -0.1137
  C  C242  1  0.491890  0.436560  0.775790  1.0  -0.1853
  C  C243  1  0.596670  0.581810  0.819400  1.0  0.6735
  C  C244  1  0.156680  0.295380  0.775970  1.0  -0.1633
  C  C245  1  0.205050  0.295380  0.775970  1.0  -0.1777
  C  C246  1  0.299780  0.284980  0.836040  1.0  -0.1522
  C  C247  1  0.348170  0.284980  0.836040  1.0  0.0805
  C  C248  1  0.348170  0.233450  0.838930  1.0  0.0914
  C  C249  1  0.307670  0.188430  0.789700  1.0  -0.1449
  C  C250  1  0.307680  0.140080  0.792410  1.0  -0.1075
  C  C251  1  0.348190  0.136740  0.844360  1.0  -0.0845
  C  C252  1  0.388690  0.181750  0.893590  1.0  -0.1131
  C  C253  1  0.388670  0.230110  0.890880  1.0  -0.1853
  C  C254  1  0.348200  0.084860  0.847270  1.0  0.6719
  C  C255  1  0.823350  0.628710  0.109300  1.0  -0.1632
  C  C256  1  0.871720  0.628710  0.109300  1.0  -0.1817
  C  C257  1  0.966450  0.618310  0.169370  1.0  -0.1519
  C  C258  1  0.014840  0.618310  0.169370  1.0  0.0804
  C  C259  1  0.014840  0.566780  0.172260  1.0  0.0914
  C  C260  1  0.974340  0.521760  0.123030  1.0  -0.1449
  C  C261  1  0.974350  0.473410  0.125740  1.0  -0.1075
  C  C262  1  0.014860  0.470070  0.177690  1.0  -0.0845
  C  C263  1  0.055360  0.515080  0.226920  1.0  -0.1131
  C  C264  1  0.055340  0.563440  0.224210  1.0  -0.1853
  C  C265  1  0.014870  0.418190  0.180600  1.0  0.6719
  C  C266  1  0.490010  0.962050  0.442640  1.0  -0.1602
  C  C267  1  0.538380  0.962050  0.442640  1.0  -0.2018
  C  C268  1  0.633110  0.951650  0.502710  1.0  -0.1505
  C  C269  1  0.681500  0.951650  0.502710  1.0  0.0805
  C  C270  1  0.681500  0.900120  0.505600  1.0  0.0914
  C  C271  1  0.641000  0.855100  0.456370  1.0  -0.1465
  C  C272  1  0.641010  0.806750  0.459080  1.0  -0.1076
  C  C273  1  0.681520  0.803410  0.511030  1.0  -0.0845
  C  C274  1  0.722020  0.848420  0.560260  1.0  -0.1131
  C  C275  1  0.722000  0.896780  0.557550  1.0  -0.1853
  C  C276  1  0.681530  0.751530  0.513940  1.0  0.672
  C  C277  1  0.138700  0.843320  0.775970  1.0  -0.1501
  C  C278  1  0.090330  0.794950  0.775970  1.0  -0.1766
  C  C279  1  0.985200  0.700220  0.836040  1.0  -0.1527
  C  C280  1  0.936810  0.651830  0.836040  1.0  0.0775
  C  C281  1  0.885280  0.651830  0.838930  1.0  0.0891
  C  C282  1  0.880760  0.692330  0.789700  1.0  -0.1493
  C  C283  1  0.832400  0.692320  0.792410  1.0  -0.1067
  C  C284  1  0.788550  0.651810  0.844360  1.0  -0.0873
  C  C285  1  0.793060  0.611310  0.893590  1.0  -0.1147
  C  C286  1  0.841440  0.611330  0.890880  1.0  -0.1897
  C  C287  1  0.736660  0.651800  0.847270  1.0  0.6676
  C  C288  1  0.805370  0.176650  0.109300  1.0  -0.147
  C  C289  1  0.757000  0.128280  0.109300  1.0  -0.1759
  C  C290  1  0.651870  0.033550  0.169370  1.0  -0.1527
  C  C291  1  0.603480  0.985160  0.169370  1.0  0.0775
  C  C292  1  0.551950  0.985160  0.172260  1.0  0.0891
  C  C293  1  0.547430  0.025660  0.123030  1.0  -0.1468
  C  C294  1  0.499070  0.025650  0.125740  1.0  -0.1066
  C  C295  1  0.455220  0.985140  0.177690  1.0  -0.0873
  C  C296  1  0.459730  0.944640  0.226920  1.0  -0.1147
  C  C297  1  0.508110  0.944660  0.224210  1.0  -0.1897
  C  C298  1  0.403330  0.985130  0.180600  1.0  0.6676
  C  C299  1  0.472030  0.509990  0.442640  1.0  -0.1501
  C  C300  1  0.423660  0.461620  0.442640  1.0  -0.1778
  C  C301  1  0.318530  0.366890  0.502710  1.0  -0.1526
  C  C302  1  0.270140  0.318500  0.502710  1.0  0.078
  C  C303  1  0.218610  0.318500  0.505600  1.0  0.0891
  C  C304  1  0.214090  0.359000  0.456370  1.0  -0.1493
  C  C305  1  0.165730  0.358990  0.459080  1.0  -0.1067
  C  C306  1  0.121880  0.318480  0.511030  1.0  -0.0873
  C  C307  1  0.126390  0.277980  0.560260  1.0  -0.1147
  C  C308  1  0.174770  0.278000  0.557550  1.0  -0.1897
  C  C309  1  0.069990  0.318470  0.513940  1.0  0.6676
  C  C310  1  0.704620  0.861300  0.775970  1.0  -0.145
  C  C311  1  0.704620  0.909670  0.775970  1.0  -0.1993
  C  C312  1  0.715020  0.014800  0.836040  1.0  -0.1467
  C  C313  1  0.715020  0.063190  0.836040  1.0  0.0783
  C  C314  1  0.766550  0.114720  0.838930  1.0  0.0912
  C  C315  1  0.811570  0.119240  0.789700  1.0  -0.1423
  C  C316  1  0.859920  0.167600  0.792410  1.0  -0.0992
  C  C317  1  0.863260  0.211450  0.844360  1.0  -0.0868
  C  C318  1  0.818250  0.206940  0.893590  1.0  -0.1161
  C  C319  1  0.769890  0.158560  0.890880  1.0  -0.1878
  C  C320  1  0.915140  0.263340  0.847270  1.0  0.6698
  C  C321  1  0.371290  0.194630  0.109300  1.0  -0.145
  C  C322  1  0.371290  0.243000  0.109300  1.0  -0.1956
  C  C323  1  0.381690  0.348130  0.169370  1.0  -0.1466
  C  C324  1  0.381690  0.396520  0.169370  1.0  0.0783
  C  C325  1  0.433220  0.448050  0.172260  1.0  0.0912
  C  C326  1  0.478240  0.452570  0.123030  1.0  -0.1438
  C  C327  1  0.526590  0.500930  0.125740  1.0  -0.0993
  C  C328  1  0.529930  0.544780  0.177690  1.0  -0.0867
  C  C329  1  0.484920  0.540270  0.226920  1.0  -0.1161
  C  C330  1  0.436560  0.491890  0.224210  1.0  -0.1878
  C  C331  1  0.581810  0.596670  0.180600  1.0  0.6698
  C  C332  1  0.037950  0.527970  0.442640  1.0  -0.1628
  C  C333  1  0.037950  0.576340  0.442640  1.0  -0.1746
  C  C334  1  0.048350  0.681470  0.502710  1.0  -0.1477
  C  C335  1  0.048350  0.729860  0.502710  1.0  0.0779
  C  C336  1  0.099880  0.781390  0.505600  1.0  0.0912
  C  C337  1  0.144900  0.785910  0.456370  1.0  -0.1438
  C  C338  1  0.193250  0.834270  0.459080  1.0  -0.0992
  C  C339  1  0.196590  0.878120  0.511030  1.0  -0.0868
  C  C340  1  0.151580  0.873610  0.560260  1.0  -0.1161
  C  C341  1  0.103220  0.825230  0.557550  1.0  -0.1878
  C  C342  1  0.248470  0.930010  0.513940  1.0  0.6698
  C  C343  1  0.333333  0.099570  0.166670  1.0  0.7399
  C  C344  1  0.333333  0.151470  0.166670  1.0  -0.0764
  C  C345  1  0.333333  0.248230  0.166670  1.0  0.093
  C  C346  1  0.333333  0.299780  0.166670  1.0  0.0784
  C  C347  1  0.333333  0.396520  0.166670  1.0  -0.1247
  C  C348  1  0.000000  0.432900  0.500000  1.0  0.74
  C  C349  1  0.000000  0.484810  0.500000  1.0  -0.0781
  C  C350  1  0.000000  0.581570  0.500000  1.0  0.0859
  C  C351  1  0.000000  0.633120  0.500000  1.0  0.0788
  C  C352  1  0.000000  0.729860  0.500000  1.0  -0.1277
  C  C353  1  0.900430  0.233760  0.166670  1.0  0.7397
  C  C354  1  0.848530  0.181860  0.166670  1.0  -0.075
  C  C355  1  0.751770  0.085100  0.166670  1.0  0.0944
  C  C356  1  0.700220  0.033550  0.166670  1.0  0.078
  C  C357  1  0.603480  0.936810  0.166670  1.0  -0.1282
  C  C358  1  0.567100  0.567100  0.500000  1.0  0.7398
  C  C359  1  0.515190  0.515200  0.500000  1.0  -0.0741
  C  C360  1  0.418440  0.418440  0.500000  1.0  0.0926
  C  C361  1  0.366880  0.366880  0.500000  1.0  0.0759
  C  C362  1  0.270140  0.270140  0.500000  1.0  -0.1279
  C  C363  1  0.766240  0.666667  0.166670  1.0  0.741
  C  C364  1  0.818140  0.666667  0.166670  1.0  -0.0761
  C  C365  1  0.914900  0.666667  0.166670  1.0  0.0898
  C  C366  1  0.966450  0.666667  0.166670  1.0  0.0846
  C  C367  1  0.063190  0.666667  0.166670  1.0  -0.1214
  C  C368  1  0.432900  0.000000  0.500000  1.0  0.7411
  C  C369  1  0.484810  0.000000  0.500000  1.0  -0.0782
  C  C370  1  0.581570  0.000000  0.500000  1.0  0.0842
  C  C371  1  0.633120  0.000000  0.500000  1.0  0.0776
  C  C372  1  0.729860  0.000000  0.500000  1.0  -0.1256
  C  C373  1  0.099570  0.333333  0.833330  1.0  0.7413
  C  C374  1  0.151470  0.333333  0.833330  1.0  -0.0765
  C  C375  1  0.248230  0.333333  0.833330  1.0  0.0912
  C  C376  1  0.299780  0.333333  0.833330  1.0  0.0766
  C  C377  1  0.396520  0.333333  0.833330  1.0  -0.122
  C  C378  1  0.233760  0.900430  0.833330  1.0  0.7398
  C  C379  1  0.181860  0.848530  0.833330  1.0  -0.075
  C  C380  1  0.085100  0.751770  0.833330  1.0  0.0944
  C  C381  1  0.033550  0.700220  0.833330  1.0  0.0785
  C  C382  1  0.936810  0.603480  0.833330  1.0  -0.1282
  C  C383  1  0.666667  0.766240  0.833330  1.0  0.7398
  C  C384  1  0.666667  0.818140  0.833330  1.0  -0.0759
  C  C385  1  0.666667  0.914900  0.833330  1.0  0.0915
  C  C386  1  0.666667  0.966450  0.833330  1.0  0.0855
  C  C387  1  0.666667  0.063190  0.833330  1.0  -0.1239
  O  O388  1  0.313520  0.067600  0.242090  1.0  -0.6612
  O  O389  1  0.042930  0.310240  0.197120  1.0  -0.6989
  O  O390  1  0.081960  0.386170  0.105840  1.0  -0.6747
  O  O391  1  0.980190  0.400930  0.575420  1.0  -0.6605
  O  O392  1  0.709600  0.643570  0.530450  1.0  -0.6991
  O  O393  1  0.748630  0.719500  0.439170  1.0  -0.6745
  O  O394  1  0.646850  0.734270  0.908760  1.0  -0.6612
  O  O395  1  0.376260  0.976910  0.863790  1.0  -0.698
  O  O396  1  0.415290  0.052840  0.772510  1.0  -0.6747
  O  O397  1  0.932400  0.245920  0.242090  1.0  -0.6632
  O  O398  1  0.689760  0.732690  0.197120  1.0  -0.7011
  O  O399  1  0.613830  0.695790  0.105840  1.0  -0.6759
  O  O400  1  0.599070  0.579250  0.575420  1.0  -0.663
  O  O401  1  0.356430  0.066020  0.530450  1.0  -0.701
  O  O402  1  0.280500  0.029120  0.439170  1.0  -0.6764
  O  O403  1  0.265730  0.912590  0.908760  1.0  -0.6633
  O  O404  1  0.023090  0.399360  0.863790  1.0  -0.7005
  O  O405  1  0.947160  0.362460  0.772510  1.0  -0.6759
  O  O406  1  0.754080  0.686480  0.242090  1.0  -0.6632
  O  O407  1  0.267310  0.957070  0.197120  1.0  -0.7004
  O  O408  1  0.304210  0.918040  0.105840  1.0  -0.6733
  O  O409  1  0.420750  0.019810  0.575420  1.0  -0.6624
  O  O410  1  0.933980  0.290400  0.530450  1.0  -0.7003
  O  O411  1  0.970880  0.251370  0.439170  1.0  -0.6733
  O  O412  1  0.087410  0.353150  0.908760  1.0  -0.6639
  O  O413  1  0.600640  0.623740  0.863790  1.0  -0.7002
  O  O414  1  0.637540  0.584710  0.772510  1.0  -0.6733
  O  O415  1  0.067600  0.313520  0.757910  1.0  -0.6639
  O  O416  1  0.310240  0.042930  0.802880  1.0  -0.6983
  O  O417  1  0.386170  0.081960  0.894160  1.0  -0.6736
  O  O418  1  0.734270  0.646850  0.091240  1.0  -0.6639
  O  O419  1  0.976910  0.376260  0.136210  1.0  -0.6979
  O  O420  1  0.052840  0.415290  0.227490  1.0  -0.6736
  O  O421  1  0.400930  0.980190  0.424580  1.0  -0.6631
  O  O422  1  0.643570  0.709600  0.469550  1.0  -0.6986
  O  O423  1  0.719500  0.748630  0.560830  1.0  -0.6734
  O  O424  1  0.245920  0.932400  0.757910  1.0  -0.6612
  O  O425  1  0.732690  0.689760  0.802880  1.0  -0.7001
  O  O426  1  0.695790  0.613830  0.894160  1.0  -0.6753
  O  O427  1  0.912590  0.265730  0.091240  1.0  -0.6613
  O  O428  1  0.399360  0.023090  0.136210  1.0  -0.7
  O  O429  1  0.362460  0.947160  0.227490  1.0  -0.6752
  O  O430  1  0.579250  0.599070  0.424580  1.0  -0.661
  O  O431  1  0.066020  0.356430  0.469550  1.0  -0.6998
  O  O432  1  0.029120  0.280500  0.560830  1.0  -0.6756
  O  O433  1  0.686480  0.754080  0.757910  1.0  -0.6643
  O  O434  1  0.957070  0.267310  0.802880  1.0  -0.7006
  O  O435  1  0.918040  0.304210  0.894160  1.0  -0.6762
  O  O436  1  0.353150  0.087410  0.091240  1.0  -0.6651
  O  O437  1  0.623740  0.600640  0.136210  1.0  -0.7007
  O  O438  1  0.584710  0.637540  0.227490  1.0  -0.6762
  O  O439  1  0.019810  0.420750  0.424580  1.0  -0.6637
  O  O440  1  0.290400  0.933980  0.469550  1.0  -0.7005
  O  O441  1  0.251370  0.970880  0.560830  1.0  -0.6762
