# generated using pymatgen
data_CeH12C21NO6
_symmetry_space_group_name_H-M   'P 1'
_cell_length_a   24.18800000
_cell_length_b   24.18800000
_cell_length_c   13.14890000
_cell_angle_alpha   90.00000000
_cell_angle_beta   90.00000000
_cell_angle_gamma   120.00000000
_symmetry_Int_Tables_number   1
_chemical_formula_structural   CeH12C21NO6
_chemical_formula_sum   'Ce9 H108 C189 N9 O54'
_cell_volume   6662.23540444
_cell_formula_units_Z   9
loop_
 _symmetry_equiv_pos_site_id
 _symmetry_equiv_pos_as_xyz
  1  'x, y, z'
loop_
 _atom_site_type_symbol
 _atom_site_label
 _atom_site_symmetry_multiplicity
 _atom_site_fract_x
 _atom_site_fract_y
 _atom_site_fract_z
 _atom_site_occupancy
 _atom_site_charge
  Ce  Ce1  1  0.684140  0.000000  0.000000  1.0  2.2488
  Ce  Ce2  1  0.350810  0.333333  0.333333  1.0  2.2488
  Ce  Ce3  1  0.017470  0.666667  0.666667  1.0  2.2488
  Ce  Ce4  1  0.000000  0.684140  0.000000  1.0  2.2486
  Ce  Ce5  1  0.666667  0.017470  0.333333  1.0  2.2485
  Ce  Ce6  1  0.333333  0.350810  0.666667  1.0  2.2485
  Ce  Ce7  1  0.315860  0.315860  0.000000  1.0  2.249
  Ce  Ce8  1  0.982530  0.649190  0.333333  1.0  2.249
  Ce  Ce9  1  0.649190  0.982530  0.666667  1.0  2.249
  H  H10  1  0.541600  0.062100  0.205700  1.0  0.0907
  H  H11  1  0.447700  0.063000  0.225500  1.0  0.1351
  H  H12  1  0.453300  0.897300  0.059500  1.0  0.115
  H  H13  1  0.354800  0.894100  0.080800  1.0  0.1221
  H  H14  1  0.379800  0.071700  0.030800  1.0  0.1086
  H  H15  1  0.370400  0.161300  0.026200  1.0  0.1015
  H  H16  1  0.208270  0.395430  0.539030  1.0  0.0907
  H  H17  1  0.114370  0.396330  0.558830  1.0  0.1351
  H  H18  1  0.119970  0.230630  0.392830  1.0  0.1133
  H  H19  1  0.021470  0.227430  0.414130  1.0  0.1221
  H  H20  1  0.046470  0.405030  0.364130  1.0  0.1086
  H  H21  1  0.037070  0.494630  0.359530  1.0  0.1015
  H  H22  1  0.874930  0.728770  0.872370  1.0  0.0899
  H  H23  1  0.781030  0.729670  0.892170  1.0  0.1351
  H  H24  1  0.786630  0.563970  0.726170  1.0  0.115
  H  H25  1  0.688130  0.560770  0.747470  1.0  0.1221
  H  H26  1  0.713130  0.738370  0.697470  1.0  0.1085
  H  H27  1  0.703730  0.827970  0.692870  1.0  0.1016
  H  H28  1  0.937900  0.479500  0.205700  1.0  0.0913
  H  H29  1  0.937000  0.384700  0.225500  1.0  0.1346
  H  H30  1  0.102700  0.556000  0.059500  1.0  0.116
  H  H31  1  0.105900  0.460700  0.080800  1.0  0.1279
  H  H32  1  0.928300  0.308100  0.030800  1.0  0.1103
  H  H33  1  0.838700  0.209100  0.026200  1.0  0.1004
  H  H34  1  0.604570  0.812830  0.539030  1.0  0.0912
  H  H35  1  0.603670  0.718030  0.558830  1.0  0.1346
  H  H36  1  0.769370  0.889330  0.392830  1.0  0.1143
  H  H37  1  0.772570  0.794030  0.414130  1.0  0.1279
  H  H38  1  0.594970  0.641430  0.364130  1.0  0.1102
  H  H39  1  0.505370  0.542430  0.359530  1.0  0.1004
  H  H40  1  0.271230  0.146170  0.872370  1.0  0.0919
  H  H41  1  0.270330  0.051370  0.892170  1.0  0.1346
  H  H42  1  0.436030  0.222670  0.726170  1.0  0.116
  H  H43  1  0.439230  0.127370  0.747470  1.0  0.1279
  H  H44  1  0.261630  0.974770  0.697470  1.0  0.1103
  H  H45  1  0.172030  0.875770  0.692870  1.0  0.1005
  H  H46  1  0.520500  0.458400  0.205700  1.0  0.0912
  H  H47  1  0.615300  0.552300  0.225500  1.0  0.1371
  H  H48  1  0.444000  0.546700  0.059500  1.0  0.1136
  H  H49  1  0.539300  0.645200  0.080800  1.0  0.122
  H  H50  1  0.691900  0.620200  0.030800  1.0  0.109
  H  H51  1  0.790900  0.629600  0.026200  1.0  0.1009
  H  H52  1  0.187170  0.791730  0.539030  1.0  0.0912
  H  H53  1  0.281970  0.885630  0.558830  1.0  0.1371
  H  H54  1  0.110670  0.880030  0.392830  1.0  0.1141
  H  H55  1  0.205970  0.978530  0.414130  1.0  0.122
  H  H56  1  0.358570  0.953530  0.364130  1.0  0.1091
  H  H57  1  0.457570  0.962930  0.359530  1.0  0.1008
  H  H58  1  0.853830  0.125070  0.872370  1.0  0.0912
  H  H59  1  0.948630  0.218970  0.892170  1.0  0.1371
  H  H60  1  0.777330  0.213370  0.726170  1.0  0.1136
  H  H61  1  0.872630  0.311870  0.747470  1.0  0.122
  H  H62  1  0.025230  0.286870  0.697470  1.0  0.109
  H  H63  1  0.124230  0.296270  0.692870  1.0  0.1009
  H  H64  1  0.062100  0.541600  0.794300  1.0  0.0919
  H  H65  1  0.063000  0.447700  0.774500  1.0  0.1373
  H  H66  1  0.897300  0.453300  0.940500  1.0  0.1138
  H  H67  1  0.894100  0.354800  0.919200  1.0  0.1246
  H  H68  1  0.071700  0.379800  0.969200  1.0  0.1085
  H  H69  1  0.161300  0.370400  0.973800  1.0  0.1012
  H  H70  1  0.728770  0.874930  0.127630  1.0  0.0911
  H  H71  1  0.729670  0.781030  0.107830  1.0  0.1373
  H  H72  1  0.563970  0.786630  0.273830  1.0  0.1138
  H  H73  1  0.560770  0.688130  0.252530  1.0  0.1246
  H  H74  1  0.738370  0.713130  0.302530  1.0  0.1084
  H  H75  1  0.827970  0.703730  0.307130  1.0  0.1013
  H  H76  1  0.395430  0.208270  0.460970  1.0  0.0919
  H  H77  1  0.396330  0.114370  0.441170  1.0  0.1373
  H  H78  1  0.230630  0.119970  0.607170  1.0  0.1122
  H  H79  1  0.227430  0.021470  0.585870  1.0  0.1244
  H  H80  1  0.405030  0.046470  0.635870  1.0  0.1085
  H  H81  1  0.494630  0.037070  0.640470  1.0  0.1012
  H  H82  1  0.479500  0.937900  0.794300  1.0  0.0906
  H  H83  1  0.384700  0.937000  0.774500  1.0  0.1345
  H  H84  1  0.556000  0.102700  0.940500  1.0  0.1146
  H  H85  1  0.460700  0.105900  0.919200  1.0  0.1249
  H  H86  1  0.308100  0.928300  0.969200  1.0  0.1095
  H  H87  1  0.209100  0.838700  0.973800  1.0  0.101
  H  H88  1  0.146170  0.271230  0.127630  1.0  0.091
  H  H89  1  0.051370  0.270330  0.107830  1.0  0.1345
  H  H90  1  0.222670  0.436030  0.273830  1.0  0.1146
  H  H91  1  0.127370  0.439230  0.252530  1.0  0.1249
  H  H92  1  0.974770  0.261630  0.302530  1.0  0.1096
  H  H93  1  0.875770  0.172030  0.307130  1.0  0.101
  H  H94  1  0.812830  0.604570  0.460970  1.0  0.0904
  H  H95  1  0.718030  0.603670  0.441170  1.0  0.1345
  H  H96  1  0.889330  0.769370  0.607170  1.0  0.1133
  H  H97  1  0.794030  0.772570  0.585870  1.0  0.125
  H  H98  1  0.641430  0.594970  0.635870  1.0  0.1095
  H  H99  1  0.542430  0.505370  0.640470  1.0  0.101
  H  H100  1  0.458400  0.520500  0.794300  1.0  0.0916
  H  H101  1  0.552300  0.615300  0.774500  1.0  0.1345
  H  H102  1  0.546700  0.444000  0.940500  1.0  0.1146
  H  H103  1  0.645200  0.539300  0.919200  1.0  0.1284
  H  H104  1  0.620200  0.691900  0.969200  1.0  0.1101
  H  H105  1  0.629600  0.790900  0.973800  1.0  0.1007
  H  H106  1  0.125070  0.853830  0.127630  1.0  0.0918
  H  H107  1  0.218970  0.948630  0.107830  1.0  0.1345
  H  H108  1  0.213370  0.777330  0.273830  1.0  0.1146
  H  H109  1  0.311870  0.872630  0.252530  1.0  0.1285
  H  H110  1  0.286870  0.025230  0.302530  1.0  0.1102
  H  H111  1  0.296270  0.124230  0.307130  1.0  0.1008
  H  H112  1  0.791730  0.187170  0.460970  1.0  0.0917
  H  H113  1  0.885630  0.281970  0.441170  1.0  0.1345
  H  H114  1  0.880030  0.110670  0.607170  1.0  0.1152
  H  H115  1  0.978530  0.205970  0.585870  1.0  0.1283
  H  H116  1  0.953530  0.358570  0.635870  1.0  0.1102
  H  H117  1  0.962930  0.457570  0.640470  1.0  0.1008
  C  C118  1  0.391800  0.978300  0.154100  1.0  0.162
  C  C119  1  0.504200  0.028000  0.180400  1.0  -0.0458
  C  C120  1  0.448000  0.029200  0.192600  1.0  -0.2098
  C  C121  1  0.508000  0.980700  0.134500  1.0  -0.0521
  C  C122  1  0.451800  0.930100  0.094100  1.0  -0.0451
  C  C123  1  0.392300  0.928300  0.105600  1.0  -0.1965
  C  C124  1  0.566900  0.978200  0.119100  1.0  0.6749
  C  C125  1  0.360100  0.080600  0.084000  1.0  -0.156
  C  C126  1  0.356800  0.135200  0.083300  1.0  -0.0211
  C  C127  1  0.058470  0.311630  0.487430  1.0  0.162
  C  C128  1  0.170870  0.361330  0.513730  1.0  -0.0457
  C  C129  1  0.114670  0.362530  0.525930  1.0  -0.2102
  C  C130  1  0.174670  0.314030  0.467830  1.0  -0.0521
  C  C131  1  0.118470  0.263430  0.427430  1.0  -0.0451
  C  C132  1  0.058970  0.261630  0.438930  1.0  -0.1965
  C  C133  1  0.233570  0.311530  0.452430  1.0  0.675
  C  C134  1  0.026770  0.413930  0.417330  1.0  -0.1554
  C  C135  1  0.023470  0.468530  0.416630  1.0  -0.0211
  C  C136  1  0.725130  0.644970  0.820770  1.0  0.1622
  C  C137  1  0.837530  0.694670  0.847070  1.0  -0.0458
  C  C138  1  0.781330  0.695870  0.859270  1.0  -0.2098
  C  C139  1  0.841330  0.647370  0.801170  1.0  -0.0521
  C  C140  1  0.785130  0.596770  0.760770  1.0  -0.0451
  C  C141  1  0.725630  0.594970  0.772270  1.0  -0.1965
  C  C142  1  0.900230  0.644870  0.785770  1.0  0.6749
  C  C143  1  0.693430  0.747270  0.750670  1.0  -0.1552
  C  C144  1  0.690130  0.801870  0.749970  1.0  -0.0209
  C  C145  1  0.021700  0.413500  0.154100  1.0  0.162
  C  C146  1  0.972000  0.476200  0.180400  1.0  -0.0422
  C  C147  1  0.970800  0.418800  0.192600  1.0  -0.2063
  C  C148  1  0.019300  0.527300  0.134500  1.0  -0.0497
  C  C149  1  0.069900  0.521700  0.094100  1.0  -0.0441
  C  C150  1  0.071700  0.464000  0.105600  1.0  -0.2029
  C  C151  1  0.021800  0.588700  0.119100  1.0  0.6777
  C  C152  1  0.919400  0.279500  0.084000  1.0  -0.1548
  C  C153  1  0.864800  0.221600  0.083300  1.0  -0.0215
  C  C154  1  0.688370  0.746830  0.487430  1.0  0.1619
  C  C155  1  0.638670  0.809530  0.513730  1.0  -0.042
  C  C156  1  0.637470  0.752130  0.525930  1.0  -0.2066
  C  C157  1  0.685970  0.860630  0.467830  1.0  -0.0497
  C  C158  1  0.736570  0.855030  0.427430  1.0  -0.0441
  C  C159  1  0.738370  0.797330  0.438930  1.0  -0.2029
  C  C160  1  0.688470  0.922030  0.452430  1.0  0.6776
  C  C161  1  0.586070  0.612830  0.417330  1.0  -0.1548
  C  C162  1  0.531470  0.554930  0.416630  1.0  -0.0215
  C  C163  1  0.355030  0.080170  0.820770  1.0  0.1617
  C  C164  1  0.305330  0.142870  0.847070  1.0  -0.042
  C  C165  1  0.304130  0.085470  0.859270  1.0  -0.2063
  C  C166  1  0.352630  0.193970  0.801170  1.0  -0.0497
  C  C167  1  0.403230  0.188370  0.760770  1.0  -0.0441
  C  C168  1  0.405030  0.130670  0.772270  1.0  -0.2029
  C  C169  1  0.355130  0.255370  0.785770  1.0  0.6778
  C  C170  1  0.252730  0.946170  0.750670  1.0  -0.1551
  C  C171  1  0.198130  0.888270  0.749970  1.0  -0.0215
  C  C172  1  0.586500  0.608200  0.154100  1.0  0.1618
  C  C173  1  0.523800  0.495800  0.180400  1.0  -0.0459
  C  C174  1  0.581200  0.552000  0.192600  1.0  -0.2126
  C  C175  1  0.472700  0.492000  0.134500  1.0  -0.054
  C  C176  1  0.478300  0.548200  0.094100  1.0  -0.0437
  C  C177  1  0.536000  0.607700  0.105600  1.0  -0.2048
  C  C178  1  0.411300  0.433100  0.119100  1.0  0.6765
  C  C179  1  0.720500  0.639900  0.084000  1.0  -0.1451
  C  C180  1  0.778400  0.643200  0.083300  1.0  -0.0192
  C  C181  1  0.253170  0.941530  0.487430  1.0  0.1618
  C  C182  1  0.190470  0.829130  0.513730  1.0  -0.0458
  C  C183  1  0.247870  0.885330  0.525930  1.0  -0.2123
  C  C184  1  0.139370  0.825330  0.467830  1.0  -0.054
  C  C185  1  0.144970  0.881530  0.427430  1.0  -0.0437
  C  C186  1  0.202670  0.941030  0.438930  1.0  -0.2048
  C  C187  1  0.077970  0.766430  0.452430  1.0  0.6765
  C  C188  1  0.387170  0.973230  0.417330  1.0  -0.145
  C  C189  1  0.445070  0.976530  0.416630  1.0  -0.0192
  C  C190  1  0.919830  0.274870  0.820770  1.0  0.1618
  C  C191  1  0.857130  0.162470  0.847070  1.0  -0.0459
  C  C192  1  0.914530  0.218670  0.859270  1.0  -0.2126
  C  C193  1  0.806030  0.158670  0.801170  1.0  -0.054
  C  C194  1  0.811630  0.214870  0.760770  1.0  -0.0437
  C  C195  1  0.869330  0.274370  0.772270  1.0  -0.2048
  C  C196  1  0.744630  0.099770  0.785770  1.0  0.6765
  C  C197  1  0.053830  0.306570  0.750670  1.0  -0.1451
  C  C198  1  0.111730  0.309870  0.749970  1.0  -0.0192
  C  C199  1  0.978300  0.391800  0.845900  1.0  0.1622
  C  C200  1  0.028000  0.504200  0.819600  1.0  -0.0471
  C  C201  1  0.029200  0.448000  0.807400  1.0  -0.2135
  C  C202  1  0.980700  0.508000  0.865500  1.0  -0.0535
  C  C203  1  0.930100  0.451800  0.905900  1.0  -0.0443
  C  C204  1  0.928300  0.392300  0.894400  1.0  -0.2051
  C  C205  1  0.978200  0.566900  0.880900  1.0  0.6758
  C  C206  1  0.080600  0.360100  0.916000  1.0  -0.145
  C  C207  1  0.135200  0.356800  0.916700  1.0  -0.0189
  C  C208  1  0.644970  0.725130  0.179230  1.0  0.1624
  C  C209  1  0.694670  0.837530  0.152930  1.0  -0.0471
  C  C210  1  0.695870  0.781330  0.140730  1.0  -0.2135
  C  C211  1  0.647370  0.841330  0.198830  1.0  -0.0535
  C  C212  1  0.596770  0.785130  0.239230  1.0  -0.0443
  C  C213  1  0.594970  0.725630  0.227730  1.0  -0.2051
  C  C214  1  0.644870  0.900230  0.214230  1.0  0.6758
  C  C215  1  0.747270  0.693430  0.249330  1.0  -0.144
  C  C216  1  0.801870  0.690130  0.250030  1.0  -0.0187
  C  C217  1  0.311630  0.058470  0.512570  1.0  0.1622
  C  C218  1  0.361330  0.170870  0.486270  1.0  -0.047
  C  C219  1  0.362530  0.114670  0.474070  1.0  -0.2139
  C  C220  1  0.314030  0.174670  0.532170  1.0  -0.0535
  C  C221  1  0.263430  0.118470  0.572570  1.0  -0.0443
  C  C222  1  0.261630  0.058970  0.561070  1.0  -0.2051
  C  C223  1  0.311530  0.233570  0.547570  1.0  0.6759
  C  C224  1  0.413930  0.026770  0.582670  1.0  -0.1445
  C  C225  1  0.468530  0.023470  0.583370  1.0  -0.0189
  C  C226  1  0.413500  0.021700  0.845900  1.0  0.162
  C  C227  1  0.476200  0.972000  0.819600  1.0  -0.0455
  C  C228  1  0.418800  0.970800  0.807400  1.0  -0.2078
  C  C229  1  0.527300  0.019300  0.865500  1.0  -0.0522
  C  C230  1  0.521700  0.069900  0.905900  1.0  -0.0436
  C  C231  1  0.464000  0.071700  0.894400  1.0  -0.1977
  C  C232  1  0.588700  0.021800  0.880900  1.0  0.6746
  C  C233  1  0.279500  0.919400  0.916000  1.0  -0.1552
  C  C234  1  0.221600  0.864800  0.916700  1.0  -0.0218
  C  C235  1  0.080170  0.355030  0.179230  1.0  0.1617
  C  C236  1  0.142870  0.305330  0.152930  1.0  -0.0454
  C  C237  1  0.085470  0.304130  0.140730  1.0  -0.2078
  C  C238  1  0.193970  0.352630  0.198830  1.0  -0.0522
  C  C239  1  0.188370  0.403230  0.239230  1.0  -0.0436
  C  C240  1  0.130670  0.405030  0.227730  1.0  -0.1977
  C  C241  1  0.255370  0.355130  0.214230  1.0  0.6747
  C  C242  1  0.946170  0.252730  0.249330  1.0  -0.1556
  C  C243  1  0.888270  0.198130  0.250030  1.0  -0.0218
  C  C244  1  0.746830  0.688370  0.512570  1.0  0.162
  C  C245  1  0.809530  0.638670  0.486270  1.0  -0.0454
  C  C246  1  0.752130  0.637470  0.474070  1.0  -0.2081
  C  C247  1  0.860630  0.685970  0.532170  1.0  -0.0522
  C  C248  1  0.855030  0.736570  0.572570  1.0  -0.0436
  C  C249  1  0.797330  0.738370  0.561070  1.0  -0.1977
  C  C250  1  0.922030  0.688470  0.547570  1.0  0.6745
  C  C251  1  0.612830  0.586070  0.582670  1.0  -0.1552
  C  C252  1  0.554930  0.531470  0.583370  1.0  -0.0218
  C  C253  1  0.608200  0.586500  0.845900  1.0  0.1621
  C  C254  1  0.495800  0.523800  0.819600  1.0  -0.0432
  C  C255  1  0.552000  0.581200  0.807400  1.0  -0.2075
  C  C256  1  0.492000  0.472700  0.865500  1.0  -0.0512
  C  C257  1  0.548200  0.478300  0.905900  1.0  -0.046
  C  C258  1  0.607700  0.536000  0.894400  1.0  -0.2014
  C  C259  1  0.433100  0.411300  0.880900  1.0  0.6777
  C  C260  1  0.639900  0.720500  0.916000  1.0  -0.1551
  C  C261  1  0.643200  0.778400  0.916700  1.0  -0.0215
  C  C262  1  0.274870  0.919830  0.179230  1.0  0.1621
  C  C263  1  0.162470  0.857130  0.152930  1.0  -0.0432
  C  C264  1  0.218670  0.914530  0.140730  1.0  -0.2075
  C  C265  1  0.158670  0.806030  0.198830  1.0  -0.0512
  C  C266  1  0.214870  0.811630  0.239230  1.0  -0.046
  C  C267  1  0.274370  0.869330  0.227730  1.0  -0.2014
  C  C268  1  0.099770  0.744630  0.214230  1.0  0.6777
  C  C269  1  0.306570  0.053830  0.249330  1.0  -0.155
  C  C270  1  0.309870  0.111730  0.250030  1.0  -0.0215
  C  C271  1  0.941530  0.253170  0.512570  1.0  0.1621
  C  C272  1  0.829130  0.190470  0.486270  1.0  -0.0431
  C  C273  1  0.885330  0.247870  0.474070  1.0  -0.2072
  C  C274  1  0.825330  0.139370  0.532170  1.0  -0.0512
  C  C275  1  0.881530  0.144970  0.572570  1.0  -0.046
  C  C276  1  0.941030  0.202670  0.561070  1.0  -0.2014
  C  C277  1  0.766430  0.077970  0.547570  1.0  0.6777
  C  C278  1  0.973230  0.387170  0.582670  1.0  -0.1551
  C  C279  1  0.976530  0.445070  0.583370  1.0  -0.0215
  C  C280  1  0.333333  0.037420  0.166670  1.0  0.1015
  C  C281  1  0.333333  0.152520  0.166670  1.0  -0.1374
  C  C282  1  0.333333  0.214820  0.166670  1.0  0.7509
  C  C283  1  0.000000  0.370750  0.500000  1.0  0.1017
  C  C284  1  0.000000  0.485850  0.500000  1.0  -0.1371
  C  C285  1  0.000000  0.548150  0.500000  1.0  0.7507
  C  C286  1  0.962580  0.295920  0.166670  1.0  0.1014
  C  C287  1  0.847480  0.180820  0.166670  1.0  -0.137
  C  C288  1  0.785180  0.118520  0.166670  1.0  0.7497
  C  C289  1  0.629250  0.629250  0.500000  1.0  0.1014
  C  C290  1  0.514150  0.514150  0.500000  1.0  -0.1371
  C  C291  1  0.451850  0.451850  0.500000  1.0  0.7497
  C  C292  1  0.704080  0.666667  0.166670  1.0  0.1031
  C  C293  1  0.819180  0.666667  0.166670  1.0  -0.1354
  C  C294  1  0.881480  0.666667  0.166670  1.0  0.7532
  C  C295  1  0.370750  0.000000  0.500000  1.0  0.1031
  C  C296  1  0.485850  0.000000  0.500000  1.0  -0.1353
  C  C297  1  0.548150  0.000000  0.500000  1.0  0.7528
  C  C298  1  0.037420  0.333333  0.833330  1.0  0.1031
  C  C299  1  0.152520  0.333333  0.833330  1.0  -0.1356
  C  C300  1  0.214820  0.333333  0.833330  1.0  0.7528
  C  C301  1  0.295920  0.962580  0.833330  1.0  0.1014
  C  C302  1  0.180820  0.847480  0.833330  1.0  -0.137
  C  C303  1  0.118520  0.785180  0.833330  1.0  0.7496
  C  C304  1  0.666667  0.704080  0.833330  1.0  0.1015
  C  C305  1  0.666667  0.819180  0.833330  1.0  -0.1372
  C  C306  1  0.666667  0.881480  0.833330  1.0  0.7512
  N  N307  1  0.333333  0.976920  0.166670  1.0  -0.193
  N  N308  1  0.000000  0.310250  0.500000  1.0  -0.1934
  N  N309  1  0.023080  0.356420  0.166670  1.0  -0.194
  N  N310  1  0.689750  0.689750  0.500000  1.0  -0.194
  N  N311  1  0.643580  0.666667  0.166670  1.0  -0.1932
  N  N312  1  0.310250  0.000000  0.500000  1.0  -0.1931
  N  N313  1  0.976920  0.333333  0.833330  1.0  -0.1926
  N  N314  1  0.356420  0.023080  0.833330  1.0  -0.194
  N  N315  1  0.666667  0.643580  0.833330  1.0  -0.1935
  O  O316  1  0.569000  0.938400  0.059200  1.0  -0.6761
  O  O317  1  0.617500  0.020300  0.167200  1.0  -0.7501
  O  O318  1  0.342100  0.243200  0.082700  1.0  -0.7462
  O  O319  1  0.235670  0.271730  0.392530  1.0  -0.6761
  O  O320  1  0.284170  0.353630  0.500530  1.0  -0.75
  O  O321  1  0.008770  0.576530  0.416030  1.0  -0.7461
  O  O322  1  0.902330  0.605070  0.725870  1.0  -0.6761
  O  O323  1  0.950830  0.686970  0.833870  1.0  -0.75
  O  O324  1  0.675430  0.909870  0.749370  1.0  -0.7458
  O  O325  1  0.061600  0.630600  0.059200  1.0  -0.6792
  O  O326  1  0.979700  0.597200  0.167200  1.0  -0.75
  O  O327  1  0.756800  0.098900  0.082700  1.0  -0.7465
  O  O328  1  0.728270  0.963930  0.392530  1.0  -0.6792
  O  O329  1  0.646370  0.930530  0.500530  1.0  -0.7499
  O  O330  1  0.423470  0.432230  0.416030  1.0  -0.7465
  O  O331  1  0.394930  0.297270  0.725870  1.0  -0.6792
  O  O332  1  0.313030  0.263870  0.833870  1.0  -0.75
  O  O333  1  0.090130  0.765570  0.749370  1.0  -0.7465
  O  O334  1  0.369400  0.431000  0.059200  1.0  -0.6797
  O  O335  1  0.402800  0.382500  0.167200  1.0  -0.7496
  O  O336  1  0.901100  0.657900  0.082700  1.0  -0.7496
  O  O337  1  0.036070  0.764330  0.392530  1.0  -0.6797
  O  O338  1  0.069470  0.715830  0.500530  1.0  -0.7495
  O  O339  1  0.567770  0.991230  0.416030  1.0  -0.7496
  O  O340  1  0.702730  0.097670  0.725870  1.0  -0.6797
  O  O341  1  0.736130  0.049170  0.833870  1.0  -0.7496
  O  O342  1  0.234430  0.324570  0.749370  1.0  -0.7496
  O  O343  1  0.938400  0.569000  0.940800  1.0  -0.6789
  O  O344  1  0.020300  0.617500  0.832800  1.0  -0.7505
  O  O345  1  0.243200  0.342100  0.917300  1.0  -0.7486
  O  O346  1  0.605070  0.902330  0.274130  1.0  -0.6789
  O  O347  1  0.686970  0.950830  0.166130  1.0  -0.7505
  O  O348  1  0.909870  0.675430  0.250630  1.0  -0.7481
  O  O349  1  0.271730  0.235670  0.607470  1.0  -0.6789
  O  O350  1  0.353630  0.284170  0.499470  1.0  -0.7505
  O  O351  1  0.576530  0.008770  0.583970  1.0  -0.7485
  O  O352  1  0.630600  0.061600  0.940800  1.0  -0.6764
  O  O353  1  0.597200  0.979700  0.832800  1.0  -0.7519
  O  O354  1  0.098900  0.756800  0.917300  1.0  -0.745
  O  O355  1  0.297270  0.394930  0.274130  1.0  -0.6764
  O  O356  1  0.263870  0.313030  0.166130  1.0  -0.7519
  O  O357  1  0.765570  0.090130  0.250630  1.0  -0.7451
  O  O358  1  0.963930  0.728270  0.607470  1.0  -0.6764
  O  O359  1  0.930530  0.646370  0.499470  1.0  -0.7519
  O  O360  1  0.432230  0.423470  0.583970  1.0  -0.745
  O  O361  1  0.431000  0.369400  0.940800  1.0  -0.679
  O  O362  1  0.382500  0.402800  0.832800  1.0  -0.7509
  O  O363  1  0.657900  0.901100  0.917300  1.0  -0.7456
  O  O364  1  0.097670  0.702730  0.274130  1.0  -0.679
  O  O365  1  0.049170  0.736130  0.166130  1.0  -0.7509
  O  O366  1  0.324570  0.234430  0.250630  1.0  -0.7458
  O  O367  1  0.764330  0.036070  0.607470  1.0  -0.6792
  O  O368  1  0.715830  0.069470  0.499470  1.0  -0.7509
  O  O369  1  0.991230  0.567770  0.583970  1.0  -0.7456
