# generated using pymatgen
data_EuH15(C11O2)3
_symmetry_space_group_name_H-M   'P 1'
_cell_length_a   35.24200000
_cell_length_b   35.24200000
_cell_length_c   13.49300000
_cell_angle_alpha   90.00000000
_cell_angle_beta   90.00000000
_cell_angle_gamma   120.00000000
_symmetry_Int_Tables_number   1
_chemical_formula_structural   EuH15(C11O2)3
_chemical_formula_sum   'Eu9 H135 C297 O54'
_cell_volume   14513.10194033
_cell_formula_units_Z   9
loop_
 _symmetry_equiv_pos_site_id
 _symmetry_equiv_pos_as_xyz
  1  'x, y, z'
loop_
 _atom_site_type_symbol
 _atom_site_label
 _atom_site_symmetry_multiplicity
 _atom_site_fract_x
 _atom_site_fract_y
 _atom_site_fract_z
 _atom_site_occupancy
 _atom_site_charge
  Eu  Eu1  1  0.324280  0.000000  0.000000  1.0  2.1312
  Eu  Eu2  1  0.990950  0.333333  0.333333  1.0  2.1311
  Eu  Eu3  1  0.657610  0.666667  0.666667  1.0  2.1314
  Eu  Eu4  1  0.000000  0.324280  0.000000  1.0  2.131
  Eu  Eu5  1  0.666667  0.657610  0.333333  1.0  2.1313
  Eu  Eu6  1  0.333333  0.990950  0.666667  1.0  2.1309
  Eu  Eu7  1  0.675720  0.675720  0.000000  1.0  2.1302
  Eu  Eu8  1  0.342390  0.009050  0.333333  1.0  2.1304
  Eu  Eu9  1  0.009050  0.342390  0.666667  1.0  2.1304
  H  H10  1  0.368310  0.142410  0.298940  1.0  0.071
  H  H11  1  0.368310  0.209670  0.298940  1.0  0.0928
  H  H12  1  0.265860  0.287020  0.170530  1.0  0.107
  H  H13  1  0.146770  0.303870  0.097920  1.0  0.0768
  H  H14  1  0.081910  0.307350  0.109430  1.0  0.1131
  H  H15  1  0.146860  0.418210  0.292200  1.0  0.0924
  H  H16  1  0.211720  0.414720  0.280700  1.0  0.1051
  H  H17  1  0.034980  0.475740  0.632270  1.0  0.071
  H  H18  1  0.034980  0.543000  0.632270  1.0  0.0928
  H  H19  1  0.932530  0.620350  0.503860  1.0  0.1061
  H  H20  1  0.813440  0.637200  0.431250  1.0  0.0768
  H  H21  1  0.748580  0.640680  0.442760  1.0  0.1131
  H  H22  1  0.813530  0.751540  0.625530  1.0  0.0925
  H  H23  1  0.878390  0.748050  0.614030  1.0  0.1005
  H  H24  1  0.701640  0.809080  0.965610  1.0  0.071
  H  H25  1  0.701640  0.876340  0.965610  1.0  0.0923
  H  H26  1  0.599190  0.953690  0.837200  1.0  0.107
  H  H27  1  0.480100  0.970540  0.764590  1.0  0.0768
  H  H28  1  0.415240  0.974020  0.776100  1.0  0.1131
  H  H29  1  0.480190  0.084880  0.958870  1.0  0.0924
  H  H30  1  0.545050  0.081390  0.947370  1.0  0.1051
  H  H31  1  0.857590  0.225900  0.298940  1.0  0.0686
  H  H32  1  0.790330  0.158640  0.298940  1.0  0.0924
  H  H33  1  0.712980  0.978840  0.170530  1.0  0.1049
  H  H34  1  0.696130  0.842900  0.097920  1.0  0.0766
  H  H35  1  0.692650  0.774560  0.109430  1.0  0.1139
  H  H36  1  0.581790  0.728650  0.292200  1.0  0.0925
  H  H37  1  0.585280  0.797000  0.280700  1.0  0.1024
  H  H38  1  0.524260  0.559230  0.632270  1.0  0.0686
  H  H39  1  0.457000  0.491970  0.632270  1.0  0.0924
  H  H40  1  0.379650  0.312170  0.503860  1.0  0.1057
  H  H41  1  0.362800  0.176230  0.431250  1.0  0.0766
  H  H42  1  0.359320  0.107890  0.442760  1.0  0.1139
  H  H43  1  0.248460  0.061980  0.625530  1.0  0.0923
  H  H44  1  0.251950  0.130330  0.614030  1.0  0.0999
  H  H45  1  0.190920  0.892570  0.965610  1.0  0.0686
  H  H46  1  0.123660  0.825310  0.965610  1.0  0.0933
  H  H47  1  0.046310  0.645510  0.837200  1.0  0.1049
  H  H48  1  0.029460  0.509570  0.764590  1.0  0.0766
  H  H49  1  0.025980  0.441230  0.776100  1.0  0.1139
  H  H50  1  0.915120  0.395320  0.958870  1.0  0.0926
  H  H51  1  0.918610  0.463670  0.947370  1.0  0.1024
  H  H52  1  0.774100  0.631690  0.298940  1.0  0.0707
  H  H53  1  0.841360  0.631690  0.298940  1.0  0.0937
  H  H54  1  0.021160  0.734140  0.170530  1.0  0.1062
  H  H55  1  0.157100  0.853230  0.097920  1.0  0.0777
  H  H56  1  0.225440  0.918090  0.109430  1.0  0.1133
  H  H57  1  0.271350  0.853140  0.292200  1.0  0.0913
  H  H58  1  0.203000  0.788280  0.280700  1.0  0.1004
  H  H59  1  0.440770  0.965020  0.632270  1.0  0.0707
  H  H60  1  0.508030  0.965020  0.632270  1.0  0.0937
  H  H61  1  0.687830  0.067470  0.503860  1.0  0.1053
  H  H62  1  0.823770  0.186560  0.431250  1.0  0.0777
  H  H63  1  0.892110  0.251420  0.442760  1.0  0.1133
  H  H64  1  0.938020  0.186470  0.625530  1.0  0.0911
  H  H65  1  0.869670  0.121610  0.614030  1.0  0.0992
  H  H66  1  0.107430  0.298360  0.965610  1.0  0.0707
  H  H67  1  0.174690  0.298360  0.965610  1.0  0.093
  H  H68  1  0.354490  0.400810  0.837200  1.0  0.1062
  H  H69  1  0.490430  0.519900  0.764590  1.0  0.0777
  H  H70  1  0.558770  0.584760  0.776100  1.0  0.1133
  H  H71  1  0.604680  0.519810  0.958870  1.0  0.0913
  H  H72  1  0.536330  0.454950  0.947370  1.0  0.1004
  H  H73  1  0.142410  0.368310  0.701060  1.0  0.0695
  H  H74  1  0.209670  0.368310  0.701060  1.0  0.0931
  H  H75  1  0.287020  0.265860  0.829470  1.0  0.106
  H  H76  1  0.303870  0.146770  0.902080  1.0  0.0774
  H  H77  1  0.307350  0.081910  0.890570  1.0  0.1131
  H  H78  1  0.418210  0.146860  0.707800  1.0  0.0918
  H  H79  1  0.414720  0.211720  0.719300  1.0  0.1053
  H  H80  1  0.809080  0.701640  0.034390  1.0  0.0695
  H  H81  1  0.876340  0.701640  0.034390  1.0  0.0928
  H  H82  1  0.953690  0.599190  0.162800  1.0  0.106
  H  H83  1  0.970540  0.480100  0.235410  1.0  0.0774
  H  H84  1  0.974020  0.415240  0.223900  1.0  0.1131
  H  H85  1  0.084880  0.480190  0.041130  1.0  0.0918
  H  H86  1  0.081390  0.545050  0.052630  1.0  0.1053
  H  H87  1  0.475740  0.034980  0.367730  1.0  0.0695
  H  H88  1  0.543000  0.034980  0.367730  1.0  0.0931
  H  H89  1  0.620350  0.932530  0.496140  1.0  0.1051
  H  H90  1  0.637200  0.813440  0.568750  1.0  0.0774
  H  H91  1  0.640680  0.748580  0.557240  1.0  0.1131
  H  H92  1  0.751540  0.813530  0.374470  1.0  0.0918
  H  H93  1  0.748050  0.878390  0.385970  1.0  0.1005
  H  H94  1  0.225900  0.857590  0.701060  1.0  0.0696
  H  H95  1  0.158640  0.790330  0.701060  1.0  0.092
  H  H96  1  0.978840  0.712980  0.829470  1.0  0.1059
  H  H97  1  0.842900  0.696130  0.902080  1.0  0.0772
  H  H98  1  0.774560  0.692650  0.890570  1.0  0.1145
  H  H99  1  0.728650  0.581790  0.707800  1.0  0.091
  H  H100  1  0.797000  0.585280  0.719300  1.0  0.1028
  H  H101  1  0.892570  0.190920  0.034390  1.0  0.0696
  H  H102  1  0.825310  0.123660  0.034390  1.0  0.0926
  H  H103  1  0.645510  0.046310  0.162800  1.0  0.106
  H  H104  1  0.509570  0.029460  0.235410  1.0  0.0772
  H  H105  1  0.441230  0.025980  0.223900  1.0  0.1145
  H  H106  1  0.395320  0.915120  0.041130  1.0  0.091
  H  H107  1  0.463670  0.918610  0.052630  1.0  0.1028
  H  H108  1  0.559230  0.524260  0.367730  1.0  0.0695
  H  H109  1  0.491970  0.457000  0.367730  1.0  0.0918
  H  H110  1  0.312170  0.379650  0.496140  1.0  0.1068
  H  H111  1  0.176230  0.362800  0.568750  1.0  0.0772
  H  H112  1  0.107890  0.359320  0.557240  1.0  0.1145
  H  H113  1  0.061980  0.248460  0.374470  1.0  0.0909
  H  H114  1  0.130330  0.251950  0.385970  1.0  0.1001
  H  H115  1  0.631690  0.774100  0.701060  1.0  0.0685
  H  H116  1  0.631690  0.841360  0.701060  1.0  0.0926
  H  H117  1  0.734140  0.021160  0.829470  1.0  0.1057
  H  H118  1  0.853230  0.157100  0.902080  1.0  0.076
  H  H119  1  0.918090  0.225440  0.890570  1.0  0.1143
  H  H120  1  0.853140  0.271350  0.707800  1.0  0.0929
  H  H121  1  0.788280  0.203000  0.719300  1.0  0.1
  H  H122  1  0.298360  0.107430  0.034390  1.0  0.0685
  H  H123  1  0.298360  0.174690  0.034390  1.0  0.0922
  H  H124  1  0.400810  0.354490  0.162800  1.0  0.1057
  H  H125  1  0.519900  0.490430  0.235410  1.0  0.076
  H  H126  1  0.584760  0.558770  0.223900  1.0  0.1143
  H  H127  1  0.519810  0.604680  0.041130  1.0  0.0928
  H  H128  1  0.454950  0.536330  0.052630  1.0  0.1
  H  H129  1  0.965020  0.440770  0.367730  1.0  0.0678
  H  H130  1  0.965020  0.508030  0.367730  1.0  0.0926
  H  H131  1  0.067470  0.687830  0.496140  1.0  0.1047
  H  H132  1  0.186560  0.823770  0.568750  1.0  0.076
  H  H133  1  0.251420  0.892110  0.557240  1.0  0.1143
  H  H134  1  0.186470  0.938020  0.374470  1.0  0.0926
  H  H135  1  0.121610  0.869670  0.385970  1.0  0.0989
  H  H136  1  0.333333  0.419540  0.166670  1.0  0.0987
  H  H137  1  0.000000  0.752880  0.500000  1.0  0.0987
  H  H138  1  0.580460  0.913790  0.166670  1.0  0.099
  H  H139  1  0.247120  0.247120  0.500000  1.0  0.0991
  H  H140  1  0.086210  0.666667  0.166670  1.0  0.0988
  H  H141  1  0.752880  0.000000  0.500000  1.0  0.0987
  H  H142  1  0.419540  0.333333  0.833330  1.0  0.0987
  H  H143  1  0.913790  0.580460  0.833330  1.0  0.099
  H  H144  1  0.666667  0.086210  0.833330  1.0  0.0986
  C  C145  1  0.353550  0.150540  0.243130  1.0  -0.1598
  C  C146  1  0.353550  0.189420  0.243130  1.0  -0.1535
  C  C147  1  0.294330  0.314790  0.168900  1.0  -0.1358
  C  C148  1  0.294330  0.353110  0.168900  1.0  0.0593
  C  C149  1  0.254370  0.355260  0.175990  1.0  0.1378
  C  C150  1  0.222900  0.356950  0.181570  1.0  0.2439
  C  C151  1  0.183760  0.359050  0.188510  1.0  -0.0254
  C  C152  1  0.146790  0.327990  0.138910  1.0  -0.194
  C  C153  1  0.109300  0.330000  0.145560  1.0  -0.1631
  C  C154  1  0.109870  0.363020  0.201610  1.0  0.0324
  C  C155  1  0.146840  0.394080  0.251210  1.0  -0.1331
  C  C156  1  0.184330  0.392070  0.244560  1.0  -0.1329
  C  C157  1  0.069910  0.365170  0.208700  1.0  0.5287
  C  C158  1  0.020220  0.483870  0.576460  1.0  -0.1598
  C  C159  1  0.020220  0.522750  0.576460  1.0  -0.1531
  C  C160  1  0.961000  0.648120  0.502230  1.0  -0.1369
  C  C161  1  0.961000  0.686440  0.502230  1.0  0.0595
  C  C162  1  0.921040  0.688590  0.509320  1.0  0.1378
  C  C163  1  0.889570  0.690280  0.514900  1.0  0.244
  C  C164  1  0.850430  0.692380  0.521840  1.0  -0.0254
  C  C165  1  0.813460  0.661320  0.472240  1.0  -0.194
  C  C166  1  0.775970  0.663330  0.478890  1.0  -0.1631
  C  C167  1  0.776540  0.696350  0.534940  1.0  0.0324
  C  C168  1  0.813510  0.727410  0.584540  1.0  -0.133
  C  C169  1  0.851000  0.725400  0.577890  1.0  -0.1329
  C  C170  1  0.736580  0.698500  0.542030  1.0  0.5289
  C  C171  1  0.686880  0.817210  0.909800  1.0  -0.1598
  C  C172  1  0.686880  0.856090  0.909800  1.0  -0.1535
  C  C173  1  0.627660  0.981460  0.835570  1.0  -0.1358
  C  C174  1  0.627660  0.019780  0.835570  1.0  0.0588
  C  C175  1  0.587700  0.021930  0.842660  1.0  0.1378
  C  C176  1  0.556230  0.023620  0.848240  1.0  0.2439
  C  C177  1  0.517090  0.025720  0.855180  1.0  -0.0254
  C  C178  1  0.480120  0.994660  0.805580  1.0  -0.194
  C  C179  1  0.442630  0.996670  0.812230  1.0  -0.1628
  C  C180  1  0.443200  0.029690  0.868280  1.0  0.0323
  C  C181  1  0.480170  0.060750  0.917880  1.0  -0.1334
  C  C182  1  0.517660  0.058740  0.911230  1.0  -0.1329
  C  C183  1  0.403240  0.031840  0.875370  1.0  0.5286
  C  C184  1  0.849460  0.203010  0.243130  1.0  -0.1587
  C  C185  1  0.810580  0.164130  0.243130  1.0  -0.151
  C  C186  1  0.685210  0.979540  0.168900  1.0  -0.1341
  C  C187  1  0.646890  0.941220  0.168900  1.0  0.0605
  C  C188  1  0.644740  0.899110  0.175990  1.0  0.142
  C  C189  1  0.643050  0.865950  0.181570  1.0  0.2406
  C  C190  1  0.640950  0.824710  0.188510  1.0  -0.0242
  C  C191  1  0.672010  0.818800  0.138910  1.0  -0.1947
  C  C192  1  0.670000  0.779300  0.145560  1.0  -0.1624
  C  C193  1  0.636980  0.746850  0.201610  1.0  0.0303
  C  C194  1  0.605920  0.752760  0.251210  1.0  -0.1294
  C  C195  1  0.607930  0.792260  0.244560  1.0  -0.1309
  C  C196  1  0.634830  0.704740  0.208700  1.0  0.5273
  C  C197  1  0.516130  0.536340  0.576460  1.0  -0.1586
  C  C198  1  0.477250  0.497460  0.576460  1.0  -0.1506
  C  C199  1  0.351880  0.312870  0.502230  1.0  -0.1354
  C  C200  1  0.313560  0.274550  0.502230  1.0  0.06
  C  C201  1  0.311410  0.232440  0.509320  1.0  0.142
  C  C202  1  0.309720  0.199280  0.514900  1.0  0.2405
  C  C203  1  0.307620  0.158040  0.521840  1.0  -0.0242
  C  C204  1  0.338680  0.152130  0.472240  1.0  -0.1947
  C  C205  1  0.336670  0.112630  0.478890  1.0  -0.1624
  C  C206  1  0.303650  0.080180  0.534940  1.0  0.0303
  C  C207  1  0.272590  0.086090  0.584540  1.0  -0.1294
  C  C208  1  0.274600  0.125590  0.577890  1.0  -0.1309
  C  C209  1  0.301500  0.038070  0.542030  1.0  0.5272
  C  C210  1  0.182790  0.869680  0.909800  1.0  -0.1588
  C  C211  1  0.143910  0.830800  0.909800  1.0  -0.1508
  C  C212  1  0.018540  0.646210  0.835570  1.0  -0.1353
  C  C213  1  0.980220  0.607890  0.835570  1.0  0.0605
  C  C214  1  0.978070  0.565780  0.842660  1.0  0.142
  C  C215  1  0.976380  0.532620  0.848240  1.0  0.2405
  C  C216  1  0.974280  0.491380  0.855180  1.0  -0.0242
  C  C217  1  0.005340  0.485470  0.805580  1.0  -0.1947
  C  C218  1  0.003330  0.445970  0.812230  1.0  -0.1623
  C  C219  1  0.970310  0.413520  0.868280  1.0  0.0304
  C  C220  1  0.939250  0.419430  0.917880  1.0  -0.1294
  C  C221  1  0.941260  0.458930  0.911230  1.0  -0.131
  C  C222  1  0.968160  0.371410  0.875370  1.0  0.527
  C  C223  1  0.796990  0.646450  0.243130  1.0  -0.1564
  C  C224  1  0.835870  0.646450  0.243130  1.0  -0.1524
  C  C225  1  0.020460  0.705670  0.168900  1.0  -0.1361
  C  C226  1  0.058780  0.705670  0.168900  1.0  0.0586
  C  C227  1  0.100890  0.745630  0.175990  1.0  0.1408
  C  C228  1  0.134050  0.777100  0.181570  1.0  0.2407
  C  C229  1  0.175290  0.816240  0.188510  1.0  -0.024
  C  C230  1  0.181200  0.853210  0.138910  1.0  -0.1983
  C  C231  1  0.220700  0.890700  0.145560  1.0  -0.161
  C  C232  1  0.253150  0.890130  0.201610  1.0  0.0297
  C  C233  1  0.247240  0.853160  0.251210  1.0  -0.1282
  C  C234  1  0.207740  0.815670  0.244560  1.0  -0.1341
  C  C235  1  0.295260  0.930090  0.208700  1.0  0.5285
  C  C236  1  0.463660  0.979780  0.576460  1.0  -0.1566
  C  C237  1  0.502540  0.979780  0.576460  1.0  -0.1527
  C  C238  1  0.687130  0.039000  0.502230  1.0  -0.1348
  C  C239  1  0.725450  0.039000  0.502230  1.0  0.0588
  C  C240  1  0.767560  0.078960  0.509320  1.0  0.1408
  C  C241  1  0.800720  0.110430  0.514900  1.0  0.2407
  C  C242  1  0.841960  0.149570  0.521840  1.0  -0.024
  C  C243  1  0.847870  0.186540  0.472240  1.0  -0.1983
  C  C244  1  0.887370  0.224030  0.478890  1.0  -0.161
  C  C245  1  0.919820  0.223460  0.534940  1.0  0.0297
  C  C246  1  0.913910  0.186490  0.584540  1.0  -0.1282
  C  C247  1  0.874410  0.149000  0.577890  1.0  -0.1341
  C  C248  1  0.961930  0.263420  0.542030  1.0  0.5285
  C  C249  1  0.130320  0.313120  0.909800  1.0  -0.1566
  C  C250  1  0.169200  0.313120  0.909800  1.0  -0.1526
  C  C251  1  0.353790  0.372340  0.835570  1.0  -0.1361
  C  C252  1  0.392110  0.372340  0.835570  1.0  0.0582
  C  C253  1  0.434220  0.412300  0.842660  1.0  0.1408
  C  C254  1  0.467380  0.443770  0.848240  1.0  0.2408
  C  C255  1  0.508620  0.482910  0.855180  1.0  -0.024
  C  C256  1  0.514530  0.519880  0.805580  1.0  -0.1983
  C  C257  1  0.554030  0.557370  0.812230  1.0  -0.1609
  C  C258  1  0.586480  0.556800  0.868280  1.0  0.0294
  C  C259  1  0.580570  0.519830  0.917880  1.0  -0.1283
  C  C260  1  0.541070  0.482340  0.911230  1.0  -0.1342
  C  C261  1  0.628590  0.596760  0.875370  1.0  0.5285
  C  C262  1  0.150540  0.353550  0.756870  1.0  -0.1574
  C  C263  1  0.189420  0.353550  0.756870  1.0  -0.1492
  C  C264  1  0.314790  0.294330  0.831100  1.0  -0.1379
  C  C265  1  0.353110  0.294330  0.831100  1.0  0.059
  C  C266  1  0.355260  0.254370  0.824010  1.0  0.1423
  C  C267  1  0.356950  0.222900  0.818430  1.0  0.2398
  C  C268  1  0.359050  0.183760  0.811490  1.0  -0.0229
  C  C269  1  0.327990  0.146790  0.861090  1.0  -0.1982
  C  C270  1  0.330000  0.109300  0.854440  1.0  -0.1639
  C  C271  1  0.363020  0.109870  0.798390  1.0  0.0299
  C  C272  1  0.394080  0.146840  0.748790  1.0  -0.1288
  C  C273  1  0.392070  0.184330  0.755440  1.0  -0.1337
  C  C274  1  0.365170  0.069910  0.791300  1.0  0.5278
  C  C275  1  0.817210  0.686880  0.090200  1.0  -0.1575
  C  C276  1  0.856090  0.686880  0.090200  1.0  -0.1493
  C  C277  1  0.981460  0.627660  0.164430  1.0  -0.1379
  C  C278  1  0.019780  0.627660  0.164430  1.0  0.0584
  C  C279  1  0.021930  0.587700  0.157340  1.0  0.1423
  C  C280  1  0.023620  0.556230  0.151760  1.0  0.2398
  C  C281  1  0.025720  0.517090  0.144820  1.0  -0.0229
  C  C282  1  0.994660  0.480120  0.194420  1.0  -0.1982
  C  C283  1  0.996670  0.442630  0.187770  1.0  -0.1636
  C  C284  1  0.029690  0.443200  0.131720  1.0  0.0297
  C  C285  1  0.060750  0.480170  0.082120  1.0  -0.1291
  C  C286  1  0.058740  0.517660  0.088770  1.0  -0.1337
  C  C287  1  0.031840  0.403240  0.124630  1.0  0.5277
  C  C288  1  0.483870  0.020220  0.423540  1.0  -0.1573
  C  C289  1  0.522750  0.020220  0.423540  1.0  -0.1495
  C  C290  1  0.648120  0.961000  0.497770  1.0  -0.1367
  C  C291  1  0.686440  0.961000  0.497770  1.0  0.0592
  C  C292  1  0.688590  0.921040  0.490680  1.0  0.1423
  C  C293  1  0.690280  0.889570  0.485100  1.0  0.2399
  C  C294  1  0.692380  0.850430  0.478160  1.0  -0.0229
  C  C295  1  0.661320  0.813460  0.527760  1.0  -0.1982
  C  C296  1  0.663330  0.775970  0.521110  1.0  -0.1639
  C  C297  1  0.696350  0.776540  0.465060  1.0  0.0299
  C  C298  1  0.727410  0.813510  0.415460  1.0  -0.1287
  C  C299  1  0.725400  0.851000  0.422110  1.0  -0.1337
  C  C300  1  0.698500  0.736580  0.457970  1.0  0.528
  C  C301  1  0.203010  0.849460  0.756870  1.0  -0.1588
  C  C302  1  0.164130  0.810580  0.756870  1.0  -0.1542
  C  C303  1  0.979540  0.685210  0.831100  1.0  -0.1349
  C  C304  1  0.941220  0.646890  0.831100  1.0  0.0594
  C  C305  1  0.899110  0.644740  0.824010  1.0  0.1384
  C  C306  1  0.865950  0.643050  0.818430  1.0  0.244
  C  C307  1  0.824710  0.640950  0.811490  1.0  -0.0256
  C  C308  1  0.818800  0.672010  0.861090  1.0  -0.1936
  C  C309  1  0.779300  0.670000  0.854440  1.0  -0.1637
  C  C310  1  0.746850  0.636980  0.798390  1.0  0.0324
  C  C311  1  0.752760  0.605920  0.748790  1.0  -0.1325
  C  C312  1  0.792260  0.607930  0.755440  1.0  -0.133
  C  C313  1  0.704740  0.634830  0.791300  1.0  0.5287
  C  C314  1  0.869680  0.182790  0.090200  1.0  -0.1589
  C  C315  1  0.830800  0.143910  0.090200  1.0  -0.154
  C  C316  1  0.646210  0.018540  0.164430  1.0  -0.1337
  C  C317  1  0.607890  0.980220  0.164430  1.0  0.0593
  C  C318  1  0.565780  0.978070  0.157340  1.0  0.1384
  C  C319  1  0.532620  0.976380  0.151760  1.0  0.2439
  C  C320  1  0.491380  0.974280  0.144820  1.0  -0.0255
  C  C321  1  0.485470  0.005340  0.194420  1.0  -0.1935
  C  C322  1  0.445970  0.003330  0.187770  1.0  -0.1637
  C  C323  1  0.413520  0.970310  0.131720  1.0  0.0325
  C  C324  1  0.419430  0.939250  0.082120  1.0  -0.1325
  C  C325  1  0.458930  0.941260  0.088770  1.0  -0.1331
  C  C326  1  0.371410  0.968160  0.124630  1.0  0.5284
  C  C327  1  0.536340  0.516130  0.423540  1.0  -0.1587
  C  C328  1  0.497460  0.477250  0.423540  1.0  -0.1544
  C  C329  1  0.312870  0.351880  0.497770  1.0  -0.1337
  C  C330  1  0.274550  0.313560  0.497770  1.0  0.0588
  C  C331  1  0.232440  0.311410  0.490680  1.0  0.1384
  C  C332  1  0.199280  0.309720  0.485100  1.0  0.2438
  C  C333  1  0.158040  0.307620  0.478160  1.0  -0.0256
  C  C334  1  0.152130  0.338680  0.527760  1.0  -0.1936
  C  C335  1  0.112630  0.336670  0.521110  1.0  -0.1637
  C  C336  1  0.080180  0.303650  0.465060  1.0  0.0324
  C  C337  1  0.086090  0.272590  0.415460  1.0  -0.1326
  C  C338  1  0.125590  0.274600  0.422110  1.0  -0.133
  C  C339  1  0.038070  0.301500  0.457970  1.0  0.5286
  C  C340  1  0.646450  0.796990  0.756870  1.0  -0.1575
  C  C341  1  0.646450  0.835870  0.756870  1.0  -0.1503
  C  C342  1  0.705670  0.020460  0.831100  1.0  -0.1341
  C  C343  1  0.705670  0.058780  0.831100  1.0  0.0605
  C  C344  1  0.745630  0.100890  0.824010  1.0  0.1408
  C  C345  1  0.777100  0.134050  0.818430  1.0  0.2408
  C  C346  1  0.816240  0.175290  0.811490  1.0  -0.0248
  C  C347  1  0.853210  0.181200  0.861090  1.0  -0.1952
  C  C348  1  0.890700  0.220700  0.854440  1.0  -0.1639
  C  C349  1  0.890130  0.253150  0.798390  1.0  0.0315
  C  C350  1  0.853160  0.247240  0.748790  1.0  -0.128
  C  C351  1  0.815670  0.207740  0.755440  1.0  -0.1289
  C  C352  1  0.930090  0.295260  0.791300  1.0  0.5265
  C  C353  1  0.313120  0.130320  0.090200  1.0  -0.1577
  C  C354  1  0.313120  0.169200  0.090200  1.0  -0.1504
  C  C355  1  0.372340  0.353790  0.164430  1.0  -0.134
  C  C356  1  0.372340  0.392110  0.164430  1.0  0.06
  C  C357  1  0.412300  0.434220  0.157340  1.0  0.1408
  C  C358  1  0.443770  0.467380  0.151760  1.0  0.2409
  C  C359  1  0.482910  0.508620  0.144820  1.0  -0.0248
  C  C360  1  0.519880  0.514530  0.194420  1.0  -0.1951
  C  C361  1  0.557370  0.554030  0.187770  1.0  -0.1638
  C  C362  1  0.556800  0.586480  0.131720  1.0  0.0312
  C  C363  1  0.519830  0.580570  0.082120  1.0  -0.1281
  C  C364  1  0.482340  0.541070  0.088770  1.0  -0.1289
  C  C365  1  0.596760  0.628590  0.124630  1.0  0.5265
  C  C366  1  0.979780  0.463660  0.423540  1.0  -0.1578
  C  C367  1  0.979780  0.502540  0.423540  1.0  -0.1498
  C  C368  1  0.039000  0.687130  0.497770  1.0  -0.1353
  C  C369  1  0.039000  0.725450  0.497770  1.0  0.0607
  C  C370  1  0.078960  0.767560  0.490680  1.0  0.1408
  C  C371  1  0.110430  0.800720  0.485100  1.0  0.2408
  C  C372  1  0.149570  0.841960  0.478160  1.0  -0.0248
  C  C373  1  0.186540  0.847870  0.527760  1.0  -0.1952
  C  C374  1  0.224030  0.887370  0.521110  1.0  -0.1639
  C  C375  1  0.223460  0.919820  0.465060  1.0  0.0315
  C  C376  1  0.186490  0.913910  0.415460  1.0  -0.128
  C  C377  1  0.149000  0.874410  0.422110  1.0  -0.1289
  C  C378  1  0.263420  0.961930  0.457970  1.0  0.5265
  C  C379  1  0.333333  0.081340  0.166670  1.0  0.709
  C  C380  1  0.333333  0.123060  0.166670  1.0  -0.0627
  C  C381  1  0.333333  0.200290  0.166670  1.0  -0.0457
  C  C382  1  0.333333  0.240670  0.166670  1.0  0.0556
  C  C383  1  0.333333  0.273590  0.166670  1.0  0.0581
  C  C384  1  0.333333  0.313960  0.166670  1.0  -0.0084
  C  C385  1  0.333333  0.391160  0.166670  1.0  -0.072
  C  C386  1  0.000000  0.414680  0.500000  1.0  0.7092
  C  C387  1  0.000000  0.456390  0.500000  1.0  -0.0629
  C  C388  1  0.000000  0.533630  0.500000  1.0  -0.0435
  C  C389  1  0.000000  0.574000  0.500000  1.0  0.0555
  C  C390  1  0.000000  0.606930  0.500000  1.0  0.0582
  C  C391  1  0.000000  0.647300  0.500000  1.0  -0.0069
  C  C392  1  0.000000  0.724500  0.500000  1.0  -0.072
  C  C393  1  0.918660  0.251990  0.166670  1.0  0.7096
  C  C394  1  0.876940  0.210270  0.166670  1.0  -0.0645
  C  C395  1  0.799710  0.133040  0.166670  1.0  -0.0465
  C  C396  1  0.759330  0.092660  0.166670  1.0  0.0567
  C  C397  1  0.726410  0.059740  0.166670  1.0  0.057
  C  C398  1  0.686040  0.019370  0.166670  1.0  -0.0064
  C  C399  1  0.608840  0.942170  0.166670  1.0  -0.0712
  C  C400  1  0.585320  0.585320  0.500000  1.0  0.7096
  C  C401  1  0.543600  0.543600  0.500000  1.0  -0.0624
  C  C402  1  0.466370  0.466370  0.500000  1.0  -0.0458
  C  C403  1  0.425990  0.425990  0.500000  1.0  0.0567
  C  C404  1  0.393070  0.393070  0.500000  1.0  0.0576
  C  C405  1  0.352700  0.352700  0.500000  1.0  -0.0073
  C  C406  1  0.275500  0.275500  0.500000  1.0  -0.0712
  C  C407  1  0.748010  0.666667  0.166670  1.0  0.7114
  C  C408  1  0.789730  0.666667  0.166670  1.0  -0.0651
  C  C409  1  0.866960  0.666667  0.166670  1.0  -0.049
  C  C410  1  0.907340  0.666667  0.166670  1.0  0.0571
  C  C411  1  0.940260  0.666667  0.166670  1.0  0.0609
  C  C412  1  0.980630  0.666667  0.166670  1.0  -0.0102
  C  C413  1  0.057830  0.666667  0.166670  1.0  -0.0683
  C  C414  1  0.414680  0.000000  0.500000  1.0  0.7114
  C  C415  1  0.456400  0.000000  0.500000  1.0  -0.0651
  C  C416  1  0.533630  0.000000  0.500000  1.0  -0.0486
  C  C417  1  0.574000  0.000000  0.500000  1.0  0.0571
  C  C418  1  0.606930  0.000000  0.500000  1.0  0.0609
  C  C419  1  0.647300  0.000000  0.500000  1.0  -0.009
  C  C420  1  0.724500  0.000000  0.500000  1.0  -0.0682
  C  C421  1  0.081340  0.333333  0.833330  1.0  0.7108
  C  C422  1  0.123060  0.333333  0.833330  1.0  -0.0651
  C  C423  1  0.200290  0.333333  0.833330  1.0  -0.0506
  C  C424  1  0.240670  0.333333  0.833330  1.0  0.0571
  C  C425  1  0.273590  0.333333  0.833330  1.0  0.0609
  C  C426  1  0.313960  0.333333  0.833330  1.0  -0.0104
  C  C427  1  0.391160  0.333333  0.833330  1.0  -0.0681
  C  C428  1  0.251990  0.918660  0.833330  1.0  0.7096
  C  C429  1  0.210270  0.876940  0.833330  1.0  -0.0645
  C  C430  1  0.133040  0.799710  0.833330  1.0  -0.0465
  C  C431  1  0.092660  0.759330  0.833330  1.0  0.0567
  C  C432  1  0.059740  0.726410  0.833330  1.0  0.057
  C  C433  1  0.019370  0.686040  0.833330  1.0  -0.0063
  C  C434  1  0.942170  0.608840  0.833330  1.0  -0.0712
  C  C435  1  0.666667  0.748010  0.833330  1.0  0.7096
  C  C436  1  0.666667  0.789730  0.833330  1.0  -0.063
  C  C437  1  0.666667  0.866960  0.833330  1.0  -0.044
  C  C438  1  0.666667  0.907340  0.833330  1.0  0.0556
  C  C439  1  0.666667  0.940260  0.833330  1.0  0.0582
  C  C440  1  0.666667  0.980630  0.833330  1.0  -0.0081
  C  C441  1  0.666667  0.057830  0.833330  1.0  -0.072
  O  O442  1  0.313020  0.053910  0.100000  1.0  -0.637
  O  O443  1  0.043380  0.329770  0.165090  1.0  -0.7177
  O  O444  1  0.066740  0.384440  0.279370  1.0  -0.6414
  O  O445  1  0.979690  0.387240  0.433330  1.0  -0.6379
  O  O446  1  0.710050  0.663100  0.498420  1.0  -0.7177
  O  O447  1  0.733410  0.717770  0.612700  1.0  -0.6414
  O  O448  1  0.646350  0.720580  0.766670  1.0  -0.6373
  O  O449  1  0.376710  0.996440  0.831760  1.0  -0.7177
  O  O450  1  0.400070  0.051110  0.946040  1.0  -0.6407
  O  O451  1  0.946090  0.259110  0.100000  1.0  -0.6364
  O  O452  1  0.670230  0.713610  0.165090  1.0  -0.7148
  O  O453  1  0.615560  0.682300  0.279370  1.0  -0.6436
  O  O454  1  0.612760  0.592440  0.433330  1.0  -0.6371
  O  O455  1  0.336900  0.046940  0.498420  1.0  -0.7148
  O  O456  1  0.282230  0.015630  0.612700  1.0  -0.6436
  O  O457  1  0.279420  0.925780  0.766670  1.0  -0.6361
  O  O458  1  0.003560  0.380280  0.831760  1.0  -0.7148
  O  O459  1  0.948890  0.348970  0.946040  1.0  -0.6439
  O  O460  1  0.740890  0.686980  0.100000  1.0  -0.6342
  O  O461  1  0.286390  0.956620  0.165090  1.0  -0.7166
  O  O462  1  0.317700  0.933260  0.279370  1.0  -0.6415
  O  O463  1  0.407560  0.020310  0.433330  1.0  -0.6334
  O  O464  1  0.953060  0.289950  0.498420  1.0  -0.7166
  O  O465  1  0.984370  0.266590  0.612700  1.0  -0.6415
  O  O466  1  0.074220  0.353650  0.766670  1.0  -0.6339
  O  O467  1  0.619720  0.623290  0.831760  1.0  -0.7166
  O  O468  1  0.651030  0.599930  0.946040  1.0  -0.6408
  O  O469  1  0.053910  0.313020  0.900000  1.0  -0.6352
  O  O470  1  0.329770  0.043380  0.834910  1.0  -0.7169
  O  O471  1  0.384440  0.066740  0.720630  1.0  -0.6415
  O  O472  1  0.720580  0.646350  0.233330  1.0  -0.6355
  O  O473  1  0.996440  0.376710  0.168240  1.0  -0.7169
  O  O474  1  0.051110  0.400070  0.053960  1.0  -0.6408
  O  O475  1  0.387240  0.979690  0.566670  1.0  -0.636
  O  O476  1  0.663100  0.710050  0.501580  1.0  -0.7169
  O  O477  1  0.717770  0.733410  0.387300  1.0  -0.6415
  O  O478  1  0.259110  0.946090  0.900000  1.0  -0.6383
  O  O479  1  0.713610  0.670230  0.834910  1.0  -0.7169
  O  O480  1  0.682300  0.615560  0.720630  1.0  -0.6407
  O  O481  1  0.925780  0.279420  0.233330  1.0  -0.6381
  O  O482  1  0.380280  0.003560  0.168240  1.0  -0.7169
  O  O483  1  0.348970  0.948890  0.053960  1.0  -0.6411
  O  O484  1  0.592440  0.612760  0.566670  1.0  -0.6391
  O  O485  1  0.046940  0.336900  0.501580  1.0  -0.7169
  O  O486  1  0.015630  0.282230  0.387300  1.0  -0.6407
  O  O487  1  0.686980  0.740890  0.900000  1.0  -0.6379
  O  O488  1  0.956620  0.286390  0.834910  1.0  -0.7151
  O  O489  1  0.933260  0.317700  0.720630  1.0  -0.6443
  O  O490  1  0.353650  0.074220  0.233330  1.0  -0.6377
  O  O491  1  0.623290  0.619720  0.168240  1.0  -0.7151
  O  O492  1  0.599930  0.651030  0.053960  1.0  -0.6435
  O  O493  1  0.020310  0.407560  0.566670  1.0  -0.6371
  O  O494  1  0.289950  0.953060  0.501580  1.0  -0.7151
  O  O495  1  0.266590  0.984370  0.387300  1.0  -0.6443
