# generated using pymatgen
data_Mn3Mo12P8(HO26)2
_symmetry_space_group_name_H-M   'P 1'
_cell_length_a   16.21110000
_cell_length_b   11.86830000
_cell_length_c   17.99230000
_cell_angle_alpha   90.00000000
_cell_angle_beta   103.70000000
_cell_angle_gamma   90.00000000
_symmetry_Int_Tables_number   1
_chemical_formula_structural   Mn3Mo12P8(HO26)2
_chemical_formula_sum   'Mn6 Mo24 P16 H4 O104'
_cell_volume   3363.19808437
_cell_formula_units_Z   2
loop_
 _symmetry_equiv_pos_site_id
 _symmetry_equiv_pos_as_xyz
  1  'x, y, z'
loop_
 _atom_site_type_symbol
 _atom_site_label
 _atom_site_symmetry_multiplicity
 _atom_site_fract_x
 _atom_site_fract_y
 _atom_site_fract_z
 _atom_site_occupancy
 _atom_site_charge
  Mn  Mn1  1  0.376070  0.502080  0.865740  1.0  1.2348
  Mn  Mn2  1  0.123930  0.002080  0.634260  1.0  1.2348
  Mn  Mn3  1  0.623930  0.497920  0.134260  1.0  1.2346
  Mn  Mn4  1  0.876070  0.997920  0.365740  1.0  1.2349
  Mn  Mn5  1  0.000000  0.500000  0.000000  1.0  1.0419
  Mn  Mn6  1  0.500000  0.000000  0.500000  1.0  1.0419
  Mo  Mo7  1  0.216900  0.641270  0.067440  1.0  1.3193
  Mo  Mo8  1  0.215930  0.347980  0.037110  1.0  1.3172
  Mo  Mo9  1  0.117680  0.767080  0.966760  1.0  1.3129
  Mo  Mo10  1  0.979550  0.645770  0.804950  1.0  1.2888
  Mo  Mo11  1  0.976460  0.429190  0.786920  1.0  1.2875
  Mo  Mo12  1  0.111240  0.255420  0.921950  1.0  1.2967
  Mo  Mo13  1  0.283100  0.141270  0.432560  1.0  1.319
  Mo  Mo14  1  0.284070  0.847980  0.462890  1.0  1.3162
  Mo  Mo15  1  0.382320  0.267080  0.533240  1.0  1.3115
  Mo  Mo16  1  0.520450  0.145770  0.695050  1.0  1.2847
  Mo  Mo17  1  0.523540  0.929190  0.713080  1.0  1.2845
  Mo  Mo18  1  0.388760  0.755420  0.578050  1.0  1.2963
  Mo  Mo19  1  0.783100  0.358730  0.932560  1.0  1.3187
  Mo  Mo20  1  0.784070  0.652020  0.962890  1.0  1.3185
  Mo  Mo21  1  0.882320  0.232920  0.033240  1.0  1.3129
  Mo  Mo22  1  0.020450  0.354230  0.195050  1.0  1.2842
  Mo  Mo23  1  0.023540  0.570810  0.213080  1.0  1.2838
  Mo  Mo24  1  0.888760  0.744580  0.078050  1.0  1.2948
  Mo  Mo25  1  0.716900  0.858730  0.567440  1.0  1.3156
  Mo  Mo26  1  0.715930  0.152020  0.537110  1.0  1.3208
  Mo  Mo27  1  0.617680  0.732920  0.466760  1.0  1.3126
  Mo  Mo28  1  0.479550  0.854230  0.304950  1.0  1.2889
  Mo  Mo29  1  0.476460  0.070810  0.286920  1.0  1.2874
  Mo  Mo30  1  0.611240  0.244580  0.421950  1.0  1.2947
  P  P31  1  0.061370  0.200960  0.737500  1.0  1.8277
  P  P32  1  0.172690  0.524500  0.886010  1.0  1.8641
  P  P33  1  0.123280  0.836890  0.790120  1.0  1.8076
  P  P34  1  0.389270  0.507640  0.058420  1.0  1.7221
  P  P35  1  0.438630  0.700960  0.762500  1.0  1.8286
  P  P36  1  0.327310  0.024500  0.613990  1.0  1.8642
  P  P37  1  0.376720  0.336890  0.709880  1.0  1.8073
  P  P38  1  0.110730  0.007640  0.441580  1.0  1.7231
  P  P39  1  0.938630  0.799040  0.262500  1.0  1.8288
  P  P40  1  0.827310  0.475500  0.113990  1.0  1.8641
  P  P41  1  0.876720  0.163110  0.209880  1.0  1.8079
  P  P42  1  0.610730  0.492360  0.941580  1.0  1.723
  P  P43  1  0.561370  0.299040  0.237500  1.0  1.8276
  P  P44  1  0.672690  0.975500  0.386010  1.0  1.8641
  P  P45  1  0.623280  0.663110  0.290120  1.0  1.8078
  P  P46  1  0.889270  0.992360  0.558420  1.0  1.7221
  H  H47  1  0.426800  0.297200  0.911700  1.0  0.5787
  H  H48  1  0.073200  0.797200  0.588300  1.0  0.5789
  H  H49  1  0.573200  0.702800  0.088300  1.0  0.5804
  H  H50  1  0.926800  0.202800  0.411700  1.0  0.5791
  O  O51  1  0.092860  0.634900  0.024120  1.0  -0.7443
  O  O52  1  0.239310  0.745600  0.991740  1.0  -0.62
  O  O53  1  0.091890  0.361200  0.001140  1.0  -0.7277
  O  O54  1  0.234000  0.273700  0.946580  1.0  -0.6115
  O  O55  1  0.029000  0.323600  0.721880  1.0  -0.6786
  O  O56  1  0.114250  0.422900  0.858600  1.0  -0.8347
  O  O57  1  0.205140  0.480500  0.114640  1.0  -0.6077
  O  O58  1  0.122300  0.195900  0.818400  1.0  -0.6594
  O  O59  1  0.343540  0.393500  0.061160  1.0  -0.7168
  O  O60  1  0.017600  0.550000  0.732440  1.0  -0.6135
  O  O61  1  0.211870  0.509500  0.973090  1.0  -0.7711
  O  O62  1  0.134300  0.862300  0.876280  1.0  -0.6711
  O  O63  1  0.964270  0.523600  0.874880  1.0  -0.7306
  O  O64  1  0.038400  0.775000  0.760230  1.0  -0.6826
  O  O65  1  0.341970  0.600400  0.091550  1.0  -0.6848
  O  O66  1  0.991590  0.754500  0.900580  1.0  -0.5481
  O  O67  1  0.130200  0.943500  0.747820  1.0  -0.6858
  O  O68  1  0.115630  0.631300  0.877410  1.0  -0.7564
  O  O69  1  0.986240  0.290400  0.862730  1.0  -0.5762
  O  O70  1  0.240140  0.540500  0.841820  1.0  -0.735
  O  O71  1  0.985300  0.122200  0.734620  1.0  -0.4697
  O  O72  1  0.477290  0.497500  0.117390  1.0  -0.7965
  O  O73  1  0.402300  0.539800  0.981910  1.0  -0.7059
  O  O74  1  0.199900  0.760400  0.780500  1.0  -0.4453
  O  O75  1  0.108700  0.169000  0.677420  1.0  -0.6783
  O  O76  1  0.377600  0.317900  0.894700  1.0  -0.6256
  O  O77  1  0.407140  0.134900  0.475880  1.0  -0.7434
  O  O78  1  0.260690  0.245600  0.508260  1.0  -0.619
  O  O79  1  0.408110  0.861200  0.498860  1.0  -0.7284
  O  O80  1  0.266000  0.773700  0.553420  1.0  -0.6113
  O  O81  1  0.471000  0.823600  0.778120  1.0  -0.6766
  O  O82  1  0.385750  0.922900  0.641400  1.0  -0.8356
  O  O83  1  0.294860  0.980500  0.385360  1.0  -0.6049
  O  O84  1  0.377700  0.695900  0.681600  1.0  -0.6586
  O  O85  1  0.156460  0.893500  0.438840  1.0  -0.717
  O  O86  1  0.482400  0.050000  0.767560  1.0  -0.6113
  O  O87  1  0.288130  0.009500  0.526910  1.0  -0.7702
  O  O88  1  0.365700  0.362300  0.623720  1.0  -0.6728
  O  O89  1  0.535730  0.023600  0.625120  1.0  -0.7335
  O  O90  1  0.461600  0.275000  0.739770  1.0  -0.6834
  O  O91  1  0.158030  0.100400  0.408450  1.0  -0.6867
  O  O92  1  0.508410  0.254500  0.599420  1.0  -0.5494
  O  O93  1  0.369800  0.443500  0.752180  1.0  -0.6854
  O  O94  1  0.384370  0.131300  0.622590  1.0  -0.7566
  O  O95  1  0.513760  0.790400  0.637270  1.0  -0.5775
  O  O96  1  0.259860  0.040500  0.658180  1.0  -0.7342
  O  O97  1  0.514700  0.622200  0.765380  1.0  -0.4714
  O  O98  1  0.022710  0.997500  0.382610  1.0  -0.7962
  O  O99  1  0.097700  0.039800  0.518090  1.0  -0.7064
  O  O100  1  0.300100  0.260400  0.719500  1.0  -0.4455
  O  O101  1  0.391300  0.669000  0.822580  1.0  -0.6778
  O  O102  1  0.122400  0.817900  0.605300  1.0  -0.6257
  O  O103  1  0.907140  0.365100  0.975880  1.0  -0.7422
  O  O104  1  0.760690  0.254400  0.008260  1.0  -0.622
  O  O105  1  0.908110  0.638800  0.998860  1.0  -0.729
  O  O106  1  0.766000  0.726300  0.053420  1.0  -0.603
  O  O107  1  0.971000  0.676400  0.278120  1.0  -0.6773
  O  O108  1  0.885750  0.577100  0.141400  1.0  -0.8351
  O  O109  1  0.794860  0.519500  0.885360  1.0  -0.6044
  O  O110  1  0.877700  0.804100  0.181600  1.0  -0.6595
  O  O111  1  0.656460  0.606500  0.938840  1.0  -0.7193
  O  O112  1  0.982400  0.450000  0.267560  1.0  -0.6113
  O  O113  1  0.788130  0.490500  0.026910  1.0  -0.7702
  O  O114  1  0.865700  0.137700  0.123720  1.0  -0.6706
  O  O115  1  0.035730  0.476400  0.125120  1.0  -0.7335
  O  O116  1  0.961600  0.225000  0.239770  1.0  -0.6836
  O  O117  1  0.658030  0.399600  0.908450  1.0  -0.6844
  O  O118  1  0.008410  0.245500  0.099420  1.0  -0.5497
  O  O119  1  0.869800  0.056500  0.252180  1.0  -0.6844
  O  O120  1  0.884370  0.368700  0.122590  1.0  -0.7566
  O  O121  1  0.013760  0.709600  0.137270  1.0  -0.577
  O  O122  1  0.759860  0.459500  0.158180  1.0  -0.7346
  O  O123  1  0.014700  0.877800  0.265380  1.0  -0.4711
  O  O124  1  0.522710  0.502500  0.882610  1.0  -0.796
  O  O125  1  0.597700  0.460200  0.018090  1.0  -0.707
  O  O126  1  0.800100  0.239600  0.219500  1.0  -0.445
  O  O127  1  0.891300  0.831000  0.322580  1.0  -0.6779
  O  O128  1  0.622400  0.682100  0.105300  1.0  -0.6258
  O  O129  1  0.592860  0.865100  0.524120  1.0  -0.7438
  O  O130  1  0.739310  0.754400  0.491740  1.0  -0.6222
  O  O131  1  0.591890  0.138800  0.501140  1.0  -0.7282
  O  O132  1  0.734000  0.226300  0.446580  1.0  -0.6038
  O  O133  1  0.529000  0.176400  0.221880  1.0  -0.6783
  O  O134  1  0.614250  0.077100  0.358600  1.0  -0.8341
  O  O135  1  0.705140  0.019500  0.614640  1.0  -0.607
  O  O136  1  0.622300  0.304100  0.318400  1.0  -0.6598
  O  O137  1  0.843540  0.106500  0.561160  1.0  -0.7179
  O  O138  1  0.517600  0.950000  0.232440  1.0  -0.614
  O  O139  1  0.711870  0.990500  0.473090  1.0  -0.7711
  O  O140  1  0.634300  0.637700  0.376280  1.0  -0.6715
  O  O141  1  0.464270  0.976400  0.374880  1.0  -0.7309
  O  O142  1  0.538400  0.725000  0.260230  1.0  -0.6827
  O  O143  1  0.841970  0.899600  0.591550  1.0  -0.6847
  O  O144  1  0.491590  0.745500  0.400580  1.0  -0.55
  O  O145  1  0.630200  0.556500  0.247820  1.0  -0.685
  O  O146  1  0.615630  0.868700  0.377410  1.0  -0.757
  O  O147  1  0.486240  0.209600  0.362730  1.0  -0.5747
  O  O148  1  0.740140  0.959500  0.341820  1.0  -0.7353
  O  O149  1  0.485300  0.377800  0.234620  1.0  -0.4689
  O  O150  1  0.977290  0.002500  0.617390  1.0  -0.7964
  O  O151  1  0.902300  0.960200  0.481910  1.0  -0.7065
  O  O152  1  0.699900  0.739600  0.280500  1.0  -0.4442
  O  O153  1  0.608700  0.331000  0.177420  1.0  -0.6781
  O  O154  1  0.877600  0.182100  0.394700  1.0  -0.6254
