# generated using pymatgen
data_Zn3P4(HO3)4
_symmetry_space_group_name_H-M   'P 1'
_cell_length_a   9.90960000
_cell_length_b   15.67800000
_cell_length_c   13.80220000
_cell_angle_alpha   90.00000000
_cell_angle_beta   90.00000000
_cell_angle_gamma   90.00000000
_symmetry_Int_Tables_number   1
_chemical_formula_structural   Zn3P4(HO3)4
_chemical_formula_sum   'Zn12 P16 H16 O48'
_cell_volume   2144.34717940
_cell_formula_units_Z   4
loop_
 _symmetry_equiv_pos_site_id
 _symmetry_equiv_pos_as_xyz
  1  'x, y, z'
loop_
 _atom_site_type_symbol
 _atom_site_label
 _atom_site_symmetry_multiplicity
 _atom_site_fract_x
 _atom_site_fract_y
 _atom_site_fract_z
 _atom_site_occupancy
 _atom_site_charge
  Zn  Zn1  1  0.040040  0.582530  0.607350  1.0  1.1379
  Zn  Zn2  1  0.459960  0.917470  0.107350  1.0  1.1384
  Zn  Zn3  1  0.959960  0.582530  0.892650  1.0  1.1376
  Zn  Zn4  1  0.540040  0.917470  0.392650  1.0  1.1381
  Zn  Zn5  1  0.959960  0.417470  0.392650  1.0  1.1391
  Zn  Zn6  1  0.540040  0.082530  0.892650  1.0  1.1387
  Zn  Zn7  1  0.040040  0.417470  0.107350  1.0  1.1383
  Zn  Zn8  1  0.459960  0.082530  0.607350  1.0  1.1378
  Zn  Zn9  1  0.000000  0.227880  0.750000  1.0  1.1255
  Zn  Zn10  1  0.500000  0.272120  0.250000  1.0  1.1271
  Zn  Zn11  1  0.000000  0.772120  0.250000  1.0  1.1271
  Zn  Zn12  1  0.500000  0.727880  0.750000  1.0  1.1253
  P  P13  1  0.234910  0.613620  0.784430  1.0  1.5174
  P  P14  1  0.971690  0.383340  0.613920  1.0  1.6179
  P  P15  1  0.265090  0.886380  0.284430  1.0  1.518
  P  P16  1  0.528310  0.116660  0.113920  1.0  1.6174
  P  P17  1  0.765090  0.613620  0.715570  1.0  1.518
  P  P18  1  0.028310  0.383340  0.886080  1.0  1.6166
  P  P19  1  0.734910  0.886380  0.215570  1.0  1.5175
  P  P20  1  0.471690  0.116660  0.386080  1.0  1.6163
  P  P21  1  0.765090  0.386380  0.215570  1.0  1.5176
  P  P22  1  0.028310  0.616660  0.386080  1.0  1.6187
  P  P23  1  0.734910  0.113620  0.715570  1.0  1.5172
  P  P24  1  0.471690  0.883340  0.886080  1.0  1.6193
  P  P25  1  0.234910  0.386380  0.284430  1.0  1.5178
  P  P26  1  0.971690  0.616660  0.113920  1.0  1.6176
  P  P27  1  0.265090  0.113620  0.784430  1.0  1.5184
  P  P28  1  0.528310  0.883340  0.613920  1.0  1.6175
  H  H29  1  0.274000  0.533000  0.772900  1.0  -0.0652
  H  H30  1  0.870000  0.395900  0.684000  1.0  -0.0936
  H  H31  1  0.226000  0.967000  0.272900  1.0  -0.0669
  H  H32  1  0.630000  0.104100  0.184000  1.0  -0.094
  H  H33  1  0.726000  0.533000  0.727100  1.0  -0.0668
  H  H34  1  0.130000  0.395900  0.816000  1.0  -0.0947
  H  H35  1  0.774000  0.967000  0.227100  1.0  -0.0649
  H  H36  1  0.370000  0.104100  0.316000  1.0  -0.0947
  H  H37  1  0.726000  0.467000  0.227100  1.0  -0.0678
  H  H38  1  0.130000  0.604100  0.316000  1.0  -0.0944
  H  H39  1  0.774000  0.033000  0.727100  1.0  -0.0657
  H  H40  1  0.370000  0.895900  0.816000  1.0  -0.0945
  H  H41  1  0.274000  0.467000  0.272900  1.0  -0.064
  H  H42  1  0.870000  0.604100  0.184000  1.0  -0.0938
  H  H43  1  0.226000  0.033000  0.772900  1.0  -0.0661
  H  H44  1  0.630000  0.895900  0.684000  1.0  -0.0943
  O  O45  1  0.357400  0.664300  0.805200  1.0  -0.8147
  O  O46  1  0.165000  0.640200  0.692200  1.0  -0.7747
  O  O47  1  0.146700  0.616700  0.873700  1.0  -0.7757
  O  O48  1  0.051100  0.303900  0.643700  1.0  -0.7342
  O  O49  1  0.902000  0.370800  0.517100  1.0  -0.752
  O  O50  1  0.061300  0.460400  0.616200  1.0  -0.8237
  O  O51  1  0.142600  0.835700  0.305200  1.0  -0.8151
  O  O52  1  0.335000  0.859800  0.192200  1.0  -0.7753
  O  O53  1  0.353300  0.883300  0.373700  1.0  -0.7758
  O  O54  1  0.448900  0.196100  0.143700  1.0  -0.7337
  O  O55  1  0.598000  0.129200  0.017100  1.0  -0.7523
  O  O56  1  0.438700  0.039600  0.116200  1.0  -0.8248
  O  O57  1  0.642600  0.664300  0.694800  1.0  -0.8144
  O  O58  1  0.835000  0.640200  0.807800  1.0  -0.7753
  O  O59  1  0.853300  0.616700  0.626300  1.0  -0.7761
  O  O60  1  0.948900  0.303900  0.856300  1.0  -0.7339
  O  O61  1  0.098000  0.370800  0.982900  1.0  -0.7531
  O  O62  1  0.938700  0.460400  0.883800  1.0  -0.8248
  O  O63  1  0.857400  0.835700  0.194800  1.0  -0.8146
  O  O64  1  0.665000  0.859800  0.307800  1.0  -0.774
  O  O65  1  0.646700  0.883300  0.126300  1.0  -0.7763
  O  O66  1  0.551100  0.196100  0.356300  1.0  -0.7331
  O  O67  1  0.402000  0.129200  0.482900  1.0  -0.7524
  O  O68  1  0.561300  0.039600  0.383800  1.0  -0.8248
  O  O69  1  0.642600  0.335700  0.194800  1.0  -0.8155
  O  O70  1  0.835000  0.359800  0.307800  1.0  -0.7748
  O  O71  1  0.853300  0.383300  0.126300  1.0  -0.7767
  O  O72  1  0.948900  0.696100  0.356300  1.0  -0.7338
  O  O73  1  0.098000  0.629200  0.482900  1.0  -0.7529
  O  O74  1  0.938700  0.539600  0.383800  1.0  -0.825
  O  O75  1  0.857400  0.164300  0.694800  1.0  -0.8144
  O  O76  1  0.665000  0.140200  0.807800  1.0  -0.7743
  O  O77  1  0.646700  0.116700  0.626300  1.0  -0.7756
  O  O78  1  0.551100  0.803900  0.856300  1.0  -0.7343
  O  O79  1  0.402000  0.870800  0.982900  1.0  -0.7524
  O  O80  1  0.561300  0.960400  0.883800  1.0  -0.824
  O  O81  1  0.357400  0.335700  0.305200  1.0  -0.8159
  O  O82  1  0.165000  0.359800  0.192200  1.0  -0.7748
  O  O83  1  0.146700  0.383300  0.373700  1.0  -0.7755
  O  O84  1  0.051100  0.696100  0.143700  1.0  -0.7331
  O  O85  1  0.902000  0.629200  0.017100  1.0  -0.7519
  O  O86  1  0.061300  0.539600  0.116200  1.0  -0.8246
  O  O87  1  0.142600  0.164300  0.805200  1.0  -0.8155
  O  O88  1  0.335000  0.140200  0.692200  1.0  -0.7755
  O  O89  1  0.353300  0.116700  0.873700  1.0  -0.776
  O  O90  1  0.448900  0.803900  0.643700  1.0  -0.7339
  O  O91  1  0.598000  0.870800  0.517100  1.0  -0.753
  O  O92  1  0.438700  0.960400  0.616200  1.0  -0.8245
