# generated using pymatgen
data_MnPHCO5
_symmetry_space_group_name_H-M   'P 1'
_cell_length_a   5.61600000
_cell_length_b   15.43100000
_cell_length_c   9.44500000
_cell_angle_alpha   90.00000000
_cell_angle_beta   91.72000000
_cell_angle_gamma   90.00000000
_symmetry_Int_Tables_number   1
_chemical_formula_structural   MnPHCO5
_chemical_formula_sum   'Mn4 P4 H4 C4 O20'
_cell_volume   818.13960065
_cell_formula_units_Z   4
loop_
 _symmetry_equiv_pos_site_id
 _symmetry_equiv_pos_as_xyz
  1  'x, y, z'
loop_
 _atom_site_type_symbol
 _atom_site_label
 _atom_site_symmetry_multiplicity
 _atom_site_fract_x
 _atom_site_fract_y
 _atom_site_fract_z
 _atom_site_occupancy
 _atom_site_charge
  Mn  Mn1  1  0.215290  0.668260  0.556530  1.0  1.1393
  Mn  Mn2  1  0.284710  0.168260  0.943470  1.0  1.1389
  Mn  Mn3  1  0.784710  0.331740  0.443470  1.0  1.1388
  Mn  Mn4  1  0.715290  0.831740  0.056530  1.0  1.1392
  P  P5  1  0.707430  0.697250  0.351610  1.0  1.5114
  P  P6  1  0.792570  0.197250  0.148390  1.0  1.512
  P  P7  1  0.292570  0.302750  0.648390  1.0  1.5123
  P  P8  1  0.207430  0.802750  0.851610  1.0  1.5118
  H  H9  1  0.709930  0.604000  0.348030  1.0  -0.0509
  H  H10  1  0.790070  0.104000  0.151970  1.0  -0.0518
  H  H11  1  0.290070  0.396000  0.651970  1.0  -0.0523
  H  H12  1  0.209930  0.896000  0.848030  1.0  -0.0533
  C  C13  1  0.087100  0.493220  0.438900  1.0  0.6008
  C  C14  1  0.412900  0.993220  0.061100  1.0  0.6007
  C  C15  1  0.912900  0.506780  0.561100  1.0  0.6005
  C  C16  1  0.587100  0.006780  0.938900  1.0  0.6009
  O  O17  1  0.663000  0.727490  0.199520  1.0  -0.7471
  O  O18  1  0.506900  0.723220  0.447330  1.0  -0.7099
  O  O19  1  0.953700  0.725660  0.406940  1.0  -0.7203
  O  O20  1  0.234500  0.552570  0.417460  1.0  -0.5056
  O  O21  1  0.067400  0.423170  0.370420  1.0  -0.5127
  O  O22  1  0.837000  0.227490  0.300480  1.0  -0.7498
  O  O23  1  0.993100  0.223220  0.052670  1.0  -0.7088
  O  O24  1  0.546300  0.225660  0.093060  1.0  -0.7204
  O  O25  1  0.265500  0.052570  0.082540  1.0  -0.5054
  O  O26  1  0.432600  0.923170  0.129580  1.0  -0.5158
  O  O27  1  0.337000  0.272510  0.800480  1.0  -0.75
  O  O28  1  0.493100  0.276780  0.552670  1.0  -0.7095
  O  O29  1  0.046300  0.274340  0.593060  1.0  -0.7218
  O  O30  1  0.765500  0.447430  0.582540  1.0  -0.5053
  O  O31  1  0.932600  0.576830  0.629580  1.0  -0.5161
  O  O32  1  0.163000  0.772510  0.699520  1.0  -0.7472
  O  O33  1  0.006900  0.776780  0.947330  1.0  -0.7104
  O  O34  1  0.453700  0.774340  0.906940  1.0  -0.7223
  O  O35  1  0.734500  0.947430  0.917460  1.0  -0.506
  O  O36  1  0.567400  0.076830  0.870420  1.0  -0.5138
