# generated using pymatgen
data_MnH3(C3O2)3
_symmetry_space_group_name_H-M   'P 1'
_cell_length_a   14.64800000
_cell_length_b   12.40060000
_cell_length_c   16.60620000
_cell_angle_alpha   90.00000000
_cell_angle_beta   90.00000000
_cell_angle_gamma   90.00000000
_symmetry_Int_Tables_number   1
_chemical_formula_structural   MnH3(C3O2)3
_chemical_formula_sum   'Mn8 H24 C72 O48'
_cell_volume   3016.41640681
_cell_formula_units_Z   8
loop_
 _symmetry_equiv_pos_site_id
 _symmetry_equiv_pos_as_xyz
  1  'x, y, z'
loop_
 _atom_site_type_symbol
 _atom_site_label
 _atom_site_symmetry_multiplicity
 _atom_site_fract_x
 _atom_site_fract_y
 _atom_site_fract_z
 _atom_site_occupancy
 _atom_site_charge
  Mn  Mn1  1  0.605200  0.481950  0.578080  1.0  1.0928
  Mn  Mn2  1  0.894800  0.518050  0.078080  1.0  1.0913
  Mn  Mn3  1  0.394800  0.981950  0.921920  1.0  1.0918
  Mn  Mn4  1  0.105200  0.018050  0.421920  1.0  1.0928
  Mn  Mn5  1  0.394800  0.518050  0.421920  1.0  1.0915
  Mn  Mn6  1  0.105200  0.481950  0.921920  1.0  1.093
  Mn  Mn7  1  0.605200  0.018050  0.078080  1.0  1.0926
  Mn  Mn8  1  0.894800  0.981950  0.578080  1.0  1.0916
  H  H9  1  0.345800  0.756100  0.487900  1.0  0.1296
  H  H10  1  0.725600  0.473700  0.845000  1.0  0.1296
  H  H11  1  0.557900  0.231600  0.786900  1.0  0.133
  H  H12  1  0.154200  0.243900  0.987900  1.0  0.1292
  H  H13  1  0.774400  0.526300  0.345000  1.0  0.1291
  H  H14  1  0.942100  0.768400  0.286900  1.0  0.133
  H  H15  1  0.654200  0.256100  0.012100  1.0  0.129
  H  H16  1  0.274400  0.973700  0.655000  1.0  0.1294
  H  H17  1  0.442100  0.731600  0.713100  1.0  0.133
  H  H18  1  0.845800  0.743900  0.512100  1.0  0.1291
  H  H19  1  0.225600  0.026300  0.155000  1.0  0.1295
  H  H20  1  0.057900  0.268400  0.213100  1.0  0.133
  H  H21  1  0.654200  0.243900  0.512100  1.0  0.1289
  H  H22  1  0.274400  0.526300  0.155000  1.0  0.1295
  H  H23  1  0.442100  0.768400  0.213100  1.0  0.1329
  H  H24  1  0.845800  0.756100  0.012100  1.0  0.1292
  H  H25  1  0.225600  0.473700  0.655000  1.0  0.1294
  H  H26  1  0.057900  0.231600  0.713100  1.0  0.1333
  H  H27  1  0.345800  0.743900  0.987900  1.0  0.1294
  H  H28  1  0.725600  0.026300  0.345000  1.0  0.1294
  H  H29  1  0.557900  0.268400  0.286900  1.0  0.133
  H  H30  1  0.154200  0.256100  0.487900  1.0  0.1292
  H  H31  1  0.774400  0.973700  0.845000  1.0  0.1295
  H  H32  1  0.942100  0.731600  0.786900  1.0  0.1329
  C  C33  1  0.349100  0.781700  0.540500  1.0  0.0172
  C  C34  1  0.732900  0.575300  0.494900  1.0  0.74
  C  C35  1  0.695000  0.410900  0.859300  1.0  0.0629
  C  C36  1  0.637200  0.399500  0.717300  1.0  0.676
  C  C37  1  0.702300  0.371600  0.937300  1.0  -0.1225
  C  C38  1  0.463300  0.636200  0.571000  1.0  0.7298
  C  C39  1  0.592900  0.267400  0.825200  1.0  0.0531
  C  C40  1  0.405400  0.729600  0.596100  1.0  -0.1384
  C  C41  1  0.642700  0.357700  0.803000  1.0  -0.1373
  C  C42  1  0.150900  0.218300  0.040500  1.0  0.0161
  C  C43  1  0.767100  0.424700  0.994900  1.0  0.741
  C  C44  1  0.805000  0.589100  0.359300  1.0  0.0624
  C  C45  1  0.862800  0.600500  0.217300  1.0  0.6756
  C  C46  1  0.797700  0.628400  0.437300  1.0  -0.1232
  C  C47  1  0.036700  0.363800  0.071000  1.0  0.7321
  C  C48  1  0.907100  0.732600  0.325200  1.0  0.0528
  C  C49  1  0.094600  0.270400  0.096100  1.0  -0.1376
  C  C50  1  0.857300  0.642300  0.303000  1.0  -0.1387
  C  C51  1  0.650900  0.281700  0.959500  1.0  0.0192
  C  C52  1  0.267100  0.075300  0.005100  1.0  0.7401
  C  C53  1  0.305000  0.910900  0.640700  1.0  0.0621
  C  C54  1  0.362800  0.899500  0.782700  1.0  0.6762
  C  C55  1  0.297700  0.871600  0.562700  1.0  -0.1225
  C  C56  1  0.536700  0.136200  0.929000  1.0  0.7322
  C  C57  1  0.407100  0.767400  0.674800  1.0  0.0529
  C  C58  1  0.594600  0.229600  0.903900  1.0  -0.1375
  C  C59  1  0.357300  0.857700  0.697000  1.0  -0.1383
  C  C60  1  0.849100  0.718300  0.459500  1.0  0.0185
  C  C61  1  0.232900  0.924700  0.505100  1.0  0.7394
  C  C62  1  0.195000  0.089100  0.140700  1.0  0.0638
  C  C63  1  0.137200  0.100500  0.282700  1.0  0.6762
  C  C64  1  0.202300  0.128400  0.062700  1.0  -0.1224
  C  C65  1  0.963300  0.863800  0.429000  1.0  0.7309
  C  C66  1  0.092900  0.232600  0.174800  1.0  0.0523
  C  C67  1  0.905400  0.770400  0.403900  1.0  -0.1386
  C  C68  1  0.142700  0.142300  0.197000  1.0  -0.1374
  C  C69  1  0.650900  0.218300  0.459500  1.0  0.0182
  C  C70  1  0.267100  0.424700  0.505100  1.0  0.7413
  C  C71  1  0.305000  0.589100  0.140700  1.0  0.0631
  C  C72  1  0.362800  0.600500  0.282700  1.0  0.676
  C  C73  1  0.297700  0.628400  0.062700  1.0  -0.1233
  C  C74  1  0.536700  0.363800  0.429000  1.0  0.7323
  C  C75  1  0.407100  0.732600  0.174800  1.0  0.0527
  C  C76  1  0.594600  0.270400  0.403900  1.0  -0.1375
  C  C77  1  0.357300  0.642300  0.197000  1.0  -0.1383
  C  C78  1  0.849100  0.781700  0.959500  1.0  0.0186
  C  C79  1  0.232900  0.575300  0.005100  1.0  0.7404
  C  C80  1  0.195000  0.410900  0.640700  1.0  0.0628
  C  C81  1  0.137200  0.399500  0.782700  1.0  0.6764
  C  C82  1  0.202300  0.371600  0.562700  1.0  -0.1218
  C  C83  1  0.963300  0.636200  0.929000  1.0  0.7301
  C  C84  1  0.092900  0.267400  0.674800  1.0  0.0526
  C  C85  1  0.905400  0.729600  0.903900  1.0  -0.1384
  C  C86  1  0.142700  0.357700  0.697000  1.0  -0.1377
  C  C87  1  0.349100  0.718300  0.040500  1.0  0.0171
  C  C88  1  0.732900  0.924700  0.994900  1.0  0.739
  C  C89  1  0.695000  0.089100  0.359300  1.0  0.0633
  C  C90  1  0.637200  0.100500  0.217300  1.0  0.6757
  C  C91  1  0.702300  0.128400  0.437300  1.0  -0.1225
  C  C92  1  0.463300  0.863800  0.071000  1.0  0.7306
  C  C93  1  0.592900  0.232600  0.325200  1.0  0.0528
  C  C94  1  0.405400  0.770400  0.096100  1.0  -0.1386
  C  C95  1  0.642700  0.142300  0.303000  1.0  -0.1379
  C  C96  1  0.150900  0.281700  0.540500  1.0  0.0172
  C  C97  1  0.767100  0.075300  0.494900  1.0  0.7401
  C  C98  1  0.805000  0.910900  0.859300  1.0  0.062
  C  C99  1  0.862800  0.899500  0.717300  1.0  0.6759
  C  C100  1  0.797700  0.871600  0.937300  1.0  -0.123
  C  C101  1  0.036700  0.136200  0.571000  1.0  0.7319
  C  C102  1  0.907100  0.767400  0.825200  1.0  0.0531
  C  C103  1  0.094600  0.229600  0.596100  1.0  -0.1377
  C  C104  1  0.857300  0.857700  0.803000  1.0  -0.1378
  O  O105  1  0.709800  0.480300  0.483400  1.0  -0.535
  O  O106  1  0.700100  0.629900  0.550800  1.0  -0.556
  O  O107  1  0.595200  0.344300  0.665500  1.0  -0.5259
  O  O108  1  0.499000  0.580200  0.626200  1.0  -0.5718
  O  O109  1  0.523200  0.380500  0.502500  1.0  -0.6384
  O  O110  1  0.674200  0.486000  0.700700  1.0  -0.5382
  O  O111  1  0.790200  0.519700  0.983400  1.0  -0.5352
  O  O112  1  0.799900  0.370100  0.050800  1.0  -0.5558
  O  O113  1  0.904800  0.655700  0.165500  1.0  -0.5245
  O  O114  1  0.001000  0.419800  0.126200  1.0  -0.5731
  O  O115  1  0.976800  0.619500  0.002500  1.0  -0.6388
  O  O116  1  0.825800  0.514000  0.200700  1.0  -0.5374
  O  O117  1  0.290200  0.980300  0.016600  1.0  -0.5349
  O  O118  1  0.299900  0.129900  0.949200  1.0  -0.5548
  O  O119  1  0.404800  0.844300  0.834500  1.0  -0.5248
  O  O120  1  0.501000  0.080200  0.873800  1.0  -0.5736
  O  O121  1  0.476800  0.880500  0.997500  1.0  -0.6392
  O  O122  1  0.325800  0.986000  0.799300  1.0  -0.5389
  O  O123  1  0.209800  0.019700  0.516600  1.0  -0.5347
  O  O124  1  0.200100  0.870100  0.449200  1.0  -0.5569
  O  O125  1  0.095200  0.155700  0.334500  1.0  -0.5247
  O  O126  1  0.999000  0.919800  0.373800  1.0  -0.5732
  O  O127  1  0.023200  0.119500  0.497500  1.0  -0.6392
  O  O128  1  0.174200  0.014000  0.299300  1.0  -0.5386
  O  O129  1  0.290200  0.519700  0.516600  1.0  -0.5354
  O  O130  1  0.299900  0.370100  0.449200  1.0  -0.5565
  O  O131  1  0.404800  0.655700  0.334500  1.0  -0.5242
  O  O132  1  0.501000  0.419800  0.373800  1.0  -0.5737
  O  O133  1  0.476800  0.619500  0.497500  1.0  -0.639
  O  O134  1  0.325800  0.514000  0.299300  1.0  -0.5381
  O  O135  1  0.209800  0.480300  0.016600  1.0  -0.5342
  O  O136  1  0.200100  0.629900  0.949200  1.0  -0.5551
  O  O137  1  0.095200  0.344300  0.834500  1.0  -0.5255
  O  O138  1  0.999000  0.580200  0.873800  1.0  -0.5729
  O  O139  1  0.023200  0.380500  0.997500  1.0  -0.6389
  O  O140  1  0.174200  0.486000  0.799300  1.0  -0.5391
  O  O141  1  0.709800  0.019700  0.983400  1.0  -0.5353
  O  O142  1  0.700100  0.870100  0.050800  1.0  -0.5572
  O  O143  1  0.595200  0.155700  0.165500  1.0  -0.5253
  O  O144  1  0.499000  0.919800  0.126200  1.0  -0.5715
  O  O145  1  0.523200  0.119500  0.002500  1.0  -0.639
  O  O146  1  0.674200  0.014000  0.200700  1.0  -0.5378
  O  O147  1  0.790200  0.980300  0.483400  1.0  -0.5348
  O  O148  1  0.799900  0.129900  0.550800  1.0  -0.5548
  O  O149  1  0.904800  0.844300  0.665500  1.0  -0.5254
  O  O150  1  0.001000  0.080200  0.626200  1.0  -0.5733
  O  O151  1  0.976800  0.880500  0.502500  1.0  -0.6383
  O  O152  1  0.825800  0.986000  0.700700  1.0  -0.538
