# generated using pymatgen
data_ZnH3(C3O2)3
_symmetry_space_group_name_H-M   'P 1'
_cell_length_a   9.47000000
_cell_length_b   12.35100000
_cell_length_c   13.57500000
_cell_angle_alpha   90.00000000
_cell_angle_beta   94.32700000
_cell_angle_gamma   90.00000000
_symmetry_Int_Tables_number   1
_chemical_formula_structural   ZnH3(C3O2)3
_chemical_formula_sum   'Zn4 H12 C36 O24'
_cell_volume   1583.26021060
_cell_formula_units_Z   4
loop_
 _symmetry_equiv_pos_site_id
 _symmetry_equiv_pos_as_xyz
  1  'x, y, z'
loop_
 _atom_site_type_symbol
 _atom_site_label
 _atom_site_symmetry_multiplicity
 _atom_site_fract_x
 _atom_site_fract_y
 _atom_site_fract_z
 _atom_site_occupancy
 _atom_site_charge
  Zn  Zn1  1  0.891470  0.679550  0.059110  1.0  1.1116
  Zn  Zn2  1  0.623720  0.815790  0.179210  1.0  1.0887
  Zn  Zn3  1  0.391470  0.320450  0.559110  1.0  1.1117
  Zn  Zn4  1  0.123720  0.184210  0.679210  1.0  1.0891
  H  H5  1  0.201100  0.830700  0.213200  1.0  0.1313
  H  H6  1  0.317700  0.018600  0.449200  1.0  0.1297
  H  H7  1  0.903100  0.954400  0.379500  1.0  0.1396
  H  H8  1  0.696800  0.489900  0.271000  1.0  0.1314
  H  H9  1  0.110200  0.452900  0.362800  1.0  0.1261
  H  H10  1  0.307900  0.672000  0.025100  1.0  0.1371
  H  H11  1  0.701100  0.169300  0.713200  1.0  0.1311
  H  H12  1  0.817700  0.981400  0.949200  1.0  0.1297
  H  H13  1  0.403100  0.045600  0.879500  1.0  0.1398
  H  H14  1  0.196800  0.510100  0.771000  1.0  0.1312
  H  H15  1  0.610200  0.547100  0.862800  1.0  0.1259
  H  H16  1  0.807900  0.328000  0.525100  1.0  0.1369
  C  C17  1  0.923500  0.832700  0.220800  1.0  0.7204
  C  C18  1  0.036600  0.884300  0.287800  1.0  -0.115
  C  C19  1  0.177100  0.872300  0.268300  1.0  -0.0194
  C  C20  1  0.283600  0.921300  0.329700  1.0  -0.1343
  C  C21  1  0.246100  0.983600  0.408000  1.0  -0.0073
  C  C22  1  0.105900  0.995900  0.427100  1.0  -0.1164
  C  C23  1  0.999700  0.946000  0.366600  1.0  0.0168
  C  C24  1  0.953000  0.552400  0.221300  1.0  0.7279
  C  C25  1  0.912000  0.483700  0.304800  1.0  -0.1416
  C  C26  1  0.768400  0.463700  0.317900  1.0  0.0337
  C  C27  1  0.013000  0.441500  0.372300  1.0  0.0154
  C  C28  1  0.590400  0.663700  0.023100  1.0  0.6911
  C  C29  1  0.477000  0.617000  0.953500  1.0  -0.1238
  C  C30  1  0.334100  0.634000  0.968400  1.0  -0.0178
  C  C31  1  0.231700  0.594900  0.900000  1.0  -0.1274
  C  C32  1  0.565000  0.934200  0.010600  1.0  0.7402
  C  C33  1  0.435400  0.910000  0.306500  1.0  0.6771
  C  C34  1  0.076100  0.610900  0.916900  1.0  0.688
  C  C35  1  0.423500  0.167300  0.720800  1.0  0.7208
  C  C36  1  0.536600  0.115700  0.787800  1.0  -0.115
  C  C37  1  0.677100  0.127700  0.768300  1.0  -0.0197
  C  C38  1  0.783600  0.078700  0.829700  1.0  -0.1343
  C  C39  1  0.746100  0.016400  0.908000  1.0  -0.0074
  C  C40  1  0.605900  0.004100  0.927100  1.0  -0.1163
  C  C41  1  0.499700  0.054000  0.866600  1.0  0.0166
  C  C42  1  0.453000  0.447600  0.721300  1.0  0.7276
  C  C43  1  0.412000  0.516300  0.804800  1.0  -0.1418
  C  C44  1  0.268400  0.536300  0.817900  1.0  0.0339
  C  C45  1  0.513000  0.558500  0.872300  1.0  0.0151
  C  C46  1  0.090400  0.336300  0.523100  1.0  0.6904
  C  C47  1  0.977000  0.383000  0.453500  1.0  -0.1238
  C  C48  1  0.834100  0.366000  0.468400  1.0  -0.0165
  C  C49  1  0.731700  0.405100  0.400000  1.0  -0.1221
  C  C50  1  0.065000  0.065800  0.510600  1.0  0.7402
  C  C51  1  0.935400  0.090000  0.806500  1.0  0.6776
  C  C52  1  0.576100  0.389100  0.416900  1.0  0.6879
  O  O53  1  0.951400  0.811800  0.133600  1.0  -0.5838
  O  O54  1  0.807000  0.813900  0.256700  1.0  -0.5786
  O  O55  1  0.860600  0.562500  0.149600  1.0  -0.5781
  O  O56  1  0.071900  0.594200  0.225400  1.0  -0.5235
  O  O57  1  0.706900  0.683900  0.986000  1.0  -0.5792
  O  O58  1  0.563300  0.680800  0.111300  1.0  -0.5744
  O  O59  1  0.660800  0.925400  0.083500  1.0  -0.5896
  O  O60  1  0.450200  0.886000  0.005700  1.0  -0.4953
  O  O61  1  0.462300  0.823300  0.258300  1.0  -0.5659
  O  O62  1  0.524100  0.979200  0.332300  1.0  -0.4266
  O  O63  1  0.052900  0.684000  0.980900  1.0  -0.5623
  O  O64  1  0.985500  0.556400  0.871400  1.0  -0.4492
  O  O65  1  0.451400  0.188200  0.633600  1.0  -0.5839
  O  O66  1  0.307000  0.186100  0.756700  1.0  -0.5787
  O  O67  1  0.360600  0.437500  0.649600  1.0  -0.5792
  O  O68  1  0.571900  0.405800  0.725400  1.0  -0.5236
  O  O69  1  0.206900  0.316100  0.486000  1.0  -0.579
  O  O70  1  0.063300  0.319200  0.611300  1.0  -0.5741
  O  O71  1  0.160800  0.074600  0.583500  1.0  -0.59
  O  O72  1  0.950200  0.114000  0.505700  1.0  -0.4946
  O  O73  1  0.962300  0.176700  0.758300  1.0  -0.5658
  O  O74  1  0.024100  0.020800  0.832300  1.0  -0.4248
  O  O75  1  0.552900  0.316000  0.480900  1.0  -0.5623
  O  O76  1  0.485500  0.443600  0.371400  1.0  -0.4488
