# generated using pymatgen
data_BaCdH4C12(SO4)2
_symmetry_space_group_name_H-M   'P 1'
_cell_length_a   14.71470000
_cell_length_b   19.58490000
_cell_length_c   19.65320000
_cell_angle_alpha   90.00000000
_cell_angle_beta   90.00000000
_cell_angle_gamma   90.00000000
_symmetry_Int_Tables_number   1
_chemical_formula_structural   BaCdH4C12(SO4)2
_chemical_formula_sum   'Ba8 Cd8 H32 C96 S16 O64'
_cell_volume   5663.77568076
_cell_formula_units_Z   8
loop_
 _symmetry_equiv_pos_site_id
 _symmetry_equiv_pos_as_xyz
  1  'x, y, z'
loop_
 _atom_site_type_symbol
 _atom_site_label
 _atom_site_symmetry_multiplicity
 _atom_site_fract_x
 _atom_site_fract_y
 _atom_site_fract_z
 _atom_site_occupancy
 _atom_site_charge
  Ba  Ba1  1  0.366140  0.387310  0.286260  1.0  1.6335
  Ba  Ba2  1  0.133860  0.612690  0.786260  1.0  1.6351
  Ba  Ba3  1  0.633860  0.887310  0.213740  1.0  1.633
  Ba  Ba4  1  0.866140  0.112690  0.713740  1.0  1.6345
  Ba  Ba5  1  0.633860  0.612690  0.713740  1.0  1.6343
  Ba  Ba6  1  0.866140  0.387310  0.213740  1.0  1.6332
  Ba  Ba7  1  0.366140  0.112690  0.786260  1.0  1.6349
  Ba  Ba8  1  0.133860  0.887310  0.286260  1.0  1.6338
  Cd  Cd9  1  0.121570  0.448110  0.264010  1.0  1.0153
  Cd  Cd10  1  0.378430  0.551890  0.764010  1.0  1.0149
  Cd  Cd11  1  0.878430  0.948110  0.235990  1.0  1.0152
  Cd  Cd12  1  0.621570  0.051890  0.735990  1.0  1.0153
  Cd  Cd13  1  0.878430  0.551890  0.735990  1.0  1.0151
  Cd  Cd14  1  0.621570  0.448110  0.235990  1.0  1.0155
  Cd  Cd15  1  0.121570  0.051890  0.764010  1.0  1.0152
  Cd  Cd16  1  0.378430  0.948110  0.264010  1.0  1.015
  H  H17  1  0.236900  0.196500  0.264900  1.0  0.1001
  H  H18  1  0.180400  0.085400  0.262500  1.0  0.101
  H  H19  1  0.401800  0.514000  0.123300  1.0  0.1002
  H  H20  1  0.449700  0.546100  0.009400  1.0  0.1027
  H  H21  1  0.263100  0.803500  0.764900  1.0  0.102
  H  H22  1  0.319600  0.914600  0.762500  1.0  0.1005
  H  H23  1  0.098200  0.486000  0.623300  1.0  0.0995
  H  H24  1  0.050300  0.453900  0.509400  1.0  0.1016
  H  H25  1  0.763100  0.696500  0.235100  1.0  0.1018
  H  H26  1  0.819600  0.585400  0.237500  1.0  0.1006
  H  H27  1  0.598200  0.014000  0.376700  1.0  0.0998
  H  H28  1  0.550300  0.046100  0.490600  1.0  0.101
  H  H29  1  0.736900  0.303500  0.735100  1.0  0.0999
  H  H30  1  0.680400  0.414600  0.737500  1.0  0.1004
  H  H31  1  0.901800  0.986000  0.876700  1.0  0.0999
  H  H32  1  0.949700  0.953900  0.990600  1.0  0.1015
  H  H33  1  0.763100  0.803500  0.735100  1.0  0.1019
  H  H34  1  0.819600  0.914600  0.737500  1.0  0.1002
  H  H35  1  0.598200  0.486000  0.876700  1.0  0.0998
  H  H36  1  0.550300  0.453900  0.990600  1.0  0.1034
  H  H37  1  0.736900  0.196500  0.235100  1.0  0.1004
  H  H38  1  0.680400  0.085400  0.237500  1.0  0.1011
  H  H39  1  0.901800  0.514000  0.376700  1.0  0.0999
  H  H40  1  0.949700  0.546100  0.490600  1.0  0.1046
  H  H41  1  0.236900  0.303500  0.764900  1.0  0.1
  H  H42  1  0.180400  0.414600  0.762500  1.0  0.1003
  H  H43  1  0.401800  0.986000  0.623300  1.0  0.1001
  H  H44  1  0.449700  0.953900  0.509400  1.0  0.1041
  H  H45  1  0.263100  0.696500  0.264900  1.0  0.1017
  H  H46  1  0.319600  0.585400  0.262500  1.0  0.1009
  H  H47  1  0.098200  0.014000  0.123300  1.0  0.0998
  H  H48  1  0.050300  0.046100  0.009400  1.0  0.1034
  C  C49  1  0.115300  0.310800  0.251300  1.0  0.7175
  C  C50  1  0.107900  0.235600  0.252600  1.0  -0.1702
  C  C51  1  0.175600  0.186300  0.259500  1.0  -0.088
  C  C52  1  0.142900  0.123300  0.257500  1.0  -0.0162
  C  C53  1  0.053800  0.117100  0.248100  1.0  -0.167
  C  C54  1  0.994200  0.054400  0.243100  1.0  0.6633
  C  C55  1  0.219600  0.475200  0.148700  1.0  0.7101
  C  C56  1  0.272500  0.499000  0.089500  1.0  -0.2144
  C  C57  1  0.362800  0.515400  0.086100  1.0  -0.0694
  C  C58  1  0.390200  0.534700  0.020500  1.0  -0.0618
  C  C59  1  0.320800  0.535100  0.975100  1.0  -0.2069
  C  C60  1  0.327800  0.548000  0.900100  1.0  0.7223
  C  C61  1  0.384700  0.689200  0.751300  1.0  0.7174
  C  C62  1  0.392100  0.764400  0.752600  1.0  -0.1704
  C  C63  1  0.324400  0.813700  0.759500  1.0  -0.089
  C  C64  1  0.357100  0.876700  0.757500  1.0  -0.0168
  C  C65  1  0.446200  0.882900  0.748100  1.0  -0.1675
  C  C66  1  0.505800  0.945600  0.743100  1.0  0.6641
  C  C67  1  0.280400  0.524800  0.648700  1.0  0.7103
  C  C68  1  0.227500  0.501000  0.589500  1.0  -0.216
  C  C69  1  0.137200  0.484600  0.586100  1.0  -0.0692
  C  C70  1  0.109800  0.465300  0.520500  1.0  -0.061
  C  C71  1  0.179200  0.464900  0.475100  1.0  -0.207
  C  C72  1  0.172200  0.452000  0.400100  1.0  0.7238
  C  C73  1  0.884700  0.810800  0.248700  1.0  0.7178
  C  C74  1  0.892100  0.735600  0.247400  1.0  -0.17
  C  C75  1  0.824400  0.686300  0.240500  1.0  -0.0895
  C  C76  1  0.857100  0.623300  0.242500  1.0  -0.0171
  C  C77  1  0.946200  0.617100  0.251900  1.0  -0.1676
  C  C78  1  0.005800  0.554400  0.256900  1.0  0.6644
  C  C79  1  0.780400  0.975200  0.351300  1.0  0.7105
  C  C80  1  0.727500  0.999000  0.410500  1.0  -0.2158
  C  C81  1  0.637200  0.015400  0.413900  1.0  -0.0688
  C  C82  1  0.609800  0.034700  0.479500  1.0  -0.0614
  C  C83  1  0.679200  0.035100  0.524900  1.0  -0.2073
  C  C84  1  0.672200  0.048000  0.599900  1.0  0.7239
  C  C85  1  0.615300  0.189200  0.748700  1.0  0.717
  C  C86  1  0.607900  0.264400  0.747400  1.0  -0.1708
  C  C87  1  0.675600  0.313700  0.740500  1.0  -0.0879
  C  C88  1  0.642900  0.376700  0.742500  1.0  -0.0172
  C  C89  1  0.553800  0.382900  0.751900  1.0  -0.1676
  C  C90  1  0.494200  0.445600  0.756900  1.0  0.6656
  C  C91  1  0.719600  0.024800  0.851300  1.0  0.7105
  C  C92  1  0.772500  0.001000  0.910500  1.0  -0.2143
  C  C93  1  0.862800  0.984600  0.913900  1.0  -0.0694
  C  C94  1  0.890200  0.965300  0.979500  1.0  -0.062
  C  C95  1  0.820800  0.964900  0.024900  1.0  -0.2067
  C  C96  1  0.827800  0.952000  0.099900  1.0  0.7231
  C  C97  1  0.884700  0.689200  0.748700  1.0  0.7173
  C  C98  1  0.892100  0.764400  0.747400  1.0  -0.1705
  C  C99  1  0.824400  0.813700  0.740500  1.0  -0.0888
  C  C100  1  0.857100  0.876700  0.742500  1.0  -0.0175
  C  C101  1  0.946200  0.882900  0.751900  1.0  -0.1671
  C  C102  1  0.005800  0.945600  0.756900  1.0  0.665
  C  C103  1  0.780400  0.524800  0.851300  1.0  0.711
  C  C104  1  0.727500  0.501000  0.910500  1.0  -0.216
  C  C105  1  0.637200  0.484600  0.913900  1.0  -0.0689
  C  C106  1  0.609800  0.465300  0.979500  1.0  -0.061
  C  C107  1  0.679200  0.464900  0.024900  1.0  -0.2067
  C  C108  1  0.672200  0.452000  0.099900  1.0  0.7244
  C  C109  1  0.615300  0.310800  0.248700  1.0  0.7175
  C  C110  1  0.607900  0.235600  0.247400  1.0  -0.1704
  C  C111  1  0.675600  0.186300  0.240500  1.0  -0.088
  C  C112  1  0.642900  0.123300  0.242500  1.0  -0.0165
  C  C113  1  0.553800  0.117100  0.251900  1.0  -0.1672
  C  C114  1  0.494200  0.054400  0.256900  1.0  0.664
  C  C115  1  0.719600  0.475200  0.351300  1.0  0.7102
  C  C116  1  0.772500  0.499000  0.410500  1.0  -0.2146
  C  C117  1  0.862800  0.515400  0.413900  1.0  -0.0692
  C  C118  1  0.890200  0.534700  0.479500  1.0  -0.0619
  C  C119  1  0.820800  0.535100  0.524900  1.0  -0.2072
  C  C120  1  0.827800  0.548000  0.599900  1.0  0.7229
  C  C121  1  0.115300  0.189200  0.751300  1.0  0.717
  C  C122  1  0.107900  0.264400  0.752600  1.0  -0.1707
  C  C123  1  0.175600  0.313700  0.759500  1.0  -0.0882
  C  C124  1  0.142900  0.376700  0.757500  1.0  -0.0165
  C  C125  1  0.053800  0.382900  0.748100  1.0  -0.1674
  C  C126  1  0.994200  0.445600  0.743100  1.0  0.6636
  C  C127  1  0.219600  0.024800  0.648700  1.0  0.7103
  C  C128  1  0.272500  0.001000  0.589500  1.0  -0.2145
  C  C129  1  0.362800  0.984600  0.586100  1.0  -0.0695
  C  C130  1  0.390200  0.965300  0.520500  1.0  -0.0619
  C  C131  1  0.320800  0.964900  0.475100  1.0  -0.2067
  C  C132  1  0.327800  0.952000  0.400100  1.0  0.7224
  C  C133  1  0.384700  0.810800  0.251300  1.0  0.7179
  C  C134  1  0.392100  0.735600  0.252600  1.0  -0.1699
  C  C135  1  0.324400  0.686300  0.259500  1.0  -0.0896
  C  C136  1  0.357100  0.623300  0.257500  1.0  -0.0168
  C  C137  1  0.446200  0.617100  0.248100  1.0  -0.1681
  C  C138  1  0.505800  0.554400  0.243100  1.0  0.663
  C  C139  1  0.280400  0.975200  0.148700  1.0  0.7103
  C  C140  1  0.227500  0.999000  0.089500  1.0  -0.2153
  C  C141  1  0.137200  0.015400  0.086100  1.0  -0.069
  C  C142  1  0.109800  0.034700  0.020500  1.0  -0.0613
  C  C143  1  0.179200  0.035100  0.975100  1.0  -0.2072
  C  C144  1  0.172200  0.048000  0.900100  1.0  0.7235
  S  S145  1  0.006000  0.194270  0.240500  1.0  0.1186
  S  S146  1  0.220100  0.510590  0.012040  1.0  0.1545
  S  S147  1  0.494000  0.805730  0.740500  1.0  0.1158
  S  S148  1  0.279900  0.489410  0.512040  1.0  0.1515
  S  S149  1  0.994000  0.694270  0.259500  1.0  0.1161
  S  S150  1  0.779900  0.010590  0.487960  1.0  0.1509
  S  S151  1  0.506000  0.305730  0.759500  1.0  0.1182
  S  S152  1  0.720100  0.989410  0.987960  1.0  0.1549
  S  S153  1  0.994000  0.805730  0.759500  1.0  0.1159
  S  S154  1  0.779900  0.489410  0.987960  1.0  0.1508
  S  S155  1  0.506000  0.194270  0.259500  1.0  0.1184
  S  S156  1  0.720100  0.510590  0.487960  1.0  0.1548
  S  S157  1  0.006000  0.305730  0.740500  1.0  0.118
  S  S158  1  0.220100  0.989410  0.512040  1.0  0.1545
  S  S159  1  0.494000  0.694270  0.240500  1.0  0.1164
  S  S160  1  0.279900  0.010590  0.012040  1.0  0.152
  O  O161  1  0.042600  0.342800  0.242900  1.0  -0.6992
  O  O162  1  0.190000  0.336200  0.265700  1.0  -0.6412
  O  O163  1  0.911100  0.065300  0.231100  1.0  -0.6548
  O  O164  1  0.029200  0.996300  0.251800  1.0  -0.6687
  O  O165  1  0.260100  0.469700  0.204800  1.0  -0.6631
  O  O166  1  0.135700  0.465300  0.142700  1.0  -0.6111
  O  O167  1  0.405200  0.562300  0.877600  1.0  -0.5613
  O  O168  1  0.257600  0.541300  0.864400  1.0  -0.6429
  O  O169  1  0.457400  0.657200  0.742900  1.0  -0.699
  O  O170  1  0.310000  0.663800  0.765700  1.0  -0.6433
  O  O171  1  0.588900  0.934700  0.731100  1.0  -0.6533
  O  O172  1  0.470800  0.003700  0.751800  1.0  -0.6695
  O  O173  1  0.239900  0.530300  0.704800  1.0  -0.664
  O  O174  1  0.364300  0.534700  0.642700  1.0  -0.612
  O  O175  1  0.094800  0.437700  0.377600  1.0  -0.5603
  O  O176  1  0.242400  0.458700  0.364400  1.0  -0.6429
  O  O177  1  0.957400  0.842800  0.257100  1.0  -0.6987
  O  O178  1  0.810000  0.836200  0.234300  1.0  -0.6423
  O  O179  1  0.088900  0.565300  0.268900  1.0  -0.6543
  O  O180  1  0.970800  0.496300  0.248200  1.0  -0.6711
  O  O181  1  0.739900  0.969700  0.295200  1.0  -0.6603
  O  O182  1  0.864300  0.965300  0.357300  1.0  -0.6115
  O  O183  1  0.594800  0.062300  0.622400  1.0  -0.561
  O  O184  1  0.742400  0.041300  0.635600  1.0  -0.6439
  O  O185  1  0.542600  0.157200  0.757100  1.0  -0.6998
  O  O186  1  0.690000  0.163800  0.734300  1.0  -0.6408
  O  O187  1  0.411100  0.434700  0.768900  1.0  -0.6545
  O  O188  1  0.529200  0.503700  0.748200  1.0  -0.6677
  O  O189  1  0.760100  0.030300  0.795200  1.0  -0.6608
  O  O190  1  0.635700  0.034700  0.857300  1.0  -0.6114
  O  O191  1  0.905200  0.937700  0.122400  1.0  -0.5612
  O  O192  1  0.757600  0.958700  0.135600  1.0  -0.6435
  O  O193  1  0.957400  0.657200  0.757100  1.0  -0.699
  O  O194  1  0.810000  0.663800  0.734300  1.0  -0.6432
  O  O195  1  0.088900  0.934700  0.768900  1.0  -0.6542
  O  O196  1  0.970800  0.003700  0.748200  1.0  -0.6688
  O  O197  1  0.739900  0.530300  0.795200  1.0  -0.6615
  O  O198  1  0.864300  0.534700  0.857300  1.0  -0.6116
  O  O199  1  0.594800  0.437700  0.122400  1.0  -0.5609
  O  O200  1  0.742400  0.458700  0.135600  1.0  -0.6442
  O  O201  1  0.542600  0.342800  0.257100  1.0  -0.6987
  O  O202  1  0.690000  0.336200  0.234300  1.0  -0.6411
  O  O203  1  0.411100  0.065300  0.268900  1.0  -0.6551
  O  O204  1  0.529200  0.996300  0.248200  1.0  -0.6695
  O  O205  1  0.760100  0.469700  0.295200  1.0  -0.662
  O  O206  1  0.635700  0.465300  0.357300  1.0  -0.6112
  O  O207  1  0.905200  0.562300  0.622400  1.0  -0.5614
  O  O208  1  0.757600  0.541300  0.635600  1.0  -0.6433
  O  O209  1  0.042600  0.157200  0.742900  1.0  -0.6997
  O  O210  1  0.190000  0.163800  0.765700  1.0  -0.6411
  O  O211  1  0.911100  0.434700  0.731100  1.0  -0.6538
  O  O212  1  0.029200  0.503700  0.751800  1.0  -0.6687
  O  O213  1  0.260100  0.030300  0.704800  1.0  -0.6651
  O  O214  1  0.135700  0.034700  0.642700  1.0  -0.6108
  O  O215  1  0.405200  0.937700  0.377600  1.0  -0.5608
  O  O216  1  0.257600  0.958700  0.364400  1.0  -0.6427
  O  O217  1  0.457400  0.842800  0.242900  1.0  -0.6993
  O  O218  1  0.310000  0.836200  0.265700  1.0  -0.6422
  O  O219  1  0.588900  0.565300  0.231100  1.0  -0.6537
  O  O220  1  0.470800  0.496300  0.251800  1.0  -0.6703
  O  O221  1  0.239900  0.969700  0.204800  1.0  -0.6641
  O  O222  1  0.364300  0.965300  0.142700  1.0  -0.6121
  O  O223  1  0.094800  0.062300  0.877600  1.0  -0.5607
  O  O224  1  0.242400  0.041300  0.864400  1.0  -0.6428
