# generated using pymatgen
data_AlH5C8O5
_symmetry_space_group_name_H-M   'P 1'
_cell_length_a   17.12900000
_cell_length_b   6.62840000
_cell_length_c   12.18160000
_cell_angle_alpha   90.00000000
_cell_angle_beta   90.00000000
_cell_angle_gamma   90.00000000
_symmetry_Int_Tables_number   1
_chemical_formula_structural   AlH5C8O5
_chemical_formula_sum   'Al4 H20 C32 O20'
_cell_volume   1383.07283923
_cell_formula_units_Z   4
loop_
 _symmetry_equiv_pos_site_id
 _symmetry_equiv_pos_as_xyz
  1  'x, y, z'
loop_
 _atom_site_type_symbol
 _atom_site_label
 _atom_site_symmetry_multiplicity
 _atom_site_fract_x
 _atom_site_fract_y
 _atom_site_fract_z
 _atom_site_occupancy
 _atom_site_charge
  Al  Al1  1  0.001840  0.008150  0.998910  1.0  1.8459
  Al  Al2  1  0.502460  0.007000  0.496310  1.0  1.8493
  Al  Al3  1  0.001800  0.508040  0.996280  1.0  1.8455
  Al  Al4  1  0.501490  0.508260  0.499950  1.0  1.8474
  H  H5  1  0.203440  0.079280  0.171000  1.0  0.109
  H  H6  1  0.325730  0.079550  0.275420  1.0  0.1112
  H  H7  1  0.299060  0.928860  0.670060  1.0  0.1129
  H  H8  1  0.176100  0.928680  0.773570  1.0  0.113
  H  H9  1  0.796740  0.579570  0.830250  1.0  0.1136
  H  H10  1  0.674860  0.579720  0.724930  1.0  0.1095
  H  H11  1  0.704770  0.428600  0.326520  1.0  0.1087
  H  H12  1  0.827310  0.428770  0.222210  1.0  0.1145
  H  H13  1  0.797090  0.930470  0.829290  1.0  0.1146
  H  H14  1  0.675140  0.930710  0.723840  1.0  0.111
  H  H15  1  0.704890  0.077460  0.327040  1.0  0.112
  H  H16  1  0.827340  0.077450  0.223210  1.0  0.1133
  H  H17  1  0.203140  0.430770  0.171750  1.0  0.1098
  H  H18  1  0.325340  0.430370  0.276550  1.0  0.1147
  H  H19  1  0.298970  0.577420  0.669550  1.0  0.108
  H  H20  1  0.176170  0.578020  0.772640  1.0  0.1096
  H  H21  1  0.514160  0.260190  0.369790  1.0  0.4634
  H  H22  1  0.502150  0.760470  0.628870  1.0  0.4758
  H  H23  1  0.018410  0.260040  0.125430  1.0  0.4749
  H  H24  1  0.999650  0.760070  0.867450  1.0  0.4742
  C  C25  1  0.228720  0.936700  0.195020  1.0  -0.0743
  C  C26  1  0.299440  0.936810  0.254170  1.0  -0.075
  C  C27  1  0.273180  0.071400  0.692560  1.0  -0.0813
  C  C28  1  0.201920  0.071780  0.750980  1.0  -0.0774
  C  C29  1  0.771420  0.436700  0.806730  1.0  -0.0722
  C  C30  1  0.700820  0.436850  0.747190  1.0  -0.075
  C  C31  1  0.729870  0.571140  0.302250  1.0  -0.0805
  C  C32  1  0.800870  0.571580  0.243610  1.0  -0.0748
  C  C33  1  0.771550  0.073440  0.806140  1.0  -0.0783
  C  C34  1  0.700970  0.073620  0.746450  1.0  -0.0783
  C  C35  1  0.729940  0.934500  0.302530  1.0  -0.074
  C  C36  1  0.800900  0.934870  0.244200  1.0  -0.0743
  C  C37  1  0.228570  0.573400  0.195480  1.0  -0.0749
  C  C38  1  0.299260  0.573380  0.254880  1.0  -0.0736
  C  C39  1  0.273130  0.434520  0.692250  1.0  -0.0692
  C  C40  1  0.201910  0.435070  0.750390  1.0  -0.0733
  C  C41  1  0.404990  0.755810  0.362760  1.0  0.7195
  C  C42  1  0.114100  0.755780  0.106470  1.0  0.7256
  C  C43  1  0.335040  0.755180  0.287380  1.0  -0.1011
  C  C44  1  0.190730  0.755120  0.167570  1.0  -0.1003
  C  C45  1  0.096480  0.255250  0.859410  1.0  0.7256
  C  C46  1  0.388570  0.253660  0.605740  1.0  0.7262
  C  C47  1  0.165790  0.253900  0.783010  1.0  -0.1034
  C  C48  1  0.311160  0.253170  0.665100  1.0  -0.0984
  C  C49  1  0.597270  0.255990  0.634820  1.0  0.7278
  C  C50  1  0.887100  0.255460  0.892950  1.0  0.7109
  C  C51  1  0.665470  0.255450  0.713000  1.0  -0.1027
  C  C52  1  0.809560  0.254970  0.833930  1.0  -0.101
  C  C53  1  0.906020  0.755050  0.134390  1.0  0.7204
  C  C54  1  0.614170  0.753730  0.388940  1.0  0.7239
  C  C55  1  0.836580  0.753670  0.210890  1.0  -0.103
  C  C56  1  0.691360  0.753120  0.328910  1.0  -0.1051
  O  O57  1  0.082950  0.927560  0.081890  1.0  -0.654
  O  O58  1  0.433120  0.927990  0.393870  1.0  -0.6486
  O  O59  1  0.419580  0.083100  0.578350  1.0  -0.6367
  O  O60  1  0.070250  0.084860  0.894970  1.0  -0.6473
  O  O61  1  0.918680  0.427460  0.916540  1.0  -0.6413
  O  O62  1  0.569640  0.428010  0.603100  1.0  -0.6486
  O  O63  1  0.583520  0.583150  0.416880  1.0  -0.6501
  O  O64  1  0.932500  0.584390  0.099140  1.0  -0.6476
  O  O65  1  0.918290  0.084230  0.919040  1.0  -0.6396
  O  O66  1  0.571710  0.085910  0.598580  1.0  -0.6461
  O  O67  1  0.582930  0.926350  0.412460  1.0  -0.651
  O  O68  1  0.933370  0.927490  0.102420  1.0  -0.6439
  O  O69  1  0.083480  0.585000  0.079000  1.0  -0.6441
  O  O70  1  0.431360  0.585220  0.397970  1.0  -0.6486
  O  O71  1  0.419980  0.426180  0.582330  1.0  -0.6394
  O  O72  1  0.069160  0.427440  0.891410  1.0  -0.6478
  O  O73  1  0.000330  0.759040  0.938240  1.0  -1.1229
  O  O74  1  0.507520  0.259150  0.439970  1.0  -1.1191
  O  O75  1  0.009010  0.259080  0.055890  1.0  -1.1204
  O  O76  1  0.501210  0.759320  0.558040  1.0  -1.1231
