# generated using pymatgen
data_AlH5C8O5
_symmetry_space_group_name_H-M   'P 1'
_cell_length_a   17.01900000
_cell_length_b   6.58440000
_cell_length_c   12.26200000
_cell_angle_alpha   90.00000000
_cell_angle_beta   90.00000000
_cell_angle_gamma   90.00000000
_symmetry_Int_Tables_number   1
_chemical_formula_structural   AlH5C8O5
_chemical_formula_sum   'Al4 H20 C32 O20'
_cell_volume   1374.07853794
_cell_formula_units_Z   4
loop_
 _symmetry_equiv_pos_site_id
 _symmetry_equiv_pos_as_xyz
  1  'x, y, z'
loop_
 _atom_site_type_symbol
 _atom_site_label
 _atom_site_symmetry_multiplicity
 _atom_site_fract_x
 _atom_site_fract_y
 _atom_site_fract_z
 _atom_site_occupancy
 _atom_site_charge
  Al  Al1  1  0.000000  0.000000  0.000000  1.0  1.7857
  Al  Al2  1  0.500000  0.000000  0.500000  1.0  1.7857
  Al  Al3  1  0.000000  0.500000  0.000000  1.0  1.7857
  Al  Al4  1  0.500000  0.500000  0.500000  1.0  1.7857
  H  H5  1  0.296600  0.054000  0.680000  1.0  0.1056
  H  H6  1  0.182300  0.054100  0.782500  1.0  0.1064
  H  H7  1  0.203400  0.946000  0.180000  1.0  0.1054
  H  H8  1  0.317700  0.945900  0.282500  1.0  0.1065
  H  H9  1  0.703400  0.554000  0.320000  1.0  0.1057
  H  H10  1  0.817700  0.554100  0.217500  1.0  0.1071
  H  H11  1  0.796600  0.446000  0.820000  1.0  0.1057
  H  H12  1  0.682300  0.445900  0.717500  1.0  0.1073
  H  H13  1  0.703400  0.946000  0.320000  1.0  0.1055
  H  H14  1  0.817700  0.945900  0.217500  1.0  0.1075
  H  H15  1  0.796600  0.054000  0.820000  1.0  0.1056
  H  H16  1  0.682300  0.054100  0.717500  1.0  0.1072
  H  H17  1  0.296600  0.446000  0.680000  1.0  0.1055
  H  H18  1  0.182300  0.445900  0.782500  1.0  0.1063
  H  H19  1  0.203400  0.554000  0.180000  1.0  0.1058
  H  H20  1  0.317700  0.554100  0.282500  1.0  0.1064
  H  H21  1  0.017000  0.750000  0.128400  1.0  0.5064
  H  H22  1  0.483000  0.250000  0.628400  1.0  0.5067
  H  H23  1  0.983000  0.250000  0.871600  1.0  0.5049
  H  H24  1  0.517000  0.750000  0.371600  1.0  0.5053
  C  C25  1  0.273910  0.931700  0.701300  1.0  -0.0521
  C  C26  1  0.205270  0.931800  0.762000  1.0  -0.0539
  C  C27  1  0.226090  0.068300  0.201300  1.0  -0.0536
  C  C28  1  0.294730  0.068200  0.262000  1.0  -0.0538
  C  C29  1  0.726090  0.431700  0.298700  1.0  -0.0528
  C  C30  1  0.794730  0.431800  0.238000  1.0  -0.0537
  C  C31  1  0.773910  0.568300  0.798700  1.0  -0.0522
  C  C32  1  0.705270  0.568200  0.738000  1.0  -0.0547
  C  C33  1  0.726090  0.068300  0.298700  1.0  -0.0532
  C  C34  1  0.794730  0.068200  0.238000  1.0  -0.0536
  C  C35  1  0.773910  0.931700  0.798700  1.0  -0.052
  C  C36  1  0.705270  0.931800  0.738000  1.0  -0.054
  C  C37  1  0.273910  0.568300  0.701300  1.0  -0.0525
  C  C38  1  0.205270  0.568200  0.762000  1.0  -0.0545
  C  C39  1  0.226090  0.431700  0.201300  1.0  -0.0529
  C  C40  1  0.294730  0.431800  0.262000  1.0  -0.0538
  C  C41  1  0.384090  0.750000  0.609900  1.0  0.738
  C  C42  1  0.308650  0.750000  0.672300  1.0  -0.1416
  C  C43  1  0.099340  0.750000  0.862900  1.0  0.7395
  C  C44  1  0.170870  0.750000  0.792300  1.0  -0.137
  C  C45  1  0.115910  0.250000  0.109900  1.0  0.7374
  C  C46  1  0.191350  0.250000  0.172300  1.0  -0.1421
  C  C47  1  0.400660  0.250000  0.362900  1.0  0.7401
  C  C48  1  0.329130  0.250000  0.292300  1.0  -0.137
  C  C49  1  0.615910  0.250000  0.390100  1.0  0.7375
  C  C50  1  0.691350  0.250000  0.327700  1.0  -0.1427
  C  C51  1  0.900660  0.250000  0.137100  1.0  0.7397
  C  C52  1  0.829130  0.250000  0.207700  1.0  -0.1364
  C  C53  1  0.884090  0.750000  0.890100  1.0  0.738
  C  C54  1  0.808650  0.750000  0.827700  1.0  -0.1424
  C  C55  1  0.599340  0.750000  0.637100  1.0  0.739
  C  C56  1  0.670870  0.750000  0.707700  1.0  -0.1366
  O  O57  1  0.072300  0.920100  0.890830  1.0  -0.6439
  O  O58  1  0.413250  0.920200  0.586060  1.0  -0.6457
  O  O59  1  0.427700  0.079900  0.390830  1.0  -0.6442
  O  O60  1  0.086750  0.079800  0.086060  1.0  -0.6461
  O  O61  1  0.927700  0.420100  0.109170  1.0  -0.6451
  O  O62  1  0.586750  0.420200  0.413940  1.0  -0.6465
  O  O63  1  0.572300  0.579900  0.609170  1.0  -0.643
  O  O64  1  0.913250  0.579800  0.913940  1.0  -0.6475
  O  O65  1  0.927700  0.079900  0.109170  1.0  -0.644
  O  O66  1  0.586750  0.079800  0.413940  1.0  -0.6472
  O  O67  1  0.572300  0.920100  0.609170  1.0  -0.6437
  O  O68  1  0.913250  0.920200  0.913940  1.0  -0.6468
  O  O69  1  0.072300  0.579900  0.890830  1.0  -0.644
  O  O70  1  0.413250  0.579800  0.586060  1.0  -0.6463
  O  O71  1  0.427700  0.420100  0.390830  1.0  -0.6445
  O  O72  1  0.086750  0.420200  0.086060  1.0  -0.6454
  O  O73  1  0.005110  0.750000  0.064180  1.0  -1.121
  O  O74  1  0.494890  0.250000  0.564180  1.0  -1.1206
  O  O75  1  0.994890  0.250000  0.935820  1.0  -1.12
  O  O76  1  0.505110  0.750000  0.435820  1.0  -1.1202
