# generated using pymatgen
data_AlH5C8O5
_symmetry_space_group_name_H-M   'P 1'
_cell_length_a   13.21700000
_cell_length_b   22.04320000
_cell_length_c   22.04320000
_cell_angle_alpha   71.07970000
_cell_angle_beta   72.55470000
_cell_angle_gamma   72.55450000
_symmetry_Int_Tables_number   1
_chemical_formula_structural   AlH5C8O5
_chemical_formula_sum   'Al16 H80 C128 O80'
_cell_volume   5647.82936667
_cell_formula_units_Z   16
loop_
 _symmetry_equiv_pos_site_id
 _symmetry_equiv_pos_as_xyz
  1  'x, y, z'
loop_
 _atom_site_type_symbol
 _atom_site_label
 _atom_site_symmetry_multiplicity
 _atom_site_fract_x
 _atom_site_fract_y
 _atom_site_fract_z
 _atom_site_occupancy
 _atom_site_charge
  Al  Al1  1  0.253220  0.251450  0.000270  1.0  1.8417
  Al  Al2  1  0.003780  0.250940  0.000030  1.0  1.8466
  Al  Al3  1  0.753220  0.251450  0.000270  1.0  1.8417
  Al  Al4  1  0.503780  0.250940  0.000030  1.0  1.8466
  Al  Al5  1  0.253220  0.751450  0.000270  1.0  1.8417
  Al  Al6  1  0.003780  0.750940  0.000030  1.0  1.8466
  Al  Al7  1  0.753220  0.751450  0.000270  1.0  1.8417
  Al  Al8  1  0.503780  0.750940  0.000030  1.0  1.8466
  Al  Al9  1  0.253220  0.251450  0.500270  1.0  1.8417
  Al  Al10  1  0.003780  0.250940  0.500030  1.0  1.8466
  Al  Al11  1  0.753220  0.251450  0.500270  1.0  1.8417
  Al  Al12  1  0.503780  0.250940  0.500030  1.0  1.8466
  Al  Al13  1  0.253220  0.751450  0.500270  1.0  1.8417
  Al  Al14  1  0.003780  0.750940  0.500030  1.0  1.8466
  Al  Al15  1  0.753220  0.751450  0.500270  1.0  1.8417
  Al  Al16  1  0.503780  0.750940  0.500030  1.0  1.8466
  H  H17  1  0.133890  0.057860  0.005440  1.0  0.1103
  H  H18  1  0.120930  0.246050  0.193340  1.0  0.1039
  H  H19  1  0.059700  0.253680  0.307000  1.0  0.1097
  H  H20  1  0.195450  0.445140  0.494800  1.0  0.1044
  H  H21  1  0.369930  0.445010  0.495080  1.0  0.1083
  H  H22  1  0.385390  0.254090  0.307150  1.0  0.115
  H  H23  1  0.446270  0.245780  0.193360  1.0  0.1068
  H  H24  1  0.308340  0.058200  0.005120  1.0  0.1048
  H  H25  1  0.376600  0.315030  0.440610  1.0  0.4783
  H  H26  1  0.124030  0.194440  0.065790  1.0  0.4746
  H  H27  1  0.633890  0.057860  0.005440  1.0  0.1103
  H  H28  1  0.620930  0.246050  0.193340  1.0  0.1039
  H  H29  1  0.559700  0.253680  0.307000  1.0  0.1097
  H  H30  1  0.695450  0.445140  0.494800  1.0  0.1044
  H  H31  1  0.869930  0.445010  0.495080  1.0  0.1083
  H  H32  1  0.885390  0.254090  0.307150  1.0  0.115
  H  H33  1  0.946270  0.245780  0.193360  1.0  0.1068
  H  H34  1  0.808340  0.058200  0.005120  1.0  0.1048
  H  H35  1  0.876600  0.315030  0.440610  1.0  0.4783
  H  H36  1  0.624030  0.194440  0.065790  1.0  0.4746
  H  H37  1  0.133890  0.557860  0.005440  1.0  0.1103
  H  H38  1  0.120930  0.746050  0.193340  1.0  0.1039
  H  H39  1  0.059700  0.753680  0.307000  1.0  0.1097
  H  H40  1  0.195450  0.945140  0.494800  1.0  0.1044
  H  H41  1  0.369930  0.945010  0.495080  1.0  0.1083
  H  H42  1  0.385390  0.754090  0.307150  1.0  0.115
  H  H43  1  0.446270  0.745780  0.193360  1.0  0.1068
  H  H44  1  0.308340  0.558200  0.005120  1.0  0.1048
  H  H45  1  0.376600  0.815030  0.440610  1.0  0.4783
  H  H46  1  0.124030  0.694440  0.065790  1.0  0.4746
  H  H47  1  0.633890  0.557860  0.005440  1.0  0.1103
  H  H48  1  0.620930  0.746050  0.193340  1.0  0.1039
  H  H49  1  0.559700  0.753680  0.307000  1.0  0.1097
  H  H50  1  0.695450  0.945140  0.494800  1.0  0.1044
  H  H51  1  0.869930  0.945010  0.495080  1.0  0.1083
  H  H52  1  0.885390  0.754090  0.307150  1.0  0.115
  H  H53  1  0.946270  0.745780  0.193360  1.0  0.1068
  H  H54  1  0.808340  0.558200  0.005120  1.0  0.1048
  H  H55  1  0.876600  0.815030  0.440610  1.0  0.4783
  H  H56  1  0.624030  0.694440  0.065790  1.0  0.4746
  H  H57  1  0.133890  0.057860  0.505440  1.0  0.1098
  H  H58  1  0.120930  0.246050  0.693340  1.0  0.1039
  H  H59  1  0.059700  0.253680  0.807000  1.0  0.1097
  H  H60  1  0.195450  0.445140  0.994800  1.0  0.1044
  H  H61  1  0.369930  0.445010  0.995080  1.0  0.1083
  H  H62  1  0.385390  0.254090  0.807150  1.0  0.115
  H  H63  1  0.446270  0.245780  0.693360  1.0  0.1068
  H  H64  1  0.308340  0.058200  0.505120  1.0  0.1048
  H  H65  1  0.376600  0.315030  0.940610  1.0  0.4783
  H  H66  1  0.124030  0.194440  0.565790  1.0  0.4746
  H  H67  1  0.633890  0.057860  0.505440  1.0  0.1098
  H  H68  1  0.620930  0.246050  0.693340  1.0  0.1039
  H  H69  1  0.559700  0.253680  0.807000  1.0  0.1097
  H  H70  1  0.695450  0.445140  0.994800  1.0  0.1044
  H  H71  1  0.869930  0.445010  0.995080  1.0  0.1083
  H  H72  1  0.885390  0.254090  0.807150  1.0  0.115
  H  H73  1  0.946270  0.245780  0.693360  1.0  0.1068
  H  H74  1  0.808340  0.058200  0.505120  1.0  0.1048
  H  H75  1  0.876600  0.315030  0.940610  1.0  0.4783
  H  H76  1  0.624030  0.194440  0.565790  1.0  0.4746
  H  H77  1  0.133890  0.557860  0.505440  1.0  0.1098
  H  H78  1  0.120930  0.746050  0.693340  1.0  0.1039
  H  H79  1  0.059700  0.753680  0.807000  1.0  0.1097
  H  H80  1  0.195450  0.945140  0.994800  1.0  0.1044
  H  H81  1  0.369930  0.945010  0.995080  1.0  0.1083
  H  H82  1  0.385390  0.754090  0.807150  1.0  0.115
  H  H83  1  0.446270  0.745780  0.693360  1.0  0.1068
  H  H84  1  0.308340  0.558200  0.505120  1.0  0.1048
  H  H85  1  0.376600  0.815030  0.940610  1.0  0.4783
  H  H86  1  0.124030  0.694440  0.565790  1.0  0.4746
  H  H87  1  0.633890  0.557860  0.505440  1.0  0.1098
  H  H88  1  0.620930  0.746050  0.693340  1.0  0.1039
  H  H89  1  0.559700  0.753680  0.807000  1.0  0.1097
  H  H90  1  0.695450  0.945140  0.994800  1.0  0.1044
  H  H91  1  0.869930  0.945010  0.995080  1.0  0.1083
  H  H92  1  0.885390  0.754090  0.807150  1.0  0.115
  H  H93  1  0.946270  0.745780  0.693360  1.0  0.1068
  H  H94  1  0.808340  0.558200  0.505120  1.0  0.1048
  H  H95  1  0.876600  0.815030  0.940610  1.0  0.4783
  H  H96  1  0.624030  0.694440  0.565790  1.0  0.4746
  C  C97  1  0.075350  0.034140  0.002760  1.0  -0.0702
  C  C98  1  0.179820  0.247030  0.217710  1.0  -0.0733
  C  C99  1  0.144680  0.251360  0.283330  1.0  -0.0708
  C  C100  1  0.111050  0.469260  0.496250  1.0  -0.077
  C  C101  1  0.428950  0.469140  0.496320  1.0  -0.0733
  C  C102  1  0.326960  0.251480  0.283340  1.0  -0.0608
  C  C103  1  0.362010  0.246910  0.217770  1.0  -0.0725
  C  C104  1  0.393170  0.034220  0.002640  1.0  -0.073
  C  C105  1  0.465940  0.067890  0.005780  1.0  -0.0953
  C  C106  1  0.430170  0.138770  0.007680  1.0  0.7221
  C  C107  1  0.289010  0.245090  0.183620  1.0  -0.1031
  C  C108  1  0.324770  0.244900  0.112260  1.0  0.7248
  C  C109  1  0.217840  0.253340  0.317430  1.0  -0.1039
  C  C110  1  0.181740  0.254950  0.388430  1.0  0.7254
  C  C111  1  0.038720  0.435350  0.493110  1.0  -0.1136
  C  C112  1  0.075940  0.364040  0.491940  1.0  0.7234
  C  C113  1  0.575350  0.034140  0.002760  1.0  -0.0702
  C  C114  1  0.679820  0.247030  0.217710  1.0  -0.0733
  C  C115  1  0.644680  0.251360  0.283330  1.0  -0.0708
  C  C116  1  0.611050  0.469260  0.496250  1.0  -0.077
  C  C117  1  0.928950  0.469140  0.496320  1.0  -0.0733
  C  C118  1  0.826960  0.251480  0.283340  1.0  -0.0608
  C  C119  1  0.862010  0.246910  0.217770  1.0  -0.0725
  C  C120  1  0.893170  0.034220  0.002640  1.0  -0.073
  C  C121  1  0.965940  0.067890  0.005780  1.0  -0.0953
  C  C122  1  0.930170  0.138770  0.007680  1.0  0.7221
  C  C123  1  0.789010  0.245090  0.183620  1.0  -0.1031
  C  C124  1  0.824770  0.244900  0.112260  1.0  0.7248
  C  C125  1  0.717840  0.253340  0.317430  1.0  -0.1039
  C  C126  1  0.681740  0.254950  0.388430  1.0  0.7254
  C  C127  1  0.538720  0.435350  0.493110  1.0  -0.1136
  C  C128  1  0.575940  0.364040  0.491940  1.0  0.7234
  C  C129  1  0.075350  0.534140  0.002760  1.0  -0.0702
  C  C130  1  0.179820  0.747030  0.217710  1.0  -0.0733
  C  C131  1  0.144680  0.751360  0.283330  1.0  -0.0708
  C  C132  1  0.111050  0.969260  0.496250  1.0  -0.077
  C  C133  1  0.428950  0.969140  0.496320  1.0  -0.0733
  C  C134  1  0.326960  0.751480  0.283340  1.0  -0.0608
  C  C135  1  0.362010  0.746910  0.217770  1.0  -0.0725
  C  C136  1  0.393170  0.534220  0.002640  1.0  -0.073
  C  C137  1  0.465940  0.567890  0.005780  1.0  -0.0953
  C  C138  1  0.430170  0.638770  0.007680  1.0  0.7221
  C  C139  1  0.289010  0.745090  0.183620  1.0  -0.1031
  C  C140  1  0.324770  0.744900  0.112260  1.0  0.7248
  C  C141  1  0.217840  0.753340  0.317430  1.0  -0.1039
  C  C142  1  0.181740  0.754950  0.388430  1.0  0.7254
  C  C143  1  0.038720  0.935350  0.493110  1.0  -0.1136
  C  C144  1  0.075940  0.864040  0.491940  1.0  0.7234
  C  C145  1  0.575350  0.534140  0.002760  1.0  -0.0702
  C  C146  1  0.679820  0.747030  0.217710  1.0  -0.0733
  C  C147  1  0.644680  0.751360  0.283330  1.0  -0.0708
  C  C148  1  0.611050  0.969260  0.496250  1.0  -0.077
  C  C149  1  0.928950  0.969140  0.496320  1.0  -0.0733
  C  C150  1  0.826960  0.751480  0.283340  1.0  -0.0608
  C  C151  1  0.862010  0.746910  0.217770  1.0  -0.0725
  C  C152  1  0.893170  0.534220  0.002640  1.0  -0.073
  C  C153  1  0.965940  0.567890  0.005780  1.0  -0.0953
  C  C154  1  0.930170  0.638770  0.007680  1.0  0.7221
  C  C155  1  0.789010  0.745090  0.183620  1.0  -0.1031
  C  C156  1  0.824770  0.744900  0.112260  1.0  0.7248
  C  C157  1  0.717840  0.753340  0.317430  1.0  -0.1039
  C  C158  1  0.681740  0.754950  0.388430  1.0  0.7254
  C  C159  1  0.538720  0.935350  0.493110  1.0  -0.1136
  C  C160  1  0.575940  0.864040  0.491940  1.0  0.7234
  C  C161  1  0.075350  0.034140  0.502760  1.0  -0.0702
  C  C162  1  0.179820  0.247030  0.717710  1.0  -0.0733
  C  C163  1  0.144680  0.251360  0.783330  1.0  -0.0708
  C  C164  1  0.111050  0.469260  0.996250  1.0  -0.077
  C  C165  1  0.428950  0.469140  0.996320  1.0  -0.0733
  C  C166  1  0.326960  0.251480  0.783340  1.0  -0.0608
  C  C167  1  0.362010  0.246910  0.717770  1.0  -0.0725
  C  C168  1  0.393170  0.034220  0.502640  1.0  -0.073
  C  C169  1  0.465940  0.067890  0.505780  1.0  -0.0953
  C  C170  1  0.430170  0.138770  0.507680  1.0  0.7221
  C  C171  1  0.289010  0.245090  0.683620  1.0  -0.1031
  C  C172  1  0.324770  0.244900  0.612260  1.0  0.7248
  C  C173  1  0.217840  0.253340  0.817430  1.0  -0.1039
  C  C174  1  0.181740  0.254950  0.888430  1.0  0.7254
  C  C175  1  0.038720  0.435350  0.993110  1.0  -0.1136
  C  C176  1  0.075940  0.364040  0.991940  1.0  0.7234
  C  C177  1  0.575350  0.034140  0.502760  1.0  -0.0702
  C  C178  1  0.679820  0.247030  0.717710  1.0  -0.0733
  C  C179  1  0.644680  0.251360  0.783330  1.0  -0.0708
  C  C180  1  0.611050  0.469260  0.996250  1.0  -0.077
  C  C181  1  0.928950  0.469140  0.996320  1.0  -0.0733
  C  C182  1  0.826960  0.251480  0.783340  1.0  -0.0608
  C  C183  1  0.862010  0.246910  0.717770  1.0  -0.0725
  C  C184  1  0.893170  0.034220  0.502640  1.0  -0.073
  C  C185  1  0.965940  0.067890  0.505780  1.0  -0.0953
  C  C186  1  0.930170  0.138770  0.507680  1.0  0.7221
  C  C187  1  0.789010  0.245090  0.683620  1.0  -0.1031
  C  C188  1  0.824770  0.244900  0.612260  1.0  0.7248
  C  C189  1  0.717840  0.253340  0.817430  1.0  -0.1039
  C  C190  1  0.681740  0.254950  0.888430  1.0  0.7254
  C  C191  1  0.538720  0.435350  0.993110  1.0  -0.1136
  C  C192  1  0.575940  0.364040  0.991940  1.0  0.7234
  C  C193  1  0.075350  0.534140  0.502760  1.0  -0.0702
  C  C194  1  0.179820  0.747030  0.717710  1.0  -0.0733
  C  C195  1  0.144680  0.751360  0.783330  1.0  -0.0708
  C  C196  1  0.111050  0.969260  0.996250  1.0  -0.077
  C  C197  1  0.428950  0.969140  0.996320  1.0  -0.0733
  C  C198  1  0.326960  0.751480  0.783340  1.0  -0.0608
  C  C199  1  0.362010  0.746910  0.717770  1.0  -0.0725
  C  C200  1  0.393170  0.534220  0.502640  1.0  -0.073
  C  C201  1  0.465940  0.567890  0.505780  1.0  -0.0953
  C  C202  1  0.430170  0.638770  0.507680  1.0  0.7221
  C  C203  1  0.289010  0.745090  0.683620  1.0  -0.1031
  C  C204  1  0.324770  0.744900  0.612260  1.0  0.7248
  C  C205  1  0.217840  0.753340  0.817430  1.0  -0.1039
  C  C206  1  0.181740  0.754950  0.888430  1.0  0.7254
  C  C207  1  0.038720  0.935350  0.993110  1.0  -0.1136
  C  C208  1  0.075940  0.864040  0.991940  1.0  0.7234
  C  C209  1  0.575350  0.534140  0.502760  1.0  -0.0702
  C  C210  1  0.679820  0.747030  0.717710  1.0  -0.0733
  C  C211  1  0.644680  0.751360  0.783330  1.0  -0.0708
  C  C212  1  0.611050  0.969260  0.996250  1.0  -0.077
  C  C213  1  0.928950  0.969140  0.996320  1.0  -0.0733
  C  C214  1  0.826960  0.751480  0.783340  1.0  -0.0608
  C  C215  1  0.862010  0.746910  0.717770  1.0  -0.0725
  C  C216  1  0.893170  0.534220  0.502640  1.0  -0.073
  C  C217  1  0.965940  0.567890  0.505780  1.0  -0.0953
  C  C218  1  0.930170  0.638770  0.507680  1.0  0.7221
  C  C219  1  0.789010  0.745090  0.683620  1.0  -0.1031
  C  C220  1  0.824770  0.744900  0.612260  1.0  0.7248
  C  C221  1  0.717840  0.753340  0.817430  1.0  -0.1039
  C  C222  1  0.681740  0.754950  0.888430  1.0  0.7254
  C  C223  1  0.538720  0.935350  0.993110  1.0  -0.1136
  C  C224  1  0.575940  0.864040  0.991940  1.0  0.7234
  O  O225  1  0.329800  0.168250  0.007640  1.0  -0.65
  O  O226  1  0.425200  0.245290  0.082810  1.0  -0.6512
  O  O227  1  0.252700  0.255430  0.417650  1.0  -0.6519
  O  O228  1  0.004840  0.334340  0.492390  1.0  -0.6511
  O  O229  1  0.176420  0.334910  0.492890  1.0  -0.656
  O  O230  1  0.081350  0.254540  0.417570  1.0  -0.6492
  O  O231  1  0.252930  0.245890  0.083030  1.0  -0.6501
  O  O232  1  0.002320  0.167950  0.006530  1.0  -0.6501
  O  O233  1  0.377850  0.280060  0.472790  1.0  -1.0975
  O  O234  1  0.126790  0.225070  0.029580  1.0  -1.106
  O  O235  1  0.829800  0.168250  0.007640  1.0  -0.65
  O  O236  1  0.925200  0.245290  0.082810  1.0  -0.6512
  O  O237  1  0.752700  0.255430  0.417650  1.0  -0.6519
  O  O238  1  0.504840  0.334340  0.492390  1.0  -0.6511
  O  O239  1  0.676420  0.334910  0.492890  1.0  -0.656
  O  O240  1  0.581350  0.254540  0.417570  1.0  -0.6492
  O  O241  1  0.752930  0.245890  0.083030  1.0  -0.6501
  O  O242  1  0.502320  0.167950  0.006530  1.0  -0.6501
  O  O243  1  0.877850  0.280060  0.472790  1.0  -1.0975
  O  O244  1  0.626790  0.225070  0.029580  1.0  -1.106
  O  O245  1  0.329800  0.668250  0.007640  1.0  -0.65
  O  O246  1  0.425200  0.745290  0.082810  1.0  -0.6512
  O  O247  1  0.252700  0.755430  0.417650  1.0  -0.6519
  O  O248  1  0.004840  0.834340  0.492390  1.0  -0.6511
  O  O249  1  0.176420  0.834910  0.492890  1.0  -0.656
  O  O250  1  0.081350  0.754540  0.417570  1.0  -0.6492
  O  O251  1  0.252930  0.745890  0.083030  1.0  -0.6501
  O  O252  1  0.002320  0.667950  0.006530  1.0  -0.6501
  O  O253  1  0.377850  0.780060  0.472790  1.0  -1.0975
  O  O254  1  0.126790  0.725070  0.029580  1.0  -1.106
  O  O255  1  0.829800  0.668250  0.007640  1.0  -0.65
  O  O256  1  0.925200  0.745290  0.082810  1.0  -0.6512
  O  O257  1  0.752700  0.755430  0.417650  1.0  -0.6519
  O  O258  1  0.504840  0.834340  0.492390  1.0  -0.6511
  O  O259  1  0.676420  0.834910  0.492890  1.0  -0.656
  O  O260  1  0.581350  0.754540  0.417570  1.0  -0.6492
  O  O261  1  0.752930  0.745890  0.083030  1.0  -0.6501
  O  O262  1  0.502320  0.667950  0.006530  1.0  -0.6501
  O  O263  1  0.877850  0.780060  0.472790  1.0  -1.0975
  O  O264  1  0.626790  0.725070  0.029580  1.0  -1.106
  O  O265  1  0.329800  0.168250  0.507640  1.0  -0.65
  O  O266  1  0.425200  0.245290  0.582810  1.0  -0.6512
  O  O267  1  0.252700  0.255430  0.917650  1.0  -0.6519
  O  O268  1  0.004840  0.334340  0.992390  1.0  -0.6511
  O  O269  1  0.176420  0.334910  0.992890  1.0  -0.656
  O  O270  1  0.081350  0.254540  0.917570  1.0  -0.6492
  O  O271  1  0.252930  0.245890  0.583030  1.0  -0.6501
  O  O272  1  0.002320  0.167950  0.506530  1.0  -0.6501
  O  O273  1  0.377850  0.280060  0.972790  1.0  -1.0975
  O  O274  1  0.126790  0.225070  0.529580  1.0  -1.106
  O  O275  1  0.829800  0.168250  0.507640  1.0  -0.65
  O  O276  1  0.925200  0.245290  0.582810  1.0  -0.6512
  O  O277  1  0.752700  0.255430  0.917650  1.0  -0.6519
  O  O278  1  0.504840  0.334340  0.992390  1.0  -0.6511
  O  O279  1  0.676420  0.334910  0.992890  1.0  -0.656
  O  O280  1  0.581350  0.254540  0.917570  1.0  -0.6492
  O  O281  1  0.752930  0.245890  0.583030  1.0  -0.6501
  O  O282  1  0.502320  0.167950  0.506530  1.0  -0.6501
  O  O283  1  0.877850  0.280060  0.972790  1.0  -1.0975
  O  O284  1  0.626790  0.225070  0.529580  1.0  -1.106
  O  O285  1  0.329800  0.668250  0.507640  1.0  -0.65
  O  O286  1  0.425200  0.745290  0.582810  1.0  -0.6512
  O  O287  1  0.252700  0.755430  0.917650  1.0  -0.6519
  O  O288  1  0.004840  0.834340  0.992390  1.0  -0.6511
  O  O289  1  0.176420  0.834910  0.992890  1.0  -0.656
  O  O290  1  0.081350  0.754540  0.917570  1.0  -0.6492
  O  O291  1  0.252930  0.745890  0.583030  1.0  -0.6501
  O  O292  1  0.002320  0.667950  0.506530  1.0  -0.6501
  O  O293  1  0.377850  0.780060  0.972790  1.0  -1.0975
  O  O294  1  0.126790  0.725070  0.529580  1.0  -1.106
  O  O295  1  0.829800  0.668250  0.507640  1.0  -0.65
  O  O296  1  0.925200  0.745290  0.582810  1.0  -0.6512
  O  O297  1  0.752700  0.755430  0.917650  1.0  -0.6519
  O  O298  1  0.504840  0.834340  0.992390  1.0  -0.6511
  O  O299  1  0.676420  0.834910  0.992890  1.0  -0.656
  O  O300  1  0.581350  0.754540  0.917570  1.0  -0.6492
  O  O301  1  0.752930  0.745890  0.583030  1.0  -0.6501
  O  O302  1  0.502320  0.667950  0.506530  1.0  -0.6501
  O  O303  1  0.877850  0.780060  0.972790  1.0  -1.0975
  O  O304  1  0.626790  0.725070  0.529580  1.0  -1.106
