# generated using pymatgen
data_AlH5C8O5
_symmetry_space_group_name_H-M   'P 1'
_cell_length_a   6.57600000
_cell_length_b   7.61200000
_cell_length_c   10.47260000
_cell_angle_alpha   111.31100000
_cell_angle_beta   103.24800000
_cell_angle_gamma   90.00000000
_symmetry_Int_Tables_number   1
_chemical_formula_structural   AlH5C8O5
_chemical_formula_sum   'Al2 H10 C16 O10'
_cell_volume   473.37008120
_cell_formula_units_Z   2
loop_
 _symmetry_equiv_pos_site_id
 _symmetry_equiv_pos_as_xyz
  1  'x, y, z'
loop_
 _atom_site_type_symbol
 _atom_site_label
 _atom_site_symmetry_multiplicity
 _atom_site_fract_x
 _atom_site_fract_y
 _atom_site_fract_z
 _atom_site_occupancy
 _atom_site_charge
  Al  Al1  1  0.001000  0.001200  0.002400  1.0  1.7177
  Al  Al2  1  0.501000  0.001200  0.002400  1.0  1.7176
  H  H3  1  0.775990  0.151000  0.679120  1.0  0.0993
  H  H4  1  0.241640  0.958420  0.337790  1.0  0.0928
  H  H5  1  0.609390  0.045880  0.412000  1.0  0.0923
  H  H6  1  0.380300  0.944490  0.586400  1.0  0.0963
  H  H7  1  0.275990  0.528120  0.679120  1.0  0.0983
  H  H8  1  0.741640  0.379380  0.337790  1.0  0.0929
  H  H9  1  0.109390  0.366120  0.412000  1.0  0.0931
  H  H10  1  0.880300  0.641920  0.586400  1.0  0.095
  H  H11  1  0.756000  0.251010  0.037250  1.0  0.4048
  H  H12  1  0.256000  0.748990  0.962750  1.0  0.3766
  C  C13  1  0.160000  0.072500  0.787000  1.0  0.6092
  C  C14  1  0.835000  0.931400  0.212800  1.0  0.6402
  C  C15  1  0.871000  0.076800  0.599600  1.0  -0.0447
  C  C16  1  0.130000  0.961600  0.407200  1.0  -0.0952
  C  C17  1  0.781000  0.025600  0.451200  1.0  -0.1189
  C  C18  1  0.212000  0.976400  0.550800  1.0  0.1044
  C  C19  1  0.078000  0.029200  0.636400  1.0  -0.1481
  C  C20  1  0.910000  0.951600  0.359200  1.0  -0.1269
  C  C21  1  0.660000  0.714500  0.787000  1.0  0.6118
  C  C22  1  0.335000  0.281400  0.212800  1.0  0.642
  C  C23  1  0.371000  0.522800  0.599600  1.0  -0.0433
  C  C24  1  0.630000  0.445600  0.407200  1.0  -0.0958
  C  C25  1  0.281000  0.425600  0.451200  1.0  -0.1208
  C  C26  1  0.712000  0.574400  0.550800  1.0  0.1046
  C  C27  1  0.578000  0.607200  0.636400  1.0  -0.148
  C  C28  1  0.410000  0.407600  0.359200  1.0  -0.1341
  O  O29  1  0.256000  0.890000  0.000000  1.0  -0.7789
  O  O30  1  0.051000  0.109200  0.872400  1.0  -0.6296
  O  O31  1  0.940000  0.882500  0.125000  1.0  -0.6225
  O  O32  1  0.340000  0.007600  0.817200  1.0  -0.6488
  O  O33  1  0.637000  0.934400  0.168800  1.0  -0.6208
  O  O34  1  0.756000  0.110000  0.000000  1.0  -0.782
  O  O35  1  0.551000  0.763200  0.872400  1.0  -0.6348
  O  O36  1  0.440000  0.242500  0.125000  1.0  -0.633
  O  O37  1  0.840000  0.809600  0.817200  1.0  -0.6447
  O  O38  1  0.137000  0.234400  0.168800  1.0  -0.6182
