# generated using pymatgen
data_Dy2CuH12C32(NO6)4
_symmetry_space_group_name_H-M   'P 1'
_cell_length_a   10.42500000
_cell_length_b   10.62000000
_cell_length_c   11.32300000
_cell_angle_alpha   83.41000000
_cell_angle_beta   74.96000000
_cell_angle_gamma   69.67000000
_symmetry_Int_Tables_number   1
_chemical_formula_structural   Dy2CuH12C32(NO6)4
_chemical_formula_sum   'Dy2 Cu1 H12 C32 N4 O24'
_cell_volume   1134.83135543
_cell_formula_units_Z   1
loop_
 _symmetry_equiv_pos_site_id
 _symmetry_equiv_pos_as_xyz
  1  'x, y, z'
loop_
 _atom_site_type_symbol
 _atom_site_label
 _atom_site_symmetry_multiplicity
 _atom_site_fract_x
 _atom_site_fract_y
 _atom_site_fract_z
 _atom_site_occupancy
 _atom_site_charge
  Dy  Dy1  1  0.586990  0.597280  0.631750  1.0  2.3098
  Dy  Dy2  1  0.413010  0.402720  0.368250  1.0  2.3107
  Cu  Cu3  1  0.000000  0.500000  0.500000  1.0  0.9234
  H  H4  1  0.354300  0.983400  0.462400  1.0  0.1204
  H  H5  1  0.994100  0.163300  0.352000  1.0  0.1324
  H  H6  1  0.177800  0.761300  0.335300  1.0  0.1372
  H  H7  1  0.684600  0.484000  0.950600  1.0  0.1151
  H  H8  1  0.916800  0.326100  0.199300  1.0  0.1352
  H  H9  1  0.107300  0.338400  0.843400  1.0  0.1352
  H  H10  1  0.645700  0.016600  0.537600  1.0  0.1205
  H  H11  1  0.005900  0.836700  0.648000  1.0  0.1321
  H  H12  1  0.822200  0.238700  0.664700  1.0  0.1377
  H  H13  1  0.315400  0.516000  0.049400  1.0  0.1146
  H  H14  1  0.083200  0.673900  0.800700  1.0  0.1351
  H  H15  1  0.892700  0.661600  0.156600  1.0  0.1346
  C  C16  1  0.281400  0.852800  0.406000  1.0  -0.1346
  C  C17  1  0.282100  0.978000  0.431400  1.0  0.0146
  C  C18  1  0.175500  0.095000  0.410800  1.0  -0.1702
  C  C19  1  0.067800  0.086700  0.363800  1.0  -0.089
  C  C20  1  0.073200  0.962000  0.335400  1.0  -0.0069
  C  C21  1  0.177500  0.843900  0.355300  1.0  -0.0315
  C  C22  1  0.391900  0.727200  0.437300  1.0  0.757
  C  C23  1  0.171200  0.231800  0.437100  1.0  0.6949
  C  C24  1  0.894300  0.418200  0.876600  1.0  -0.1367
  C  C25  1  0.771800  0.443900  0.969500  1.0  0.0131
  C  C26  1  0.779300  0.409900  0.090500  1.0  -0.1456
  C  C27  1  0.909900  0.349400  0.118900  1.0  -0.0515
  C  C28  1  0.028200  0.325100  0.024600  1.0  -0.0027
  C  C29  1  0.024700  0.357100  0.904600  1.0  -0.0587
  C  C30  1  0.887900  0.455400  0.746400  1.0  0.6911
  C  C31  1  0.648000  0.430400  0.189900  1.0  0.6947
  C  C32  1  0.718600  0.147200  0.594000  1.0  -0.1338
  C  C33  1  0.717900  0.022000  0.568600  1.0  0.0139
  C  C34  1  0.824500  0.905000  0.589200  1.0  -0.1685
  C  C35  1  0.932200  0.913300  0.636200  1.0  -0.0894
  C  C36  1  0.926800  0.038000  0.664600  1.0  -0.0051
  C  C37  1  0.822500  0.156100  0.644700  1.0  -0.0316
  C  C38  1  0.608100  0.272800  0.562700  1.0  0.7581
  C  C39  1  0.828800  0.768200  0.562900  1.0  0.6969
  C  C40  1  0.105700  0.581800  0.123400  1.0  -0.1371
  C  C41  1  0.228200  0.556100  0.030500  1.0  0.0125
  C  C42  1  0.220700  0.590100  0.909500  1.0  -0.1464
  C  C43  1  0.090100  0.650600  0.881100  1.0  -0.0501
  C  C44  1  0.971800  0.674900  0.975400  1.0  -0.0006
  C  C45  1  0.975300  0.642900  0.095400  1.0  -0.0603
  C  C46  1  0.112100  0.544600  0.253600  1.0  0.6916
  C  C47  1  0.352000  0.569600  0.810100  1.0  0.6958
  N  N48  1  0.960200  0.956000  0.283100  1.0  0.6187
  N  N49  1  0.169200  0.261300  0.052000  1.0  0.6124
  N  N50  1  0.039800  0.044000  0.716900  1.0  0.6173
  N  N51  1  0.830800  0.738700  0.948000  1.0  0.6114
  O  O52  1  0.396600  0.616800  0.405100  1.0  -0.7339
  O  O53  1  0.471600  0.741700  0.496400  1.0  -0.6231
  O  O54  1  0.282900  0.249100  0.439600  1.0  -0.6855
  O  O55  1  0.051400  0.318700  0.454500  1.0  -0.566
  O  O56  1  0.871300  0.062700  0.262300  1.0  -0.411
  O  O57  1  0.949400  0.848400  0.274700  1.0  -0.4313
  O  O58  1  0.002900  0.441100  0.669500  1.0  -0.5467
  O  O59  1  0.770800  0.496200  0.719800  1.0  -0.7334
  O  O60  1  0.529000  0.481400  0.164900  1.0  -0.6697
  O  O61  1  0.658300  0.391200  0.297800  1.0  -0.6137
  O  O62  1  0.176000  0.247700  0.158800  1.0  -0.4306
  O  O63  1  0.271100  0.234100  0.967900  1.0  -0.3731
  O  O64  1  0.603400  0.383200  0.594900  1.0  -0.735
  O  O65  1  0.528400  0.258300  0.503600  1.0  -0.6236
  O  O66  1  0.717100  0.750900  0.560400  1.0  -0.6852
  O  O67  1  0.948600  0.681300  0.545500  1.0  -0.5666
  O  O68  1  0.128700  0.937300  0.737700  1.0  -0.4109
  O  O69  1  0.050600  0.151600  0.725300  1.0  -0.4314
  O  O70  1  0.997100  0.558900  0.330500  1.0  -0.5475
  O  O71  1  0.229200  0.503800  0.280200  1.0  -0.7327
  O  O72  1  0.471000  0.518600  0.835100  1.0  -0.669
  O  O73  1  0.341700  0.608800  0.702200  1.0  -0.613
  O  O74  1  0.824000  0.752300  0.841200  1.0  -0.4292
  O  O75  1  0.728900  0.765900  0.032100  1.0  -0.3759
