# generated using pymatgen
data_AlH5C8O5
_symmetry_space_group_name_H-M   'P 1'
_cell_length_a   19.50420000
_cell_length_b   15.20140000
_cell_length_c   6.56930000
_cell_angle_alpha   90.00000000
_cell_angle_beta   104.18000000
_cell_angle_gamma   90.00000000
_symmetry_Int_Tables_number   1
_chemical_formula_structural   AlH5C8O5
_chemical_formula_sum   'Al8 H40 C64 O40'
_cell_volume   1888.39345911
_cell_formula_units_Z   8
loop_
 _symmetry_equiv_pos_site_id
 _symmetry_equiv_pos_as_xyz
  1  'x, y, z'
loop_
 _atom_site_type_symbol
 _atom_site_label
 _atom_site_symmetry_multiplicity
 _atom_site_fract_x
 _atom_site_fract_y
 _atom_site_fract_z
 _atom_site_occupancy
 _atom_site_charge
  Al  Al1  1  0.500300  0.243700  0.510800  1.0  1.7001
  Al  Al2  1  0.499700  0.743700  0.989200  1.0  1.6997
  Al  Al3  1  0.499700  0.756300  0.489200  1.0  1.6998
  Al  Al4  1  0.500300  0.256300  0.010800  1.0  1.7
  Al  Al5  1  0.000000  0.500000  0.000000  1.0  1.7513
  Al  Al6  1  0.000000  0.000000  0.500000  1.0  1.7513
  Al  Al7  1  0.000000  0.500000  0.500000  1.0  1.7891
  Al  Al8  1  0.000000  0.000000  0.000000  1.0  1.7891
  H  H9  1  0.789500  0.093990  0.865100  1.0  0.1021
  H  H10  1  0.667200  0.125100  0.718600  1.0  0.1
  H  H11  1  0.706200  0.154930  0.144400  1.0  0.1
  H  H12  1  0.828300  0.123900  0.291400  1.0  0.1058
  H  H13  1  0.290800  0.321700  0.849100  1.0  0.1064
  H  H14  1  0.168100  0.354500  0.706600  1.0  0.1099
  H  H15  1  0.212700  0.431000  0.159200  1.0  0.0963
  H  H16  1  0.336100  0.397900  0.303300  1.0  0.1066
  H  H17  1  0.495000  0.360600  0.279000  1.0  0.3492
  H  H18  1  0.993000  0.610200  0.245000  1.0  0.3777
  H  H19  1  0.210500  0.593990  0.634900  1.0  0.1019
  H  H20  1  0.332800  0.625100  0.781400  1.0  0.0995
  H  H21  1  0.293800  0.654930  0.355600  1.0  0.1003
  H  H22  1  0.171700  0.623900  0.208600  1.0  0.1048
  H  H23  1  0.709200  0.821700  0.650900  1.0  0.1047
  H  H24  1  0.831900  0.854500  0.793400  1.0  0.1099
  H  H25  1  0.787300  0.931000  0.340800  1.0  0.0958
  H  H26  1  0.663900  0.897900  0.196700  1.0  0.1083
  H  H27  1  0.505000  0.860600  0.221000  1.0  0.35
  H  H28  1  0.007000  0.110200  0.255000  1.0  0.3776
  H  H29  1  0.210500  0.906010  0.134900  1.0  0.1016
  H  H30  1  0.332800  0.874900  0.281400  1.0  0.0996
  H  H31  1  0.293800  0.845070  0.855600  1.0  0.1001
  H  H32  1  0.171700  0.876100  0.708600  1.0  0.1061
  H  H33  1  0.709200  0.678300  0.150900  1.0  0.1071
  H  H34  1  0.831900  0.645500  0.293400  1.0  0.1097
  H  H35  1  0.787300  0.569000  0.840800  1.0  0.096
  H  H36  1  0.663900  0.602100  0.696700  1.0  0.107
  H  H37  1  0.505000  0.639400  0.721000  1.0  0.3531
  H  H38  1  0.007000  0.389800  0.755000  1.0  0.3806
  H  H39  1  0.789500  0.406010  0.365100  1.0  0.1022
  H  H40  1  0.667200  0.374900  0.218600  1.0  0.0999
  H  H41  1  0.706200  0.345070  0.644400  1.0  0.1001
  H  H42  1  0.828300  0.376100  0.791400  1.0  0.1056
  H  H43  1  0.290800  0.178300  0.349100  1.0  0.1064
  H  H44  1  0.168100  0.145500  0.206600  1.0  0.1096
  H  H45  1  0.212700  0.069000  0.659200  1.0  0.0966
  H  H46  1  0.336100  0.102100  0.803300  1.0  0.1064
  H  H47  1  0.495000  0.139400  0.779000  1.0  0.3524
  H  H48  1  0.993000  0.889800  0.745000  1.0  0.3806
  C  C49  1  0.819800  0.106620  0.589500  1.0  -0.1199
  C  C50  1  0.772700  0.106640  0.715400  1.0  -0.1012
  C  C51  1  0.700700  0.124790  0.628100  1.0  -0.1058
  C  C52  1  0.675700  0.142390  0.417600  1.0  -0.0796
  C  C53  1  0.723000  0.142210  0.293600  1.0  -0.0977
  C  C54  1  0.794800  0.124240  0.381100  1.0  -0.0979
  C  C55  1  0.895400  0.087310  0.675000  1.0  0.6862
  C  C56  1  0.600900  0.162420  0.330100  1.0  0.6878
  C  C57  1  0.323700  0.357100  0.589600  1.0  -0.1063
  C  C58  1  0.275000  0.344400  0.706700  1.0  -0.0999
  C  C59  1  0.202800  0.363600  0.622000  1.0  -0.0932
  C  C60  1  0.179900  0.395170  0.421400  1.0  -0.1384
  C  C61  1  0.228700  0.408300  0.301900  1.0  -0.0942
  C  C62  1  0.301000  0.389000  0.387500  1.0  -0.0834
  C  C63  1  0.398500  0.336030  0.678500  1.0  0.6844
  C  C64  1  0.104800  0.415290  0.335600  1.0  0.7044
  C  C65  1  0.180200  0.606620  0.910500  1.0  -0.1206
  C  C66  1  0.227300  0.606640  0.784600  1.0  -0.1041
  C  C67  1  0.299300  0.624790  0.871900  1.0  -0.1041
  C  C68  1  0.324300  0.642390  0.082400  1.0  -0.0793
  C  C69  1  0.277000  0.642210  0.206400  1.0  -0.0939
  C  C70  1  0.205200  0.624240  0.118900  1.0  -0.1001
  C  C71  1  0.104600  0.587310  0.825000  1.0  0.6881
  C  C72  1  0.399100  0.662420  0.169900  1.0  0.6889
  C  C73  1  0.676300  0.857100  0.910400  1.0  -0.1066
  C  C74  1  0.725000  0.844400  0.793300  1.0  -0.1053
  C  C75  1  0.797200  0.863600  0.878000  1.0  -0.0927
  C  C76  1  0.820100  0.895170  0.078600  1.0  -0.1384
  C  C77  1  0.771300  0.908300  0.198100  1.0  -0.0905
  C  C78  1  0.699000  0.889000  0.112500  1.0  -0.0847
  C  C79  1  0.601500  0.836030  0.821500  1.0  0.6815
  C  C80  1  0.895200  0.915290  0.164400  1.0  0.6931
  C  C81  1  0.180200  0.893380  0.410500  1.0  -0.1224
  C  C82  1  0.227300  0.893360  0.284600  1.0  -0.1044
  C  C83  1  0.299300  0.875210  0.371900  1.0  -0.101
  C  C84  1  0.324300  0.857610  0.582400  1.0  -0.0793
  C  C85  1  0.277000  0.857790  0.706400  1.0  -0.0938
  C  C86  1  0.205200  0.875760  0.618900  1.0  -0.0995
  C  C87  1  0.104600  0.912690  0.325000  1.0  0.6888
  C  C88  1  0.399100  0.837580  0.669900  1.0  0.6873
  C  C89  1  0.676300  0.642900  0.410400  1.0  -0.107
  C  C90  1  0.725000  0.655600  0.293300  1.0  -0.1029
  C  C91  1  0.797200  0.636400  0.378000  1.0  -0.0926
  C  C92  1  0.820100  0.604830  0.578600  1.0  -0.1379
  C  C93  1  0.771300  0.591700  0.698100  1.0  -0.0901
  C  C94  1  0.699000  0.611000  0.612500  1.0  -0.0842
  C  C95  1  0.601500  0.663970  0.321500  1.0  0.6825
  C  C96  1  0.895200  0.584710  0.664400  1.0  0.6923
  C  C97  1  0.819800  0.393380  0.089500  1.0  -0.1206
  C  C98  1  0.772700  0.393360  0.215400  1.0  -0.102
  C  C99  1  0.700700  0.375210  0.128100  1.0  -0.1053
  C  C100  1  0.675700  0.357610  0.917600  1.0  -0.079
  C  C101  1  0.723000  0.357790  0.793600  1.0  -0.0979
  C  C102  1  0.794800  0.375760  0.881100  1.0  -0.0982
  C  C103  1  0.895400  0.412690  0.175000  1.0  0.6863
  C  C104  1  0.600900  0.337580  0.830100  1.0  0.6856
  C  C105  1  0.323700  0.142900  0.089600  1.0  -0.106
  C  C106  1  0.275000  0.155600  0.206700  1.0  -0.1004
  C  C107  1  0.202800  0.136400  0.122000  1.0  -0.0937
  C  C108  1  0.179900  0.104830  0.921400  1.0  -0.1376
  C  C109  1  0.228700  0.091700  0.801900  1.0  -0.0942
  C  C110  1  0.301000  0.111000  0.887500  1.0  -0.0836
  C  C111  1  0.398500  0.163970  0.178500  1.0  0.6845
  C  C112  1  0.104800  0.084710  0.835600  1.0  0.7035
  O  O113  1  0.499900  0.302500  0.265100  1.0  -0.9394
  O  O114  1  0.995600  0.552100  0.238400  1.0  -0.8527
  O  O115  1  0.915900  0.069600  0.872200  1.0  -0.5855
  O  O116  1  0.935500  0.089000  0.549300  1.0  -0.5944
  O  O117  1  0.557300  0.158900  0.445100  1.0  -0.6262
  O  O118  1  0.582500  0.184800  0.141000  1.0  -0.5939
  O  O119  1  0.414100  0.306400  0.866500  1.0  -0.5827
  O  O120  1  0.442400  0.346600  0.567200  1.0  -0.5915
  O  O121  1  0.063200  0.416900  0.456800  1.0  -0.627
  O  O122  1  0.086100  0.429700  0.140100  1.0  -0.5697
  O  O123  1  0.500100  0.802500  0.234900  1.0  -0.9387
  O  O124  1  0.004400  0.052100  0.261600  1.0  -0.8526
  O  O125  1  0.084100  0.569600  0.627800  1.0  -0.5848
  O  O126  1  0.064500  0.589000  0.950700  1.0  -0.5943
  O  O127  1  0.442700  0.658900  0.054900  1.0  -0.626
  O  O128  1  0.417500  0.684800  0.359000  1.0  -0.5952
  O  O129  1  0.585900  0.806400  0.633500  1.0  -0.5824
  O  O130  1  0.557600  0.846600  0.932800  1.0  -0.5927
  O  O131  1  0.936800  0.916900  0.043200  1.0  -0.6266
  O  O132  1  0.913900  0.929700  0.359900  1.0  -0.5707
  O  O133  1  0.500100  0.697500  0.734900  1.0  -0.9415
  O  O134  1  0.004400  0.447900  0.761600  1.0  -0.8536
  O  O135  1  0.084100  0.930400  0.127800  1.0  -0.5863
  O  O136  1  0.064500  0.911000  0.450700  1.0  -0.5951
  O  O137  1  0.442700  0.841100  0.554900  1.0  -0.6248
  O  O138  1  0.417500  0.815200  0.859000  1.0  -0.5965
  O  O139  1  0.585900  0.693600  0.133500  1.0  -0.5826
  O  O140  1  0.557600  0.653400  0.432800  1.0  -0.5922
  O  O141  1  0.936800  0.583100  0.543200  1.0  -0.6257
  O  O142  1  0.913900  0.570300  0.859900  1.0  -0.5708
  O  O143  1  0.499900  0.197500  0.765100  1.0  -0.9411
  O  O144  1  0.995600  0.947900  0.738400  1.0  -0.8535
  O  O145  1  0.915900  0.430400  0.372200  1.0  -0.5867
  O  O146  1  0.935500  0.411000  0.049300  1.0  -0.5949
  O  O147  1  0.557300  0.341100  0.945100  1.0  -0.6255
  O  O148  1  0.582500  0.315200  0.641000  1.0  -0.5947
  O  O149  1  0.414100  0.193600  0.366500  1.0  -0.5828
  O  O150  1  0.442400  0.153400  0.067200  1.0  -0.5905
  O  O151  1  0.063200  0.083100  0.956800  1.0  -0.6262
  O  O152  1  0.086100  0.070300  0.640100  1.0  -0.5692
