# generated using pymatgen
data_Pr2CuH12C32(NO6)4
_symmetry_space_group_name_H-M   'P 1'
_cell_length_a   10.59900000
_cell_length_b   10.68100000
_cell_length_c   11.42400000
_cell_angle_alpha   82.67000000
_cell_angle_beta   74.14000000
_cell_angle_gamma   69.32000000
_symmetry_Int_Tables_number   1
_chemical_formula_structural   Pr2CuH12C32(NO6)4
_chemical_formula_sum   'Pr2 Cu1 H12 C32 N4 O24'
_cell_volume   1163.20313781
_cell_formula_units_Z   1
loop_
 _symmetry_equiv_pos_site_id
 _symmetry_equiv_pos_as_xyz
  1  'x, y, z'
loop_
 _atom_site_type_symbol
 _atom_site_label
 _atom_site_symmetry_multiplicity
 _atom_site_fract_x
 _atom_site_fract_y
 _atom_site_fract_z
 _atom_site_occupancy
 _atom_site_charge
  Pr  Pr1  1  0.589050  0.597900  0.628650  1.0  2.2319
  Pr  Pr2  1  0.410950  0.402100  0.371350  1.0  2.2369
  Cu  Cu3  1  0.000000  0.500000  0.500000  1.0  1.0236
  H  H4  1  0.345200  0.991300  0.462700  1.0  0.1217
  H  H5  1  0.991000  0.163900  0.352700  1.0  0.1325
  H  H6  1  0.179600  0.765000  0.336500  1.0  0.1351
  H  H7  1  0.692100  0.476500  0.945400  1.0  0.1102
  H  H8  1  0.915800  0.324700  0.195700  1.0  0.1295
  H  H9  1  0.110100  0.337900  0.840800  1.0  0.1303
  H  H10  1  0.654800  0.008700  0.537300  1.0  0.122
  H  H11  1  0.009000  0.836100  0.647300  1.0  0.1323
  H  H12  1  0.820400  0.235000  0.663500  1.0  0.1357
  H  H13  1  0.307900  0.523500  0.054600  1.0  0.1103
  H  H14  1  0.084200  0.675300  0.804300  1.0  0.1297
  H  H15  1  0.889900  0.662100  0.159200  1.0  0.1295
  C  C16  1  0.280000  0.858300  0.405000  1.0  -0.1449
  C  C17  1  0.275800  0.984300  0.431400  1.0  0.0174
  C  C18  1  0.169200  0.098400  0.411400  1.0  -0.1613
  C  C19  1  0.064800  0.088300  0.364300  1.0  -0.085
  C  C20  1  0.074000  0.963800  0.335400  1.0  -0.0099
  C  C21  1  0.177800  0.847900  0.355500  1.0  -0.0305
  C  C22  1  0.391000  0.735200  0.435700  1.0  0.7469
  C  C23  1  0.160800  0.235100  0.440200  1.0  0.6662
  C  C24  1  0.899000  0.413700  0.873900  1.0  -0.1384
  C  C25  1  0.777600  0.438100  0.965000  1.0  0.015
  C  C26  1  0.782500  0.405500  0.086300  1.0  -0.1485
  C  C27  1  0.910900  0.347400  0.115400  1.0  -0.0206
  C  C28  1  0.030700  0.324100  0.022200  1.0  -0.0237
  C  C29  1  0.028000  0.355300  0.901800  1.0  -0.0613
  C  C30  1  0.894700  0.449500  0.743300  1.0  0.703
  C  C31  1  0.650700  0.426600  0.185400  1.0  0.7181
  C  C32  1  0.720000  0.141700  0.595000  1.0  -0.1446
  C  C33  1  0.724200  0.015700  0.568600  1.0  0.0177
  C  C34  1  0.830800  0.901600  0.588600  1.0  -0.1615
  C  C35  1  0.935200  0.911700  0.635700  1.0  -0.0869
  C  C36  1  0.926000  0.036200  0.664600  1.0  -0.0073
  C  C37  1  0.822200  0.152100  0.644500  1.0  -0.0342
  C  C38  1  0.609000  0.264800  0.564300  1.0  0.7488
  C  C39  1  0.839200  0.764900  0.559800  1.0  0.6665
  C  C40  1  0.101000  0.586300  0.126100  1.0  -0.1383
  C  C41  1  0.222400  0.561900  0.035000  1.0  0.0152
  C  C42  1  0.217500  0.594500  0.913700  1.0  -0.1482
  C  C43  1  0.089100  0.652600  0.884600  1.0  -0.0209
  C  C44  1  0.969300  0.675900  0.977800  1.0  -0.0228
  C  C45  1  0.972000  0.644700  0.098200  1.0  -0.064
  C  C46  1  0.105300  0.550500  0.256700  1.0  0.704
  C  C47  1  0.349300  0.573400  0.814600  1.0  0.7197
  N  N48  1  0.962700  0.956300  0.285000  1.0  0.6297
  N  N49  1  0.167600  0.265200  0.051000  1.0  0.6157
  N  N50  1  0.037300  0.043700  0.715000  1.0  0.6286
  N  N51  1  0.832400  0.734800  0.949000  1.0  0.6184
  O  O52  1  0.397000  0.623900  0.408600  1.0  -0.7543
  O  O53  1  0.470900  0.753000  0.491000  1.0  -0.634
  O  O54  1  0.267500  0.254400  0.447500  1.0  -0.6763
  O  O55  1  0.040800  0.321500  0.455200  1.0  -0.557
  O  O56  1  0.877600  0.060200  0.260400  1.0  -0.3739
  O  O57  1  0.956600  0.847600  0.274700  1.0  -0.4099
  O  O58  1  0.008000  0.439600  0.667800  1.0  -0.5481
  O  O59  1  0.781100  0.485300  0.716400  1.0  -0.7435
  O  O60  1  0.535900  0.477800  0.159700  1.0  -0.6546
  O  O61  1  0.661700  0.386500  0.292700  1.0  -0.6708
  O  O62  1  0.171200  0.251300  0.157400  1.0  -0.395
  O  O63  1  0.270500  0.239800  0.967100  1.0  -0.3769
  O  O64  1  0.603000  0.376100  0.591400  1.0  -0.7548
  O  O65  1  0.529100  0.247000  0.509000  1.0  -0.6353
  O  O66  1  0.732500  0.745600  0.552500  1.0  -0.6753
  O  O67  1  0.959200  0.678500  0.544800  1.0  -0.5571
  O  O68  1  0.122400  0.939800  0.739600  1.0  -0.3739
  O  O69  1  0.043400  0.152400  0.725300  1.0  -0.4112
  O  O70  1  0.992000  0.560400  0.332200  1.0  -0.5488
  O  O71  1  0.218900  0.514700  0.283600  1.0  -0.741
  O  O72  1  0.464100  0.522200  0.840300  1.0  -0.6535
  O  O73  1  0.338300  0.613500  0.707300  1.0  -0.6707
  O  O74  1  0.828800  0.748700  0.842600  1.0  -0.3932
  O  O75  1  0.729500  0.760200  0.032900  1.0  -0.3807
