# generated using pymatgen
data_Er2CuH12C32(NO6)4
_symmetry_space_group_name_H-M   'P 1'
_cell_length_a   10.39900000
_cell_length_b   10.60600000
_cell_length_c   11.30000000
_cell_angle_alpha   83.50000000
_cell_angle_beta   75.15000000
_cell_angle_gamma   69.62000000
_symmetry_Int_Tables_number   1
_chemical_formula_structural   Er2CuH12C32(NO6)4
_chemical_formula_sum   'Er2 Cu1 H12 C32 N4 O24'
_cell_volume   1128.86839594
_cell_formula_units_Z   1
loop_
 _symmetry_equiv_pos_site_id
 _symmetry_equiv_pos_as_xyz
  1  'x, y, z'
loop_
 _atom_site_type_symbol
 _atom_site_label
 _atom_site_symmetry_multiplicity
 _atom_site_fract_x
 _atom_site_fract_y
 _atom_site_fract_z
 _atom_site_occupancy
 _atom_site_charge
  Er  Er1  1  0.586410  0.596300  0.632770  1.0  1.5657
  Er  Er2  1  0.413590  0.403700  0.367230  1.0  1.5636
  Cu  Cu3  1  0.000000  0.500000  0.500000  1.0  0.993
  H  H4  1  0.356700  0.981500  0.462200  1.0  0.1388
  H  H5  1  0.995600  0.163300  0.352800  1.0  0.1483
  H  H6  1  0.175500  0.761300  0.337800  1.0  0.1527
  H  H7  1  0.682500  0.486500  0.950800  1.0  0.1331
  H  H8  1  0.916200  0.327500  0.200000  1.0  0.1526
  H  H9  1  0.106800  0.339000  0.843600  1.0  0.1527
  H  H10  1  0.643300  0.018500  0.537800  1.0  0.1389
  H  H11  1  0.004400  0.836700  0.647200  1.0  0.148
  H  H12  1  0.824500  0.238700  0.662200  1.0  0.1525
  H  H13  1  0.317500  0.513500  0.049200  1.0  0.1326
  H  H14  1  0.083800  0.672500  0.800000  1.0  0.1531
  H  H15  1  0.893200  0.661000  0.156400  1.0  0.1525
  C  C16  1  0.281800  0.851000  0.407100  1.0  -0.1184
  C  C17  1  0.283800  0.976500  0.431600  1.0  0.0329
  C  C18  1  0.177000  0.094400  0.410700  1.0  -0.1488
  C  C19  1  0.069200  0.086100  0.364500  1.0  -0.069
  C  C20  1  0.072800  0.961800  0.336100  1.0  0.0104
  C  C21  1  0.176500  0.843900  0.357000  1.0  -0.0388
  C  C22  1  0.391300  0.725600  0.438700  1.0  0.7562
  C  C23  1  0.174900  0.230600  0.435800  1.0  0.7304
  C  C24  1  0.892700  0.419500  0.877300  1.0  -0.1212
  C  C25  1  0.769900  0.445800  0.969900  1.0  0.0351
  C  C26  1  0.777700  0.411500  0.091000  1.0  -0.1187
  C  C27  1  0.909300  0.350400  0.119500  1.0  -0.011
  C  C28  1  0.029000  0.324900  0.024700  1.0  0.019
  C  C29  1  0.024400  0.357500  0.905100  1.0  -0.0397
  C  C30  1  0.886100  0.456300  0.746300  1.0  0.7066
  C  C31  1  0.646200  0.433100  0.190600  1.0  0.7153
  C  C32  1  0.718200  0.149000  0.592900  1.0  -0.1163
  C  C33  1  0.716200  0.023500  0.568400  1.0  0.0317
  C  C34  1  0.823000  0.905600  0.589300  1.0  -0.1476
  C  C35  1  0.930800  0.913900  0.635500  1.0  -0.0701
  C  C36  1  0.927200  0.038200  0.663900  1.0  0.0149
  C  C37  1  0.823500  0.156100  0.643000  1.0  -0.0396
  C  C38  1  0.608700  0.274400  0.561300  1.0  0.7574
  C  C39  1  0.825100  0.769400  0.564200  1.0  0.7314
  C  C40  1  0.107300  0.580500  0.122700  1.0  -0.1216
  C  C41  1  0.230100  0.554200  0.030100  1.0  0.0337
  C  C42  1  0.222300  0.588500  0.909000  1.0  -0.119
  C  C43  1  0.090700  0.649600  0.880500  1.0  -0.0115
  C  C44  1  0.971000  0.675100  0.975300  1.0  0.0195
  C  C45  1  0.975600  0.642500  0.094900  1.0  -0.0413
  C  C46  1  0.113900  0.543700  0.253700  1.0  0.707
  C  C47  1  0.353800  0.566900  0.809400  1.0  0.717
  N  N48  1  0.957700  0.956900  0.285700  1.0  0.6553
  N  N49  1  0.168800  0.261700  0.052800  1.0  0.6379
  N  N50  1  0.042300  0.043100  0.714300  1.0  0.6533
  N  N51  1  0.831200  0.738300  0.947200  1.0  0.6415
  O  O52  1  0.395500  0.615500  0.405900  1.0  -0.7221
  O  O53  1  0.471700  0.739600  0.499100  1.0  -0.6195
  O  O54  1  0.286700  0.248300  0.436800  1.0  -0.6679
  O  O55  1  0.054000  0.318100  0.454500  1.0  -0.5495
  O  O56  1  0.870700  0.062700  0.262900  1.0  -0.3856
  O  O57  1  0.949600  0.848600  0.273500  1.0  -0.3994
  O  O58  1  0.001100  0.442700  0.670600  1.0  -0.5317
  O  O59  1  0.768900  0.497700  0.720000  1.0  -0.7022
  O  O60  1  0.527700  0.483200  0.164600  1.0  -0.6455
  O  O61  1  0.657100  0.394000  0.298700  1.0  -0.5785
  O  O62  1  0.175100  0.246200  0.160000  1.0  -0.4064
  O  O63  1  0.271500  0.233100  0.968200  1.0  -0.3664
  O  O64  1  0.604500  0.384500  0.594100  1.0  -0.7229
  O  O65  1  0.528300  0.260400  0.500900  1.0  -0.6213
  O  O66  1  0.713300  0.751700  0.563200  1.0  -0.6674
  O  O67  1  0.946000  0.681900  0.545500  1.0  -0.55
  O  O68  1  0.129300  0.937300  0.737100  1.0  -0.3843
  O  O69  1  0.050400  0.151400  0.726500  1.0  -0.4008
  O  O70  1  0.998900  0.557300  0.329400  1.0  -0.5326
  O  O71  1  0.231100  0.502300  0.280000  1.0  -0.7014
  O  O72  1  0.472300  0.516800  0.835400  1.0  -0.6443
  O  O73  1  0.342900  0.606000  0.701300  1.0  -0.5783
  O  O74  1  0.824900  0.753800  0.840000  1.0  -0.4042
  O  O75  1  0.728500  0.766900  0.031800  1.0  -0.3696
