# generated using pymatgen
data_Tb2CuH12C32(NO6)4
_symmetry_space_group_name_H-M   'P 1'
_cell_length_a   10.44500000
_cell_length_b   10.63600000
_cell_length_c   11.32600000
_cell_angle_alpha   83.28000000
_cell_angle_beta   74.83000000
_cell_angle_gamma   69.60000000
_symmetry_Int_Tables_number   1
_chemical_formula_structural   Tb2CuH12C32(NO6)4
_chemical_formula_sum   'Tb2 Cu1 H12 C32 N4 O24'
_cell_volume   1137.76699925
_cell_formula_units_Z   1
loop_
 _symmetry_equiv_pos_site_id
 _symmetry_equiv_pos_as_xyz
  1  'x, y, z'
loop_
 _atom_site_type_symbol
 _atom_site_label
 _atom_site_symmetry_multiplicity
 _atom_site_fract_x
 _atom_site_fract_y
 _atom_site_fract_z
 _atom_site_occupancy
 _atom_site_charge
  Tb  Tb1  1  0.587360  0.596820  0.631620  1.0  2.2956
  Tb  Tb2  1  0.412640  0.403180  0.368380  1.0  2.2965
  Cu  Cu3  1  0.000000  0.500000  0.500000  1.0  0.9369
  H  H4  1  0.353100  0.985000  0.462300  1.0  0.1176
  H  H5  1  0.993200  0.162700  0.353300  1.0  0.1294
  H  H6  1  0.176800  0.762100  0.336200  1.0  0.1366
  H  H7  1  0.685800  0.483500  0.949200  1.0  0.1136
  H  H8  1  0.916100  0.325900  0.199200  1.0  0.1308
  H  H9  1  0.107900  0.337400  0.842800  1.0  0.1308
  H  H10  1  0.646900  0.015000  0.537700  1.0  0.1174
  H  H11  1  0.006800  0.837300  0.646700  1.0  0.1289
  H  H12  1  0.823200  0.237900  0.663800  1.0  0.1372
  H  H13  1  0.314200  0.516500  0.050800  1.0  0.1138
  H  H14  1  0.083900  0.674100  0.800800  1.0  0.1312
  H  H15  1  0.892100  0.662600  0.157200  1.0  0.1305
  C  C16  1  0.281500  0.853500  0.406200  1.0  -0.1427
  C  C17  1  0.281300  0.979300  0.431400  1.0  0.0211
  C  C18  1  0.175000  0.095700  0.410700  1.0  -0.1955
  C  C19  1  0.067400  0.086400  0.364500  1.0  -0.0887
  C  C20  1  0.073300  0.962300  0.335700  1.0  -0.0039
  C  C21  1  0.176900  0.844600  0.355700  1.0  -0.0451
  C  C22  1  0.391100  0.729000  0.437800  1.0  0.7505
  C  C23  1  0.170600  0.231700  0.437200  1.0  0.6969
  C  C24  1  0.895000  0.417300  0.876400  1.0  -0.1376
  C  C25  1  0.772700  0.443400  0.968500  1.0  0.0281
  C  C26  1  0.779700  0.409700  0.090300  1.0  -0.1376
  C  C27  1  0.909900  0.349200  0.118700  1.0  -0.0947
  C  C28  1  0.029900  0.324600  0.024500  1.0  -0.0136
  C  C29  1  0.025500  0.356300  0.904300  1.0  -0.0634
  C  C30  1  0.889600  0.453700  0.745800  1.0  0.6889
  C  C31  1  0.647800  0.430900  0.189100  1.0  0.6997
  C  C32  1  0.718500  0.146500  0.593800  1.0  -0.1413
  C  C33  1  0.718700  0.020700  0.568600  1.0  0.0205
  C  C34  1  0.825000  0.904300  0.589300  1.0  -0.1947
  C  C35  1  0.932600  0.913600  0.635500  1.0  -0.0893
  C  C36  1  0.926700  0.037700  0.664300  1.0  0.0008
  C  C37  1  0.823100  0.155400  0.644300  1.0  -0.0465
  C  C38  1  0.608900  0.271000  0.562200  1.0  0.7522
  C  C39  1  0.829400  0.768300  0.562800  1.0  0.6988
  C  C40  1  0.105000  0.582700  0.123600  1.0  -0.138
  C  C41  1  0.227300  0.556600  0.031500  1.0  0.0279
  C  C42  1  0.220300  0.590300  0.909700  1.0  -0.1378
  C  C43  1  0.090100  0.650800  0.881300  1.0  -0.0939
  C  C44  1  0.970100  0.675400  0.975500  1.0  -0.0129
  C  C45  1  0.974500  0.643700  0.095700  1.0  -0.0642
  C  C46  1  0.110400  0.546300  0.254200  1.0  0.6893
  C  C47  1  0.352200  0.569100  0.810900  1.0  0.7011
  N  N48  1  0.958700  0.956800  0.285400  1.0  0.6444
  N  N49  1  0.168600  0.262500  0.052600  1.0  0.6247
  N  N50  1  0.041300  0.043200  0.714600  1.0  0.6427
  N  N51  1  0.831400  0.737500  0.947400  1.0  0.6272
  O  O52  1  0.396400  0.618400  0.406200  1.0  -0.7424
  O  O53  1  0.471000  0.743800  0.496500  1.0  -0.6395
  O  O54  1  0.281100  0.250400  0.440700  1.0  -0.6833
  O  O55  1  0.050600  0.318800  0.454400  1.0  -0.5653
  O  O56  1  0.872800  0.061600  0.262100  1.0  -0.3688
  O  O57  1  0.950900  0.847900  0.274300  1.0  -0.419
  O  O58  1  0.003500  0.441600  0.669500  1.0  -0.5466
  O  O59  1  0.772800  0.494200  0.719000  1.0  -0.7192
  O  O60  1  0.530200  0.482000  0.163600  1.0  -0.6564
  O  O61  1  0.658200  0.391100  0.297000  1.0  -0.6144
  O  O62  1  0.174000  0.247400  0.159500  1.0  -0.422
  O  O63  1  0.271500  0.235300  0.968900  1.0  -0.3841
  O  O64  1  0.603600  0.381600  0.593800  1.0  -0.7439
  O  O65  1  0.529000  0.256200  0.503500  1.0  -0.6392
  O  O66  1  0.718900  0.749600  0.559300  1.0  -0.6821
  O  O67  1  0.949400  0.681200  0.545600  1.0  -0.5658
  O  O68  1  0.127200  0.938400  0.737900  1.0  -0.3674
  O  O69  1  0.049100  0.152100  0.725700  1.0  -0.419
  O  O70  1  0.996500  0.558400  0.330500  1.0  -0.5477
  O  O71  1  0.227200  0.505800  0.281000  1.0  -0.7176
  O  O72  1  0.469800  0.518000  0.836400  1.0  -0.6553
  O  O73  1  0.341800  0.608900  0.703000  1.0  -0.6142
  O  O74  1  0.826000  0.752600  0.840500  1.0  -0.4208
  O  O75  1  0.728500  0.764700  0.031100  1.0  -0.3864
