# generated using pymatgen
data_Eu2CuH12C32(NO6)4
_symmetry_space_group_name_H-M   'P 1'
_cell_length_a   10.50000000
_cell_length_b   10.63500000
_cell_length_c   11.37300000
_cell_angle_alpha   82.98000000
_cell_angle_beta   74.42000000
_cell_angle_gamma   69.60000000
_symmetry_Int_Tables_number   1
_chemical_formula_structural   Eu2CuH12C32(NO6)4
_chemical_formula_sum   'Eu2 Cu1 H12 C32 N4 O24'
_cell_volume   1146.03019778
_cell_formula_units_Z   1
loop_
 _symmetry_equiv_pos_site_id
 _symmetry_equiv_pos_as_xyz
  1  'x, y, z'
loop_
 _atom_site_type_symbol
 _atom_site_label
 _atom_site_symmetry_multiplicity
 _atom_site_fract_x
 _atom_site_fract_y
 _atom_site_fract_z
 _atom_site_occupancy
 _atom_site_charge
  Eu  Eu1  1  0.588040  0.598370  0.629800  1.0  2.1852
  Eu  Eu2  1  0.411960  0.401630  0.370200  1.0  2.1887
  Cu  Cu3  1  0.000000  0.500000  0.500000  1.0  1.0721
  H  H4  1  0.349200  0.987000  0.463500  1.0  0.1211
  H  H5  1  0.992700  0.164100  0.352600  1.0  0.1343
  H  H6  1  0.178100  0.763300  0.335200  1.0  0.136
  H  H7  1  0.688500  0.479700  0.948600  1.0  0.1127
  H  H8  1  0.916000  0.325600  0.197300  1.0  0.1287
  H  H9  1  0.108200  0.337500  0.841400  1.0  0.1318
  H  H10  1  0.650800  0.013000  0.536500  1.0  0.1217
  H  H11  1  0.007300  0.835900  0.647400  1.0  0.1344
  H  H12  1  0.821900  0.236700  0.664800  1.0  0.1366
  H  H13  1  0.311500  0.520300  0.051400  1.0  0.1124
  H  H14  1  0.084000  0.674400  0.802700  1.0  0.1285
  H  H15  1  0.891800  0.662500  0.158600  1.0  0.1313
  C  C16  1  0.281900  0.854400  0.404200  1.0  -0.1406
  C  C17  1  0.279100  0.980700  0.431400  1.0  0.0161
  C  C18  1  0.173200  0.095600  0.411100  1.0  -0.1577
  C  C19  1  0.066500  0.087800  0.363800  1.0  -0.0885
  C  C20  1  0.074800  0.961800  0.334100  1.0  -0.0084
  C  C21  1  0.177800  0.846000  0.354400  1.0  -0.0575
  C  C22  1  0.391800  0.730900  0.435900  1.0  0.7531
  C  C23  1  0.166800  0.232800  0.439000  1.0  0.6644
  C  C24  1  0.896300  0.415900  0.875300  1.0  -0.1415
  C  C25  1  0.775000  0.440200  0.967500  1.0  0.0061
  C  C26  1  0.781200  0.405900  0.088800  1.0  -0.1246
  C  C27  1  0.910100  0.347900  0.116900  1.0  -0.0165
  C  C28  1  0.030100  0.323800  0.022500  1.0  -0.013
  C  C29  1  0.026000  0.355700  0.902900  1.0  -0.0556
  C  C30  1  0.890200  0.453800  0.745100  1.0  0.6814
  C  C31  1  0.649300  0.426600  0.188000  1.0  0.7106
  C  C32  1  0.718100  0.145600  0.595800  1.0  -0.1395
  C  C33  1  0.720900  0.019300  0.568600  1.0  0.0159
  C  C34  1  0.826800  0.904400  0.588900  1.0  -0.1567
  C  C35  1  0.933500  0.912200  0.636200  1.0  -0.0893
  C  C36  1  0.925200  0.038200  0.665900  1.0  -0.0055
  C  C37  1  0.822200  0.154000  0.645600  1.0  -0.0575
  C  C38  1  0.608200  0.269100  0.564100  1.0  0.754
  C  C39  1  0.833200  0.767200  0.561000  1.0  0.664
  C  C40  1  0.103700  0.584100  0.124700  1.0  -0.1416
  C  C41  1  0.225000  0.559800  0.032500  1.0  0.006
  C  C42  1  0.218800  0.594100  0.911200  1.0  -0.1243
  C  C43  1  0.089900  0.652100  0.883100  1.0  -0.0162
  C  C44  1  0.969900  0.676200  0.977500  1.0  -0.0116
  C  C45  1  0.974000  0.644300  0.097100  1.0  -0.0573
  C  C46  1  0.109800  0.546200  0.254900  1.0  0.6815
  C  C47  1  0.350700  0.573400  0.812000  1.0  0.7103
  N  N48  1  0.961700  0.956400  0.283100  1.0  0.6269
  N  N49  1  0.169000  0.262000  0.050700  1.0  0.6073
  N  N50  1  0.038300  0.043600  0.716900  1.0  0.6275
  N  N51  1  0.831000  0.738000  0.949300  1.0  0.6075
  O  O52  1  0.397000  0.620000  0.405800  1.0  -0.7244
  O  O53  1  0.472700  0.745700  0.492400  1.0  -0.6477
  O  O54  1  0.274800  0.251600  0.445700  1.0  -0.6675
  O  O55  1  0.046000  0.319300  0.454600  1.0  -0.5509
  O  O56  1  0.877800  0.060500  0.257700  1.0  -0.3733
  O  O57  1  0.952600  0.848400  0.274200  1.0  -0.4148
  O  O58  1  0.004800  0.440700  0.668700  1.0  -0.55
  O  O59  1  0.774600  0.493200  0.719100  1.0  -0.7193
  O  O60  1  0.532700  0.476300  0.163100  1.0  -0.6711
  O  O61  1  0.659000  0.388500  0.296500  1.0  -0.6688
  O  O62  1  0.174400  0.250800  0.156300  1.0  -0.3978
  O  O63  1  0.271200  0.232900  0.965900  1.0  -0.3673
  O  O64  1  0.603000  0.380000  0.594200  1.0  -0.726
  O  O65  1  0.527300  0.254300  0.507600  1.0  -0.6489
  O  O66  1  0.725200  0.748400  0.554300  1.0  -0.6658
  O  O67  1  0.954000  0.680700  0.545400  1.0  -0.5511
  O  O68  1  0.122200  0.939500  0.742300  1.0  -0.372
  O  O69  1  0.047400  0.151600  0.725800  1.0  -0.4151
  O  O70  1  0.995200  0.559300  0.331300  1.0  -0.5512
  O  O71  1  0.225400  0.506800  0.280900  1.0  -0.7166
  O  O72  1  0.467300  0.523700  0.836900  1.0  -0.6696
  O  O73  1  0.341000  0.611500  0.703500  1.0  -0.669
  O  O74  1  0.825600  0.749200  0.843700  1.0  -0.397
  O  O75  1  0.728800  0.767100  0.034100  1.0  -0.3694
