# generated using pymatgen
data_Nd2CuH12C32(NO6)4
_symmetry_space_group_name_H-M   'P 1'
_cell_length_a   10.54600000
_cell_length_b   10.65300000
_cell_length_c   11.42200000
_cell_angle_alpha   82.68000000
_cell_angle_beta   74.10000000
_cell_angle_gamma   69.42000000
_symmetry_Int_Tables_number   1
_chemical_formula_structural   Nd2CuH12C32(NO6)4
_chemical_formula_sum   'Nd2 Cu1 H12 C32 N4 O24'
_cell_volume   1154.67865708
_cell_formula_units_Z   1
loop_
 _symmetry_equiv_pos_site_id
 _symmetry_equiv_pos_as_xyz
  1  'x, y, z'
loop_
 _atom_site_type_symbol
 _atom_site_label
 _atom_site_symmetry_multiplicity
 _atom_site_fract_x
 _atom_site_fract_y
 _atom_site_fract_z
 _atom_site_occupancy
 _atom_site_charge
  Nd  Nd1  1  0.589000  0.598510  0.628290  1.0  2.3144
  Nd  Nd2  1  0.411000  0.401490  0.371710  1.0  2.3193
  Cu  Cu3  1  0.000000  0.500000  0.500000  1.0  1.0402
  H  H4  1  0.346500  0.990200  0.462100  1.0  0.1129
  H  H5  1  0.991900  0.163800  0.352600  1.0  0.1299
  H  H6  1  0.181100  0.763600  0.334500  1.0  0.1331
  H  H7  1  0.690000  0.476100  0.946500  1.0  0.1115
  H  H8  1  0.916600  0.323700  0.195700  1.0  0.1332
  H  H9  1  0.109300  0.336900  0.839800  1.0  0.1294
  H  H10  1  0.653500  0.009800  0.537900  1.0  0.1132
  H  H11  1  0.008100  0.836200  0.647400  1.0  0.1297
  H  H12  1  0.818900  0.236400  0.665500  1.0  0.1334
  H  H13  1  0.310000  0.523900  0.053500  1.0  0.1114
  H  H14  1  0.083400  0.676300  0.804300  1.0  0.1335
  H  H15  1  0.890700  0.663100  0.160200  1.0  0.1293
  C  C16  1  0.280600  0.857400  0.404600  1.0  -0.156
  C  C17  1  0.276600  0.983400  0.430900  1.0  0.0102
  C  C18  1  0.170300  0.097700  0.411200  1.0  -0.1726
  C  C19  1  0.065900  0.087900  0.363900  1.0  -0.0881
  C  C20  1  0.074400  0.963600  0.334200  1.0  -0.009
  C  C21  1  0.178900  0.846600  0.354100  1.0  -0.0205
  C  C22  1  0.391800  0.733400  0.434900  1.0  0.7531
  C  C23  1  0.161500  0.234600  0.440500  1.0  0.6709
  C  C24  1  0.899000  0.413700  0.873800  1.0  -0.1424
  C  C25  1  0.776000  0.437900  0.965800  1.0  0.005
  C  C26  1  0.781800  0.404900  0.086900  1.0  -0.1457
  C  C27  1  0.911100  0.346600  0.115500  1.0  -0.0664
  C  C28  1  0.030100  0.323700  0.022000  1.0  -0.0138
  C  C29  1  0.027000  0.355000  0.901100  1.0  -0.0644
  C  C30  1  0.893900  0.450600  0.743500  1.0  0.6923
  C  C31  1  0.650600  0.425300  0.186100  1.0  0.7138
  C  C32  1  0.719400  0.142600  0.595400  1.0  -0.1552
  C  C33  1  0.723400  0.016600  0.569100  1.0  0.0093
  C  C34  1  0.829700  0.902300  0.588800  1.0  -0.1724
  C  C35  1  0.934100  0.912100  0.636100  1.0  -0.088
  C  C36  1  0.925600  0.036400  0.665800  1.0  -0.0079
  C  C37  1  0.821100  0.153400  0.645900  1.0  -0.0236
  C  C38  1  0.608200  0.266600  0.565100  1.0  0.7541
  C  C39  1  0.838500  0.765400  0.559500  1.0  0.6703
  C  C40  1  0.101000  0.586300  0.126200  1.0  -0.1419
  C  C41  1  0.224000  0.562100  0.034200  1.0  0.0053
  C  C42  1  0.218200  0.595100  0.913100  1.0  -0.1455
  C  C43  1  0.088900  0.653400  0.884500  1.0  -0.0654
  C  C44  1  0.969900  0.676300  0.978000  1.0  -0.0124
  C  C45  1  0.973000  0.645000  0.098900  1.0  -0.0659
  C  C46  1  0.106100  0.549400  0.256500  1.0  0.693
  C  C47  1  0.349400  0.574700  0.813900  1.0  0.714
  N  N48  1  0.964400  0.955700  0.283300  1.0  0.6266
  N  N49  1  0.167000  0.264100  0.050000  1.0  0.6264
  N  N50  1  0.035600  0.044300  0.716700  1.0  0.6261
  N  N51  1  0.833000  0.735900  0.950000  1.0  0.6299
  O  O52  1  0.397900  0.622400  0.406900  1.0  -0.7366
  O  O53  1  0.471600  0.751100  0.490500  1.0  -0.6331
  O  O54  1  0.267700  0.254000  0.448300  1.0  -0.6683
  O  O55  1  0.041500  0.320600  0.455300  1.0  -0.558
  O  O56  1  0.879700  0.059400  0.258000  1.0  -0.3814
  O  O57  1  0.955800  0.847800  0.274200  1.0  -0.4272
  O  O58  1  0.007200  0.439400  0.667800  1.0  -0.5458
  O  O59  1  0.779100  0.488400  0.717200  1.0  -0.7391
  O  O60  1  0.534500  0.475900  0.161200  1.0  -0.6679
  O  O61  1  0.660700  0.386600  0.294200  1.0  -0.6685
  O  O62  1  0.171800  0.252000  0.155600  1.0  -0.3934
  O  O63  1  0.270200  0.237200  0.965100  1.0  -0.3907
  O  O64  1  0.602100  0.377600  0.593100  1.0  -0.7378
  O  O65  1  0.528400  0.248900  0.509500  1.0  -0.6342
  O  O66  1  0.732300  0.746000  0.551700  1.0  -0.6676
  O  O67  1  0.958500  0.679400  0.544700  1.0  -0.5586
  O  O68  1  0.120300  0.940600  0.742000  1.0  -0.3802
  O  O69  1  0.044200  0.152200  0.725800  1.0  -0.4274
  O  O70  1  0.992800  0.560600  0.332200  1.0  -0.546
  O  O71  1  0.220900  0.511600  0.282800  1.0  -0.7374
  O  O72  1  0.465500  0.524100  0.838800  1.0  -0.6667
  O  O73  1  0.339300  0.613400  0.705800  1.0  -0.6679
  O  O74  1  0.828200  0.748000  0.844400  1.0  -0.3924
  O  O75  1  0.729800  0.762800  0.034900  1.0  -0.3914
