# generated using pymatgen
data_Sm2CuH12C32(NO6)4
_symmetry_space_group_name_H-M   'P 1'
_cell_length_a   10.52800000
_cell_length_b   10.67100000
_cell_length_c   11.37800000
_cell_angle_alpha   83.14000000
_cell_angle_beta   74.61000000
_cell_angle_gamma   69.34000000
_symmetry_Int_Tables_number   1
_chemical_formula_structural   Sm2CuH12C32(NO6)4
_chemical_formula_sum   'Sm2 Cu1 H12 C32 N4 O24'
_cell_volume   1152.68930562
_cell_formula_units_Z   1
loop_
 _symmetry_equiv_pos_site_id
 _symmetry_equiv_pos_as_xyz
  1  'x, y, z'
loop_
 _atom_site_type_symbol
 _atom_site_label
 _atom_site_symmetry_multiplicity
 _atom_site_fract_x
 _atom_site_fract_y
 _atom_site_fract_z
 _atom_site_occupancy
 _atom_site_charge
  Sm  Sm1  1  0.587950  0.596720  0.630940  1.0  2.3229
  Sm  Sm2  1  0.412050  0.403280  0.369060  1.0  2.3286
  Cu  Cu3  1  0.000000  0.500000  0.500000  1.0  1.0402
  H  H4  1  0.350100  0.987800  0.462600  1.0  0.1209
  H  H5  1  0.992700  0.164300  0.353900  1.0  0.1351
  H  H6  1  0.177300  0.763200  0.338400  1.0  0.1363
  H  H7  1  0.689200  0.481200  0.947800  1.0  0.1136
  H  H8  1  0.915600  0.325700  0.197700  1.0  0.1353
  H  H9  1  0.108700  0.338200  0.841700  1.0  0.1287
  H  H10  1  0.649900  0.012200  0.537400  1.0  0.1215
  H  H11  1  0.007300  0.835700  0.646100  1.0  0.1353
  H  H12  1  0.822700  0.236800  0.661600  1.0  0.1361
  H  H13  1  0.310800  0.518800  0.052200  1.0  0.1152
  H  H14  1  0.084400  0.674300  0.802300  1.0  0.136
  H  H15  1  0.891300  0.661800  0.158300  1.0  0.128
  C  C16  1  0.280900  0.855700  0.406100  1.0  -0.1429
  C  C17  1  0.279300  0.981500  0.431500  1.0  0.0159
  C  C18  1  0.172600  0.097100  0.410600  1.0  -0.1713
  C  C19  1  0.066800  0.088100  0.364900  1.0  -0.0837
  C  C20  1  0.073800  0.963200  0.336200  1.0  -0.0139
  C  C21  1  0.177100  0.845900  0.356800  1.0  -0.0222
  C  C22  1  0.390900  0.731800  0.438100  1.0  0.7425
  C  C23  1  0.167400  0.233400  0.437700  1.0  0.6742
  C  C24  1  0.897300  0.416000  0.874900  1.0  -0.1425
  C  C25  1  0.775500  0.441300  0.967200  1.0  0.0107
  C  C26  1  0.780700  0.407900  0.088100  1.0  -0.1352
  C  C27  1  0.910200  0.348600  0.117300  1.0  -0.0777
  C  C28  1  0.031100  0.324700  0.023300  1.0  -0.025
  C  C29  1  0.026600  0.356400  0.903000  1.0  -0.0824
  C  C30  1  0.892600  0.451800  0.744800  1.0  0.6872
  C  C31  1  0.649200  0.429000  0.187000  1.0  0.7174
  C  C32  1  0.719100  0.144300  0.593900  1.0  -0.1429
  C  C33  1  0.720700  0.018500  0.568500  1.0  0.0164
  C  C34  1  0.827400  0.902900  0.589400  1.0  -0.171
  C  C35  1  0.933200  0.911900  0.635100  1.0  -0.0837
  C  C36  1  0.926200  0.036800  0.663800  1.0  -0.0112
  C  C37  1  0.822900  0.154100  0.643200  1.0  -0.0227
  C  C38  1  0.609100  0.268200  0.561900  1.0  0.7451
  C  C39  1  0.832600  0.766600  0.562300  1.0  0.669
  C  C40  1  0.102700  0.584000  0.125100  1.0  -0.1428
  C  C41  1  0.224500  0.558700  0.032800  1.0  0.0088
  C  C42  1  0.219300  0.592100  0.911900  1.0  -0.1356
  C  C43  1  0.089800  0.651400  0.882700  1.0  -0.0773
  C  C44  1  0.968900  0.675300  0.976700  1.0  -0.0254
  C  C45  1  0.973400  0.643600  0.097000  1.0  -0.0749
  C  C46  1  0.107400  0.548200  0.255200  1.0  0.6886
  C  C47  1  0.350800  0.571000  0.813000  1.0  0.7188
  N  N48  1  0.960800  0.956800  0.286300  1.0  0.6515
  N  N49  1  0.167900  0.264500  0.052300  1.0  0.6313
  N  N50  1  0.039200  0.043200  0.713700  1.0  0.6483
  N  N51  1  0.832100  0.735500  0.947700  1.0  0.6339
  O  O52  1  0.395900  0.620800  0.407600  1.0  -0.7187
  O  O53  1  0.470300  0.747800  0.495400  1.0  -0.645
  O  O54  1  0.275600  0.252200  0.442300  1.0  -0.6766
  O  O55  1  0.046700  0.320000  0.454800  1.0  -0.5538
  O  O56  1  0.874100  0.061000  0.263100  1.0  -0.3936
  O  O57  1  0.953700  0.847900  0.274400  1.0  -0.4547
  O  O58  1  0.005700  0.440900  0.668400  1.0  -0.5463
  O  O59  1  0.776300  0.488900  0.717800  1.0  -0.7204
  O  O60  1  0.532800  0.480900  0.161700  1.0  -0.6656
  O  O61  1  0.660500  0.388700  0.295100  1.0  -0.6542
  O  O62  1  0.172000  0.249100  0.159300  1.0  -0.4224
  O  O63  1  0.271500  0.239900  0.968100  1.0  -0.4035
  O  O64  1  0.604100  0.379200  0.592400  1.0  -0.7201
  O  O65  1  0.529700  0.252200  0.504600  1.0  -0.646
  O  O66  1  0.724400  0.747800  0.557700  1.0  -0.6744
  O  O67  1  0.953300  0.680000  0.545200  1.0  -0.5529
  O  O68  1  0.125900  0.939000  0.736900  1.0  -0.3922
  O  O69  1  0.046300  0.152100  0.725600  1.0  -0.455
  O  O70  1  0.994300  0.559100  0.331600  1.0  -0.5476
  O  O71  1  0.223700  0.511100  0.282200  1.0  -0.7177
  O  O72  1  0.467200  0.519100  0.838300  1.0  -0.6656
  O  O73  1  0.339500  0.611300  0.704900  1.0  -0.6551
  O  O74  1  0.828000  0.750900  0.840700  1.0  -0.4209
  O  O75  1  0.728500  0.760100  0.031900  1.0  -0.4069
