# generated using pymatgen
data_Gd2CuH12C32(NO6)4
_symmetry_space_group_name_H-M   'P 1'
_cell_length_a   10.46400000
_cell_length_b   10.60700000
_cell_length_c   11.35300000
_cell_angle_alpha   83.08000000
_cell_angle_beta   74.54000000
_cell_angle_gamma   69.67000000
_symmetry_Int_Tables_number   1
_chemical_formula_structural   Gd2CuH12C32(NO6)4
_chemical_formula_sum   'Gd2 Cu1 H12 C32 N4 O24'
_cell_volume   1138.29817606
_cell_formula_units_Z   1
loop_
 _symmetry_equiv_pos_site_id
 _symmetry_equiv_pos_as_xyz
  1  'x, y, z'
loop_
 _atom_site_type_symbol
 _atom_site_label
 _atom_site_symmetry_multiplicity
 _atom_site_fract_x
 _atom_site_fract_y
 _atom_site_fract_z
 _atom_site_occupancy
 _atom_site_charge
  Gd  Gd1  1  0.587870  0.598590  0.629860  1.0  2.2269
  Gd  Gd2  1  0.412130  0.401410  0.370140  1.0  2.2298
  Cu  Cu3  1  0.000000  0.500000  0.500000  1.0  1.0636
  H  H4  1  0.350900  0.986100  0.462800  1.0  0.1192
  H  H5  1  0.993200  0.163700  0.352200  1.0  0.1312
  H  H6  1  0.179300  0.762700  0.332500  1.0  0.1342
  H  H7  1  0.686700  0.481800  0.949300  1.0  0.1131
  H  H8  1  0.915800  0.326100  0.197300  1.0  0.1225
  H  H9  1  0.106800  0.338400  0.840200  1.0  0.1277
  H  H10  1  0.649100  0.013900  0.537200  1.0  0.1193
  H  H11  1  0.006800  0.836300  0.647800  1.0  0.1311
  H  H12  1  0.820700  0.237300  0.667500  1.0  0.1345
  H  H13  1  0.313300  0.518200  0.050700  1.0  0.1122
  H  H14  1  0.084200  0.673900  0.802700  1.0  0.1223
  H  H15  1  0.893200  0.661600  0.159800  1.0  0.128
  C  C16  1  0.282000  0.853500  0.404100  1.0  -0.147
  C  C17  1  0.280100  0.980000  0.431100  1.0  0.0164
  C  C18  1  0.174000  0.095400  0.410700  1.0  -0.1683
  C  C19  1  0.067100  0.087200  0.363400  1.0  -0.0973
  C  C20  1  0.074200  0.962200  0.333800  1.0  0.0015
  C  C21  1  0.178300  0.845300  0.353100  1.0  -0.0343
  C  C22  1  0.392400  0.729500  0.434900  1.0  0.7432
  C  C23  1  0.168500  0.231900  0.438900  1.0  0.6742
  C  C24  1  0.896200  0.415900  0.875600  1.0  -0.1231
  C  C25  1  0.773400  0.441600  0.968200  1.0  0.0203
  C  C26  1  0.780300  0.407100  0.088800  1.0  -0.1426
  C  C27  1  0.910000  0.348500  0.116700  1.0  -0.0828
  C  C28  1  0.030800  0.323700  0.022700  1.0  -0.0153
  C  C29  1  0.024900  0.356400  0.902300  1.0  -0.0737
  C  C30  1  0.889300  0.453800  0.745500  1.0  0.6898
  C  C31  1  0.647100  0.427300  0.188700  1.0  0.7282
  C  C32  1  0.718000  0.146500  0.595900  1.0  -0.1467
  C  C33  1  0.719900  0.020000  0.568900  1.0  0.017
  C  C34  1  0.826000  0.904600  0.589300  1.0  -0.1684
  C  C35  1  0.932900  0.912800  0.636600  1.0  -0.0982
  C  C36  1  0.925800  0.037800  0.666200  1.0  0.0023
  C  C37  1  0.821700  0.154700  0.646900  1.0  -0.0355
  C  C38  1  0.607600  0.270500  0.565100  1.0  0.7458
  C  C39  1  0.831500  0.768100  0.561100  1.0  0.6755
  C  C40  1  0.103800  0.584100  0.124400  1.0  -0.1222
  C  C41  1  0.226600  0.558400  0.031800  1.0  0.0193
  C  C42  1  0.219700  0.592900  0.911200  1.0  -0.1434
  C  C43  1  0.090000  0.651500  0.883300  1.0  -0.0829
  C  C44  1  0.969200  0.676300  0.977300  1.0  -0.0165
  C  C45  1  0.975100  0.643600  0.097700  1.0  -0.0749
  C  C46  1  0.110700  0.546200  0.254500  1.0  0.6906
  C  C47  1  0.352900  0.572700  0.811300  1.0  0.7285
  N  N48  1  0.961800  0.956200  0.283100  1.0  0.6164
  N  N49  1  0.168100  0.262400  0.050400  1.0  0.6281
  N  N50  1  0.038200  0.043800  0.716900  1.0  0.6157
  N  N51  1  0.831900  0.737600  0.949600  1.0  0.6321
  O  O52  1  0.396700  0.618900  0.404400  1.0  -0.7478
  O  O53  1  0.472500  0.745000  0.492300  1.0  -0.6539
  O  O54  1  0.276900  0.250600  0.445400  1.0  -0.6707
  O  O55  1  0.046600  0.319600  0.454200  1.0  -0.5559
  O  O56  1  0.879000  0.060100  0.257600  1.0  -0.3766
  O  O57  1  0.951900  0.848600  0.273600  1.0  -0.4253
  O  O58  1  0.004600  0.440100  0.669000  1.0  -0.5551
  O  O59  1  0.774100  0.494500  0.719400  1.0  -0.7061
  O  O60  1  0.532000  0.475700  0.163800  1.0  -0.6493
  O  O61  1  0.659500  0.388300  0.297100  1.0  -0.633
  O  O62  1  0.175000  0.251100  0.156300  1.0  -0.4051
  O  O63  1  0.270700  0.232300  0.965200  1.0  -0.3671
  O  O64  1  0.603300  0.381100  0.595600  1.0  -0.7487
  O  O65  1  0.527500  0.255000  0.507700  1.0  -0.6544
  O  O66  1  0.723100  0.749400  0.554600  1.0  -0.6702
  O  O67  1  0.953400  0.680400  0.545800  1.0  -0.5549
  O  O68  1  0.121000  0.939900  0.742400  1.0  -0.3756
  O  O69  1  0.048100  0.151400  0.726400  1.0  -0.4248
  O  O70  1  0.995400  0.559900  0.331000  1.0  -0.5563
  O  O71  1  0.225900  0.505500  0.280600  1.0  -0.7046
  O  O72  1  0.468000  0.524300  0.836200  1.0  -0.6471
  O  O73  1  0.340500  0.611700  0.702900  1.0  -0.6322
  O  O74  1  0.825000  0.748900  0.843700  1.0  -0.4042
  O  O75  1  0.729300  0.767700  0.034800  1.0  -0.3679
