# generated using pymatgen
data_Ho2CuH12C32(NO6)4
_symmetry_space_group_name_H-M   'P 1'
_cell_length_a   10.41400000
_cell_length_b   10.61500000
_cell_length_c   11.31700000
_cell_angle_alpha   83.45000000
_cell_angle_beta   75.04000000
_cell_angle_gamma   69.61000000
_symmetry_Int_Tables_number   1
_chemical_formula_structural   Ho2CuH12C32(NO6)4
_chemical_formula_sum   'Ho2 Cu1 H12 C32 N4 O24'
_cell_volume   1132.49947232
_cell_formula_units_Z   1
loop_
 _symmetry_equiv_pos_site_id
 _symmetry_equiv_pos_as_xyz
  1  'x, y, z'
loop_
 _atom_site_type_symbol
 _atom_site_label
 _atom_site_symmetry_multiplicity
 _atom_site_fract_x
 _atom_site_fract_y
 _atom_site_fract_z
 _atom_site_occupancy
 _atom_site_charge
  Ho  Ho1  1  0.586730  0.596710  0.632250  1.0  2.2121
  Ho  Ho2  1  0.413270  0.403290  0.367750  1.0  2.2115
  Cu  Cu3  1  0.000000  0.500000  0.500000  1.0  0.9769
  H  H4  1  0.354600  0.982700  0.462700  1.0  0.1194
  H  H5  1  0.995500  0.162900  0.352200  1.0  0.1315
  H  H6  1  0.176200  0.761000  0.336600  1.0  0.1364
  H  H7  1  0.684000  0.484400  0.950700  1.0  0.114
  H  H8  1  0.916500  0.327600  0.199400  1.0  0.1337
  H  H9  1  0.107200  0.338800  0.843200  1.0  0.1332
  H  H10  1  0.645400  0.017300  0.537300  1.0  0.1193
  H  H11  1  0.004500  0.837100  0.647800  1.0  0.131
  H  H12  1  0.823800  0.239000  0.663400  1.0  0.1369
  H  H13  1  0.316000  0.515600  0.049300  1.0  0.1136
  H  H14  1  0.083500  0.672400  0.800600  1.0  0.1339
  H  H15  1  0.892800  0.661200  0.156800  1.0  0.1328
  C  C16  1  0.281700  0.852700  0.406500  1.0  -0.1273
  C  C17  1  0.282300  0.977300  0.431700  1.0  0.0165
  C  C18  1  0.175800  0.094200  0.410900  1.0  -0.1699
  C  C19  1  0.069100  0.085900  0.364100  1.0  -0.085
  C  C20  1  0.073300  0.962200  0.335300  1.0  -0.0073
  C  C21  1  0.176700  0.843600  0.355900  1.0  -0.0428
  C  C22  1  0.390500  0.726500  0.438600  1.0  0.7357
  C  C23  1  0.173700  0.231200  0.436700  1.0  0.6881
  C  C24  1  0.893500  0.418800  0.876800  1.0  -0.1373
  C  C25  1  0.771300  0.444500  0.969800  1.0  0.0107
  C  C26  1  0.778000  0.411400  0.090500  1.0  -0.1438
  C  C27  1  0.909600  0.350300  0.118900  1.0  -0.0714
  C  C28  1  0.028700  0.324800  0.024500  1.0  0.0008
  C  C29  1  0.024700  0.357300  0.904500  1.0  -0.0676
  C  C30  1  0.887200  0.455900  0.746700  1.0  0.6836
  C  C31  1  0.646400  0.432000  0.190100  1.0  0.7123
  C  C32  1  0.718300  0.147300  0.593500  1.0  -0.1257
  C  C33  1  0.717700  0.022700  0.568300  1.0  0.0162
  C  C34  1  0.824200  0.905800  0.589100  1.0  -0.169
  C  C35  1  0.930900  0.914100  0.635900  1.0  -0.0847
  C  C36  1  0.926700  0.037800  0.664700  1.0  -0.0048
  C  C37  1  0.823300  0.156400  0.644100  1.0  -0.0443
  C  C38  1  0.609500  0.273500  0.561400  1.0  0.7369
  C  C39  1  0.826300  0.768800  0.563300  1.0  0.6873
  C  C40  1  0.106500  0.581200  0.123200  1.0  -0.1379
  C  C41  1  0.228700  0.555500  0.030200  1.0  0.0097
  C  C42  1  0.222000  0.588600  0.909500  1.0  -0.1449
  C  C43  1  0.090400  0.649700  0.881100  1.0  -0.0708
  C  C44  1  0.971300  0.675200  0.975500  1.0  0.0015
  C  C45  1  0.975300  0.642700  0.095500  1.0  -0.0688
  C  C46  1  0.112800  0.544100  0.253300  1.0  0.6843
  C  C47  1  0.353600  0.568000  0.809900  1.0  0.7125
  N  N48  1  0.957900  0.956700  0.285700  1.0  0.6416
  N  N49  1  0.167900  0.262100  0.052900  1.0  0.6254
  N  N50  1  0.042100  0.043300  0.714300  1.0  0.6417
  N  N51  1  0.832100  0.737900  0.947100  1.0  0.629
  O  O52  1  0.396000  0.616100  0.405500  1.0  -0.7421
  O  O53  1  0.471400  0.740800  0.498000  1.0  -0.6369
  O  O54  1  0.284000  0.249200  0.438900  1.0  -0.6668
  O  O55  1  0.052100  0.318400  0.455200  1.0  -0.565
  O  O56  1  0.872300  0.062500  0.261800  1.0  -0.3958
  O  O57  1  0.950000  0.848300  0.273600  1.0  -0.4091
  O  O58  1  0.001600  0.442100  0.670600  1.0  -0.549
  O  O59  1  0.769900  0.496500  0.720000  1.0  -0.7118
  O  O60  1  0.529200  0.482900  0.164200  1.0  -0.6394
  O  O61  1  0.658500  0.392400  0.297900  1.0  -0.5921
  O  O62  1  0.173900  0.246600  0.159900  1.0  -0.4299
  O  O63  1  0.271300  0.232600  0.968000  1.0  -0.3957
  O  O64  1  0.604000  0.383900  0.594500  1.0  -0.7428
  O  O65  1  0.528600  0.259200  0.502000  1.0  -0.6371
  O  O66  1  0.716000  0.750800  0.561100  1.0  -0.6671
  O  O67  1  0.947900  0.681600  0.544800  1.0  -0.5654
  O  O68  1  0.127700  0.937500  0.738200  1.0  -0.3944
  O  O69  1  0.050000  0.151700  0.726400  1.0  -0.4104
  O  O70  1  0.998400  0.557900  0.329400  1.0  -0.5499
  O  O71  1  0.230100  0.503500  0.280000  1.0  -0.7087
  O  O72  1  0.470800  0.517100  0.835800  1.0  -0.6391
  O  O73  1  0.341500  0.607600  0.702100  1.0  -0.5916
  O  O74  1  0.826100  0.753400  0.840100  1.0  -0.4287
  O  O75  1  0.728700  0.767400  0.032000  1.0  -0.3979
