# generated using pymatgen
data_ZnH8C12(IN2)2
_symmetry_space_group_name_H-M   'P 1'
_cell_length_a   13.81200000
_cell_length_b   27.54000000
_cell_length_c   45.02200000
_cell_angle_alpha   90.00000000
_cell_angle_beta   90.00000000
_cell_angle_gamma   90.00000000
_symmetry_Int_Tables_number   1
_chemical_formula_structural   ZnH8C12(IN2)2
_chemical_formula_sum   'Zn24 H192 C288 I48 N96'
_cell_volume   17125.58001456
_cell_formula_units_Z   24
loop_
 _symmetry_equiv_pos_site_id
 _symmetry_equiv_pos_as_xyz
  1  'x, y, z'
loop_
 _atom_site_type_symbol
 _atom_site_label
 _atom_site_symmetry_multiplicity
 _atom_site_fract_x
 _atom_site_fract_y
 _atom_site_fract_z
 _atom_site_occupancy
 _atom_site_charge
  Zn  Zn1  1  0.149890  0.545980  0.083310  1.0  0.8353
  Zn  Zn2  1  0.377320  0.525920  0.914750  1.0  0.8349
  Zn  Zn3  1  0.673360  0.257620  0.682050  1.0  0.872
  Zn  Zn4  1  0.850110  0.954020  0.583310  1.0  0.8328
  Zn  Zn5  1  0.622680  0.974080  0.414750  1.0  0.8353
  Zn  Zn6  1  0.326640  0.242380  0.182050  1.0  0.8698
  Zn  Zn7  1  0.649890  0.454020  0.416690  1.0  0.8345
  Zn  Zn8  1  0.877320  0.474080  0.585250  1.0  0.8348
  Zn  Zn9  1  0.173360  0.742380  0.817950  1.0  0.8713
  Zn  Zn10  1  0.350110  0.045980  0.916690  1.0  0.8357
  Zn  Zn11  1  0.122680  0.025920  0.085250  1.0  0.835
  Zn  Zn12  1  0.826640  0.757620  0.317950  1.0  0.8713
  Zn  Zn13  1  0.850110  0.454020  0.916690  1.0  0.8339
  Zn  Zn14  1  0.622680  0.474080  0.085250  1.0  0.8348
  Zn  Zn15  1  0.326640  0.742380  0.317950  1.0  0.8698
  Zn  Zn16  1  0.149890  0.045980  0.416690  1.0  0.8356
  Zn  Zn17  1  0.377320  0.025920  0.585250  1.0  0.8344
  Zn  Zn18  1  0.673360  0.757620  0.817950  1.0  0.8724
  Zn  Zn19  1  0.350110  0.545980  0.583310  1.0  0.8351
  Zn  Zn20  1  0.122680  0.525920  0.414750  1.0  0.8354
  Zn  Zn21  1  0.826640  0.257620  0.182050  1.0  0.871
  Zn  Zn22  1  0.649890  0.954020  0.083310  1.0  0.8341
  Zn  Zn23  1  0.877320  0.974080  0.914750  1.0  0.8354
  Zn  Zn24  1  0.173360  0.242380  0.682050  1.0  0.8713
  H  H25  1  0.959600  0.528400  0.054000  1.0  0.081
  H  H26  1  0.875700  0.549200  0.010700  1.0  0.1175
  H  H27  1  0.126900  0.603800  0.977700  1.0  0.1268
  H  H28  1  0.202300  0.579400  0.021000  1.0  0.0806
  H  H29  1  0.528100  0.582800  0.883100  1.0  0.0913
  H  H30  1  0.687900  0.608800  0.889200  1.0  0.1162
  H  H31  1  0.673400  0.563900  0.975200  1.0  0.1202
  H  H32  1  0.517900  0.536500  0.965600  1.0  0.0867
  H  H33  1  0.209000  0.688800  0.873800  1.0  0.0942
  H  H34  1  0.126300  0.651500  0.912000  1.0  0.1158
  H  H35  1  0.874900  0.685000  0.871000  1.0  0.119
  H  H36  1  0.965000  0.722200  0.834000  1.0  0.0797
  H  H37  1  0.397400  0.419000  0.929500  1.0  0.0871
  H  H38  1  0.413000  0.344200  0.905800  1.0  0.1206
  H  H39  1  0.459400  0.416100  0.829300  1.0  0.1219
  H  H40  1  0.438200  0.488300  0.854300  1.0  0.086
  H  H41  1  0.435600  0.080500  0.859400  1.0  0.0887
  H  H42  1  0.466000  0.151000  0.833800  1.0  0.1187
  H  H43  1  0.401600  0.226500  0.908600  1.0  0.1234
  H  H44  1  0.373500  0.152600  0.932000  1.0  0.0872
  H  H45  1  0.605400  0.338200  0.721700  1.0  0.0814
  H  H46  1  0.546100  0.349100  0.769500  1.0  0.1125
  H  H47  1  0.499600  0.203500  0.773700  1.0  0.1182
  H  H48  1  0.557900  0.197800  0.725300  1.0  0.0829
  H  H49  1  0.040400  0.971600  0.554000  1.0  0.0795
  H  H50  1  0.124300  0.950800  0.510700  1.0  0.1175
  H  H51  1  0.873100  0.896200  0.477700  1.0  0.1266
  H  H52  1  0.797700  0.920600  0.521000  1.0  0.08
  H  H53  1  0.471900  0.917200  0.383100  1.0  0.0911
  H  H54  1  0.312100  0.891200  0.389200  1.0  0.1161
  H  H55  1  0.326600  0.936100  0.475200  1.0  0.1205
  H  H56  1  0.482100  0.963500  0.465600  1.0  0.0862
  H  H57  1  0.791000  0.811200  0.373800  1.0  0.0962
  H  H58  1  0.873700  0.848500  0.412000  1.0  0.1157
  H  H59  1  0.125100  0.815000  0.371000  1.0  0.1176
  H  H60  1  0.035000  0.777800  0.334000  1.0  0.0796
  H  H61  1  0.602600  0.081000  0.429500  1.0  0.0875
  H  H62  1  0.587000  0.155800  0.405800  1.0  0.1203
  H  H63  1  0.540600  0.083900  0.329300  1.0  0.1223
  H  H64  1  0.561800  0.011700  0.354300  1.0  0.0859
  H  H65  1  0.564400  0.419500  0.359400  1.0  0.0884
  H  H66  1  0.534000  0.349000  0.333800  1.0  0.1192
  H  H67  1  0.598400  0.273500  0.408600  1.0  0.1235
  H  H68  1  0.626500  0.347400  0.432000  1.0  0.087
  H  H69  1  0.394600  0.161800  0.221700  1.0  0.0813
  H  H70  1  0.453900  0.150900  0.269500  1.0  0.1123
  H  H71  1  0.500400  0.296500  0.273700  1.0  0.1182
  H  H72  1  0.442100  0.302200  0.225300  1.0  0.0822
  H  H73  1  0.459600  0.471600  0.446000  1.0  0.0801
  H  H74  1  0.375700  0.450800  0.489300  1.0  0.1176
  H  H75  1  0.626900  0.396200  0.522300  1.0  0.1264
  H  H76  1  0.702300  0.420600  0.479000  1.0  0.0803
  H  H77  1  0.028100  0.417200  0.616900  1.0  0.0915
  H  H78  1  0.187900  0.391200  0.610800  1.0  0.1164
  H  H79  1  0.173400  0.436100  0.524800  1.0  0.1207
  H  H80  1  0.017900  0.463500  0.534400  1.0  0.0863
  H  H81  1  0.709000  0.311200  0.626200  1.0  0.0939
  H  H82  1  0.626300  0.348500  0.588000  1.0  0.1157
  H  H83  1  0.374900  0.315000  0.629000  1.0  0.1191
  H  H84  1  0.465000  0.277800  0.666000  1.0  0.0795
  H  H85  1  0.897400  0.581000  0.570500  1.0  0.0866
  H  H86  1  0.913000  0.655800  0.594200  1.0  0.1204
  H  H87  1  0.959400  0.583900  0.670700  1.0  0.1221
  H  H88  1  0.938200  0.511700  0.645700  1.0  0.0864
  H  H89  1  0.935600  0.919500  0.640600  1.0  0.0884
  H  H90  1  0.966000  0.849000  0.666200  1.0  0.1191
  H  H91  1  0.901600  0.773500  0.591400  1.0  0.1232
  H  H92  1  0.873500  0.847400  0.568000  1.0  0.0872
  H  H93  1  0.105400  0.661800  0.778300  1.0  0.0814
  H  H94  1  0.046100  0.650900  0.730500  1.0  0.1125
  H  H95  1  0.999600  0.796500  0.726300  1.0  0.1185
  H  H96  1  0.057900  0.802200  0.774700  1.0  0.0825
  H  H97  1  0.540400  0.028400  0.946000  1.0  0.0804
  H  H98  1  0.624300  0.049200  0.989300  1.0  0.1177
  H  H99  1  0.373100  0.103800  0.022300  1.0  0.1262
  H  H100  1  0.297700  0.079400  0.979000  1.0  0.0798
  H  H101  1  0.971900  0.082800  0.116900  1.0  0.091
  H  H102  1  0.812100  0.108800  0.110800  1.0  0.116
  H  H103  1  0.826600  0.063900  0.024800  1.0  0.1203
  H  H104  1  0.982100  0.036500  0.034400  1.0  0.0866
  H  H105  1  0.291000  0.188800  0.126200  1.0  0.0964
  H  H106  1  0.373700  0.151500  0.088000  1.0  0.1155
  H  H107  1  0.625100  0.185000  0.129000  1.0  0.1176
  H  H108  1  0.535000  0.222200  0.166000  1.0  0.0791
  H  H109  1  0.102600  0.919000  0.070500  1.0  0.0873
  H  H110  1  0.087000  0.844200  0.094200  1.0  0.1203
  H  H111  1  0.040600  0.916100  0.170700  1.0  0.1219
  H  H112  1  0.061800  0.988300  0.145700  1.0  0.086
  H  H113  1  0.064400  0.580500  0.140600  1.0  0.0892
  H  H114  1  0.034000  0.651000  0.166200  1.0  0.1191
  H  H115  1  0.098400  0.726500  0.091400  1.0  0.1229
  H  H116  1  0.126500  0.652600  0.068000  1.0  0.0867
  H  H117  1  0.894600  0.838200  0.278300  1.0  0.0812
  H  H118  1  0.953900  0.849100  0.230500  1.0  0.1127
  H  H119  1  0.000400  0.703500  0.226300  1.0  0.118
  H  H120  1  0.942100  0.697800  0.274700  1.0  0.0832
  H  H121  1  0.040400  0.471600  0.946000  1.0  0.0797
  H  H122  1  0.124300  0.450800  0.989300  1.0  0.1178
  H  H123  1  0.873100  0.396200  0.022300  1.0  0.1264
  H  H124  1  0.797700  0.420600  0.979000  1.0  0.08
  H  H125  1  0.471900  0.417200  0.116900  1.0  0.0912
  H  H126  1  0.312100  0.391200  0.110800  1.0  0.1161
  H  H127  1  0.326600  0.436100  0.024800  1.0  0.1205
  H  H128  1  0.482100  0.463500  0.034400  1.0  0.0863
  H  H129  1  0.791000  0.311200  0.126200  1.0  0.0962
  H  H130  1  0.873700  0.348500  0.088000  1.0  0.1154
  H  H131  1  0.125100  0.315000  0.129000  1.0  0.1178
  H  H132  1  0.035000  0.277800  0.166000  1.0  0.0791
  H  H133  1  0.602600  0.581000  0.070500  1.0  0.087
  H  H134  1  0.587000  0.655800  0.094200  1.0  0.1204
  H  H135  1  0.540600  0.583900  0.170700  1.0  0.1222
  H  H136  1  0.561800  0.511700  0.145700  1.0  0.0864
  H  H137  1  0.564400  0.919500  0.140600  1.0  0.0889
  H  H138  1  0.534000  0.849000  0.166200  1.0  0.1191
  H  H139  1  0.598400  0.773500  0.091400  1.0  0.1232
  H  H140  1  0.626500  0.847400  0.068000  1.0  0.0868
  H  H141  1  0.394600  0.661800  0.278300  1.0  0.0815
  H  H142  1  0.453900  0.650900  0.230500  1.0  0.1124
  H  H143  1  0.500400  0.796500  0.226300  1.0  0.1182
  H  H144  1  0.442100  0.802200  0.274700  1.0  0.0824
  H  H145  1  0.959600  0.028400  0.446000  1.0  0.0806
  H  H146  1  0.875700  0.049200  0.489300  1.0  0.1177
  H  H147  1  0.126900  0.103800  0.522300  1.0  0.1263
  H  H148  1  0.202300  0.079400  0.479000  1.0  0.0807
  H  H149  1  0.528100  0.082800  0.616900  1.0  0.0912
  H  H150  1  0.687900  0.108800  0.610800  1.0  0.1162
  H  H151  1  0.673400  0.063900  0.524800  1.0  0.1206
  H  H152  1  0.517900  0.036500  0.534400  1.0  0.0865
  H  H153  1  0.209000  0.188800  0.626200  1.0  0.0943
  H  H154  1  0.126300  0.151500  0.588000  1.0  0.1159
  H  H155  1  0.874900  0.185000  0.629000  1.0  0.1189
  H  H156  1  0.965000  0.222200  0.666000  1.0  0.0789
  H  H157  1  0.397400  0.919000  0.570500  1.0  0.0868
  H  H158  1  0.413000  0.844200  0.594200  1.0  0.1205
  H  H159  1  0.459400  0.916100  0.670700  1.0  0.1217
  H  H160  1  0.438200  0.988300  0.645700  1.0  0.0862
  H  H161  1  0.435600  0.580500  0.640600  1.0  0.0892
  H  H162  1  0.466000  0.651000  0.666200  1.0  0.1189
  H  H163  1  0.401600  0.726500  0.591400  1.0  0.1231
  H  H164  1  0.373500  0.652600  0.568000  1.0  0.0871
  H  H165  1  0.605400  0.838200  0.778300  1.0  0.0811
  H  H166  1  0.546100  0.849100  0.730500  1.0  0.1126
  H  H167  1  0.499600  0.703500  0.726300  1.0  0.118
  H  H168  1  0.557900  0.697800  0.774700  1.0  0.0833
  H  H169  1  0.540400  0.528400  0.554000  1.0  0.0802
  H  H170  1  0.624300  0.549200  0.510700  1.0  0.1172
  H  H171  1  0.373100  0.603800  0.477700  1.0  0.1266
  H  H172  1  0.297700  0.579400  0.521000  1.0  0.0798
  H  H173  1  0.971900  0.582800  0.383100  1.0  0.0912
  H  H174  1  0.812100  0.608800  0.389200  1.0  0.116
  H  H175  1  0.826600  0.563900  0.475200  1.0  0.1202
  H  H176  1  0.982100  0.536500  0.465600  1.0  0.0865
  H  H177  1  0.291000  0.688800  0.373800  1.0  0.0964
  H  H178  1  0.373700  0.651500  0.412000  1.0  0.1157
  H  H179  1  0.625100  0.685000  0.371000  1.0  0.1177
  H  H180  1  0.535000  0.722200  0.334000  1.0  0.0799
  H  H181  1  0.102600  0.419000  0.429500  1.0  0.0874
  H  H182  1  0.087000  0.344200  0.405800  1.0  0.1206
  H  H183  1  0.040600  0.416100  0.329300  1.0  0.1221
  H  H184  1  0.061800  0.488300  0.354300  1.0  0.086
  H  H185  1  0.064400  0.080500  0.359400  1.0  0.0886
  H  H186  1  0.034000  0.151000  0.333800  1.0  0.1188
  H  H187  1  0.098400  0.226500  0.408600  1.0  0.1233
  H  H188  1  0.126500  0.152600  0.432000  1.0  0.0869
  H  H189  1  0.894600  0.338200  0.221700  1.0  0.0814
  H  H190  1  0.953900  0.349100  0.269500  1.0  0.1126
  H  H191  1  0.000400  0.203500  0.273700  1.0  0.1182
  H  H192  1  0.942100  0.197800  0.225300  1.0  0.0829
  H  H193  1  0.459600  0.971600  0.054000  1.0  0.0803
  H  H194  1  0.375700  0.950800  0.010700  1.0  0.1173
  H  H195  1  0.626900  0.896200  0.977700  1.0  0.1267
  H  H196  1  0.702300  0.920600  0.021000  1.0  0.0802
  H  H197  1  0.028100  0.917200  0.883100  1.0  0.0911
  H  H198  1  0.187900  0.891200  0.889200  1.0  0.1163
  H  H199  1  0.173400  0.936100  0.975200  1.0  0.1204
  H  H200  1  0.017900  0.963500  0.965600  1.0  0.0864
  H  H201  1  0.709000  0.811200  0.873800  1.0  0.0938
  H  H202  1  0.626300  0.848500  0.912000  1.0  0.1159
  H  H203  1  0.374900  0.815000  0.871000  1.0  0.1189
  H  H204  1  0.465000  0.777800  0.834000  1.0  0.0798
  H  H205  1  0.897400  0.081000  0.929500  1.0  0.0872
  H  H206  1  0.913000  0.155800  0.905800  1.0  0.1201
  H  H207  1  0.959400  0.083900  0.829300  1.0  0.1222
  H  H208  1  0.938200  0.011700  0.854300  1.0  0.0859
  H  H209  1  0.935600  0.419500  0.859400  1.0  0.0882
  H  H210  1  0.966000  0.349000  0.833800  1.0  0.1191
  H  H211  1  0.901600  0.273500  0.908600  1.0  0.1235
  H  H212  1  0.873500  0.347400  0.932000  1.0  0.0876
  H  H213  1  0.105400  0.161800  0.721700  1.0  0.0813
  H  H214  1  0.046100  0.150900  0.769500  1.0  0.1124
  H  H215  1  0.999600  0.296500  0.773700  1.0  0.1184
  H  H216  1  0.057900  0.302200  0.725300  1.0  0.0823
  C  C217  1  0.993300  0.544300  0.038400  1.0  0.1301
  C  C218  1  0.942400  0.556900  0.012700  1.0  -0.1278
  C  C219  1  0.992000  0.581100  0.990230  1.0  -0.1217
  C  C220  1  0.090600  0.588900  0.993100  1.0  -0.1631
  C  C221  1  0.134500  0.574400  0.019200  1.0  0.146
  C  C222  1  0.559100  0.578100  0.901700  1.0  0.1352
  C  C223  1  0.654000  0.594500  0.905400  1.0  -0.0939
  C  C224  1  0.698200  0.589800  0.932600  1.0  -0.0862
  C  C225  1  0.645700  0.567600  0.956000  1.0  -0.1529
  C  C226  1  0.553300  0.551600  0.950100  1.0  0.136
  C  C227  1  0.140300  0.687800  0.873300  1.0  0.1238
  C  C228  1  0.091100  0.665700  0.896100  1.0  -0.0865
  C  C229  1  0.992200  0.663800  0.896100  1.0  -0.081
  C  C230  1  0.943600  0.685400  0.872100  1.0  -0.1534
  C  C231  1  0.998100  0.707200  0.850100  1.0  0.15
  C  C232  1  0.938700  0.597700  0.963300  1.0  0.3919
  C  C233  1  0.801100  0.604200  0.937100  1.0  0.4005
  C  C234  1  0.936800  0.638700  0.919860  1.0  0.3268
  C  C235  1  0.407700  0.418300  0.908600  1.0  0.1276
  C  C236  1  0.419400  0.373500  0.894800  1.0  -0.1121
  C  C237  1  0.440100  0.372500  0.865300  1.0  -0.0951
  C  C238  1  0.445900  0.415900  0.850000  1.0  -0.1355
  C  C239  1  0.432100  0.458600  0.865000  1.0  0.1384
  C  C240  1  0.427700  0.110700  0.869300  1.0  0.14
  C  C241  1  0.446400  0.152500  0.854000  1.0  -0.1267
  C  C242  1  0.436700  0.197000  0.868010  1.0  -0.0657
  C  C243  1  0.408600  0.196900  0.898000  1.0  -0.1457
  C  C244  1  0.391400  0.152700  0.911600  1.0  0.1411
  C  C245  1  0.585300  0.310600  0.732700  1.0  0.1368
  C  C246  1  0.549800  0.317400  0.761200  1.0  -0.1557
  C  C247  1  0.520100  0.277800  0.777540  1.0  -0.0844
  C  C248  1  0.522100  0.231600  0.763600  1.0  -0.1092
  C  C249  1  0.557800  0.228500  0.734900  1.0  0.1288
  C  C250  1  0.453300  0.325100  0.849800  1.0  0.395
  C  C251  1  0.451900  0.243100  0.851360  1.0  0.3729
  C  C252  1  0.488800  0.281300  0.809000  1.0  0.378
  C  C253  1  0.006700  0.955700  0.538400  1.0  0.1302
  C  C254  1  0.057600  0.943100  0.512700  1.0  -0.1272
  C  C255  1  0.008000  0.918900  0.490230  1.0  -0.1209
  C  C256  1  0.909400  0.911100  0.493100  1.0  -0.1645
  C  C257  1  0.865500  0.925600  0.519200  1.0  0.1467
  C  C258  1  0.440900  0.921900  0.401700  1.0  0.1339
  C  C259  1  0.346000  0.905500  0.405400  1.0  -0.093
  C  C260  1  0.301800  0.910200  0.432600  1.0  -0.0877
  C  C261  1  0.354300  0.932400  0.456000  1.0  -0.1535
  C  C262  1  0.446700  0.948400  0.450100  1.0  0.1361
  C  C263  1  0.859700  0.812200  0.373300  1.0  0.1244
  C  C264  1  0.908900  0.834300  0.396100  1.0  -0.0871
  C  C265  1  0.007800  0.836200  0.396100  1.0  -0.0807
  C  C266  1  0.056400  0.814600  0.372100  1.0  -0.1508
  C  C267  1  0.001900  0.792800  0.350100  1.0  0.1495
  C  C268  1  0.061300  0.902300  0.463300  1.0  0.3917
  C  C269  1  0.198900  0.895800  0.437100  1.0  0.3995
  C  C270  1  0.063200  0.861300  0.419860  1.0  0.3267
  C  C271  1  0.592300  0.081700  0.408600  1.0  0.128
  C  C272  1  0.580600  0.126500  0.394800  1.0  -0.1111
  C  C273  1  0.559900  0.127500  0.365300  1.0  -0.0962
  C  C274  1  0.554100  0.084100  0.350000  1.0  -0.1346
  C  C275  1  0.567900  0.041400  0.365000  1.0  0.1358
  C  C276  1  0.572300  0.389300  0.369300  1.0  0.1393
  C  C277  1  0.553600  0.347500  0.354000  1.0  -0.125
  C  C278  1  0.563300  0.303000  0.368010  1.0  -0.0653
  C  C279  1  0.591400  0.303100  0.398000  1.0  -0.1442
  C  C280  1  0.608600  0.347300  0.411600  1.0  0.1429
  C  C281  1  0.414700  0.189400  0.232700  1.0  0.1369
  C  C282  1  0.450200  0.182600  0.261200  1.0  -0.1556
  C  C283  1  0.479900  0.222200  0.277540  1.0  -0.0839
  C  C284  1  0.477900  0.268400  0.263600  1.0  -0.1077
  C  C285  1  0.442200  0.271500  0.234900  1.0  0.1296
  C  C286  1  0.546700  0.174900  0.349800  1.0  0.3955
  C  C287  1  0.548100  0.256900  0.351360  1.0  0.3729
  C  C288  1  0.511200  0.218700  0.309000  1.0  0.3779
  C  C289  1  0.493300  0.455700  0.461600  1.0  0.1312
  C  C290  1  0.442400  0.443100  0.487300  1.0  -0.1271
  C  C291  1  0.492000  0.418900  0.509770  1.0  -0.1219
  C  C292  1  0.590600  0.411100  0.506900  1.0  -0.1624
  C  C293  1  0.634500  0.425600  0.480800  1.0  0.1466
  C  C294  1  0.059100  0.421900  0.598300  1.0  0.134
  C  C295  1  0.154000  0.405500  0.594600  1.0  -0.0925
  C  C296  1  0.198200  0.410200  0.567400  1.0  -0.0862
  C  C297  1  0.145700  0.432400  0.544000  1.0  -0.1512
  C  C298  1  0.053300  0.448400  0.549900  1.0  0.1351
  C  C299  1  0.640300  0.312200  0.626700  1.0  0.1235
  C  C300  1  0.591100  0.334300  0.603900  1.0  -0.0861
  C  C301  1  0.492200  0.336200  0.603900  1.0  -0.0816
  C  C302  1  0.443600  0.314600  0.627900  1.0  -0.153
  C  C303  1  0.498100  0.292800  0.649900  1.0  0.1516
  C  C304  1  0.438700  0.402300  0.536700  1.0  0.3917
  C  C305  1  0.301100  0.395800  0.562900  1.0  0.4001
  C  C306  1  0.436800  0.361300  0.580140  1.0  0.3272
  C  C307  1  0.907700  0.581700  0.591400  1.0  0.1272
  C  C308  1  0.919400  0.626500  0.605200  1.0  -0.1109
  C  C309  1  0.940100  0.627500  0.634700  1.0  -0.0963
  C  C310  1  0.945900  0.584100  0.650000  1.0  -0.1384
  C  C311  1  0.932100  0.541400  0.635000  1.0  0.1366
  C  C312  1  0.927700  0.889300  0.630700  1.0  0.1401
  C  C313  1  0.946400  0.847500  0.646000  1.0  -0.1256
  C  C314  1  0.936700  0.803000  0.631990  1.0  -0.065
  C  C315  1  0.908600  0.803100  0.602000  1.0  -0.1439
  C  C316  1  0.891400  0.847300  0.588400  1.0  0.1422
  C  C317  1  0.085300  0.689400  0.767300  1.0  0.1372
  C  C318  1  0.049800  0.682600  0.738800  1.0  -0.1553
  C  C319  1  0.020100  0.722200  0.722460  1.0  -0.0833
  C  C320  1  0.022100  0.768400  0.736400  1.0  -0.1088
  C  C321  1  0.057800  0.771500  0.765100  1.0  0.1291
  C  C322  1  0.953300  0.674900  0.650200  1.0  0.3952
  C  C323  1  0.951900  0.756900  0.648640  1.0  0.3727
  C  C324  1  0.988800  0.718700  0.691000  1.0  0.3782
  C  C325  1  0.506700  0.044300  0.961600  1.0  0.1302
  C  C326  1  0.557600  0.056900  0.987300  1.0  -0.1268
  C  C327  1  0.508000  0.081100  0.009770  1.0  -0.1215
  C  C328  1  0.409400  0.088900  0.006900  1.0  -0.165
  C  C329  1  0.365500  0.074400  0.980800  1.0  0.1465
  C  C330  1  0.940900  0.078100  0.098300  1.0  0.134
  C  C331  1  0.846000  0.094500  0.094600  1.0  -0.0931
  C  C332  1  0.801800  0.089800  0.067400  1.0  -0.0865
  C  C333  1  0.854300  0.067600  0.044000  1.0  -0.1536
  C  C334  1  0.946700  0.051600  0.049900  1.0  0.1347
  C  C335  1  0.359700  0.187800  0.126700  1.0  0.1237
  C  C336  1  0.408900  0.165700  0.103900  1.0  -0.0861
  C  C337  1  0.507800  0.163800  0.103900  1.0  -0.0815
  C  C338  1  0.556400  0.185400  0.127900  1.0  -0.1506
  C  C339  1  0.501900  0.207200  0.149900  1.0  0.1516
  C  C340  1  0.561300  0.097700  0.036700  1.0  0.3917
  C  C341  1  0.698900  0.104200  0.062900  1.0  0.4002
  C  C342  1  0.563200  0.138700  0.080140  1.0  0.3271
  C  C343  1  0.092300  0.918300  0.091400  1.0  0.1272
  C  C344  1  0.080600  0.873500  0.105200  1.0  -0.113
  C  C345  1  0.059900  0.872500  0.134700  1.0  -0.0948
  C  C346  1  0.054100  0.915900  0.150000  1.0  -0.1385
  C  C347  1  0.067900  0.958600  0.135000  1.0  0.1377
  C  C348  1  0.072300  0.610700  0.130700  1.0  0.1401
  C  C349  1  0.053600  0.652500  0.146000  1.0  -0.1257
  C  C350  1  0.063300  0.697000  0.131990  1.0  -0.0665
  C  C351  1  0.091400  0.696900  0.102000  1.0  -0.1462
  C  C352  1  0.108600  0.652700  0.088400  1.0  0.1421
  C  C353  1  0.914700  0.810600  0.267300  1.0  0.1369
  C  C354  1  0.950200  0.817400  0.238800  1.0  -0.1551
  C  C355  1  0.979900  0.777800  0.222460  1.0  -0.0829
  C  C356  1  0.977900  0.731600  0.236400  1.0  -0.1082
  C  C357  1  0.942200  0.728500  0.265100  1.0  0.1296
  C  C358  1  0.046700  0.825100  0.150200  1.0  0.3952
  C  C359  1  0.048100  0.743100  0.148640  1.0  0.3728
  C  C360  1  0.011200  0.781300  0.191000  1.0  0.3783
  C  C361  1  0.006700  0.455700  0.961600  1.0  0.1306
  C  C362  1  0.057600  0.443100  0.987300  1.0  -0.1268
  C  C363  1  0.008000  0.418900  0.009770  1.0  -0.1215
  C  C364  1  0.909400  0.411100  0.006900  1.0  -0.1642
  C  C365  1  0.865500  0.425600  0.980800  1.0  0.147
  C  C366  1  0.440900  0.421900  0.098300  1.0  0.1342
  C  C367  1  0.346000  0.405500  0.094600  1.0  -0.0925
  C  C368  1  0.301800  0.410200  0.067400  1.0  -0.0873
  C  C369  1  0.354300  0.432400  0.044000  1.0  -0.1529
  C  C370  1  0.446700  0.448400  0.049900  1.0  0.1345
  C  C371  1  0.859700  0.312200  0.126700  1.0  0.124
  C  C372  1  0.908900  0.334300  0.103900  1.0  -0.086
  C  C373  1  0.007800  0.336200  0.103900  1.0  -0.0812
  C  C374  1  0.056400  0.314600  0.127900  1.0  -0.1507
  C  C375  1  0.001900  0.292800  0.149900  1.0  0.1517
  C  C376  1  0.061300  0.402300  0.036700  1.0  0.3917
  C  C377  1  0.198900  0.395800  0.062900  1.0  0.3999
  C  C378  1  0.063200  0.361300  0.080140  1.0  0.327
  C  C379  1  0.592300  0.581700  0.091400  1.0  0.1271
  C  C380  1  0.580600  0.626500  0.105200  1.0  -0.1118
  C  C381  1  0.559900  0.627500  0.134700  1.0  -0.0962
  C  C382  1  0.554100  0.584100  0.150000  1.0  -0.1386
  C  C383  1  0.567900  0.541400  0.135000  1.0  0.1359
  C  C384  1  0.572300  0.889300  0.130700  1.0  0.1396
  C  C385  1  0.553600  0.847500  0.146000  1.0  -0.1259
  C  C386  1  0.563300  0.803000  0.131990  1.0  -0.0653
  C  C387  1  0.591400  0.803100  0.102000  1.0  -0.1446
  C  C388  1  0.608600  0.847300  0.088400  1.0  0.1427
  C  C389  1  0.414700  0.689400  0.267300  1.0  0.138
  C  C390  1  0.450200  0.682600  0.238800  1.0  -0.1545
  C  C391  1  0.479900  0.722200  0.222460  1.0  -0.0828
  C  C392  1  0.477900  0.768400  0.236400  1.0  -0.1081
  C  C393  1  0.442200  0.771500  0.265100  1.0  0.1295
  C  C394  1  0.546700  0.674900  0.150200  1.0  0.3955
  C  C395  1  0.548100  0.756900  0.148640  1.0  0.3728
  C  C396  1  0.511200  0.718700  0.191000  1.0  0.3782
  C  C397  1  0.993300  0.044300  0.461600  1.0  0.1307
  C  C398  1  0.942400  0.056900  0.487300  1.0  -0.1275
  C  C399  1  0.992000  0.081100  0.509770  1.0  -0.1218
  C  C400  1  0.090600  0.088900  0.506900  1.0  -0.1632
  C  C401  1  0.134500  0.074400  0.480800  1.0  0.1462
  C  C402  1  0.559100  0.078100  0.598300  1.0  0.1338
  C  C403  1  0.654000  0.094500  0.594600  1.0  -0.0937
  C  C404  1  0.698200  0.089800  0.567400  1.0  -0.0859
  C  C405  1  0.645700  0.067600  0.544000  1.0  -0.1519
  C  C406  1  0.553300  0.051600  0.549900  1.0  0.1354
  C  C407  1  0.140300  0.187800  0.626700  1.0  0.1235
  C  C408  1  0.091100  0.165700  0.603900  1.0  -0.0861
  C  C409  1  0.992200  0.163800  0.603900  1.0  -0.0817
  C  C410  1  0.943600  0.185400  0.627900  1.0  -0.1532
  C  C411  1  0.998100  0.207200  0.649900  1.0  0.1512
  C  C412  1  0.938700  0.097700  0.536700  1.0  0.3915
  C  C413  1  0.801100  0.104200  0.562900  1.0  0.4007
  C  C414  1  0.936800  0.138700  0.580140  1.0  0.3273
  C  C415  1  0.407700  0.918300  0.591400  1.0  0.1273
  C  C416  1  0.419400  0.873500  0.605200  1.0  -0.112
  C  C417  1  0.440100  0.872500  0.634700  1.0  -0.0949
  C  C418  1  0.445900  0.915900  0.650000  1.0  -0.1385
  C  C419  1  0.432100  0.958600  0.635000  1.0  0.1376
  C  C420  1  0.427700  0.610700  0.630700  1.0  0.1406
  C  C421  1  0.446400  0.652500  0.646000  1.0  -0.1259
  C  C422  1  0.436700  0.697000  0.631990  1.0  -0.066
  C  C423  1  0.408600  0.696900  0.602000  1.0  -0.1461
  C  C424  1  0.391400  0.652700  0.588400  1.0  0.1418
  C  C425  1  0.585300  0.810600  0.767300  1.0  0.137
  C  C426  1  0.549800  0.817400  0.738800  1.0  -0.1553
  C  C427  1  0.520100  0.777800  0.722460  1.0  -0.0834
  C  C428  1  0.522100  0.731600  0.736400  1.0  -0.1086
  C  C429  1  0.557800  0.728500  0.765100  1.0  0.129
  C  C430  1  0.453300  0.825100  0.650200  1.0  0.3949
  C  C431  1  0.451900  0.743100  0.648640  1.0  0.3727
  C  C432  1  0.488800  0.781300  0.691000  1.0  0.3783
  C  C433  1  0.506700  0.544300  0.538400  1.0  0.1303
  C  C434  1  0.557600  0.556900  0.512700  1.0  -0.1277
  C  C435  1  0.508000  0.581100  0.490230  1.0  -0.1212
  C  C436  1  0.409400  0.588900  0.493100  1.0  -0.1645
  C  C437  1  0.365500  0.574400  0.519200  1.0  0.1463
  C  C438  1  0.940900  0.578100  0.401700  1.0  0.1339
  C  C439  1  0.846000  0.594500  0.405400  1.0  -0.0932
  C  C440  1  0.801800  0.589800  0.432600  1.0  -0.0869
  C  C441  1  0.854300  0.567600  0.456000  1.0  -0.1541
  C  C442  1  0.946700  0.551600  0.450100  1.0  0.1367
  C  C443  1  0.359700  0.687800  0.373300  1.0  0.1241
  C  C444  1  0.408900  0.665700  0.396100  1.0  -0.0866
  C  C445  1  0.507800  0.663800  0.396100  1.0  -0.081
  C  C446  1  0.556400  0.685400  0.372100  1.0  -0.1506
  C  C447  1  0.501900  0.707200  0.350100  1.0  0.15
  C  C448  1  0.561300  0.597700  0.463300  1.0  0.3921
  C  C449  1  0.698900  0.604200  0.437100  1.0  0.3999
  C  C450  1  0.563200  0.638700  0.419860  1.0  0.3266
  C  C451  1  0.092300  0.418300  0.408600  1.0  0.1278
  C  C452  1  0.080600  0.373500  0.394800  1.0  -0.1122
  C  C453  1  0.059900  0.372500  0.365300  1.0  -0.0951
  C  C454  1  0.054100  0.415900  0.350000  1.0  -0.1351
  C  C455  1  0.067900  0.458600  0.365000  1.0  0.1381
  C  C456  1  0.072300  0.110700  0.369300  1.0  0.1397
  C  C457  1  0.053600  0.152500  0.354000  1.0  -0.1256
  C  C458  1  0.063300  0.197000  0.368010  1.0  -0.0662
  C  C459  1  0.091400  0.196900  0.398000  1.0  -0.1451
  C  C460  1  0.108600  0.152700  0.411600  1.0  0.1422
  C  C461  1  0.914700  0.310600  0.232700  1.0  0.1371
  C  C462  1  0.950200  0.317400  0.261200  1.0  -0.1555
  C  C463  1  0.979900  0.277800  0.277540  1.0  -0.084
  C  C464  1  0.977900  0.231600  0.263600  1.0  -0.1086
  C  C465  1  0.942200  0.228500  0.234900  1.0  0.1296
  C  C466  1  0.046700  0.325100  0.349800  1.0  0.3952
  C  C467  1  0.048100  0.243100  0.351360  1.0  0.373
  C  C468  1  0.011200  0.281300  0.309000  1.0  0.378
  C  C469  1  0.493300  0.955700  0.038400  1.0  0.1302
  C  C470  1  0.442400  0.943100  0.012700  1.0  -0.1268
  C  C471  1  0.492000  0.918900  0.990230  1.0  -0.1214
  C  C472  1  0.590600  0.911100  0.993100  1.0  -0.163
  C  C473  1  0.634500  0.925600  0.019200  1.0  0.1465
  C  C474  1  0.059100  0.921900  0.901700  1.0  0.1351
  C  C475  1  0.154000  0.905500  0.905400  1.0  -0.0934
  C  C476  1  0.198200  0.910200  0.932600  1.0  -0.0866
  C  C477  1  0.145700  0.932400  0.956000  1.0  -0.1523
  C  C478  1  0.053300  0.948400  0.950100  1.0  0.1353
  C  C479  1  0.640300  0.812200  0.873300  1.0  0.1238
  C  C480  1  0.591100  0.834300  0.896100  1.0  -0.0869
  C  C481  1  0.492200  0.836200  0.896100  1.0  -0.0809
  C  C482  1  0.443600  0.814600  0.872100  1.0  -0.1534
  C  C483  1  0.498100  0.792800  0.850100  1.0  0.1495
  C  C484  1  0.438700  0.902300  0.963300  1.0  0.3916
  C  C485  1  0.301100  0.895800  0.937100  1.0  0.3998
  C  C486  1  0.436800  0.861300  0.919860  1.0  0.3269
  C  C487  1  0.907700  0.081700  0.908600  1.0  0.128
  C  C488  1  0.919400  0.126500  0.894800  1.0  -0.1113
  C  C489  1  0.940100  0.127500  0.865300  1.0  -0.0962
  C  C490  1  0.945900  0.084100  0.850000  1.0  -0.1349
  C  C491  1  0.932100  0.041400  0.865000  1.0  0.1364
  C  C492  1  0.927700  0.389300  0.869300  1.0  0.1396
  C  C493  1  0.946400  0.347500  0.854000  1.0  -0.126
  C  C494  1  0.936700  0.303000  0.868010  1.0  -0.0651
  C  C495  1  0.908600  0.303100  0.898000  1.0  -0.1441
  C  C496  1  0.891400  0.347300  0.911600  1.0  0.1416
  C  C497  1  0.085300  0.189400  0.732700  1.0  0.1356
  C  C498  1  0.049800  0.182600  0.761200  1.0  -0.1563
  C  C499  1  0.020100  0.222200  0.777540  1.0  -0.0843
  C  C500  1  0.022100  0.268400  0.763600  1.0  -0.1087
  C  C501  1  0.057800  0.271500  0.734900  1.0  0.129
  C  C502  1  0.953300  0.174900  0.849800  1.0  0.3954
  C  C503  1  0.951900  0.256900  0.851360  1.0  0.3729
  C  C504  1  0.988800  0.218700  0.809000  1.0  0.3779
  I  I505  1  0.064960  0.479320  0.112110  1.0  -0.3734
  I  I506  1  0.331090  0.559380  0.078150  1.0  -0.3977
  I  I507  1  0.300240  0.505230  0.965160  1.0  -0.4099
  I  I508  1  0.292700  0.576150  0.875990  1.0  -0.3271
  I  I509  1  0.685150  0.166960  0.671100  1.0  -0.3364
  I  I510  1  0.830400  0.305010  0.690320  1.0  -0.3642
  I  I511  1  0.935040  0.020680  0.612110  1.0  -0.3753
  I  I512  1  0.668910  0.940620  0.578150  1.0  -0.3976
  I  I513  1  0.699760  0.994770  0.465160  1.0  -0.4092
  I  I514  1  0.707300  0.923850  0.375990  1.0  -0.327
  I  I515  1  0.314850  0.333040  0.171100  1.0  -0.3355
  I  I516  1  0.169600  0.194990  0.190320  1.0  -0.3635
  I  I517  1  0.564960  0.520680  0.387890  1.0  -0.3748
  I  I518  1  0.831090  0.440620  0.421850  1.0  -0.3977
  I  I519  1  0.800240  0.494770  0.534840  1.0  -0.4102
  I  I520  1  0.792700  0.423850  0.624010  1.0  -0.326
  I  I521  1  0.185150  0.833040  0.828900  1.0  -0.3353
  I  I522  1  0.330400  0.694990  0.809680  1.0  -0.3644
  I  I523  1  0.435040  0.979320  0.887890  1.0  -0.3762
  I  I524  1  0.168910  0.059380  0.921850  1.0  -0.3972
  I  I525  1  0.199760  0.005230  0.034840  1.0  -0.4094
  I  I526  1  0.207300  0.076150  0.124010  1.0  -0.3257
  I  I527  1  0.814850  0.666960  0.328900  1.0  -0.3362
  I  I528  1  0.669600  0.805010  0.309680  1.0  -0.3635
  I  I529  1  0.935040  0.520680  0.887890  1.0  -0.3764
  I  I530  1  0.668910  0.440620  0.921850  1.0  -0.3974
  I  I531  1  0.699760  0.494770  0.034840  1.0  -0.4094
  I  I532  1  0.707300  0.423850  0.124010  1.0  -0.3256
  I  I533  1  0.314850  0.833040  0.328900  1.0  -0.3352
  I  I534  1  0.169600  0.694990  0.309680  1.0  -0.3637
  I  I535  1  0.064960  0.979320  0.387890  1.0  -0.3746
  I  I536  1  0.331090  0.059380  0.421850  1.0  -0.3975
  I  I537  1  0.300240  0.005230  0.534840  1.0  -0.4101
  I  I538  1  0.292700  0.076150  0.624010  1.0  -0.326
  I  I539  1  0.685150  0.666960  0.828900  1.0  -0.3363
  I  I540  1  0.830400  0.805010  0.809680  1.0  -0.3642
  I  I541  1  0.435040  0.479320  0.612110  1.0  -0.3749
  I  I542  1  0.168910  0.559380  0.578150  1.0  -0.3974
  I  I543  1  0.199760  0.505230  0.465160  1.0  -0.409
  I  I544  1  0.207300  0.576150  0.375990  1.0  -0.3267
  I  I545  1  0.814850  0.166960  0.171100  1.0  -0.3362
  I  I546  1  0.669600  0.305010  0.190320  1.0  -0.3635
  I  I547  1  0.564960  0.020680  0.112110  1.0  -0.3741
  I  I548  1  0.831090  0.940620  0.078150  1.0  -0.3979
  I  I549  1  0.800240  0.994770  0.965160  1.0  -0.41
  I  I550  1  0.792700  0.923850  0.875990  1.0  -0.3273
  I  I551  1  0.185150  0.333040  0.671100  1.0  -0.3357
  I  I552  1  0.330400  0.194990  0.690320  1.0  -0.3643
  N  N553  1  0.088300  0.553800  0.041910  1.0  -0.3122
  N  N554  1  0.510500  0.556100  0.923290  1.0  -0.3016
  N  N555  1  0.093600  0.708200  0.850160  1.0  -0.306
  N  N556  1  0.844900  0.586100  0.961470  1.0  -0.5494
  N  N557  1  0.842000  0.631300  0.916140  1.0  -0.4456
  N  N558  1  0.989900  0.622800  0.943150  1.0  -0.3622
  N  N559  1  0.410500  0.460400  0.893820  1.0  -0.3139
  N  N560  1  0.398700  0.110500  0.897590  1.0  -0.3064
  N  N561  1  0.592200  0.267200  0.720050  1.0  -0.3153
  N  N562  1  0.478300  0.325500  0.820830  1.0  -0.4598
  N  N563  1  0.440300  0.285000  0.866300  1.0  -0.4518
  N  N564  1  0.476200  0.239300  0.823040  1.0  -0.4691
  N  N565  1  0.911700  0.946200  0.541910  1.0  -0.3124
  N  N566  1  0.489500  0.943900  0.423290  1.0  -0.2999
  N  N567  1  0.906400  0.791800  0.350160  1.0  -0.3059
  N  N568  1  0.155100  0.913900  0.461470  1.0  -0.5486
  N  N569  1  0.158000  0.868700  0.416140  1.0  -0.4462
  N  N570  1  0.010100  0.877200  0.443150  1.0  -0.3616
  N  N571  1  0.589500  0.039600  0.393820  1.0  -0.3118
  N  N572  1  0.601300  0.389500  0.397590  1.0  -0.3087
  N  N573  1  0.407800  0.232800  0.220050  1.0  -0.3151
  N  N574  1  0.521700  0.174500  0.320830  1.0  -0.4601
  N  N575  1  0.559700  0.215000  0.366300  1.0  -0.4528
  N  N576  1  0.523800  0.260700  0.323040  1.0  -0.4691
  N  N577  1  0.588300  0.446200  0.458090  1.0  -0.3144
  N  N578  1  0.010500  0.443900  0.576710  1.0  -0.3007
  N  N579  1  0.593600  0.291800  0.649840  1.0  -0.3054
  N  N580  1  0.344900  0.413900  0.538530  1.0  -0.5486
  N  N581  1  0.342000  0.368700  0.583860  1.0  -0.447
  N  N582  1  0.489900  0.377200  0.556850  1.0  -0.3621
  N  N583  1  0.910500  0.539600  0.606180  1.0  -0.3134
  N  N584  1  0.898700  0.889500  0.602410  1.0  -0.3072
  N  N585  1  0.092200  0.732800  0.779950  1.0  -0.3146
  N  N586  1  0.978300  0.674500  0.679170  1.0  -0.4592
  N  N587  1  0.940300  0.715000  0.633700  1.0  -0.4544
  N  N588  1  0.976200  0.760700  0.676960  1.0  -0.469
  N  N589  1  0.411700  0.053800  0.958090  1.0  -0.3163
  N  N590  1  0.989500  0.056100  0.076710  1.0  -0.3
  N  N591  1  0.406400  0.208200  0.149840  1.0  -0.3063
  N  N592  1  0.655100  0.086100  0.038530  1.0  -0.5476
  N  N593  1  0.658000  0.131300  0.083860  1.0  -0.4473
  N  N594  1  0.510100  0.122800  0.056850  1.0  -0.3608
  N  N595  1  0.089500  0.960400  0.106180  1.0  -0.3128
  N  N596  1  0.101300  0.610500  0.102410  1.0  -0.3048
  N  N597  1  0.907800  0.767200  0.279950  1.0  -0.315
  N  N598  1  0.021700  0.825500  0.179170  1.0  -0.4603
  N  N599  1  0.059700  0.785000  0.133700  1.0  -0.4549
  N  N600  1  0.023800  0.739300  0.176960  1.0  -0.4691
  N  N601  1  0.911700  0.446200  0.958090  1.0  -0.3146
  N  N602  1  0.489500  0.443900  0.076710  1.0  -0.2997
  N  N603  1  0.906400  0.291800  0.149840  1.0  -0.3057
  N  N604  1  0.155100  0.413900  0.038530  1.0  -0.5474
  N  N605  1  0.158000  0.368700  0.083860  1.0  -0.446
  N  N606  1  0.010100  0.377200  0.056850  1.0  -0.3615
  N  N607  1  0.589500  0.539600  0.106180  1.0  -0.3123
  N  N608  1  0.601300  0.889500  0.102410  1.0  -0.3072
  N  N609  1  0.407800  0.732800  0.279950  1.0  -0.3149
  N  N610  1  0.521700  0.674500  0.179170  1.0  -0.4593
  N  N611  1  0.559700  0.715000  0.133700  1.0  -0.4549
  N  N612  1  0.523800  0.760700  0.176960  1.0  -0.4694
  N  N613  1  0.088300  0.053800  0.458090  1.0  -0.3162
  N  N614  1  0.510500  0.056100  0.576710  1.0  -0.3013
  N  N615  1  0.093600  0.208200  0.649840  1.0  -0.3065
  N  N616  1  0.844900  0.086100  0.538530  1.0  -0.5487
  N  N617  1  0.842000  0.131300  0.583860  1.0  -0.4478
  N  N618  1  0.989900  0.122800  0.556850  1.0  -0.362
  N  N619  1  0.410500  0.960400  0.606180  1.0  -0.313
  N  N620  1  0.398700  0.610500  0.602410  1.0  -0.3056
  N  N621  1  0.592200  0.767200  0.779950  1.0  -0.3144
  N  N622  1  0.478300  0.825500  0.679170  1.0  -0.4604
  N  N623  1  0.440300  0.785000  0.633700  1.0  -0.4543
  N  N624  1  0.476200  0.739300  0.676960  1.0  -0.4686
  N  N625  1  0.411700  0.553800  0.541910  1.0  -0.3125
  N  N626  1  0.989500  0.556100  0.423290  1.0  -0.3003
  N  N627  1  0.406400  0.708200  0.350160  1.0  -0.3052
  N  N628  1  0.655100  0.586100  0.461470  1.0  -0.5484
  N  N629  1  0.658000  0.631300  0.416140  1.0  -0.4458
  N  N630  1  0.510100  0.622800  0.443150  1.0  -0.361
  N  N631  1  0.089500  0.460400  0.393820  1.0  -0.3133
  N  N632  1  0.101300  0.110500  0.397590  1.0  -0.306
  N  N633  1  0.907800  0.267200  0.220050  1.0  -0.3158
  N  N634  1  0.021700  0.325500  0.320830  1.0  -0.4597
  N  N635  1  0.059700  0.285000  0.366300  1.0  -0.4528
  N  N636  1  0.023800  0.239300  0.323040  1.0  -0.4698
  N  N637  1  0.588300  0.946200  0.041910  1.0  -0.3117
  N  N638  1  0.010500  0.943900  0.923290  1.0  -0.3008
  N  N639  1  0.593600  0.791800  0.850160  1.0  -0.3055
  N  N640  1  0.344900  0.913900  0.961470  1.0  -0.5498
  N  N641  1  0.342000  0.868700  0.916140  1.0  -0.4463
  N  N642  1  0.489900  0.877200  0.943150  1.0  -0.3622
  N  N643  1  0.910500  0.039600  0.893820  1.0  -0.313
  N  N644  1  0.898700  0.389500  0.897590  1.0  -0.3085
  N  N645  1  0.092200  0.232800  0.720050  1.0  -0.3154
  N  N646  1  0.978300  0.174500  0.820830  1.0  -0.46
  N  N647  1  0.940300  0.215000  0.866300  1.0  -0.4518
  N  N648  1  0.976200  0.260700  0.823040  1.0  -0.4687
