# generated using pymatgen
data_ZnH8C12(IN2)2
_symmetry_space_group_name_H-M   'P 1'
_cell_length_a   13.73770000
_cell_length_b   27.39400000
_cell_length_c   45.07200000
_cell_angle_alpha   90.00000000
_cell_angle_beta   90.00000000
_cell_angle_gamma   90.00000000
_symmetry_Int_Tables_number   1
_chemical_formula_structural   ZnH8C12(IN2)2
_chemical_formula_sum   'Zn24 H192 C288 I48 N96'
_cell_volume   16961.97072087
_cell_formula_units_Z   24
loop_
 _symmetry_equiv_pos_site_id
 _symmetry_equiv_pos_as_xyz
  1  'x, y, z'
loop_
 _atom_site_type_symbol
 _atom_site_label
 _atom_site_symmetry_multiplicity
 _atom_site_fract_x
 _atom_site_fract_y
 _atom_site_fract_z
 _atom_site_occupancy
 _atom_site_charge
  Zn  Zn1  1  0.829000  0.256950  0.816700  1.0  0.8771
  Zn  Zn2  1  0.852590  0.454030  0.081300  1.0  0.8618
  Zn  Zn3  1  0.124070  0.525980  0.585180  1.0  0.8364
  Zn  Zn4  1  0.171000  0.243050  0.316700  1.0  0.8771
  Zn  Zn5  1  0.147410  0.045970  0.581300  1.0  0.8643
  Zn  Zn6  1  0.875930  0.974020  0.085180  1.0  0.8359
  Zn  Zn7  1  0.329000  0.743050  0.683300  1.0  0.8755
  Zn  Zn8  1  0.352590  0.545970  0.418700  1.0  0.8648
  Zn  Zn9  1  0.624070  0.474020  0.914820  1.0  0.8364
  Zn  Zn10  1  0.671000  0.756950  0.183300  1.0  0.878
  Zn  Zn11  1  0.647410  0.954030  0.918700  1.0  0.8635
  Zn  Zn12  1  0.375930  0.025980  0.414820  1.0  0.836
  Zn  Zn13  1  0.171000  0.743050  0.183300  1.0  0.8769
  Zn  Zn14  1  0.147410  0.545970  0.918700  1.0  0.8644
  Zn  Zn15  1  0.875930  0.474020  0.414820  1.0  0.8364
  Zn  Zn16  1  0.829000  0.756950  0.683300  1.0  0.8769
  Zn  Zn17  1  0.852590  0.954030  0.418700  1.0  0.8633
  Zn  Zn18  1  0.124070  0.025980  0.914820  1.0  0.8363
  Zn  Zn19  1  0.671000  0.256950  0.316700  1.0  0.8782
  Zn  Zn20  1  0.647410  0.454030  0.581300  1.0  0.8629
  Zn  Zn21  1  0.375930  0.525980  0.085180  1.0  0.8357
  Zn  Zn22  1  0.329000  0.243050  0.816700  1.0  0.8757
  Zn  Zn23  1  0.352590  0.045970  0.081300  1.0  0.8642
  Zn  Zn24  1  0.624070  0.974020  0.585180  1.0  0.8362
  H  H25  1  0.038000  0.272100  0.834900  1.0  0.083
  H  H26  1  0.126500  0.310800  0.870900  1.0  0.1171
  H  H27  1  0.875200  0.351800  0.908500  1.0  0.1133
  H  H28  1  0.792900  0.315400  0.870600  1.0  0.1025
  H  H29  1  0.799600  0.417000  0.020900  1.0  0.0837
  H  H30  1  0.876600  0.390300  0.977900  1.0  0.1237
  H  H31  1  0.122100  0.451600  0.007900  1.0  0.1108
  H  H32  1  0.041800  0.471500  0.051700  1.0  0.0893
  H  H33  1  0.482600  0.461400  0.965300  1.0  0.0898
  H  H34  1  0.326800  0.433100  0.973800  1.0  0.1151
  H  H35  1  0.316100  0.389200  0.888400  1.0  0.1207
  H  H36  1  0.471200  0.417700  0.882100  1.0  0.0809
  H  H37  1  0.061100  0.080100  0.638800  1.0  0.1031
  H  H38  1  0.032300  0.150000  0.664900  1.0  0.1223
  H  H39  1  0.103200  0.227400  0.591600  1.0  0.1238
  H  H40  1  0.132200  0.153900  0.567500  1.0  0.0882
  H  H41  1  0.105200  0.419100  0.570200  1.0  0.0929
  H  H42  1  0.085800  0.344400  0.593700  1.0  0.1157
  H  H43  1  0.042600  0.415900  0.670500  1.0  0.1213
  H  H44  1  0.068000  0.487800  0.645500  1.0  0.084
  H  H45  1  0.901400  0.337600  0.777400  1.0  0.0848
  H  H46  1  0.958600  0.348200  0.729900  1.0  0.117
  H  H47  1  0.999800  0.203300  0.725300  1.0  0.115
  H  H48  1  0.943500  0.196800  0.773100  1.0  0.0844
  H  H49  1  0.962000  0.227900  0.334900  1.0  0.0832
  H  H50  1  0.873500  0.189200  0.370900  1.0  0.1187
  H  H51  1  0.124800  0.148200  0.408500  1.0  0.1133
  H  H52  1  0.207100  0.184600  0.370600  1.0  0.1004
  H  H53  1  0.200400  0.083000  0.520900  1.0  0.0836
  H  H54  1  0.123400  0.109700  0.477900  1.0  0.124
  H  H55  1  0.877900  0.048400  0.507900  1.0  0.1105
  H  H56  1  0.958200  0.028500  0.551700  1.0  0.0903
  H  H57  1  0.517400  0.038600  0.465300  1.0  0.0902
  H  H58  1  0.673200  0.066900  0.473800  1.0  0.115
  H  H59  1  0.683900  0.110800  0.388400  1.0  0.1206
  H  H60  1  0.528800  0.082300  0.382100  1.0  0.0808
  H  H61  1  0.938900  0.419900  0.138800  1.0  0.1032
  H  H62  1  0.967700  0.350000  0.164900  1.0  0.1222
  H  H63  1  0.896800  0.272600  0.091600  1.0  0.1239
  H  H64  1  0.867800  0.346100  0.067500  1.0  0.0882
  H  H65  1  0.894800  0.080900  0.070200  1.0  0.0925
  H  H66  1  0.914200  0.155600  0.093700  1.0  0.1161
  H  H67  1  0.957400  0.084100  0.170500  1.0  0.1215
  H  H68  1  0.932000  0.012200  0.145500  1.0  0.0839
  H  H69  1  0.098600  0.162400  0.277400  1.0  0.085
  H  H70  1  0.041400  0.151800  0.229900  1.0  0.1164
  H  H71  1  0.000200  0.296700  0.225300  1.0  0.1152
  H  H72  1  0.056500  0.303200  0.273100  1.0  0.0828
  H  H73  1  0.538000  0.727900  0.665100  1.0  0.0832
  H  H74  1  0.626500  0.689200  0.629100  1.0  0.1168
  H  H75  1  0.375200  0.648200  0.591500  1.0  0.1132
  H  H76  1  0.292900  0.684600  0.629400  1.0  0.1025
  H  H77  1  0.299600  0.583000  0.479100  1.0  0.0836
  H  H78  1  0.376600  0.609700  0.522100  1.0  0.1236
  H  H79  1  0.622100  0.548400  0.492100  1.0  0.1108
  H  H80  1  0.541800  0.528500  0.448300  1.0  0.0896
  H  H81  1  0.982600  0.538600  0.534700  1.0  0.0901
  H  H82  1  0.826800  0.566900  0.526200  1.0  0.1149
  H  H83  1  0.816100  0.610800  0.611600  1.0  0.1208
  H  H84  1  0.971200  0.582300  0.617900  1.0  0.0809
  H  H85  1  0.561100  0.919900  0.861200  1.0  0.1028
  H  H86  1  0.532300  0.850000  0.835100  1.0  0.1221
  H  H87  1  0.603200  0.772600  0.908400  1.0  0.1237
  H  H88  1  0.632200  0.846100  0.932500  1.0  0.0878
  H  H89  1  0.605200  0.580900  0.929800  1.0  0.0936
  H  H90  1  0.585800  0.655600  0.906300  1.0  0.1153
  H  H91  1  0.542600  0.584100  0.829500  1.0  0.1211
  H  H92  1  0.568000  0.512200  0.854500  1.0  0.0839
  H  H93  1  0.401400  0.662400  0.722600  1.0  0.0851
  H  H94  1  0.458600  0.651800  0.770100  1.0  0.1164
  H  H95  1  0.499800  0.796700  0.774700  1.0  0.1152
  H  H96  1  0.443500  0.803200  0.726900  1.0  0.0833
  H  H97  1  0.462000  0.772100  0.165100  1.0  0.0838
  H  H98  1  0.373500  0.810800  0.129100  1.0  0.1189
  H  H99  1  0.624800  0.851800  0.091500  1.0  0.1132
  H  H100  1  0.707100  0.815400  0.129400  1.0  0.1003
  H  H101  1  0.700400  0.917000  0.979100  1.0  0.0828
  H  H102  1  0.623400  0.890300  0.022100  1.0  0.1236
  H  H103  1  0.377900  0.951600  0.992100  1.0  0.111
  H  H104  1  0.458200  0.971500  0.948300  1.0  0.0898
  H  H105  1  0.017400  0.961400  0.034700  1.0  0.0899
  H  H106  1  0.173200  0.933100  0.026200  1.0  0.1151
  H  H107  1  0.183900  0.889200  0.111600  1.0  0.121
  H  H108  1  0.028800  0.917700  0.117900  1.0  0.0813
  H  H109  1  0.438900  0.580100  0.361200  1.0  0.1024
  H  H110  1  0.467700  0.650000  0.335100  1.0  0.1223
  H  H111  1  0.396800  0.727400  0.408400  1.0  0.1237
  H  H112  1  0.367800  0.653900  0.432500  1.0  0.0879
  H  H113  1  0.394800  0.919100  0.429800  1.0  0.0936
  H  H114  1  0.414200  0.844400  0.406300  1.0  0.1155
  H  H115  1  0.457400  0.915900  0.329500  1.0  0.121
  H  H116  1  0.432000  0.987800  0.354500  1.0  0.0838
  H  H117  1  0.598600  0.837600  0.222600  1.0  0.0851
  H  H118  1  0.541400  0.848200  0.270100  1.0  0.1166
  H  H119  1  0.500200  0.703300  0.274700  1.0  0.1153
  H  H120  1  0.556500  0.696800  0.226900  1.0  0.0843
  H  H121  1  0.962000  0.727900  0.165100  1.0  0.0833
  H  H122  1  0.873500  0.689200  0.129100  1.0  0.1188
  H  H123  1  0.124800  0.648200  0.091500  1.0  0.1132
  H  H124  1  0.207100  0.684600  0.129400  1.0  0.1002
  H  H125  1  0.200400  0.583000  0.979100  1.0  0.0837
  H  H126  1  0.123400  0.609700  0.022100  1.0  0.1235
  H  H127  1  0.877900  0.548400  0.992100  1.0  0.111
  H  H128  1  0.958200  0.528500  0.948300  1.0  0.0898
  H  H129  1  0.517400  0.538600  0.034700  1.0  0.09
  H  H130  1  0.673200  0.566900  0.026200  1.0  0.115
  H  H131  1  0.683900  0.610800  0.111600  1.0  0.1209
  H  H132  1  0.528800  0.582300  0.117900  1.0  0.081
  H  H133  1  0.938900  0.919900  0.361200  1.0  0.1026
  H  H134  1  0.967700  0.850000  0.335100  1.0  0.1224
  H  H135  1  0.896800  0.772600  0.408400  1.0  0.124
  H  H136  1  0.867800  0.846100  0.432500  1.0  0.088
  H  H137  1  0.894800  0.580900  0.429800  1.0  0.0937
  H  H138  1  0.914200  0.655600  0.406300  1.0  0.1152
  H  H139  1  0.957400  0.584100  0.329500  1.0  0.1211
  H  H140  1  0.932000  0.512200  0.354500  1.0  0.0835
  H  H141  1  0.098600  0.662400  0.222600  1.0  0.0851
  H  H142  1  0.041400  0.651800  0.270100  1.0  0.1163
  H  H143  1  0.000200  0.796700  0.274700  1.0  0.1154
  H  H144  1  0.056500  0.803200  0.226900  1.0  0.0831
  H  H145  1  0.038000  0.772100  0.665100  1.0  0.0834
  H  H146  1  0.126500  0.810800  0.629100  1.0  0.117
  H  H147  1  0.875200  0.851800  0.591500  1.0  0.1132
  H  H148  1  0.792900  0.815400  0.629400  1.0  0.1026
  H  H149  1  0.799600  0.917000  0.479100  1.0  0.0833
  H  H150  1  0.876600  0.890300  0.522100  1.0  0.124
  H  H151  1  0.122100  0.951600  0.492100  1.0  0.111
  H  H152  1  0.041800  0.971500  0.448300  1.0  0.0893
  H  H153  1  0.482600  0.961400  0.534700  1.0  0.0898
  H  H154  1  0.326800  0.933100  0.526200  1.0  0.115
  H  H155  1  0.316100  0.889200  0.611600  1.0  0.1209
  H  H156  1  0.471200  0.917700  0.617900  1.0  0.0812
  H  H157  1  0.061100  0.580100  0.861200  1.0  0.1025
  H  H158  1  0.032300  0.650000  0.835100  1.0  0.1222
  H  H159  1  0.103200  0.727400  0.908400  1.0  0.1236
  H  H160  1  0.132200  0.653900  0.932500  1.0  0.088
  H  H161  1  0.105200  0.919100  0.929800  1.0  0.0936
  H  H162  1  0.085800  0.844400  0.906300  1.0  0.1157
  H  H163  1  0.042600  0.915900  0.829500  1.0  0.121
  H  H164  1  0.068000  0.987800  0.854500  1.0  0.0841
  H  H165  1  0.901400  0.837600  0.722600  1.0  0.0851
  H  H166  1  0.958600  0.848200  0.770100  1.0  0.1167
  H  H167  1  0.999800  0.703300  0.774700  1.0  0.1154
  H  H168  1  0.943500  0.696800  0.726900  1.0  0.0844
  H  H169  1  0.462000  0.272100  0.334900  1.0  0.0832
  H  H170  1  0.373500  0.310800  0.370900  1.0  0.1187
  H  H171  1  0.624800  0.351800  0.408500  1.0  0.1132
  H  H172  1  0.707100  0.315400  0.370600  1.0  0.1004
  H  H173  1  0.700400  0.417000  0.520900  1.0  0.0831
  H  H174  1  0.623400  0.390300  0.477900  1.0  0.1236
  H  H175  1  0.377900  0.451600  0.507900  1.0  0.1106
  H  H176  1  0.458200  0.471500  0.551700  1.0  0.0902
  H  H177  1  0.017400  0.461400  0.465300  1.0  0.0902
  H  H178  1  0.173200  0.433100  0.473800  1.0  0.1151
  H  H179  1  0.183900  0.389200  0.388400  1.0  0.1207
  H  H180  1  0.028800  0.417700  0.382100  1.0  0.0809
  H  H181  1  0.438900  0.080100  0.138800  1.0  0.1028
  H  H182  1  0.467700  0.150000  0.164900  1.0  0.1223
  H  H183  1  0.396800  0.227400  0.091600  1.0  0.1238
  H  H184  1  0.367800  0.153900  0.067500  1.0  0.0882
  H  H185  1  0.394800  0.419100  0.070200  1.0  0.0927
  H  H186  1  0.414200  0.344400  0.093700  1.0  0.1157
  H  H187  1  0.457400  0.415900  0.170500  1.0  0.1213
  H  H188  1  0.432000  0.487800  0.145500  1.0  0.0839
  H  H189  1  0.598600  0.337600  0.277400  1.0  0.0847
  H  H190  1  0.541400  0.348200  0.229900  1.0  0.117
  H  H191  1  0.500200  0.203300  0.225300  1.0  0.1149
  H  H192  1  0.556500  0.196800  0.273100  1.0  0.0843
  H  H193  1  0.538000  0.227900  0.834900  1.0  0.0832
  H  H194  1  0.626500  0.189200  0.870900  1.0  0.117
  H  H195  1  0.375200  0.148200  0.908500  1.0  0.1136
  H  H196  1  0.292900  0.184600  0.870600  1.0  0.1026
  H  H197  1  0.299600  0.083000  0.020900  1.0  0.0835
  H  H198  1  0.376600  0.109700  0.977900  1.0  0.1239
  H  H199  1  0.622100  0.048400  0.007900  1.0  0.1104
  H  H200  1  0.541800  0.028500  0.051700  1.0  0.0897
  H  H201  1  0.982600  0.038600  0.965300  1.0  0.09
  H  H202  1  0.826800  0.066900  0.973800  1.0  0.115
  H  H203  1  0.816100  0.110800  0.888400  1.0  0.1207
  H  H204  1  0.971200  0.082300  0.882100  1.0  0.0809
  H  H205  1  0.561100  0.419900  0.638800  1.0  0.1034
  H  H206  1  0.532300  0.350000  0.664900  1.0  0.122
  H  H207  1  0.603200  0.272600  0.591600  1.0  0.1237
  H  H208  1  0.632200  0.346100  0.567500  1.0  0.0881
  H  H209  1  0.605200  0.080900  0.570200  1.0  0.0927
  H  H210  1  0.585800  0.155600  0.593700  1.0  0.1162
  H  H211  1  0.542600  0.084100  0.670500  1.0  0.1215
  H  H212  1  0.568000  0.012200  0.645500  1.0  0.0842
  H  H213  1  0.401400  0.162400  0.777400  1.0  0.0852
  H  H214  1  0.458600  0.151800  0.729900  1.0  0.1163
  H  H215  1  0.499800  0.296700  0.725300  1.0  0.115
  H  H216  1  0.443500  0.303200  0.773100  1.0  0.0831
  C  C217  1  0.004400  0.289400  0.850100  1.0  0.152
  C  C218  1  0.057400  0.311500  0.871600  1.0  -0.1395
  C  C219  1  0.009900  0.335100  0.894600  1.0  -0.0647
  C  C220  1  0.910800  0.335700  0.893300  1.0  -0.077
  C  C221  1  0.862000  0.314000  0.870900  1.0  0.133
  C  C222  1  0.867300  0.422900  0.018700  1.0  0.1413
  C  C223  1  0.912300  0.407400  0.992600  1.0  -0.1785
  C  C224  1  0.009000  0.417400  0.988900  1.0  -0.0911
  C  C225  1  0.055900  0.442600  0.010500  1.0  -0.1001
  C  C226  1  0.007200  0.455300  0.036300  1.0  0.1068
  C  C227  1  0.448000  0.446600  0.949500  1.0  0.134
  C  C228  1  0.355100  0.429900  0.954700  1.0  -0.1419
  C  C229  1  0.303200  0.408500  0.931800  1.0  -0.1126
  C  C230  1  0.349100  0.404100  0.904600  1.0  -0.1248
  C  C231  1  0.441300  0.421200  0.901000  1.0  0.1504
  C  C232  1  0.064900  0.360300  0.918500  1.0  0.3633
  C  C233  1  0.061500  0.399600  0.962300  1.0  0.3972
  C  C234  1  0.200000  0.393500  0.936000  1.0  0.3857
  C  C235  1  0.070900  0.110700  0.629300  1.0  0.1269
  C  C236  1  0.053600  0.151700  0.644900  1.0  -0.1342
  C  C237  1  0.067500  0.196200  0.631100  1.0  -0.1164
  C  C238  1  0.095500  0.197300  0.601800  1.0  -0.1462
  C  C239  1  0.112100  0.153400  0.587700  1.0  0.1442
  C  C240  1  0.094100  0.418400  0.591000  1.0  0.1095
  C  C241  1  0.080900  0.373800  0.604900  1.0  -0.1078
  C  C242  1  0.060900  0.372000  0.634600  1.0  -0.1055
  C  C243  1  0.056300  0.415400  0.649900  1.0  -0.149
  C  C244  1  0.071800  0.458000  0.634800  1.0  0.1507
  C  C245  1  0.920100  0.309700  0.766200  1.0  0.1364
  C  C246  1  0.954400  0.316300  0.738100  1.0  -0.1379
  C  C247  1  0.982900  0.276700  0.721800  1.0  -0.0766
  C  C248  1  0.978600  0.231700  0.735500  1.0  -0.1291
  C  C249  1  0.944000  0.227900  0.763900  1.0  0.1238
  C  C250  1  0.051800  0.243100  0.647700  1.0  0.3968
  C  C251  1  0.049600  0.324400  0.649600  1.0  0.3812
  C  C252  1  0.013600  0.280100  0.690100  1.0  0.3387
  C  C253  1  0.995600  0.210600  0.350100  1.0  0.1524
  C  C254  1  0.942600  0.188500  0.371600  1.0  -0.1394
  C  C255  1  0.990100  0.164900  0.394600  1.0  -0.0645
  C  C256  1  0.089200  0.164300  0.393300  1.0  -0.0775
  C  C257  1  0.138000  0.186000  0.370900  1.0  0.1327
  C  C258  1  0.132700  0.077100  0.518700  1.0  0.1413
  C  C259  1  0.087700  0.092600  0.492600  1.0  -0.1771
  C  C260  1  0.991000  0.082600  0.488900  1.0  -0.0924
  C  C261  1  0.944100  0.057400  0.510500  1.0  -0.1007
  C  C262  1  0.992800  0.044700  0.536300  1.0  0.1074
  C  C263  1  0.552000  0.053400  0.449500  1.0  0.1342
  C  C264  1  0.644900  0.070100  0.454700  1.0  -0.1411
  C  C265  1  0.696800  0.091500  0.431800  1.0  -0.113
  C  C266  1  0.650900  0.095900  0.404600  1.0  -0.1253
  C  C267  1  0.558700  0.078800  0.401000  1.0  0.1513
  C  C268  1  0.935100  0.139700  0.418500  1.0  0.3629
  C  C269  1  0.938500  0.100400  0.462300  1.0  0.3972
  C  C270  1  0.800000  0.106500  0.436000  1.0  0.3856
  C  C271  1  0.929100  0.389300  0.129300  1.0  0.1283
  C  C272  1  0.946400  0.348300  0.144900  1.0  -0.1355
  C  C273  1  0.932500  0.303800  0.131100  1.0  -0.1163
  C  C274  1  0.904500  0.302700  0.101800  1.0  -0.1456
  C  C275  1  0.887900  0.346600  0.087700  1.0  0.1439
  C  C276  1  0.905900  0.081600  0.091000  1.0  0.1106
  C  C277  1  0.919100  0.126200  0.104900  1.0  -0.1077
  C  C278  1  0.939100  0.128000  0.134600  1.0  -0.1062
  C  C279  1  0.943700  0.084600  0.149900  1.0  -0.1491
  C  C280  1  0.928200  0.042000  0.134800  1.0  0.1493
  C  C281  1  0.079900  0.190300  0.266200  1.0  0.1386
  C  C282  1  0.045600  0.183700  0.238100  1.0  -0.1377
  C  C283  1  0.017100  0.223300  0.221800  1.0  -0.077
  C  C284  1  0.021400  0.268300  0.235500  1.0  -0.1287
  C  C285  1  0.056000  0.272100  0.263900  1.0  0.1232
  C  C286  1  0.948200  0.256900  0.147700  1.0  0.3963
  C  C287  1  0.950400  0.175600  0.149600  1.0  0.3809
  C  C288  1  0.986400  0.219900  0.190100  1.0  0.3388
  C  C289  1  0.504400  0.710600  0.649900  1.0  0.1525
  C  C290  1  0.557400  0.688500  0.628400  1.0  -0.1396
  C  C291  1  0.509900  0.664900  0.605400  1.0  -0.0646
  C  C292  1  0.410800  0.664300  0.606700  1.0  -0.0764
  C  C293  1  0.362000  0.686000  0.629100  1.0  0.133
  C  C294  1  0.367300  0.577100  0.481300  1.0  0.1411
  C  C295  1  0.412300  0.592600  0.507400  1.0  -0.1784
  C  C296  1  0.509000  0.582600  0.511100  1.0  -0.0915
  C  C297  1  0.555900  0.557400  0.489500  1.0  -0.0997
  C  C298  1  0.507200  0.544700  0.463700  1.0  0.1074
  C  C299  1  0.948000  0.553400  0.550500  1.0  0.1339
  C  C300  1  0.855100  0.570100  0.545300  1.0  -0.1405
  C  C301  1  0.803200  0.591500  0.568200  1.0  -0.1117
  C  C302  1  0.849100  0.595900  0.595400  1.0  -0.1258
  C  C303  1  0.941300  0.578800  0.599000  1.0  0.1518
  C  C304  1  0.564900  0.639700  0.581500  1.0  0.3634
  C  C305  1  0.561500  0.600400  0.537700  1.0  0.3972
  C  C306  1  0.700000  0.606500  0.564000  1.0  0.3855
  C  C307  1  0.570900  0.889300  0.870700  1.0  0.1272
  C  C308  1  0.553600  0.848300  0.855100  1.0  -0.1329
  C  C309  1  0.567500  0.803800  0.868900  1.0  -0.117
  C  C310  1  0.595500  0.802700  0.898200  1.0  -0.1457
  C  C311  1  0.612100  0.846600  0.912300  1.0  0.1458
  C  C312  1  0.594100  0.581600  0.909000  1.0  0.1092
  C  C313  1  0.580900  0.626200  0.895100  1.0  -0.1087
  C  C314  1  0.560900  0.628000  0.865400  1.0  -0.1065
  C  C315  1  0.556300  0.584600  0.850100  1.0  -0.1472
  C  C316  1  0.571800  0.542000  0.865200  1.0  0.1483
  C  C317  1  0.420100  0.690300  0.733800  1.0  0.1382
  C  C318  1  0.454400  0.683700  0.761900  1.0  -0.1373
  C  C319  1  0.482900  0.723300  0.778200  1.0  -0.0772
  C  C320  1  0.478600  0.768300  0.764500  1.0  -0.1288
  C  C321  1  0.444000  0.772100  0.736100  1.0  0.124
  C  C322  1  0.551800  0.756900  0.852300  1.0  0.3964
  C  C323  1  0.549600  0.675600  0.850400  1.0  0.3812
  C  C324  1  0.513600  0.719900  0.809900  1.0  0.3387
  C  C325  1  0.495600  0.789400  0.149900  1.0  0.1536
  C  C326  1  0.442600  0.811500  0.128400  1.0  -0.1395
  C  C327  1  0.490100  0.835100  0.105400  1.0  -0.0644
  C  C328  1  0.589200  0.835700  0.106700  1.0  -0.0775
  C  C329  1  0.638000  0.814000  0.129100  1.0  0.1322
  C  C330  1  0.632700  0.922900  0.981300  1.0  0.1412
  C  C331  1  0.587700  0.907400  0.007400  1.0  -0.1758
  C  C332  1  0.491000  0.917400  0.011100  1.0  -0.0907
  C  C333  1  0.444100  0.942600  0.989500  1.0  -0.101
  C  C334  1  0.492800  0.955300  0.963700  1.0  0.1079
  C  C335  1  0.052000  0.946600  0.050500  1.0  0.1345
  C  C336  1  0.144900  0.929900  0.045300  1.0  -0.139
  C  C337  1  0.196800  0.908500  0.068200  1.0  -0.1133
  C  C338  1  0.150900  0.904100  0.095400  1.0  -0.1249
  C  C339  1  0.058700  0.921200  0.099000  1.0  0.1522
  C  C340  1  0.435100  0.860300  0.081500  1.0  0.3633
  C  C341  1  0.438500  0.899600  0.037700  1.0  0.397
  C  C342  1  0.300000  0.893500  0.064000  1.0  0.385
  C  C343  1  0.429100  0.610700  0.370700  1.0  0.1267
  C  C344  1  0.446400  0.651700  0.355100  1.0  -0.1362
  C  C345  1  0.432500  0.696200  0.368900  1.0  -0.1161
  C  C346  1  0.404500  0.697300  0.398200  1.0  -0.1457
  C  C347  1  0.387900  0.653400  0.412300  1.0  0.1444
  C  C348  1  0.405900  0.918400  0.409000  1.0  0.1094
  C  C349  1  0.419100  0.873800  0.395100  1.0  -0.1074
  C  C350  1  0.439100  0.872000  0.365400  1.0  -0.1053
  C  C351  1  0.443700  0.915400  0.350100  1.0  -0.1477
  C  C352  1  0.428200  0.958000  0.365200  1.0  0.1507
  C  C353  1  0.579900  0.809700  0.233800  1.0  0.138
  C  C354  1  0.545600  0.816300  0.261900  1.0  -0.1379
  C  C355  1  0.517100  0.776700  0.278200  1.0  -0.0775
  C  C356  1  0.521400  0.731700  0.264500  1.0  -0.13
  C  C357  1  0.556000  0.727900  0.236100  1.0  0.1228
  C  C358  1  0.448200  0.743100  0.352300  1.0  0.3967
  C  C359  1  0.450400  0.824400  0.350400  1.0  0.3814
  C  C360  1  0.486400  0.780100  0.309900  1.0  0.339
  C  C361  1  0.995600  0.710600  0.149900  1.0  0.1527
  C  C362  1  0.942600  0.688500  0.128400  1.0  -0.1397
  C  C363  1  0.990100  0.664900  0.105400  1.0  -0.0645
  C  C364  1  0.089200  0.664300  0.106700  1.0  -0.0771
  C  C365  1  0.138000  0.686000  0.129100  1.0  0.1323
  C  C366  1  0.132700  0.577100  0.981300  1.0  0.1408
  C  C367  1  0.087700  0.592600  0.007400  1.0  -0.1767
  C  C368  1  0.991000  0.582600  0.011100  1.0  -0.0919
  C  C369  1  0.944100  0.557400  0.989500  1.0  -0.1009
  C  C370  1  0.992800  0.544700  0.963700  1.0  0.1079
  C  C371  1  0.552000  0.553400  0.050500  1.0  0.1347
  C  C372  1  0.644900  0.570100  0.045300  1.0  -0.1392
  C  C373  1  0.696800  0.591500  0.068200  1.0  -0.1129
  C  C374  1  0.650900  0.595900  0.095400  1.0  -0.1261
  C  C375  1  0.558700  0.578800  0.099000  1.0  0.1513
  C  C376  1  0.935100  0.639700  0.081500  1.0  0.3633
  C  C377  1  0.938500  0.600400  0.037700  1.0  0.397
  C  C378  1  0.800000  0.606500  0.064000  1.0  0.3854
  C  C379  1  0.929100  0.889300  0.370700  1.0  0.1275
  C  C380  1  0.946400  0.848300  0.355100  1.0  -0.1355
  C  C381  1  0.932500  0.803800  0.368900  1.0  -0.1169
  C  C382  1  0.904500  0.802700  0.398200  1.0  -0.1458
  C  C383  1  0.887900  0.846600  0.412300  1.0  0.1449
  C  C384  1  0.905900  0.581600  0.409000  1.0  0.1094
  C  C385  1  0.919100  0.626200  0.395100  1.0  -0.1085
  C  C386  1  0.939100  0.628000  0.365400  1.0  -0.1064
  C  C387  1  0.943700  0.584600  0.350100  1.0  -0.1472
  C  C388  1  0.928200  0.542000  0.365200  1.0  0.1492
  C  C389  1  0.079900  0.690300  0.233800  1.0  0.1376
  C  C390  1  0.045600  0.683700  0.261900  1.0  -0.1383
  C  C391  1  0.017100  0.723300  0.278200  1.0  -0.0772
  C  C392  1  0.021400  0.768300  0.264500  1.0  -0.1291
  C  C393  1  0.056000  0.772100  0.236100  1.0  0.1235
  C  C394  1  0.948200  0.756900  0.352300  1.0  0.3964
  C  C395  1  0.950400  0.675600  0.350400  1.0  0.3812
  C  C396  1  0.986400  0.719900  0.309900  1.0  0.3389
  C  C397  1  0.004400  0.789400  0.649900  1.0  0.1533
  C  C398  1  0.057400  0.811500  0.628400  1.0  -0.1397
  C  C399  1  0.009900  0.835100  0.605400  1.0  -0.0642
  C  C400  1  0.910800  0.835700  0.606700  1.0  -0.0762
  C  C401  1  0.862000  0.814000  0.629100  1.0  0.133
  C  C402  1  0.867300  0.922900  0.481300  1.0  0.1414
  C  C403  1  0.912300  0.907400  0.507400  1.0  -0.1777
  C  C404  1  0.009000  0.917400  0.511100  1.0  -0.0905
  C  C405  1  0.055900  0.942600  0.489500  1.0  -0.1002
  C  C406  1  0.007200  0.955300  0.463700  1.0  0.1072
  C  C407  1  0.448000  0.946600  0.550500  1.0  0.1337
  C  C408  1  0.355100  0.929900  0.545300  1.0  -0.1405
  C  C409  1  0.303200  0.908500  0.568200  1.0  -0.1127
  C  C410  1  0.349100  0.904100  0.595400  1.0  -0.1251
  C  C411  1  0.441300  0.921200  0.599000  1.0  0.1526
  C  C412  1  0.064900  0.860300  0.581500  1.0  0.3634
  C  C413  1  0.061500  0.899600  0.537700  1.0  0.3972
  C  C414  1  0.200000  0.893500  0.564000  1.0  0.3857
  C  C415  1  0.070900  0.610700  0.870700  1.0  0.1264
  C  C416  1  0.053600  0.651700  0.855100  1.0  -0.1335
  C  C417  1  0.067500  0.696200  0.868900  1.0  -0.1164
  C  C418  1  0.095500  0.697300  0.898200  1.0  -0.145
  C  C419  1  0.112100  0.653400  0.912300  1.0  0.1453
  C  C420  1  0.094100  0.918400  0.909000  1.0  0.1096
  C  C421  1  0.080900  0.873800  0.895100  1.0  -0.1079
  C  C422  1  0.060900  0.872000  0.865400  1.0  -0.1057
  C  C423  1  0.056300  0.915400  0.850100  1.0  -0.1474
  C  C424  1  0.071800  0.958000  0.865200  1.0  0.1503
  C  C425  1  0.920100  0.809700  0.733800  1.0  0.1375
  C  C426  1  0.954400  0.816300  0.761900  1.0  -0.1377
  C  C427  1  0.982900  0.776700  0.778200  1.0  -0.0774
  C  C428  1  0.978600  0.731700  0.764500  1.0  -0.1295
  C  C429  1  0.944000  0.727900  0.736100  1.0  0.1233
  C  C430  1  0.051800  0.743100  0.852300  1.0  0.3968
  C  C431  1  0.049600  0.824400  0.850400  1.0  0.3815
  C  C432  1  0.013600  0.780100  0.809900  1.0  0.3388
  C  C433  1  0.495600  0.289400  0.350100  1.0  0.1526
  C  C434  1  0.442600  0.311500  0.371600  1.0  -0.1392
  C  C435  1  0.490100  0.335100  0.394600  1.0  -0.0647
  C  C436  1  0.589200  0.335700  0.393300  1.0  -0.0781
  C  C437  1  0.638000  0.314000  0.370900  1.0  0.1327
  C  C438  1  0.632700  0.422900  0.518700  1.0  0.1415
  C  C439  1  0.587700  0.407400  0.492600  1.0  -0.1771
  C  C440  1  0.491000  0.417400  0.488900  1.0  -0.0916
  C  C441  1  0.444100  0.442600  0.510500  1.0  -0.1004
  C  C442  1  0.492800  0.455300  0.536300  1.0  0.1067
  C  C443  1  0.052000  0.446600  0.449500  1.0  0.1337
  C  C444  1  0.144900  0.429900  0.454700  1.0  -0.141
  C  C445  1  0.196800  0.408500  0.431800  1.0  -0.1136
  C  C446  1  0.150900  0.404100  0.404600  1.0  -0.1247
  C  C447  1  0.058700  0.421200  0.401000  1.0  0.1513
  C  C448  1  0.435100  0.360300  0.418500  1.0  0.3631
  C  C449  1  0.438500  0.399600  0.462300  1.0  0.397
  C  C450  1  0.300000  0.393500  0.436000  1.0  0.3851
  C  C451  1  0.429100  0.110700  0.129300  1.0  0.1273
  C  C452  1  0.446400  0.151700  0.144900  1.0  -0.1358
  C  C453  1  0.432500  0.196200  0.131100  1.0  -0.1162
  C  C454  1  0.404500  0.197300  0.101800  1.0  -0.1461
  C  C455  1  0.387900  0.153400  0.087700  1.0  0.1439
  C  C456  1  0.405900  0.418400  0.091000  1.0  0.1104
  C  C457  1  0.419100  0.373800  0.104900  1.0  -0.1065
  C  C458  1  0.439100  0.372000  0.134600  1.0  -0.1051
  C  C459  1  0.443700  0.415400  0.149900  1.0  -0.1491
  C  C460  1  0.428200  0.458000  0.134800  1.0  0.1504
  C  C461  1  0.579900  0.309700  0.266200  1.0  0.1375
  C  C462  1  0.545600  0.316300  0.238100  1.0  -0.1379
  C  C463  1  0.517100  0.276700  0.221800  1.0  -0.0768
  C  C464  1  0.521400  0.231700  0.235500  1.0  -0.1297
  C  C465  1  0.556000  0.227900  0.263900  1.0  0.1234
  C  C466  1  0.448200  0.243100  0.147700  1.0  0.3966
  C  C467  1  0.450400  0.324400  0.149600  1.0  0.3811
  C  C468  1  0.486400  0.280100  0.190100  1.0  0.3389
  C  C469  1  0.504400  0.210600  0.850100  1.0  0.1518
  C  C470  1  0.557400  0.188500  0.871600  1.0  -0.1395
  C  C471  1  0.509900  0.164900  0.894600  1.0  -0.0648
  C  C472  1  0.410800  0.164300  0.893300  1.0  -0.0769
  C  C473  1  0.362000  0.186000  0.870900  1.0  0.1331
  C  C474  1  0.367300  0.077100  0.018700  1.0  0.1411
  C  C475  1  0.412300  0.092600  0.992600  1.0  -0.1786
  C  C476  1  0.509000  0.082600  0.988900  1.0  -0.0917
  C  C477  1  0.555900  0.057400  0.010500  1.0  -0.1
  C  C478  1  0.507200  0.044700  0.036300  1.0  0.1078
  C  C479  1  0.948000  0.053400  0.949500  1.0  0.1345
  C  C480  1  0.855100  0.070100  0.954700  1.0  -0.1418
  C  C481  1  0.803200  0.091500  0.931800  1.0  -0.1116
  C  C482  1  0.849100  0.095900  0.904600  1.0  -0.1251
  C  C483  1  0.941300  0.078800  0.901000  1.0  0.1502
  C  C484  1  0.564900  0.139700  0.918500  1.0  0.3631
  C  C485  1  0.561500  0.100400  0.962300  1.0  0.3974
  C  C486  1  0.700000  0.106500  0.936000  1.0  0.3857
  C  C487  1  0.570900  0.389300  0.629300  1.0  0.1277
  C  C488  1  0.553600  0.348300  0.644900  1.0  -0.1345
  C  C489  1  0.567500  0.303800  0.631100  1.0  -0.1164
  C  C490  1  0.595500  0.302700  0.601800  1.0  -0.1462
  C  C491  1  0.612100  0.346600  0.587700  1.0  0.1441
  C  C492  1  0.594100  0.081600  0.591000  1.0  0.1097
  C  C493  1  0.580900  0.126200  0.604900  1.0  -0.109
  C  C494  1  0.560900  0.128000  0.634600  1.0  -0.1063
  C  C495  1  0.556300  0.084600  0.649900  1.0  -0.1492
  C  C496  1  0.571800  0.042000  0.634800  1.0  0.1488
  C  C497  1  0.420100  0.190300  0.766200  1.0  0.1387
  C  C498  1  0.454400  0.183700  0.738100  1.0  -0.1368
  C  C499  1  0.482900  0.223300  0.721800  1.0  -0.0767
  C  C500  1  0.478600  0.268300  0.735500  1.0  -0.1282
  C  C501  1  0.444000  0.272100  0.763900  1.0  0.1235
  C  C502  1  0.551800  0.256900  0.647700  1.0  0.3964
  C  C503  1  0.549600  0.175600  0.649600  1.0  0.3809
  C  C504  1  0.513600  0.219900  0.690100  1.0  0.3387
  I  I505  1  0.814950  0.166300  0.827410  1.0  -0.3246
  I  I506  1  0.674320  0.306770  0.807740  1.0  -0.3917
  I  I507  1  0.670030  0.442300  0.077220  1.0  -0.3936
  I  I508  1  0.941600  0.519590  0.109620  1.0  -0.3739
  I  I509  1  0.200650  0.505920  0.534990  1.0  -0.4309
  I  I510  1  0.209620  0.574570  0.624410  1.0  -0.3284
  I  I511  1  0.185050  0.333700  0.327410  1.0  -0.3239
  I  I512  1  0.325680  0.193230  0.307740  1.0  -0.3922
  I  I513  1  0.329970  0.057700  0.577220  1.0  -0.3935
  I  I514  1  0.058400  0.980410  0.609620  1.0  -0.3731
  I  I515  1  0.799350  0.994080  0.034990  1.0  -0.4315
  I  I516  1  0.790380  0.925430  0.124410  1.0  -0.3288
  I  I517  1  0.314950  0.833700  0.672590  1.0  -0.3243
  I  I518  1  0.174320  0.693230  0.692260  1.0  -0.3918
  I  I519  1  0.170030  0.557700  0.422780  1.0  -0.3922
  I  I520  1  0.441600  0.480410  0.390380  1.0  -0.3727
  I  I521  1  0.700650  0.494080  0.965010  1.0  -0.4304
  I  I522  1  0.709620  0.425430  0.875590  1.0  -0.3289
  I  I523  1  0.685050  0.666300  0.172590  1.0  -0.3244
  I  I524  1  0.825680  0.806770  0.192260  1.0  -0.3926
  I  I525  1  0.829970  0.942300  0.922780  1.0  -0.3936
  I  I526  1  0.558400  0.019590  0.890380  1.0  -0.3722
  I  I527  1  0.299350  0.005920  0.465010  1.0  -0.4311
  I  I528  1  0.290380  0.074570  0.375590  1.0  -0.3292
  I  I529  1  0.185050  0.833700  0.172590  1.0  -0.3243
  I  I530  1  0.325680  0.693230  0.192260  1.0  -0.3924
  I  I531  1  0.329970  0.557700  0.922780  1.0  -0.3928
  I  I532  1  0.058400  0.480410  0.890380  1.0  -0.3722
  I  I533  1  0.799350  0.494080  0.465010  1.0  -0.4311
  I  I534  1  0.790380  0.425430  0.375590  1.0  -0.3295
  I  I535  1  0.814950  0.666300  0.672590  1.0  -0.3244
  I  I536  1  0.674320  0.806770  0.692260  1.0  -0.3919
  I  I537  1  0.670030  0.942300  0.422780  1.0  -0.3929
  I  I538  1  0.941600  0.019590  0.390380  1.0  -0.3725
  I  I539  1  0.200650  0.005920  0.965010  1.0  -0.4304
  I  I540  1  0.209620  0.074570  0.875590  1.0  -0.3288
  I  I541  1  0.685050  0.166300  0.327410  1.0  -0.3247
  I  I542  1  0.825680  0.306770  0.307740  1.0  -0.3924
  I  I543  1  0.829970  0.442300  0.577220  1.0  -0.3943
  I  I544  1  0.558400  0.519590  0.609620  1.0  -0.3732
  I  I545  1  0.299350  0.505920  0.034990  1.0  -0.4315
  I  I546  1  0.290380  0.574570  0.124410  1.0  -0.3286
  I  I547  1  0.314950  0.333700  0.827410  1.0  -0.324
  I  I548  1  0.174320  0.193230  0.807740  1.0  -0.3915
  I  I549  1  0.170030  0.057700  0.077220  1.0  -0.3929
  I  I550  1  0.441600  0.980410  0.109620  1.0  -0.3736
  I  I551  1  0.700650  0.994080  0.534990  1.0  -0.4309
  I  I552  1  0.709620  0.925430  0.624410  1.0  -0.3282
  N  N553  1  0.907900  0.290800  0.849100  1.0  -0.2939
  N  N554  1  0.912700  0.445100  0.040100  1.0  -0.3007
  N  N555  1  0.492300  0.442800  0.922700  1.0  -0.348
  N  N556  1  0.159200  0.367600  0.914600  1.0  -0.4393
  N  N557  1  0.011000  0.374900  0.942300  1.0  -0.3577
  N  N558  1  0.155500  0.411400  0.960470  1.0  -0.5041
  N  N559  1  0.101700  0.110900  0.600700  1.0  -0.3219
  N  N560  1  0.091700  0.460300  0.605900  1.0  -0.3212
  N  N561  1  0.911500  0.265700  0.778820  1.0  -0.3027
  N  N562  1  0.026300  0.238500  0.676330  1.0  -0.4547
  N  N563  1  0.062000  0.285000  0.633530  1.0  -0.4527
  N  N564  1  0.023400  0.324600  0.678560  1.0  -0.4627
  N  N565  1  0.092100  0.209200  0.349100  1.0  -0.291
  N  N566  1  0.087300  0.054900  0.540100  1.0  -0.3011
  N  N567  1  0.507700  0.057200  0.422700  1.0  -0.3484
  N  N568  1  0.840800  0.132400  0.414600  1.0  -0.4396
  N  N569  1  0.989000  0.125100  0.442300  1.0  -0.3577
  N  N570  1  0.844500  0.088600  0.460470  1.0  -0.5036
  N  N571  1  0.898300  0.389100  0.100700  1.0  -0.3233
  N  N572  1  0.908300  0.039700  0.105900  1.0  -0.3207
  N  N573  1  0.088500  0.234300  0.278820  1.0  -0.3013
  N  N574  1  0.973700  0.261500  0.176330  1.0  -0.4548
  N  N575  1  0.938000  0.215000  0.133530  1.0  -0.4524
  N  N576  1  0.976600  0.175400  0.178560  1.0  -0.462
  N  N577  1  0.407900  0.709200  0.650900  1.0  -0.2924
  N  N578  1  0.412700  0.554900  0.459900  1.0  -0.3035
  N  N579  1  0.992300  0.557200  0.577300  1.0  -0.3487
  N  N580  1  0.659200  0.632400  0.585400  1.0  -0.4394
  N  N581  1  0.511000  0.625100  0.557700  1.0  -0.3569
  N  N582  1  0.655500  0.588600  0.539530  1.0  -0.5037
  N  N583  1  0.601700  0.889100  0.899300  1.0  -0.3243
  N  N584  1  0.591700  0.539700  0.894100  1.0  -0.32
  N  N585  1  0.411500  0.734300  0.721180  1.0  -0.3019
  N  N586  1  0.526300  0.761500  0.823670  1.0  -0.4543
  N  N587  1  0.562000  0.715000  0.866470  1.0  -0.454
  N  N588  1  0.523400  0.675400  0.821440  1.0  -0.463
  N  N589  1  0.592100  0.790800  0.150900  1.0  -0.2905
  N  N590  1  0.587300  0.945100  0.959900  1.0  -0.3019
  N  N591  1  0.007700  0.942800  0.077300  1.0  -0.3477
  N  N592  1  0.340800  0.867600  0.085400  1.0  -0.4388
  N  N593  1  0.489000  0.874900  0.057700  1.0  -0.3582
  N  N594  1  0.344500  0.911400  0.039530  1.0  -0.5037
  N  N595  1  0.398300  0.610900  0.399300  1.0  -0.3235
  N  N596  1  0.408300  0.960300  0.394100  1.0  -0.3211
  N  N597  1  0.588500  0.765700  0.221180  1.0  -0.3024
  N  N598  1  0.473700  0.738500  0.323670  1.0  -0.4541
  N  N599  1  0.438000  0.785000  0.366470  1.0  -0.4532
  N  N600  1  0.476600  0.824600  0.321440  1.0  -0.4624
  N  N601  1  0.092100  0.709200  0.150900  1.0  -0.2906
  N  N602  1  0.087300  0.554900  0.959900  1.0  -0.3035
  N  N603  1  0.507700  0.557200  0.077300  1.0  -0.3486
  N  N604  1  0.840800  0.632400  0.085400  1.0  -0.4396
  N  N605  1  0.989000  0.625100  0.057700  1.0  -0.3575
  N  N606  1  0.844500  0.588600  0.039530  1.0  -0.5041
  N  N607  1  0.898300  0.889100  0.399300  1.0  -0.3242
  N  N608  1  0.908300  0.539700  0.394100  1.0  -0.3205
  N  N609  1  0.088500  0.734300  0.221180  1.0  -0.3022
  N  N610  1  0.973700  0.761500  0.323670  1.0  -0.4539
  N  N611  1  0.938000  0.715000  0.366470  1.0  -0.4533
  N  N612  1  0.976600  0.675400  0.321440  1.0  -0.4627
  N  N613  1  0.907900  0.790800  0.650900  1.0  -0.2925
  N  N614  1  0.912700  0.945100  0.459900  1.0  -0.3022
  N  N615  1  0.492300  0.942800  0.577300  1.0  -0.3483
  N  N616  1  0.159200  0.867600  0.585400  1.0  -0.4379
  N  N617  1  0.011000  0.874900  0.557700  1.0  -0.3579
  N  N618  1  0.155500  0.911400  0.539530  1.0  -0.5034
  N  N619  1  0.101700  0.610900  0.899300  1.0  -0.323
  N  N620  1  0.091700  0.960300  0.894100  1.0  -0.3216
  N  N621  1  0.911500  0.765700  0.721180  1.0  -0.3026
  N  N622  1  0.026300  0.738500  0.823670  1.0  -0.455
  N  N623  1  0.062000  0.785000  0.866470  1.0  -0.454
  N  N624  1  0.023400  0.824600  0.821440  1.0  -0.4624
  N  N625  1  0.592100  0.290800  0.349100  1.0  -0.2912
  N  N626  1  0.587300  0.445100  0.540100  1.0  -0.3007
  N  N627  1  0.007700  0.442800  0.422700  1.0  -0.3474
  N  N628  1  0.340800  0.367600  0.414600  1.0  -0.4395
  N  N629  1  0.489000  0.374900  0.442300  1.0  -0.3581
  N  N630  1  0.344500  0.411400  0.460470  1.0  -0.504
  N  N631  1  0.398300  0.110900  0.100700  1.0  -0.3225
  N  N632  1  0.408300  0.460300  0.105900  1.0  -0.3204
  N  N633  1  0.588500  0.265700  0.278820  1.0  -0.3016
  N  N634  1  0.473700  0.238500  0.176330  1.0  -0.454
  N  N635  1  0.438000  0.285000  0.133530  1.0  -0.4524
  N  N636  1  0.476600  0.324600  0.178560  1.0  -0.4627
  N  N637  1  0.407900  0.209200  0.849100  1.0  -0.2927
  N  N638  1  0.412700  0.054900  0.040100  1.0  -0.3009
  N  N639  1  0.992300  0.057200  0.922700  1.0  -0.3485
  N  N640  1  0.659200  0.132400  0.914600  1.0  -0.4396
  N  N641  1  0.511000  0.125100  0.942300  1.0  -0.3567
  N  N642  1  0.655500  0.088600  0.960470  1.0  -0.5035
  N  N643  1  0.601700  0.389100  0.600700  1.0  -0.3232
  N  N644  1  0.591700  0.039700  0.605900  1.0  -0.3203
  N  N645  1  0.411500  0.234300  0.778820  1.0  -0.302
  N  N646  1  0.526300  0.261500  0.676330  1.0  -0.4551
  N  N647  1  0.562000  0.215000  0.633530  1.0  -0.4527
  N  N648  1  0.523400  0.175400  0.678560  1.0  -0.4623
