# generated using pymatgen
data_NdH3(C3O2)3
_symmetry_space_group_name_H-M   'P 1'
_cell_length_a   10.42780000
_cell_length_b   10.42780000
_cell_length_c   14.26020000
_cell_angle_alpha   90.00000000
_cell_angle_beta   90.00000000
_cell_angle_gamma   90.00000000
_symmetry_Int_Tables_number   1
_chemical_formula_structural   NdH3(C3O2)3
_chemical_formula_sum   'Nd4 H12 C36 O24'
_cell_volume   1550.64007090
_cell_formula_units_Z   4
loop_
 _symmetry_equiv_pos_site_id
 _symmetry_equiv_pos_as_xyz
  1  'x, y, z'
loop_
 _atom_site_type_symbol
 _atom_site_label
 _atom_site_symmetry_multiplicity
 _atom_site_fract_x
 _atom_site_fract_y
 _atom_site_fract_z
 _atom_site_occupancy
 _atom_site_charge
  Nd  Nd1  1  0.868860  0.134050  0.624730  1.0  2.3503
  Nd  Nd2  1  0.131140  0.865950  0.124730  1.0  2.35
  Nd  Nd3  1  0.865950  0.868860  0.874730  1.0  2.3507
  Nd  Nd4  1  0.134050  0.131140  0.374730  1.0  2.35
  H  H5  1  0.994000  0.877800  0.500200  1.0  0.0688
  H  H6  1  0.082700  0.547400  0.378100  1.0  0.11
  H  H7  1  0.964700  0.551300  0.643500  1.0  0.1071
  H  H8  1  0.006000  0.122200  0.000200  1.0  0.0693
  H  H9  1  0.917300  0.452600  0.878100  1.0  0.1099
  H  H10  1  0.035300  0.448700  0.143500  1.0  0.1076
  H  H11  1  0.122200  0.994000  0.750200  1.0  0.0697
  H  H12  1  0.452600  0.082700  0.628100  1.0  0.1101
  H  H13  1  0.448700  0.964700  0.893500  1.0  0.1076
  H  H14  1  0.877800  0.006000  0.250200  1.0  0.0696
  H  H15  1  0.547400  0.917300  0.128100  1.0  0.1099
  H  H16  1  0.551300  0.035300  0.393500  1.0  0.1073
  C  C17  1  0.943900  0.800100  0.675500  1.0  0.7741
  C  C18  1  0.978500  0.729200  0.588700  1.0  -0.1719
  C  C19  1  0.003400  0.789300  0.503700  1.0  0.0302
  C  C20  1  0.040700  0.725500  0.425900  1.0  -0.1904
  C  C21  1  0.053100  0.592600  0.430000  1.0  0.0508
  C  C22  1  0.021600  0.528500  0.510600  1.0  -0.1919
  C  C23  1  0.985200  0.595800  0.589000  1.0  0.0437
  C  C24  1  0.072000  0.795800  0.337100  1.0  0.7788
  C  C25  1  0.028400  0.379100  0.513100  1.0  0.821
  C  C26  1  0.056100  0.199900  0.175500  1.0  0.7742
  C  C27  1  0.021500  0.270800  0.088700  1.0  -0.1733
  C  C28  1  0.996600  0.210700  0.003700  1.0  0.0358
  C  C29  1  0.959300  0.274500  0.925900  1.0  -0.1901
  C  C30  1  0.946900  0.407400  0.930000  1.0  0.0508
  C  C31  1  0.978400  0.471500  0.010600  1.0  -0.1929
  C  C32  1  0.014800  0.404200  0.089000  1.0  0.0442
  C  C33  1  0.928000  0.204200  0.837100  1.0  0.7798
  C  C34  1  0.971600  0.620900  0.013100  1.0  0.8211
  C  C35  1  0.199900  0.943900  0.925500  1.0  0.7753
  C  C36  1  0.270800  0.978500  0.838700  1.0  -0.1726
  C  C37  1  0.210700  0.003400  0.753700  1.0  0.033
  C  C38  1  0.274500  0.040700  0.675900  1.0  -0.1897
  C  C39  1  0.407400  0.053100  0.680000  1.0  0.0503
  C  C40  1  0.471500  0.021600  0.760600  1.0  -0.1927
  C  C41  1  0.404200  0.985200  0.839000  1.0  0.0445
  C  C42  1  0.204200  0.072000  0.587100  1.0  0.7803
  C  C43  1  0.620900  0.028400  0.763100  1.0  0.8218
  C  C44  1  0.800100  0.056100  0.425500  1.0  0.7737
  C  C45  1  0.729200  0.021500  0.338700  1.0  -0.1709
  C  C46  1  0.789300  0.996600  0.253700  1.0  0.0359
  C  C47  1  0.725500  0.959300  0.175900  1.0  -0.1894
  C  C48  1  0.592600  0.946900  0.180000  1.0  0.0506
  C  C49  1  0.528500  0.978400  0.260600  1.0  -0.1941
  C  C50  1  0.595800  0.014800  0.339000  1.0  0.044
  C  C51  1  0.795800  0.928000  0.087100  1.0  0.7798
  C  C52  1  0.379100  0.971600  0.263100  1.0  0.8232
  O  O53  1  0.898600  0.909400  0.672600  1.0  -0.8126
  O  O54  1  0.959800  0.741500  0.752100  1.0  -0.7101
  O  O55  1  0.075700  0.917500  0.337100  1.0  -0.8333
  O  O56  1  0.095100  0.732000  0.264300  1.0  -0.7075
  O  O57  1  0.088600  0.326800  0.449400  1.0  -0.765
  O  O58  1  0.972000  0.327000  0.579200  1.0  -0.759
  O  O59  1  0.101400  0.090600  0.172600  1.0  -0.8101
  O  O60  1  0.040200  0.258500  0.252100  1.0  -0.7097
  O  O61  1  0.924300  0.082500  0.837100  1.0  -0.8337
  O  O62  1  0.904900  0.268000  0.764300  1.0  -0.7079
  O  O63  1  0.911400  0.673200  0.949400  1.0  -0.7651
  O  O64  1  0.028000  0.673000  0.079200  1.0  -0.7579
  O  O65  1  0.090600  0.898600  0.922600  1.0  -0.8102
  O  O66  1  0.258500  0.959800  0.002100  1.0  -0.7093
  O  O67  1  0.082500  0.075700  0.587100  1.0  -0.8314
  O  O68  1  0.268000  0.095100  0.514300  1.0  -0.7089
  O  O69  1  0.673200  0.088600  0.699400  1.0  -0.7665
  O  O70  1  0.673000  0.972000  0.829200  1.0  -0.7598
  O  O71  1  0.909400  0.101400  0.422600  1.0  -0.8096
  O  O72  1  0.741500  0.040200  0.502100  1.0  -0.7081
  O  O73  1  0.917500  0.924300  0.087100  1.0  -0.8318
  O  O74  1  0.732000  0.904900  0.014300  1.0  -0.7106
  O  O75  1  0.326800  0.911400  0.199400  1.0  -0.7667
  O  O76  1  0.327000  0.028000  0.329200  1.0  -0.7601
