# generated using pymatgen
data_YbH3(C3O2)3
_symmetry_space_group_name_H-M   'P 1'
_cell_length_a   10.24100000
_cell_length_b   10.24100000
_cell_length_c   14.40260000
_cell_angle_alpha   90.00000000
_cell_angle_beta   90.00000000
_cell_angle_gamma   90.00000000
_symmetry_Int_Tables_number   1
_chemical_formula_structural   YbH3(C3O2)3
_chemical_formula_sum   'Yb4 H12 C36 O24'
_cell_volume   1510.51704941
_cell_formula_units_Z   4
loop_
 _symmetry_equiv_pos_site_id
 _symmetry_equiv_pos_as_xyz
  1  'x, y, z'
loop_
 _atom_site_type_symbol
 _atom_site_label
 _atom_site_symmetry_multiplicity
 _atom_site_fract_x
 _atom_site_fract_y
 _atom_site_fract_z
 _atom_site_occupancy
 _atom_site_charge
  Yb  Yb1  1  0.852870  0.852870  0.125000  1.0  1.5347
  Yb  Yb2  1  0.147130  0.147130  0.625000  1.0  1.5348
  Yb  Yb3  1  0.147130  0.852870  0.875000  1.0  1.5344
  Yb  Yb4  1  0.852870  0.147130  0.375000  1.0  1.5353
  H  H5  1  0.443500  0.926700  0.120200  1.0  0.1126
  H  H6  1  0.556500  0.073300  0.620200  1.0  0.1126
  H  H7  1  0.073300  0.443500  0.870200  1.0  0.1127
  H  H8  1  0.926700  0.556500  0.370200  1.0  0.1124
  H  H9  1  0.556500  0.926700  0.879800  1.0  0.1131
  H  H10  1  0.443500  0.073300  0.379800  1.0  0.1131
  H  H11  1  0.926700  0.443500  0.129800  1.0  0.1129
  H  H12  1  0.073300  0.556500  0.629800  1.0  0.1131
  H  H13  1  0.105100  0.000000  0.250000  1.0  0.0733
  H  H14  1  0.894900  0.000000  0.750000  1.0  0.0735
  H  H15  1  0.000000  0.105100  0.000000  1.0  0.0728
  H  H16  1  0.000000  0.894900  0.500000  1.0  0.0732
  C  C17  1  0.398100  0.956700  0.171900  1.0  0.0351
  C  C18  1  0.261700  0.958600  0.171800  1.0  -0.1641
  C  C19  1  0.184200  0.915100  0.087700  1.0  0.7283
  C  C20  1  0.601900  0.043300  0.671900  1.0  0.035
  C  C21  1  0.738300  0.041400  0.671800  1.0  -0.1643
  C  C22  1  0.815800  0.084900  0.587700  1.0  0.7289
  C  C23  1  0.043300  0.398100  0.921900  1.0  0.0352
  C  C24  1  0.041400  0.261700  0.921800  1.0  -0.1648
  C  C25  1  0.084900  0.184200  0.837700  1.0  0.7304
  C  C26  1  0.956700  0.601900  0.421900  1.0  0.0354
  C  C27  1  0.958600  0.738300  0.421800  1.0  -0.1649
  C  C28  1  0.915100  0.815800  0.337700  1.0  0.7296
  C  C29  1  0.601900  0.956700  0.828100  1.0  0.035
  C  C30  1  0.738300  0.958600  0.828200  1.0  -0.1641
  C  C31  1  0.815800  0.915100  0.912300  1.0  0.7297
  C  C32  1  0.398100  0.043300  0.328100  1.0  0.0349
  C  C33  1  0.261700  0.041400  0.328200  1.0  -0.1643
  C  C34  1  0.184200  0.084900  0.412300  1.0  0.7287
  C  C35  1  0.956700  0.398100  0.078100  1.0  0.0345
  C  C36  1  0.958600  0.261700  0.078200  1.0  -0.1649
  C  C37  1  0.915100  0.184200  0.162300  1.0  0.7312
  C  C38  1  0.043300  0.601900  0.578100  1.0  0.0358
  C  C39  1  0.041400  0.738300  0.578200  1.0  -0.1653
  C  C40  1  0.084900  0.815800  0.662300  1.0  0.7307
  C  C41  1  0.613600  0.000000  0.250000  1.0  0.763
  C  C42  1  0.465800  0.000000  0.250000  1.0  -0.1827
  C  C43  1  0.195900  0.000000  0.250000  1.0  0.0493
  C  C44  1  0.386400  0.000000  0.750000  1.0  0.7634
  C  C45  1  0.534200  0.000000  0.750000  1.0  -0.1827
  C  C46  1  0.804100  0.000000  0.750000  1.0  0.0499
  C  C47  1  0.000000  0.613600  0.000000  1.0  0.7619
  C  C48  1  0.000000  0.465800  0.000000  1.0  -0.182
  C  C49  1  0.000000  0.195900  0.000000  1.0  0.0497
  C  C50  1  0.000000  0.386400  0.500000  1.0  0.7614
  C  C51  1  0.000000  0.534200  0.500000  1.0  -0.182
  C  C52  1  0.000000  0.804100  0.500000  1.0  0.05
  O  O53  1  0.667700  0.927800  0.192000  1.0  -0.6082
  O  O54  1  0.068100  0.888700  0.098700  1.0  -0.6072
  O  O55  1  0.241600  0.907800  0.011200  1.0  -0.6169
  O  O56  1  0.332300  0.072200  0.692000  1.0  -0.6081
  O  O57  1  0.931900  0.111300  0.598700  1.0  -0.6054
  O  O58  1  0.758400  0.092200  0.511200  1.0  -0.6157
  O  O59  1  0.072200  0.667700  0.942000  1.0  -0.6071
  O  O60  1  0.111300  0.068100  0.848700  1.0  -0.6072
  O  O61  1  0.092200  0.241600  0.761200  1.0  -0.6169
  O  O62  1  0.927800  0.332300  0.442000  1.0  -0.607
  O  O63  1  0.888700  0.931900  0.348700  1.0  -0.6083
  O  O64  1  0.907800  0.758400  0.261200  1.0  -0.618
  O  O65  1  0.332300  0.927800  0.808000  1.0  -0.6084
  O  O66  1  0.931900  0.888700  0.901300  1.0  -0.6059
  O  O67  1  0.758400  0.907800  0.988800  1.0  -0.6161
  O  O68  1  0.667700  0.072200  0.308000  1.0  -0.6086
  O  O69  1  0.068100  0.111300  0.401300  1.0  -0.6055
  O  O70  1  0.241600  0.092200  0.488800  1.0  -0.6181
  O  O71  1  0.927800  0.667700  0.058000  1.0  -0.6065
  O  O72  1  0.888700  0.068100  0.151300  1.0  -0.608
  O  O73  1  0.907800  0.241600  0.238800  1.0  -0.6179
  O  O74  1  0.072200  0.332300  0.558000  1.0  -0.608
  O  O75  1  0.111300  0.931900  0.651300  1.0  -0.6078
  O  O76  1  0.092200  0.758400  0.738800  1.0  -0.6184
