# generated using pymatgen
data_FeH5C8O5
_symmetry_space_group_name_H-M   'P 1'
_cell_length_a   15.96230000
_cell_length_b   6.93510000
_cell_length_c   14.39190000
_cell_angle_alpha   90.00000000
_cell_angle_beta   90.00000000
_cell_angle_gamma   90.00000000
_symmetry_Int_Tables_number   1
_chemical_formula_structural   FeH5C8O5
_chemical_formula_sum   'Fe4 H20 C32 O20'
_cell_volume   1593.18544172
_cell_formula_units_Z   4
loop_
 _symmetry_equiv_pos_site_id
 _symmetry_equiv_pos_as_xyz
  1  'x, y, z'
loop_
 _atom_site_type_symbol
 _atom_site_label
 _atom_site_symmetry_multiplicity
 _atom_site_fract_x
 _atom_site_fract_y
 _atom_site_fract_z
 _atom_site_occupancy
 _atom_site_charge
  Fe  Fe1  1  0.500000  0.000000  0.500000  1.0  0.5917
  Fe  Fe2  1  0.000000  0.500000  0.000000  1.0  0.5917
  Fe  Fe3  1  0.500000  0.500000  0.500000  1.0  0.5917
  Fe  Fe4  1  0.000000  0.000000  0.000000  1.0  0.5917
  H  H5  1  0.694900  0.045300  0.695100  1.0  0.1698
  H  H6  1  0.500000  0.750000  0.368620  1.0  0.4787
  H  H7  1  0.194900  0.545300  0.195100  1.0  0.1698
  H  H8  1  0.000000  0.250000  0.868620  1.0  0.4787
  H  H9  1  0.305100  0.454700  0.695100  1.0  0.1697
  H  H10  1  0.805100  0.954700  0.195100  1.0  0.1697
  H  H11  1  0.305100  0.545300  0.304900  1.0  0.1697
  H  H12  1  0.500000  0.250000  0.631380  1.0  0.4778
  H  H13  1  0.805100  0.045300  0.804900  1.0  0.1697
  H  H14  1  0.000000  0.750000  0.131380  1.0  0.4778
  H  H15  1  0.694900  0.954700  0.304900  1.0  0.1693
  H  H16  1  0.194900  0.454700  0.804900  1.0  0.1693
  H  H17  1  0.305100  0.954700  0.304900  1.0  0.1697
  H  H18  1  0.805100  0.454700  0.804900  1.0  0.1697
  H  H19  1  0.694900  0.545300  0.304900  1.0  0.1695
  H  H20  1  0.194900  0.045300  0.804900  1.0  0.1695
  H  H21  1  0.694900  0.454700  0.695100  1.0  0.1695
  H  H22  1  0.194900  0.954700  0.195100  1.0  0.1695
  H  H23  1  0.305100  0.045300  0.695100  1.0  0.1698
  H  H24  1  0.805100  0.545300  0.195100  1.0  0.1698
  C  C25  1  0.717700  0.922900  0.717900  1.0  -0.0203
  C  C26  1  0.217700  0.422900  0.217900  1.0  -0.0203
  C  C27  1  0.282300  0.577100  0.717900  1.0  -0.02
  C  C28  1  0.782300  0.077100  0.217900  1.0  -0.02
  C  C29  1  0.282300  0.422900  0.282100  1.0  -0.0215
  C  C30  1  0.782300  0.922900  0.782100  1.0  -0.0215
  C  C31  1  0.717700  0.077100  0.282100  1.0  -0.0205
  C  C32  1  0.217700  0.577100  0.782100  1.0  -0.0205
  C  C33  1  0.282300  0.077100  0.282100  1.0  -0.0211
  C  C34  1  0.782300  0.577100  0.782100  1.0  -0.0211
  C  C35  1  0.717700  0.422900  0.282100  1.0  -0.0208
  C  C36  1  0.217700  0.922900  0.782100  1.0  -0.0219
  C  C37  1  0.717700  0.577100  0.717900  1.0  -0.0207
  C  C38  1  0.217700  0.077100  0.217900  1.0  -0.0207
  C  C39  1  0.282300  0.922900  0.717900  1.0  -0.0211
  C  C40  1  0.782300  0.422900  0.217900  1.0  -0.0211
  C  C41  1  0.685400  0.750000  0.685700  1.0  -0.0596
  C  C42  1  0.616900  0.750000  0.617500  1.0  0.7546
  C  C43  1  0.185400  0.250000  0.185700  1.0  -0.0596
  C  C44  1  0.116900  0.250000  0.117500  1.0  0.7546
  C  C45  1  0.314600  0.750000  0.685700  1.0  -0.0593
  C  C46  1  0.383100  0.750000  0.617500  1.0  0.7545
  C  C47  1  0.814600  0.250000  0.185700  1.0  -0.0593
  C  C48  1  0.883100  0.250000  0.117500  1.0  0.7545
  C  C49  1  0.314600  0.250000  0.314300  1.0  -0.0592
  C  C50  1  0.383100  0.250000  0.382500  1.0  0.7548
  C  C51  1  0.814600  0.750000  0.814300  1.0  -0.0592
  C  C52  1  0.883100  0.750000  0.882500  1.0  0.7548
  C  C53  1  0.685400  0.250000  0.314300  1.0  -0.0597
  C  C54  1  0.616900  0.250000  0.382500  1.0  0.7552
  C  C55  1  0.185400  0.750000  0.814300  1.0  -0.0597
  C  C56  1  0.116900  0.750000  0.882500  1.0  0.7552
  O  O57  1  0.587300  0.908600  0.588000  1.0  -0.5498
  O  O58  1  0.087300  0.408600  0.088000  1.0  -0.5498
  O  O59  1  0.412700  0.591400  0.588000  1.0  -0.5483
  O  O60  1  0.912700  0.091400  0.088000  1.0  -0.5483
  O  O61  1  0.412700  0.408600  0.412000  1.0  -0.5506
  O  O62  1  0.912700  0.908600  0.912000  1.0  -0.5506
  O  O63  1  0.587300  0.091400  0.412000  1.0  -0.5483
  O  O64  1  0.087300  0.591400  0.912000  1.0  -0.5483
  O  O65  1  0.412700  0.091400  0.412000  1.0  -0.5483
  O  O66  1  0.912700  0.591400  0.912000  1.0  -0.5483
  O  O67  1  0.587300  0.408600  0.412000  1.0  -0.5505
  O  O68  1  0.087300  0.908600  0.912000  1.0  -0.5505
  O  O69  1  0.587300  0.591400  0.588000  1.0  -0.5478
  O  O70  1  0.087300  0.091400  0.088000  1.0  -0.5478
  O  O71  1  0.412700  0.908600  0.588000  1.0  -0.5503
  O  O72  1  0.912700  0.408600  0.088000  1.0  -0.5503
  O  O73  1  0.000000  0.250000  0.938100  1.0  -0.8586
  O  O74  1  0.500000  0.750000  0.438100  1.0  -0.8586
  O  O75  1  0.000000  0.750000  0.061900  1.0  -0.859
  O  O76  1  0.500000  0.250000  0.561900  1.0  -0.859
