# generated using pymatgen
data_FeH4C8O5
_symmetry_space_group_name_H-M   'P 1'
_cell_length_a   6.83060000
_cell_length_b   7.64270000
_cell_length_c   10.58440000
_cell_angle_alpha   111.16400000
_cell_angle_beta   102.97500000
_cell_angle_gamma   90.00000000
_symmetry_Int_Tables_number   1
_chemical_formula_structural   FeH4C8O5
_chemical_formula_sum   'Fe2 H8 C16 O10'
_cell_volume   500.12350741
_cell_formula_units_Z   2
loop_
 _symmetry_equiv_pos_site_id
 _symmetry_equiv_pos_as_xyz
  1  'x, y, z'
loop_
 _atom_site_type_symbol
 _atom_site_label
 _atom_site_symmetry_multiplicity
 _atom_site_fract_x
 _atom_site_fract_y
 _atom_site_fract_z
 _atom_site_occupancy
 _atom_site_charge
  Fe  Fe1  1  0.000000  0.000000  0.000000  1.0  1.3153
  Fe  Fe2  1  0.500000  0.000000  0.000000  1.0  1.3153
  H  H3  1  0.195000  0.897100  0.334800  1.0  0.1374
  H  H4  1  0.660500  0.049700  0.430000  1.0  0.1276
  H  H5  1  0.305000  0.562300  0.665200  1.0  0.1372
  H  H6  1  0.839500  0.619700  0.570000  1.0  0.1278
  H  H7  1  0.805000  0.102900  0.665200  1.0  0.1366
  H  H8  1  0.339500  0.950300  0.570000  1.0  0.128
  H  H9  1  0.695000  0.437700  0.334800  1.0  0.1371
  H  H10  1  0.160500  0.380300  0.430000  1.0  0.1273
  C  C11  1  0.915800  0.969000  0.363000  1.0  -0.0761
  C  C12  1  0.113500  0.940100  0.403800  1.0  -0.0486
  C  C13  1  0.802300  0.028900  0.459200  1.0  -0.0584
  C  C14  1  0.825500  0.935900  0.216200  1.0  0.7177
  C  C15  1  0.584200  0.606000  0.637000  1.0  -0.0773
  C  C16  1  0.386500  0.536300  0.596200  1.0  -0.0455
  C  C17  1  0.697700  0.569700  0.540800  1.0  -0.0564
  C  C18  1  0.674500  0.719700  0.783800  1.0  0.7181
  C  C19  1  0.084200  0.031000  0.637000  1.0  -0.0755
  C  C20  1  0.886500  0.059900  0.596200  1.0  -0.0479
  C  C21  1  0.197700  0.971100  0.540800  1.0  -0.0562
  C  C22  1  0.174500  0.064100  0.783800  1.0  0.716
  C  C23  1  0.415800  0.394000  0.363000  1.0  -0.0768
  C  C24  1  0.613500  0.463700  0.403800  1.0  -0.0472
  C  C25  1  0.302300  0.430300  0.459200  1.0  -0.0581
  C  C26  1  0.325500  0.280300  0.216200  1.0  0.7192
  O  O27  1  0.932400  0.884800  0.127400  1.0  -0.5727
  O  O28  1  0.640500  0.958200  0.177800  1.0  -0.5461
  O  O29  1  0.567600  0.757400  0.872600  1.0  -0.5748
  O  O30  1  0.859500  0.780400  0.822200  1.0  -0.5447
  O  O31  1  0.067600  0.115200  0.872600  1.0  -0.5709
  O  O32  1  0.359500  0.041800  0.822200  1.0  -0.5473
  O  O33  1  0.432400  0.242600  0.127400  1.0  -0.5761
  O  O34  1  0.140500  0.219600  0.177800  1.0  -0.5422
  O  O35  1  0.250000  0.886500  0.000000  1.0  -0.6849
  O  O36  1  0.750000  0.113500  0.000000  1.0  -0.677
