# generated using pymatgen
data_UH3C8O5
_symmetry_space_group_name_H-M   'P 1'
_cell_length_a   12.92240000
_cell_length_b   13.33430000
_cell_length_c   13.50540000
_cell_angle_alpha   68.59700000
_cell_angle_beta   88.57500000
_cell_angle_gamma   79.57100000
_symmetry_Int_Tables_number   1
_chemical_formula_structural   UH3C8O5
_chemical_formula_sum   'U8 H24 C64 O40'
_cell_volume   2128.69449071
_cell_formula_units_Z   8
loop_
 _symmetry_equiv_pos_site_id
 _symmetry_equiv_pos_as_xyz
  1  'x, y, z'
loop_
 _atom_site_type_symbol
 _atom_site_label
 _atom_site_symmetry_multiplicity
 _atom_site_fract_x
 _atom_site_fract_y
 _atom_site_fract_z
 _atom_site_occupancy
 _atom_site_charge
  U  U1  1  0.182670  0.798780  0.381450  1.0  1.7609
  U  U2  1  0.190620  0.295860  0.393850  1.0  1.5896
  U  U3  1  0.509570  0.774920  0.987580  1.0  2.4616
  U  U4  1  0.494200  0.728100  0.008300  1.0  2.2766
  U  U5  1  0.817330  0.201220  0.618550  1.0  1.7592
  U  U6  1  0.809380  0.704140  0.606150  1.0  1.5888
  U  U7  1  0.490430  0.225080  0.012420  1.0  2.4698
  U  U8  1  0.505800  0.271900  0.991700  1.0  2.2798
  H  H9  1  0.196300  0.140500  0.889500  1.0  0.0872
  H  H10  1  0.073400  0.054300  0.854100  1.0  0.1194
  H  H11  1  0.183800  0.784300  0.106100  1.0  0.106
  H  H12  1  0.872900  0.904500  0.848800  1.0  0.0898
  H  H13  1  0.161100  0.835700  0.658500  1.0  0.0858
  H  H14  1  0.186100  0.826900  0.829500  1.0  0.109
  H  H15  1  0.245200  0.646200  0.906800  1.0  0.087
  H  H16  1  0.107800  0.581300  0.861200  1.0  0.1243
  H  H17  1  0.192600  0.296800  0.109200  1.0  0.1045
  H  H18  1  0.886200  0.420000  0.855800  1.0  0.082
  H  H19  1  0.171100  0.343900  0.665400  1.0  0.088
  H  H20  1  0.199100  0.355800  0.830900  1.0  0.111
  H  H21  1  0.803700  0.859500  0.110500  1.0  0.0876
  H  H22  1  0.926600  0.945700  0.145900  1.0  0.1194
  H  H23  1  0.816200  0.215700  0.893900  1.0  0.1065
  H  H24  1  0.127100  0.095500  0.151200  1.0  0.0895
  H  H25  1  0.838900  0.164300  0.341500  1.0  0.0863
  H  H26  1  0.813900  0.173100  0.170500  1.0  0.1084
  H  H27  1  0.754800  0.353800  0.093200  1.0  0.0865
  H  H28  1  0.892200  0.418700  0.138800  1.0  0.1245
  H  H29  1  0.807400  0.703200  0.890800  1.0  0.1042
  H  H30  1  0.113800  0.580000  0.144200  1.0  0.0818
  H  H31  1  0.828900  0.656100  0.334600  1.0  0.0882
  H  H32  1  0.800900  0.644200  0.169100  1.0  0.1127
  C  C33  1  0.344600  0.838800  0.169200  1.0  0.7184
  C  C34  1  0.263800  0.907000  0.082700  1.0  -0.1153
  C  C35  1  0.270100  0.013000  0.017100  1.0  -0.1342
  C  C36  1  0.195000  0.068000  0.932200  1.0  -0.1013
  C  C37  1  0.121400  0.017800  0.911600  1.0  -0.2414
  C  C38  1  0.118400  0.911800  0.976800  1.0  0.2355
  C  C39  1  0.187800  0.855700  0.062400  1.0  -0.1484
  C  C40  1  0.029200  0.863900  0.853800  1.0  0.2653
  C  C41  1  0.930200  0.889100  0.810400  1.0  -0.1593
  C  C42  1  0.914500  0.891700  0.706100  1.0  -0.0771
  C  C43  1  0.003300  0.866100  0.652100  1.0  -0.1586
  C  C44  1  0.102900  0.846600  0.697700  1.0  -0.046
  C  C45  1  0.118700  0.842800  0.798600  1.0  -0.3083
  C  C46  1  0.805800  0.931400  0.659900  1.0  0.6978
  C  C47  1  0.993500  0.859700  0.543800  1.0  0.7061
  C  C48  1  0.358800  0.328100  0.187100  1.0  0.7095
  C  C49  1  0.284600  0.406700  0.096600  1.0  -0.1168
  C  C50  1  0.304100  0.511600  0.036300  1.0  -0.135
  C  C51  1  0.234800  0.575900  0.947600  1.0  -0.0427
  C  C52  1  0.152600  0.537600  0.919800  1.0  -0.2603
  C  C53  1  0.137400  0.432900  0.980500  1.0  0.21
  C  C54  1  0.203500  0.367100  0.069100  1.0  -0.1527
  C  C55  1  0.389200  0.557700  0.066800  1.0  0.697
  C  C56  1  0.042100  0.387700  0.857500  1.0  0.2831
  C  C57  1  0.943300  0.404200  0.817200  1.0  -0.1496
  C  C58  1  0.925800  0.397600  0.718600  1.0  -0.0665
  C  C59  1  0.013000  0.373300  0.661800  1.0  -0.1528
  C  C60  1  0.113600  0.358700  0.704000  1.0  -0.0352
  C  C61  1  0.131400  0.365500  0.802900  1.0  -0.2315
  C  C62  1  0.003200  0.360100  0.557200  1.0  0.7254
  C  C63  1  0.815800  0.427000  0.674200  1.0  0.6909
  C  C64  1  0.353500  0.074300  0.028000  1.0  0.6954
  C  C65  1  0.655400  0.161200  0.830800  1.0  0.7188
  C  C66  1  0.736200  0.093000  0.917300  1.0  -0.1154
  C  C67  1  0.729900  0.987000  0.982900  1.0  -0.136
  C  C68  1  0.805000  0.932000  0.067800  1.0  -0.0997
  C  C69  1  0.878600  0.982200  0.088400  1.0  -0.241
  C  C70  1  0.881600  0.088200  0.023200  1.0  0.2353
  C  C71  1  0.812200  0.144300  0.937600  1.0  -0.1456
  C  C72  1  0.970800  0.136100  0.146200  1.0  0.2651
  C  C73  1  0.069800  0.110900  0.189600  1.0  -0.1595
  C  C74  1  0.085500  0.108300  0.293900  1.0  -0.0757
  C  C75  1  0.996700  0.133900  0.347900  1.0  -0.159
  C  C76  1  0.897100  0.153400  0.302300  1.0  -0.0455
  C  C77  1  0.881300  0.157200  0.201400  1.0  -0.3071
  C  C78  1  0.194200  0.068600  0.340100  1.0  0.6955
  C  C79  1  0.006500  0.140300  0.456200  1.0  0.7028
  C  C80  1  0.641200  0.671900  0.812900  1.0  0.7097
  C  C81  1  0.715400  0.593300  0.903400  1.0  -0.1185
  C  C82  1  0.695900  0.488400  0.963700  1.0  -0.1356
  C  C83  1  0.765200  0.424100  0.052400  1.0  -0.0419
  C  C84  1  0.847400  0.462400  0.080200  1.0  -0.2587
  C  C85  1  0.862600  0.567100  0.019500  1.0  0.2114
  C  C86  1  0.796500  0.632900  0.930900  1.0  -0.1529
  C  C87  1  0.610800  0.442300  0.933200  1.0  0.6954
  C  C88  1  0.957900  0.612300  0.142500  1.0  0.282
  C  C89  1  0.056700  0.595800  0.182800  1.0  -0.1483
  C  C90  1  0.074200  0.602400  0.281400  1.0  -0.0651
  C  C91  1  0.987000  0.626700  0.338200  1.0  -0.1525
  C  C92  1  0.886400  0.641300  0.296000  1.0  -0.0362
  C  C93  1  0.868600  0.634500  0.197100  1.0  -0.2325
  C  C94  1  0.996800  0.639900  0.442800  1.0  0.7213
  C  C95  1  0.184200  0.573000  0.325800  1.0  0.6909
  C  C96  1  0.646500  0.925700  0.972000  1.0  0.6953
  O  O97  1  0.411700  0.878100  0.903300  1.0  -0.6642
  O  O98  1  0.607000  0.668200  0.072200  1.0  -0.8623
  O  O99  1  0.428500  0.789100  0.145900  1.0  -0.7934
  O  O100  1  0.326600  0.826600  0.264600  1.0  -0.7225
  O  O101  1  0.408900  0.107700  0.947400  1.0  -0.6703
  O  O102  1  0.361600  0.097300  0.106100  1.0  -0.5926
  O  O103  1  0.073900  0.873600  0.488000  1.0  -0.7
  O  O104  1  0.911300  0.838700  0.514900  1.0  -0.6822
  O  O105  1  0.751800  0.865100  0.647400  1.0  -0.6848
  O  O106  1  0.766100  0.030200  0.637600  1.0  -0.7677
  O  O107  1  0.039900  0.857900  0.958500  1.0  -0.2709
  O  O108  1  0.436000  0.268700  0.164000  1.0  -0.72
  O  O109  1  0.336300  0.315600  0.280700  1.0  -0.7163
  O  O110  1  0.398600  0.655000  0.006400  1.0  -0.6222
  O  O111  1  0.447100  0.501700  0.146500  1.0  -0.5047
  O  O112  1  0.078300  0.372500  0.499200  1.0  -0.6922
  O  O113  1  0.919100  0.335400  0.532600  1.0  -0.7019
  O  O114  1  0.765400  0.352200  0.677100  1.0  -0.6972
  O  O115  1  0.771500  0.525100  0.642500  1.0  -0.7357
  O  O116  1  0.052600  0.390500  0.959100  1.0  -0.2894
  O  O117  1  0.588300  0.121900  0.096700  1.0  -0.664
  O  O118  1  0.393000  0.331800  0.927800  1.0  -0.8598
  O  O119  1  0.571500  0.210900  0.854100  1.0  -0.7938
  O  O120  1  0.673400  0.173400  0.735400  1.0  -0.7214
  O  O121  1  0.591100  0.892300  0.052600  1.0  -0.67
  O  O122  1  0.638400  0.902700  0.893900  1.0  -0.5914
  O  O123  1  0.926100  0.126400  0.512000  1.0  -0.7013
  O  O124  1  0.088700  0.161300  0.485100  1.0  -0.6824
  O  O125  1  0.248200  0.134900  0.352600  1.0  -0.6835
  O  O126  1  0.233900  0.969800  0.362400  1.0  -0.7669
  O  O127  1  0.960100  0.142100  0.041500  1.0  -0.2704
  O  O128  1  0.564000  0.731300  0.836000  1.0  -0.7197
  O  O129  1  0.663700  0.684400  0.719300  1.0  -0.7133
  O  O130  1  0.601400  0.345000  0.993600  1.0  -0.6219
  O  O131  1  0.552900  0.498300  0.853500  1.0  -0.5061
  O  O132  1  0.921700  0.627500  0.500800  1.0  -0.6929
  O  O133  1  0.080900  0.664600  0.467400  1.0  -0.7022
  O  O134  1  0.234600  0.647800  0.322900  1.0  -0.6973
  O  O135  1  0.228500  0.474900  0.357500  1.0  -0.7376
  O  O136  1  0.947400  0.609500  0.040900  1.0  -0.2877
