# generated using pymatgen
data_Fe2C4Cl2O9
_symmetry_space_group_name_H-M   'P 1'
_cell_length_a   14.95600000
_cell_length_b   23.67100000
_cell_length_c   9.02600000
_cell_angle_alpha   90.00000000
_cell_angle_beta   90.00000000
_cell_angle_gamma   90.00000000
_symmetry_Int_Tables_number   1
_chemical_formula_structural   Fe2C4Cl2O9
_chemical_formula_sum   'Fe16 C32 Cl16 O72'
_cell_volume   3195.41589438
_cell_formula_units_Z   8
loop_
 _symmetry_equiv_pos_site_id
 _symmetry_equiv_pos_as_xyz
  1  'x, y, z'
loop_
 _atom_site_type_symbol
 _atom_site_label
 _atom_site_symmetry_multiplicity
 _atom_site_fract_x
 _atom_site_fract_y
 _atom_site_fract_z
 _atom_site_occupancy
 _atom_site_charge
  Fe  Fe1  1  0.924510  0.944300  0.999390  1.0  1.2338
  Fe  Fe2  1  0.924510  0.444300  0.499390  1.0  1.2338
  Fe  Fe3  1  0.424510  0.944300  0.499390  1.0  1.2338
  Fe  Fe4  1  0.424510  0.444300  0.999390  1.0  1.2338
  Fe  Fe5  1  0.075490  0.055700  0.999390  1.0  1.2307
  Fe  Fe6  1  0.075490  0.555700  0.499390  1.0  1.2307
  Fe  Fe7  1  0.575490  0.055700  0.499390  1.0  1.2307
  Fe  Fe8  1  0.575490  0.555700  0.999390  1.0  1.2307
  Fe  Fe9  1  0.174510  0.305700  0.249390  1.0  1.233
  Fe  Fe10  1  0.174510  0.805700  0.749390  1.0  1.233
  Fe  Fe11  1  0.674510  0.305700  0.749390  1.0  1.233
  Fe  Fe12  1  0.674510  0.805700  0.249390  1.0  1.233
  Fe  Fe13  1  0.325490  0.194300  0.249390  1.0  1.2319
  Fe  Fe14  1  0.325490  0.694300  0.749390  1.0  1.2319
  Fe  Fe15  1  0.825490  0.194300  0.749390  1.0  1.2319
  Fe  Fe16  1  0.825490  0.694300  0.249390  1.0  1.2319
  C  C17  1  0.811600  0.887800  0.195800  1.0  0.6849
  C  C18  1  0.544000  0.892100  0.302000  1.0  0.6643
  C  C19  1  0.811600  0.387800  0.695800  1.0  0.6849
  C  C20  1  0.544000  0.392100  0.802000  1.0  0.6643
  C  C21  1  0.311600  0.887800  0.695800  1.0  0.6849
  C  C22  1  0.044000  0.892100  0.802000  1.0  0.6643
  C  C23  1  0.311600  0.387800  0.195800  1.0  0.6849
  C  C24  1  0.044000  0.392100  0.302000  1.0  0.6643
  C  C25  1  0.188400  0.112200  0.195800  1.0  0.6845
  C  C26  1  0.456000  0.107900  0.302000  1.0  0.6636
  C  C27  1  0.188400  0.612200  0.695800  1.0  0.6845
  C  C28  1  0.456000  0.607900  0.802000  1.0  0.6636
  C  C29  1  0.688400  0.112200  0.695800  1.0  0.6845
  C  C30  1  0.956000  0.107900  0.802000  1.0  0.6636
  C  C31  1  0.688400  0.612200  0.195800  1.0  0.6845
  C  C32  1  0.956000  0.607900  0.302000  1.0  0.6636
  C  C33  1  0.061600  0.362200  0.445800  1.0  0.6854
  C  C34  1  0.794000  0.357900  0.552000  1.0  0.6636
  C  C35  1  0.061600  0.862200  0.945800  1.0  0.6854
  C  C36  1  0.794000  0.857900  0.052000  1.0  0.6636
  C  C37  1  0.561600  0.362200  0.945800  1.0  0.6854
  C  C38  1  0.294000  0.357900  0.052000  1.0  0.6636
  C  C39  1  0.561600  0.862200  0.445800  1.0  0.6854
  C  C40  1  0.294000  0.857900  0.552000  1.0  0.6636
  C  C41  1  0.438400  0.137800  0.445800  1.0  0.6841
  C  C42  1  0.706000  0.142100  0.552000  1.0  0.6641
  C  C43  1  0.438400  0.637800  0.945800  1.0  0.6841
  C  C44  1  0.706000  0.642100  0.052000  1.0  0.6641
  C  C45  1  0.938400  0.137800  0.945800  1.0  0.6841
  C  C46  1  0.206000  0.142100  0.052000  1.0  0.6641
  C  C47  1  0.938400  0.637800  0.445800  1.0  0.6841
  C  C48  1  0.206000  0.642100  0.552000  1.0  0.6641
  Cl  Cl49  1  0.568650  0.745720  0.155200  1.0  -0.433
  Cl  Cl50  1  0.568650  0.245720  0.655200  1.0  -0.433
  Cl  Cl51  1  0.068650  0.745720  0.655200  1.0  -0.433
  Cl  Cl52  1  0.068650  0.245720  0.155200  1.0  -0.433
  Cl  Cl53  1  0.431350  0.254280  0.155200  1.0  -0.4317
  Cl  Cl54  1  0.431350  0.754280  0.655200  1.0  -0.4317
  Cl  Cl55  1  0.931350  0.254280  0.655200  1.0  -0.4317
  Cl  Cl56  1  0.931350  0.754280  0.155200  1.0  -0.4317
  Cl  Cl57  1  0.818650  0.504280  0.405200  1.0  -0.4327
  Cl  Cl58  1  0.818650  0.004280  0.905200  1.0  -0.4327
  Cl  Cl59  1  0.318650  0.504280  0.905200  1.0  -0.4327
  Cl  Cl60  1  0.318650  0.004280  0.405200  1.0  -0.4327
  Cl  Cl61  1  0.681350  0.995720  0.405200  1.0  -0.432
  Cl  Cl62  1  0.681350  0.495720  0.905200  1.0  -0.432
  Cl  Cl63  1  0.181350  0.995720  0.905200  1.0  -0.432
  Cl  Cl64  1  0.181350  0.495720  0.405200  1.0  -0.432
  O  O65  1  0.867100  0.926900  0.195000  1.0  -0.4641
  O  O66  1  0.587800  0.875900  0.195900  1.0  -0.4299
  O  O67  1  0.483400  0.930300  0.303900  1.0  -0.4732
  O  O68  1  0.767900  0.870200  0.303000  1.0  -0.445
  O  O69  1  0.867100  0.426900  0.695000  1.0  -0.4641
  O  O70  1  0.587800  0.375900  0.695900  1.0  -0.4299
  O  O71  1  0.483400  0.430300  0.803900  1.0  -0.4732
  O  O72  1  0.767900  0.370200  0.803000  1.0  -0.445
  O  O73  1  0.367100  0.926900  0.695000  1.0  -0.4641
  O  O74  1  0.087800  0.875900  0.695900  1.0  -0.4299
  O  O75  1  0.983400  0.930300  0.803900  1.0  -0.4732
  O  O76  1  0.267900  0.870200  0.803000  1.0  -0.4452
  O  O77  1  0.367100  0.426900  0.195000  1.0  -0.4641
  O  O78  1  0.087800  0.375900  0.195900  1.0  -0.4299
  O  O79  1  0.983400  0.430300  0.303900  1.0  -0.4732
  O  O80  1  0.267900  0.370200  0.303000  1.0  -0.4452
  O  O81  1  0.132900  0.073100  0.195000  1.0  -0.4647
  O  O82  1  0.412200  0.124100  0.195900  1.0  -0.4303
  O  O83  1  0.516600  0.069700  0.303900  1.0  -0.4727
  O  O84  1  0.232100  0.129800  0.303000  1.0  -0.4462
  O  O85  1  0.132900  0.573100  0.695000  1.0  -0.4647
  O  O86  1  0.412200  0.624100  0.695900  1.0  -0.4303
  O  O87  1  0.516600  0.569700  0.803900  1.0  -0.4727
  O  O88  1  0.232100  0.629800  0.803000  1.0  -0.4462
  O  O89  1  0.632900  0.073100  0.695000  1.0  -0.4647
  O  O90  1  0.912200  0.124100  0.695900  1.0  -0.4305
  O  O91  1  0.016600  0.069700  0.803900  1.0  -0.4727
  O  O92  1  0.732100  0.129800  0.803000  1.0  -0.4459
  O  O93  1  0.632900  0.573100  0.195000  1.0  -0.4647
  O  O94  1  0.912200  0.624100  0.195900  1.0  -0.4305
  O  O95  1  0.016600  0.569700  0.303900  1.0  -0.4727
  O  O96  1  0.732100  0.629800  0.303000  1.0  -0.4459
  O  O97  1  0.117100  0.323100  0.445000  1.0  -0.4649
  O  O98  1  0.837800  0.374100  0.445900  1.0  -0.431
  O  O99  1  0.733400  0.319700  0.553900  1.0  -0.4738
  O  O100  1  0.017900  0.379800  0.553000  1.0  -0.4459
  O  O101  1  0.117100  0.823100  0.945000  1.0  -0.4649
  O  O102  1  0.837800  0.874100  0.945900  1.0  -0.431
  O  O103  1  0.733400  0.819700  0.053900  1.0  -0.4738
  O  O104  1  0.017900  0.879800  0.053000  1.0  -0.4459
  O  O105  1  0.617100  0.323100  0.945000  1.0  -0.4649
  O  O106  1  0.337800  0.374100  0.945900  1.0  -0.431
  O  O107  1  0.233400  0.319700  0.053900  1.0  -0.4738
  O  O108  1  0.517900  0.379800  0.053000  1.0  -0.4461
  O  O109  1  0.617100  0.823100  0.445000  1.0  -0.4649
  O  O110  1  0.337800  0.874100  0.445900  1.0  -0.431
  O  O111  1  0.233400  0.819700  0.553900  1.0  -0.4738
  O  O112  1  0.517900  0.879800  0.553000  1.0  -0.4461
  O  O113  1  0.382900  0.176900  0.445000  1.0  -0.4646
  O  O114  1  0.662200  0.125900  0.445900  1.0  -0.4308
  O  O115  1  0.766600  0.180300  0.553900  1.0  -0.4735
  O  O116  1  0.482100  0.120200  0.553000  1.0  -0.4474
  O  O117  1  0.382900  0.676900  0.945000  1.0  -0.4646
  O  O118  1  0.662200  0.625900  0.945900  1.0  -0.4308
  O  O119  1  0.766600  0.680300  0.053900  1.0  -0.4735
  O  O120  1  0.482100  0.620200  0.053000  1.0  -0.4474
  O  O121  1  0.882900  0.176900  0.945000  1.0  -0.4646
  O  O122  1  0.162200  0.125900  0.945900  1.0  -0.4308
  O  O123  1  0.266600  0.180300  0.053900  1.0  -0.4735
  O  O124  1  0.982100  0.120200  0.053000  1.0  -0.4473
  O  O125  1  0.882900  0.676900  0.445000  1.0  -0.4646
  O  O126  1  0.162200  0.625900  0.445900  1.0  -0.4308
  O  O127  1  0.266600  0.680300  0.553900  1.0  -0.4735
  O  O128  1  0.982100  0.620200  0.553000  1.0  -0.4473
  O  O129  1  0.750000  0.750000  0.327100  1.0  -0.6671
  O  O130  1  0.750000  0.250000  0.827100  1.0  -0.6671
  O  O131  1  0.250000  0.250000  0.327100  1.0  -0.6688
  O  O132  1  0.250000  0.750000  0.827100  1.0  -0.6688
  O  O133  1  0.000000  0.500000  0.577100  1.0  -0.6686
  O  O134  1  0.000000  0.000000  0.077100  1.0  -0.6686
  O  O135  1  0.500000  0.500000  0.077100  1.0  -0.6688
  O  O136  1  0.500000  0.000000  0.577100  1.0  -0.6688
