# generated using pymatgen
data_Fe2C4Cl2O9
_symmetry_space_group_name_H-M   'P 1'
_cell_length_a   14.77900000
_cell_length_b   23.75400000
_cell_length_c   9.17470000
_cell_angle_alpha   90.00000000
_cell_angle_beta   90.00000000
_cell_angle_gamma   90.00000000
_symmetry_Int_Tables_number   1
_chemical_formula_structural   Fe2C4Cl2O9
_chemical_formula_sum   'Fe16 C32 Cl16 O72'
_cell_volume   3220.87353994
_cell_formula_units_Z   8
loop_
 _symmetry_equiv_pos_site_id
 _symmetry_equiv_pos_as_xyz
  1  'x, y, z'
loop_
 _atom_site_type_symbol
 _atom_site_label
 _atom_site_symmetry_multiplicity
 _atom_site_fract_x
 _atom_site_fract_y
 _atom_site_fract_z
 _atom_site_occupancy
 _atom_site_charge
  Fe  Fe1  1  0.323300  0.804260  0.127510  1.0  1.3073
  Fe  Fe2  1  0.323300  0.304260  0.627510  1.0  1.3073
  Fe  Fe3  1  0.823300  0.804260  0.627510  1.0  1.3073
  Fe  Fe4  1  0.823300  0.304260  0.127510  1.0  1.3073
  Fe  Fe5  1  0.676700  0.195740  0.127510  1.0  1.3127
  Fe  Fe6  1  0.676700  0.695740  0.627510  1.0  1.3127
  Fe  Fe7  1  0.176700  0.195740  0.627510  1.0  1.3127
  Fe  Fe8  1  0.176700  0.695740  0.127510  1.0  1.3127
  Fe  Fe9  1  0.573300  0.445740  0.377510  1.0  1.3099
  Fe  Fe10  1  0.573300  0.945740  0.877510  1.0  1.3099
  Fe  Fe11  1  0.073300  0.445740  0.877510  1.0  1.3099
  Fe  Fe12  1  0.073300  0.945740  0.377510  1.0  1.3099
  Fe  Fe13  1  0.926700  0.054260  0.377510  1.0  1.3101
  Fe  Fe14  1  0.926700  0.554260  0.877510  1.0  1.3101
  Fe  Fe15  1  0.426700  0.054260  0.877510  1.0  1.3101
  Fe  Fe16  1  0.426700  0.554260  0.377510  1.0  1.3101
  C  C17  1  0.188110  0.887730  0.181200  1.0  0.6241
  C  C18  1  0.956270  0.890830  0.578200  1.0  0.618
  C  C19  1  0.188110  0.387730  0.681200  1.0  0.6241
  C  C20  1  0.956270  0.390830  0.078200  1.0  0.618
  C  C21  1  0.688110  0.887730  0.681200  1.0  0.6241
  C  C22  1  0.456270  0.890830  0.078200  1.0  0.618
  C  C23  1  0.688110  0.387730  0.181200  1.0  0.6241
  C  C24  1  0.456270  0.390830  0.578200  1.0  0.618
  C  C25  1  0.811890  0.112270  0.181200  1.0  0.6237
  C  C26  1  0.043730  0.109170  0.578200  1.0  0.6169
  C  C27  1  0.811890  0.612270  0.681200  1.0  0.6237
  C  C28  1  0.043730  0.609170  0.078200  1.0  0.6169
  C  C29  1  0.311890  0.112270  0.681200  1.0  0.6237
  C  C30  1  0.543730  0.109170  0.078200  1.0  0.6169
  C  C31  1  0.311890  0.612270  0.181200  1.0  0.6237
  C  C32  1  0.543730  0.609170  0.578200  1.0  0.6169
  C  C33  1  0.438110  0.362270  0.431200  1.0  0.6232
  C  C34  1  0.206270  0.359170  0.828200  1.0  0.618
  C  C35  1  0.438110  0.862270  0.931200  1.0  0.6232
  C  C36  1  0.206270  0.859170  0.328200  1.0  0.618
  C  C37  1  0.938110  0.362270  0.931200  1.0  0.6232
  C  C38  1  0.706270  0.359170  0.328200  1.0  0.618
  C  C39  1  0.938110  0.862270  0.431200  1.0  0.6232
  C  C40  1  0.706270  0.859170  0.828200  1.0  0.618
  C  C41  1  0.061890  0.137730  0.431200  1.0  0.6245
  C  C42  1  0.293730  0.140830  0.828200  1.0  0.6169
  C  C43  1  0.061890  0.637730  0.931200  1.0  0.6245
  C  C44  1  0.293730  0.640830  0.328200  1.0  0.6169
  C  C45  1  0.561890  0.137730  0.931200  1.0  0.6245
  C  C46  1  0.793730  0.140830  0.328200  1.0  0.6169
  C  C47  1  0.561890  0.637730  0.431200  1.0  0.6245
  C  C48  1  0.793730  0.640830  0.828200  1.0  0.6169
  Cl  Cl49  1  0.184220  0.003960  0.474230  1.0  -0.4365
  Cl  Cl50  1  0.184220  0.503960  0.974230  1.0  -0.4365
  Cl  Cl51  1  0.684220  0.003960  0.974230  1.0  -0.4365
  Cl  Cl52  1  0.684220  0.503960  0.474230  1.0  -0.4365
  Cl  Cl53  1  0.815780  0.996040  0.474230  1.0  -0.4365
  Cl  Cl54  1  0.815780  0.496040  0.974230  1.0  -0.4365
  Cl  Cl55  1  0.315780  0.996040  0.974230  1.0  -0.4365
  Cl  Cl56  1  0.315780  0.496040  0.474230  1.0  -0.4365
  Cl  Cl57  1  0.434220  0.246040  0.724230  1.0  -0.4367
  Cl  Cl58  1  0.434220  0.746040  0.224230  1.0  -0.4367
  Cl  Cl59  1  0.934220  0.246040  0.224230  1.0  -0.4367
  Cl  Cl60  1  0.934220  0.746040  0.724230  1.0  -0.4367
  Cl  Cl61  1  0.065780  0.253960  0.724230  1.0  -0.4363
  Cl  Cl62  1  0.065780  0.753960  0.224230  1.0  -0.4363
  Cl  Cl63  1  0.565780  0.253960  0.224230  1.0  -0.4363
  Cl  Cl64  1  0.565780  0.753960  0.724230  1.0  -0.4363
  O  O65  1  0.231250  0.869140  0.073000  1.0  -0.4432
  O  O66  1  0.017170  0.929080  0.577200  1.0  -0.4679
  O  O67  1  0.913130  0.874810  0.684300  1.0  -0.403
  O  O68  1  0.132520  0.926980  0.181400  1.0  -0.466
  O  O69  1  0.231250  0.369140  0.573000  1.0  -0.4432
  O  O70  1  0.017170  0.429080  0.077200  1.0  -0.4679
  O  O71  1  0.913130  0.374810  0.184300  1.0  -0.403
  O  O72  1  0.132520  0.426980  0.681400  1.0  -0.466
  O  O73  1  0.731250  0.869140  0.573000  1.0  -0.4429
  O  O74  1  0.517170  0.929080  0.077200  1.0  -0.4679
  O  O75  1  0.413130  0.874810  0.184300  1.0  -0.403
  O  O76  1  0.632520  0.926980  0.681400  1.0  -0.4657
  O  O77  1  0.731250  0.369140  0.073000  1.0  -0.4429
  O  O78  1  0.517170  0.429080  0.577200  1.0  -0.4679
  O  O79  1  0.413130  0.374810  0.684300  1.0  -0.403
  O  O80  1  0.632520  0.426980  0.181400  1.0  -0.4657
  O  O81  1  0.768750  0.130860  0.073000  1.0  -0.4426
  O  O82  1  0.982830  0.070920  0.577200  1.0  -0.4693
  O  O83  1  0.086870  0.125190  0.684300  1.0  -0.4032
  O  O84  1  0.867480  0.073020  0.181400  1.0  -0.4654
  O  O85  1  0.768750  0.630860  0.573000  1.0  -0.4426
  O  O86  1  0.982830  0.570920  0.077200  1.0  -0.4693
  O  O87  1  0.086870  0.625190  0.184300  1.0  -0.4032
  O  O88  1  0.867480  0.573020  0.681400  1.0  -0.4654
  O  O89  1  0.268750  0.130860  0.573000  1.0  -0.4423
  O  O90  1  0.482830  0.070920  0.077200  1.0  -0.4693
  O  O91  1  0.586870  0.125190  0.184300  1.0  -0.4032
  O  O92  1  0.367480  0.073020  0.681400  1.0  -0.4657
  O  O93  1  0.268750  0.630860  0.073000  1.0  -0.4423
  O  O94  1  0.482830  0.570920  0.577200  1.0  -0.4693
  O  O95  1  0.586870  0.625190  0.684300  1.0  -0.4032
  O  O96  1  0.367480  0.573020  0.181400  1.0  -0.4657
  O  O97  1  0.481250  0.380860  0.323000  1.0  -0.4436
  O  O98  1  0.267170  0.320920  0.827200  1.0  -0.4692
  O  O99  1  0.163130  0.375190  0.934300  1.0  -0.4042
  O  O100  1  0.382520  0.323020  0.431400  1.0  -0.4654
  O  O101  1  0.481250  0.880860  0.823000  1.0  -0.4436
  O  O102  1  0.267170  0.820920  0.327200  1.0  -0.4692
  O  O103  1  0.163130  0.875190  0.434300  1.0  -0.4042
  O  O104  1  0.382520  0.823020  0.931400  1.0  -0.4654
  O  O105  1  0.981250  0.380860  0.823000  1.0  -0.4437
  O  O106  1  0.767170  0.320920  0.327200  1.0  -0.4692
  O  O107  1  0.663130  0.375190  0.434300  1.0  -0.4041
  O  O108  1  0.882520  0.323020  0.931400  1.0  -0.4653
  O  O109  1  0.981250  0.880860  0.323000  1.0  -0.4437
  O  O110  1  0.767170  0.820920  0.827200  1.0  -0.4692
  O  O111  1  0.663130  0.875190  0.934300  1.0  -0.4041
  O  O112  1  0.882520  0.823020  0.431400  1.0  -0.4653
  O  O113  1  0.018750  0.119140  0.323000  1.0  -0.4431
  O  O114  1  0.232830  0.179080  0.827200  1.0  -0.4675
  O  O115  1  0.336870  0.124810  0.934300  1.0  -0.404
  O  O116  1  0.117480  0.176980  0.431400  1.0  -0.4662
  O  O117  1  0.018750  0.619140  0.823000  1.0  -0.4431
  O  O118  1  0.232830  0.679080  0.327200  1.0  -0.4675
  O  O119  1  0.336870  0.624810  0.434300  1.0  -0.404
  O  O120  1  0.117480  0.676980  0.931400  1.0  -0.4662
  O  O121  1  0.518750  0.119140  0.823000  1.0  -0.4432
  O  O122  1  0.732830  0.179080  0.327200  1.0  -0.4676
  O  O123  1  0.836870  0.124810  0.434300  1.0  -0.4041
  O  O124  1  0.617480  0.176980  0.931400  1.0  -0.4663
  O  O125  1  0.518750  0.619140  0.323000  1.0  -0.4432
  O  O126  1  0.732830  0.679080  0.827200  1.0  -0.4676
  O  O127  1  0.836870  0.624810  0.934300  1.0  -0.4041
  O  O128  1  0.617480  0.676980  0.431400  1.0  -0.4663
  O  O129  1  0.000000  0.000000  0.305400  1.0  -0.6677
  O  O130  1  0.000000  0.500000  0.805400  1.0  -0.6677
  O  O131  1  0.500000  0.000000  0.805400  1.0  -0.6677
  O  O132  1  0.500000  0.500000  0.305400  1.0  -0.6677
  O  O133  1  0.250000  0.250000  0.555400  1.0  -0.6677
  O  O134  1  0.250000  0.750000  0.055400  1.0  -0.6677
  O  O135  1  0.750000  0.250000  0.055400  1.0  -0.6677
  O  O136  1  0.750000  0.750000  0.555400  1.0  -0.6677
