# generated using pymatgen
data_NaFeH4C7NO9
_symmetry_space_group_name_H-M   'P 1'
_cell_length_a   17.84740000
_cell_length_b   17.84740000
_cell_length_c   18.06380000
_cell_angle_alpha   90.00000000
_cell_angle_beta   90.00000000
_cell_angle_gamma   120.00000000
_symmetry_Int_Tables_number   1
_chemical_formula_structural   NaFeH4C7NO9
_chemical_formula_sum   'Na12 Fe12 H48 C84 N12 O108'
_cell_volume   4982.98594696
_cell_formula_units_Z   12
loop_
 _symmetry_equiv_pos_site_id
 _symmetry_equiv_pos_as_xyz
  1  'x, y, z'
loop_
 _atom_site_type_symbol
 _atom_site_label
 _atom_site_symmetry_multiplicity
 _atom_site_fract_x
 _atom_site_fract_y
 _atom_site_fract_z
 _atom_site_occupancy
 _atom_site_charge
  Na  Na1  1  0.332640  0.394310  0.158820  1.0  1.0111
  Na  Na2  1  0.061670  0.667360  0.158820  1.0  1.0147
  Na  Na3  1  0.605690  0.938330  0.158820  1.0  1.0108
  Na  Na4  1  0.667360  0.605690  0.658820  1.0  1.014
  Na  Na5  1  0.938330  0.332640  0.658820  1.0  1.0113
  Na  Na6  1  0.394310  0.061670  0.658820  1.0  1.0136
  Na  Na7  1  0.667360  0.605690  0.841180  1.0  1.0149
  Na  Na8  1  0.938330  0.332640  0.841180  1.0  1.0114
  Na  Na9  1  0.394310  0.061670  0.841180  1.0  1.0137
  Na  Na10  1  0.332640  0.394310  0.341180  1.0  1.0118
  Na  Na11  1  0.061670  0.667360  0.341180  1.0  1.0152
  Na  Na12  1  0.605690  0.938330  0.341180  1.0  1.0114
  Fe  Fe13  1  0.277330  0.399680  0.834690  1.0  1.0531
  Fe  Fe14  1  0.122350  0.722670  0.834690  1.0  1.0537
  Fe  Fe15  1  0.600320  0.877650  0.834690  1.0  1.0542
  Fe  Fe16  1  0.722670  0.600320  0.334690  1.0  1.057
  Fe  Fe17  1  0.877650  0.277330  0.334690  1.0  1.0526
  Fe  Fe18  1  0.399680  0.122350  0.334690  1.0  1.0524
  Fe  Fe19  1  0.722670  0.600320  0.165310  1.0  1.0567
  Fe  Fe20  1  0.877650  0.277330  0.165310  1.0  1.0522
  Fe  Fe21  1  0.399680  0.122350  0.165310  1.0  1.0522
  Fe  Fe22  1  0.277330  0.399680  0.665310  1.0  1.0526
  Fe  Fe23  1  0.122350  0.722670  0.665310  1.0  1.0535
  Fe  Fe24  1  0.600320  0.877650  0.665310  1.0  1.0539
  H  H25  1  0.357800  0.549600  0.005000  1.0  0.1835
  H  H26  1  0.401800  0.493300  0.994200  1.0  0.1646
  H  H27  1  0.495600  0.583000  0.907500  1.0  0.1532
  H  H28  1  0.464600  0.569900  0.824800  1.0  0.1777
  H  H29  1  0.191800  0.642200  0.005000  1.0  0.1817
  H  H30  1  0.091500  0.598200  0.994200  1.0  0.1638
  H  H31  1  0.087400  0.504400  0.907500  1.0  0.1534
  H  H32  1  0.105300  0.535400  0.824800  1.0  0.1769
  H  H33  1  0.450400  0.808200  0.005000  1.0  0.1842
  H  H34  1  0.506700  0.908500  0.994200  1.0  0.1631
  H  H35  1  0.417000  0.912600  0.907500  1.0  0.1524
  H  H36  1  0.430100  0.894700  0.824800  1.0  0.1771
  H  H37  1  0.642200  0.450400  0.505000  1.0  0.1845
  H  H38  1  0.598200  0.506700  0.494200  1.0  0.1629
  H  H39  1  0.504400  0.417000  0.407500  1.0  0.1541
  H  H40  1  0.535400  0.430100  0.324800  1.0  0.1776
  H  H41  1  0.808200  0.357800  0.505000  1.0  0.1826
  H  H42  1  0.908500  0.401800  0.494200  1.0  0.1636
  H  H43  1  0.912600  0.495600  0.407500  1.0  0.1527
  H  H44  1  0.894700  0.464600  0.324800  1.0  0.1767
  H  H45  1  0.549600  0.191800  0.505000  1.0  0.1832
  H  H46  1  0.493300  0.091500  0.494200  1.0  0.1638
  H  H47  1  0.583000  0.087400  0.407500  1.0  0.1526
  H  H48  1  0.569900  0.105300  0.324800  1.0  0.177
  H  H49  1  0.642200  0.450400  0.995000  1.0  0.1825
  H  H50  1  0.598200  0.506700  0.005800  1.0  0.1633
  H  H51  1  0.504400  0.417000  0.092500  1.0  0.1527
  H  H52  1  0.535400  0.430100  0.175200  1.0  0.1772
  H  H53  1  0.808200  0.357800  0.995000  1.0  0.1812
  H  H54  1  0.908500  0.401800  0.005800  1.0  0.1636
  H  H55  1  0.912600  0.495600  0.092500  1.0  0.1524
  H  H56  1  0.894700  0.464600  0.175200  1.0  0.1759
  H  H57  1  0.549600  0.191800  0.995000  1.0  0.1822
  H  H58  1  0.493300  0.091500  0.005800  1.0  0.1635
  H  H59  1  0.583000  0.087400  0.092500  1.0  0.1518
  H  H60  1  0.569900  0.105300  0.175200  1.0  0.1767
  H  H61  1  0.357800  0.549600  0.495000  1.0  0.1828
  H  H62  1  0.401800  0.493300  0.505800  1.0  0.1647
  H  H63  1  0.495600  0.583000  0.592500  1.0  0.1529
  H  H64  1  0.464600  0.569900  0.675200  1.0  0.1768
  H  H65  1  0.191800  0.642200  0.495000  1.0  0.1808
  H  H66  1  0.091500  0.598200  0.505800  1.0  0.1637
  H  H67  1  0.087400  0.504400  0.592500  1.0  0.1518
  H  H68  1  0.105300  0.535400  0.675200  1.0  0.1764
  H  H69  1  0.450400  0.808200  0.495000  1.0  0.1825
  H  H70  1  0.506700  0.908500  0.505800  1.0  0.1637
  H  H71  1  0.417000  0.912600  0.592500  1.0  0.1525
  H  H72  1  0.430100  0.894700  0.675200  1.0  0.1759
  C  C73  1  0.262000  0.577400  0.905600  1.0  -0.0515
  C  C74  1  0.350800  0.595900  0.877800  1.0  0.0628
  C  C75  1  0.354600  0.501300  0.977600  1.0  -0.1526
  C  C76  1  0.270400  0.421200  0.995200  1.0  0.8133
  C  C77  1  0.452500  0.542700  0.873200  1.0  -0.1476
  C  C78  1  0.458300  0.460600  0.869200  1.0  0.7693
  C  C79  1  0.315400  0.738000  0.905600  1.0  -0.0497
  C  C80  1  0.245100  0.649200  0.877800  1.0  0.0626
  C  C81  1  0.146700  0.645400  0.977600  1.0  -0.1525
  C  C82  1  0.150800  0.729600  0.995200  1.0  0.8145
  C  C83  1  0.090200  0.547500  0.873200  1.0  -0.1487
  C  C84  1  0.002300  0.541700  0.869200  1.0  0.7756
  C  C85  1  0.422600  0.684600  0.905600  1.0  -0.0496
  C  C86  1  0.404100  0.754900  0.877800  1.0  0.0619
  C  C87  1  0.498700  0.853300  0.977600  1.0  -0.1525
  C  C88  1  0.578800  0.849200  0.995200  1.0  0.8091
  C  C89  1  0.457300  0.909800  0.873200  1.0  -0.147
  C  C90  1  0.539400  0.997700  0.869200  1.0  0.7833
  C  C91  1  0.738000  0.422600  0.405600  1.0  -0.052
  C  C92  1  0.649200  0.404100  0.377800  1.0  0.0627
  C  C93  1  0.645400  0.498700  0.477600  1.0  -0.1538
  C  C94  1  0.729600  0.578800  0.495200  1.0  0.8122
  C  C95  1  0.547500  0.457300  0.373200  1.0  -0.1483
  C  C96  1  0.541700  0.539400  0.369200  1.0  0.7767
  C  C97  1  0.684600  0.262000  0.405600  1.0  -0.05
  C  C98  1  0.754900  0.350800  0.377800  1.0  0.0614
  C  C99  1  0.853300  0.354600  0.477600  1.0  -0.1514
  C  C100  1  0.849200  0.270400  0.495200  1.0  0.8149
  C  C101  1  0.909800  0.452500  0.373200  1.0  -0.1467
  C  C102  1  0.997700  0.458300  0.369200  1.0  0.7713
  C  C103  1  0.577400  0.315400  0.405600  1.0  -0.0508
  C  C104  1  0.595900  0.245100  0.377800  1.0  0.0621
  C  C105  1  0.501300  0.146700  0.477600  1.0  -0.1543
  C  C106  1  0.421200  0.150800  0.495200  1.0  0.8081
  C  C107  1  0.542700  0.090200  0.373200  1.0  -0.1475
  C  C108  1  0.460600  0.002300  0.369200  1.0  0.7849
  C  C109  1  0.738000  0.422600  0.094400  1.0  -0.0498
  C  C110  1  0.649200  0.404100  0.122200  1.0  0.0619
  C  C111  1  0.645400  0.498700  0.022400  1.0  -0.1498
  C  C112  1  0.729600  0.578800  0.004800  1.0  0.8114
  C  C113  1  0.547500  0.457300  0.126800  1.0  -0.1481
  C  C114  1  0.541700  0.539400  0.130800  1.0  0.7759
  C  C115  1  0.684600  0.262000  0.094400  1.0  -0.048
  C  C116  1  0.754900  0.350800  0.122200  1.0  0.061
  C  C117  1  0.853300  0.354600  0.022400  1.0  -0.1509
  C  C118  1  0.849200  0.270400  0.004800  1.0  0.8138
  C  C119  1  0.909800  0.452500  0.126800  1.0  -0.1469
  C  C120  1  0.997700  0.458300  0.130800  1.0  0.7708
  C  C121  1  0.577400  0.315400  0.094400  1.0  -0.0485
  C  C122  1  0.595900  0.245100  0.122200  1.0  0.0612
  C  C123  1  0.501300  0.146700  0.022400  1.0  -0.151
  C  C124  1  0.421200  0.150800  0.004800  1.0  0.81
  C  C125  1  0.542700  0.090200  0.126800  1.0  -0.1465
  C  C126  1  0.460600  0.002300  0.130800  1.0  0.7843
  C  C127  1  0.262000  0.577400  0.594400  1.0  -0.0496
  C  C128  1  0.350800  0.595900  0.622200  1.0  0.0618
  C  C129  1  0.354600  0.501300  0.522400  1.0  -0.1515
  C  C130  1  0.270400  0.421200  0.504800  1.0  0.8143
  C  C131  1  0.452500  0.542700  0.626800  1.0  -0.1471
  C  C132  1  0.458300  0.460600  0.630800  1.0  0.7688
  C  C133  1  0.315400  0.738000  0.594400  1.0  -0.0474
  C  C134  1  0.245100  0.649200  0.622200  1.0  0.0621
  C  C135  1  0.146700  0.645400  0.522400  1.0  -0.1492
  C  C136  1  0.150800  0.729600  0.504800  1.0  0.8172
  C  C137  1  0.090200  0.547500  0.626800  1.0  -0.1482
  C  C138  1  0.002300  0.541700  0.630800  1.0  0.7748
  C  C139  1  0.422600  0.684600  0.594400  1.0  -0.0475
  C  C140  1  0.404100  0.754900  0.622200  1.0  0.0615
  C  C141  1  0.498700  0.853300  0.522400  1.0  -0.151
  C  C142  1  0.578800  0.849200  0.504800  1.0  0.8087
  C  C143  1  0.457300  0.909800  0.626800  1.0  -0.1477
  C  C144  1  0.539400  0.997700  0.630800  1.0  0.7827
  C  C145  1  0.126000  0.393100  0.750000  1.0  0.9161
  C  C146  1  0.197800  0.234300  0.750000  1.0  0.8282
  C  C147  1  0.267100  0.874000  0.750000  1.0  0.9157
  C  C148  1  0.036500  0.802200  0.750000  1.0  0.8246
  C  C149  1  0.606900  0.732900  0.750000  1.0  0.9148
  C  C150  1  0.765700  0.963500  0.750000  1.0  0.8254
  C  C151  1  0.874000  0.606900  0.250000  1.0  0.9167
  C  C152  1  0.802200  0.765700  0.250000  1.0  0.824
  C  C153  1  0.732900  0.126000  0.250000  1.0  0.9148
  C  C154  1  0.963500  0.197800  0.250000  1.0  0.8277
  C  C155  1  0.393100  0.267100  0.250000  1.0  0.9165
  C  C156  1  0.234300  0.036500  0.250000  1.0  0.8246
  N  N157  1  0.366300  0.523400  0.897500  1.0  -0.0776
  N  N158  1  0.157100  0.633700  0.897500  1.0  -0.0745
  N  N159  1  0.476600  0.842900  0.897500  1.0  -0.0756
  N  N160  1  0.633700  0.476600  0.397500  1.0  -0.0744
  N  N161  1  0.842900  0.366300  0.397500  1.0  -0.0798
  N  N162  1  0.523400  0.157100  0.397500  1.0  -0.0749
  N  N163  1  0.633700  0.476600  0.102500  1.0  -0.0737
  N  N164  1  0.842900  0.366300  0.102500  1.0  -0.0805
  N  N165  1  0.523400  0.157100  0.102500  1.0  -0.0757
  N  N166  1  0.366300  0.523400  0.602500  1.0  -0.0797
  N  N167  1  0.157100  0.633700  0.602500  1.0  -0.0744
  N  N168  1  0.476600  0.842900  0.602500  1.0  -0.0756
  O  O169  1  0.229300  0.370700  0.942080  1.0  -0.5472
  O  O170  1  0.246000  0.408400  0.061200  1.0  -0.65
  O  O171  1  0.386800  0.389000  0.866590  1.0  -0.5332
  O  O172  1  0.531400  0.468500  0.867400  1.0  -0.5914
  O  O173  1  0.165020  0.397320  0.812580  1.0  -0.5545
  O  O174  1  0.223000  0.273500  0.812000  1.0  -0.5433
  O  O175  1  0.333000  0.294000  0.079100  1.0  -0.2387
  O  O176  1  0.141400  0.770700  0.942080  1.0  -0.5453
  O  O177  1  0.162400  0.754000  0.061200  1.0  -0.6459
  O  O178  1  0.002200  0.613200  0.866590  1.0  -0.5219
  O  O179  1  0.937100  0.468600  0.867400  1.0  -0.5928
  O  O180  1  0.232300  0.834980  0.812580  1.0  -0.5523
  O  O181  1  0.050500  0.777000  0.812000  1.0  -0.535
  O  O182  1  0.961000  0.667000  0.079100  1.0  -0.2361
  O  O183  1  0.629300  0.858600  0.942080  1.0  -0.5423
  O  O184  1  0.591600  0.837600  0.061200  1.0  -0.6528
  O  O185  1  0.611000  0.997800  0.866590  1.0  -0.5263
  O  O186  1  0.531500  0.062900  0.867400  1.0  -0.5888
  O  O187  1  0.602680  0.767700  0.812580  1.0  -0.5508
  O  O188  1  0.726500  0.949500  0.812000  1.0  -0.5408
  O  O189  1  0.706000  0.039000  0.079100  1.0  -0.2357
  O  O190  1  0.770700  0.629300  0.442080  1.0  -0.5462
  O  O191  1  0.754000  0.591600  0.561200  1.0  -0.6484
  O  O192  1  0.613200  0.611000  0.366590  1.0  -0.5277
  O  O193  1  0.468600  0.531500  0.367400  1.0  -0.593
  O  O194  1  0.834980  0.602680  0.312580  1.0  -0.5538
  O  O195  1  0.777000  0.726500  0.312000  1.0  -0.5414
  O  O196  1  0.667000  0.706000  0.579100  1.0  -0.2375
  O  O197  1  0.858600  0.229300  0.442080  1.0  -0.5487
  O  O198  1  0.837600  0.246000  0.561200  1.0  -0.6466
  O  O199  1  0.997800  0.386800  0.366590  1.0  -0.5169
  O  O200  1  0.062900  0.531400  0.367400  1.0  -0.5918
  O  O201  1  0.767700  0.165020  0.312580  1.0  -0.5525
  O  O202  1  0.949500  0.223000  0.312000  1.0  -0.5335
  O  O203  1  0.039000  0.333000  0.579100  1.0  -0.2364
  O  O204  1  0.370700  0.141400  0.442080  1.0  -0.5383
  O  O205  1  0.408400  0.162400  0.561200  1.0  -0.6496
  O  O206  1  0.389000  0.002200  0.366590  1.0  -0.5286
  O  O207  1  0.468500  0.937100  0.367400  1.0  -0.5903
  O  O208  1  0.397320  0.232300  0.312580  1.0  -0.5502
  O  O209  1  0.273500  0.050500  0.312000  1.0  -0.5384
  O  O210  1  0.294000  0.961000  0.579100  1.0  -0.2378
  O  O211  1  0.770700  0.629300  0.057920  1.0  -0.5465
  O  O212  1  0.754000  0.591600  0.938800  1.0  -0.6488
  O  O213  1  0.613200  0.611000  0.133410  1.0  -0.5277
  O  O214  1  0.468600  0.531500  0.132600  1.0  -0.594
  O  O215  1  0.834980  0.602680  0.187420  1.0  -0.5541
  O  O216  1  0.777000  0.726500  0.188000  1.0  -0.5415
  O  O217  1  0.667000  0.706000  0.920900  1.0  -0.2372
  O  O218  1  0.858600  0.229300  0.057920  1.0  -0.5488
  O  O219  1  0.837600  0.246000  0.938800  1.0  -0.6453
  O  O220  1  0.997800  0.386800  0.133410  1.0  -0.5168
  O  O221  1  0.062900  0.531400  0.132600  1.0  -0.5928
  O  O222  1  0.767700  0.165020  0.187420  1.0  -0.5527
  O  O223  1  0.949500  0.223000  0.188000  1.0  -0.5326
  O  O224  1  0.039000  0.333000  0.920900  1.0  -0.237
  O  O225  1  0.370700  0.141400  0.057920  1.0  -0.5398
  O  O226  1  0.408400  0.162400  0.938800  1.0  -0.6496
  O  O227  1  0.389000  0.002200  0.133410  1.0  -0.5288
  O  O228  1  0.468500  0.937100  0.132600  1.0  -0.5906
  O  O229  1  0.397320  0.232300  0.187420  1.0  -0.5511
  O  O230  1  0.273500  0.050500  0.188000  1.0  -0.5387
  O  O231  1  0.294000  0.961000  0.920900  1.0  -0.2376
  O  O232  1  0.229300  0.370700  0.557920  1.0  -0.5471
  O  O233  1  0.246000  0.408400  0.438800  1.0  -0.6479
  O  O234  1  0.386800  0.389000  0.633410  1.0  -0.5332
  O  O235  1  0.531400  0.468500  0.632600  1.0  -0.592
  O  O236  1  0.165020  0.397320  0.687420  1.0  -0.5541
  O  O237  1  0.223000  0.273500  0.688000  1.0  -0.541
  O  O238  1  0.333000  0.294000  0.420900  1.0  -0.2382
  O  O239  1  0.141400  0.770700  0.557920  1.0  -0.5457
  O  O240  1  0.162400  0.754000  0.438800  1.0  -0.6469
  O  O241  1  0.002200  0.613200  0.633410  1.0  -0.5223
  O  O242  1  0.937100  0.468600  0.632600  1.0  -0.5928
  O  O243  1  0.232300  0.834980  0.687420  1.0  -0.5518
  O  O244  1  0.050500  0.777000  0.688000  1.0  -0.5348
  O  O245  1  0.961000  0.667000  0.420900  1.0  -0.2359
  O  O246  1  0.629300  0.858600  0.557920  1.0  -0.5419
  O  O247  1  0.591600  0.837600  0.438800  1.0  -0.6478
  O  O248  1  0.611000  0.997800  0.633410  1.0  -0.5263
  O  O249  1  0.531500  0.062900  0.632600  1.0  -0.5887
  O  O250  1  0.602680  0.767700  0.687420  1.0  -0.5503
  O  O251  1  0.726500  0.949500  0.688000  1.0  -0.5403
  O  O252  1  0.706000  0.039000  0.420900  1.0  -0.2358
  O  O253  1  0.053000  0.386100  0.750000  1.0  -0.66
  O  O254  1  0.128400  0.156600  0.750000  1.0  -0.4381
  O  O255  1  0.328000  0.453900  0.750000  1.0  -0.735
  O  O256  1  0.333100  0.947000  0.750000  1.0  -0.6616
  O  O257  1  0.028200  0.871600  0.750000  1.0  -0.4422
  O  O258  1  0.125900  0.672000  0.750000  1.0  -0.7338
  O  O259  1  0.613900  0.666900  0.750000  1.0  -0.6607
  O  O260  1  0.843400  0.971800  0.750000  1.0  -0.4392
  O  O261  1  0.546100  0.874100  0.750000  1.0  -0.7351
  O  O262  1  0.947000  0.613900  0.250000  1.0  -0.6597
  O  O263  1  0.871600  0.843400  0.250000  1.0  -0.4412
  O  O264  1  0.672000  0.546100  0.250000  1.0  -0.7338
  O  O265  1  0.666900  0.053000  0.250000  1.0  -0.6601
  O  O266  1  0.971800  0.128400  0.250000  1.0  -0.4394
  O  O267  1  0.874100  0.328000  0.250000  1.0  -0.7346
  O  O268  1  0.386100  0.333100  0.250000  1.0  -0.6615
  O  O269  1  0.156600  0.028200  0.250000  1.0  -0.4415
  O  O270  1  0.453900  0.125900  0.250000  1.0  -0.7348
  O  O271  1  0.287200  0.451200  0.250000  1.0  -0.5654
  O  O272  1  0.164000  0.712800  0.250000  1.0  -0.5649
  O  O273  1  0.548800  0.836000  0.250000  1.0  -0.5667
  O  O274  1  0.712800  0.548800  0.750000  1.0  -0.5636
  O  O275  1  0.836000  0.287200  0.750000  1.0  -0.5657
  O  O276  1  0.451200  0.164000  0.750000  1.0  -0.5666
