# generated using pymatgen
data_Zn3H10C23O11
_symmetry_space_group_name_H-M   'P 1'
_cell_length_a   20.13700000
_cell_length_b   10.70200000
_cell_length_c   11.41800000
_cell_angle_alpha   90.00000000
_cell_angle_beta   90.00000000
_cell_angle_gamma   90.00000000
_symmetry_Int_Tables_number   1
_chemical_formula_structural   Zn3H10C23O11
_chemical_formula_sum   'Zn6 H20 C46 O22'
_cell_volume   2460.64949473
_cell_formula_units_Z   2
loop_
 _symmetry_equiv_pos_site_id
 _symmetry_equiv_pos_as_xyz
  1  'x, y, z'
loop_
 _atom_site_type_symbol
 _atom_site_label
 _atom_site_symmetry_multiplicity
 _atom_site_fract_x
 _atom_site_fract_y
 _atom_site_fract_z
 _atom_site_occupancy
 _atom_site_charge
  Zn  Zn1  1  0.078950  0.129130  0.455510  1.0  1.0675
  Zn  Zn2  1  0.421050  0.870870  0.955510  1.0  1.0635
  Zn  Zn3  1  0.578950  0.870870  0.955510  1.0  1.0638
  Zn  Zn4  1  0.921050  0.129130  0.455510  1.0  1.0632
  Zn  Zn5  1  0.000000  0.860700  0.545700  1.0  0.9119
  Zn  Zn6  1  0.500000  0.139300  0.045700  1.0  0.9095
  H  H7  1  0.159400  0.563400  0.114500  1.0  0.1088
  H  H8  1  0.256300  0.653100  0.054300  1.0  0.1144
  H  H9  1  0.215200  0.956800  0.242900  1.0  0.1006
  H  H10  1  0.100800  0.482500  0.297900  1.0  0.1061
  H  H11  1  0.340600  0.436600  0.614500  1.0  0.108
  H  H12  1  0.243700  0.346900  0.554300  1.0  0.1147
  H  H13  1  0.284800  0.043200  0.742900  1.0  0.0999
  H  H14  1  0.399200  0.517500  0.797900  1.0  0.1048
  H  H15  1  0.659400  0.436600  0.614500  1.0  0.1083
  H  H16  1  0.756300  0.346900  0.554300  1.0  0.1147
  H  H17  1  0.715200  0.043200  0.742900  1.0  0.1007
  H  H18  1  0.600800  0.517500  0.797900  1.0  0.1061
  H  H19  1  0.840600  0.563400  0.114500  1.0  0.108
  H  H20  1  0.743700  0.653100  0.054300  1.0  0.1144
  H  H21  1  0.784800  0.956800  0.242900  1.0  0.0998
  H  H22  1  0.899200  0.482500  0.297900  1.0  0.1056
  H  H23  1  0.000000  0.788300  0.193600  1.0  0.1092
  H  H24  1  0.000000  0.108700  0.591900  1.0  0.4712
  H  H25  1  0.500000  0.211700  0.693600  1.0  0.1096
  H  H26  1  0.500000  0.891300  0.091900  1.0  0.471
  C  C27  1  0.103500  0.896400  0.342600  1.0  0.685
  C  C28  1  0.142000  0.825700  0.250900  1.0  -0.0794
  C  C29  1  0.124700  0.707400  0.211100  1.0  0.0159
  C  C30  1  0.169600  0.643900  0.139200  1.0  -0.1447
  C  C31  1  0.228000  0.696300  0.104300  1.0  -0.0613
  C  C32  1  0.245200  0.816800  0.144700  1.0  -0.1724
  C  C33  1  0.203500  0.877900  0.215800  1.0  0.021
  C  C34  1  0.309600  0.873100  0.103600  1.0  0.702
  C  C35  1  0.060700  0.645400  0.240200  1.0  0.0252
  C  C36  1  0.060800  0.522900  0.282900  1.0  -0.0721
  C  C37  1  0.396500  0.103600  0.842600  1.0  0.6845
  C  C38  1  0.358000  0.174300  0.750900  1.0  -0.079
  C  C39  1  0.375300  0.292600  0.711100  1.0  0.0156
  C  C40  1  0.330400  0.356100  0.639200  1.0  -0.1446
  C  C41  1  0.272000  0.303700  0.604300  1.0  -0.0621
  C  C42  1  0.254800  0.183200  0.644700  1.0  -0.1746
  C  C43  1  0.296500  0.122100  0.715800  1.0  0.0217
  C  C44  1  0.190400  0.126900  0.603600  1.0  0.7019
  C  C45  1  0.439300  0.354600  0.740200  1.0  0.0245
  C  C46  1  0.439200  0.477100  0.782900  1.0  -0.0718
  C  C47  1  0.603500  0.103600  0.842600  1.0  0.6853
  C  C48  1  0.642000  0.174300  0.750900  1.0  -0.0788
  C  C49  1  0.624700  0.292600  0.711100  1.0  0.0161
  C  C50  1  0.669600  0.356100  0.639200  1.0  -0.1453
  C  C51  1  0.728000  0.303700  0.604300  1.0  -0.0621
  C  C52  1  0.745200  0.183200  0.644700  1.0  -0.172
  C  C53  1  0.703500  0.122100  0.715800  1.0  0.0217
  C  C54  1  0.809600  0.126900  0.603600  1.0  0.7018
  C  C55  1  0.560700  0.354600  0.740200  1.0  0.0251
  C  C56  1  0.560800  0.477100  0.782900  1.0  -0.0717
  C  C57  1  0.896500  0.896400  0.342600  1.0  0.6843
  C  C58  1  0.858000  0.825700  0.250900  1.0  -0.0823
  C  C59  1  0.875300  0.707400  0.211100  1.0  0.0152
  C  C60  1  0.830400  0.643900  0.139200  1.0  -0.143
  C  C61  1  0.772000  0.696300  0.104300  1.0  -0.0612
  C  C62  1  0.754800  0.816800  0.144700  1.0  -0.1739
  C  C63  1  0.796500  0.877900  0.215800  1.0  0.0211
  C  C64  1  0.690400  0.873100  0.103600  1.0  0.7017
  C  C65  1  0.939300  0.645400  0.240200  1.0  0.0247
  C  C66  1  0.939200  0.522900  0.282900  1.0  -0.0721
  C  C67  1  0.000000  0.706200  0.220400  1.0  -0.0542
  C  C68  1  0.000000  0.460500  0.303200  1.0  -0.0855
  C  C69  1  0.000000  0.334700  0.351700  1.0  0.7251
  C  C70  1  0.500000  0.293800  0.720400  1.0  -0.0538
  C  C71  1  0.500000  0.539500  0.803200  1.0  -0.0851
  C  C72  1  0.500000  0.665300  0.851700  1.0  0.7252
  O  O73  1  0.073700  0.838300  0.418900  1.0  -0.6428
  O  O74  1  0.104700  0.016200  0.331700  1.0  -0.6174
  O  O75  1  0.322000  0.982600  0.135700  1.0  -0.4778
  O  O76  1  0.346200  0.808700  0.038800  1.0  -0.5915
  O  O77  1  0.055200  0.282800  0.370500  1.0  -0.6306
  O  O78  1  0.426300  0.161700  0.918900  1.0  -0.6442
  O  O79  1  0.395300  0.983800  0.831700  1.0  -0.6154
  O  O80  1  0.178000  0.017400  0.635700  1.0  -0.4806
  O  O81  1  0.153800  0.191300  0.538800  1.0  -0.5924
  O  O82  1  0.444800  0.717200  0.870500  1.0  -0.6313
  O  O83  1  0.573700  0.161700  0.918900  1.0  -0.6435
  O  O84  1  0.604700  0.983800  0.831700  1.0  -0.6154
  O  O85  1  0.822000  0.017400  0.635700  1.0  -0.479
  O  O86  1  0.846200  0.191300  0.538800  1.0  -0.592
  O  O87  1  0.555200  0.717200  0.870500  1.0  -0.6314
  O  O88  1  0.926300  0.838300  0.418900  1.0  -0.6434
  O  O89  1  0.895300  0.016200  0.331700  1.0  -0.6173
  O  O90  1  0.678000  0.982600  0.135700  1.0  -0.4797
  O  O91  1  0.653800  0.808700  0.038800  1.0  -0.5918
  O  O92  1  0.944800  0.282800  0.370500  1.0  -0.6309
  O  O93  1  0.000000  0.062700  0.534200  1.0  -0.9738
  O  O94  1  0.500000  0.937300  0.034200  1.0  -0.9749
