# generated using pymatgen
data_CdH36C48N12ClO4
_symmetry_space_group_name_H-M   'P 1'
_cell_length_a   15.90140000
_cell_length_b   15.90140000
_cell_length_c   21.66600000
_cell_angle_alpha   90.00000000
_cell_angle_beta   90.00000000
_cell_angle_gamma   90.00000000
_symmetry_Int_Tables_number   1
_chemical_formula_structural   CdH36C48N12ClO4
_chemical_formula_sum   'Cd4 H144 C192 N48 Cl4 O16'
_cell_volume   5478.34607279
_cell_formula_units_Z   4
loop_
 _symmetry_equiv_pos_site_id
 _symmetry_equiv_pos_as_xyz
  1  'x, y, z'
loop_
 _atom_site_type_symbol
 _atom_site_label
 _atom_site_symmetry_multiplicity
 _atom_site_fract_x
 _atom_site_fract_y
 _atom_site_fract_z
 _atom_site_occupancy
 _atom_site_charge
  Cd  Cd1  1  0.941740  0.058260  0.750000  1.0  0.7961
  Cd  Cd2  1  0.058260  0.941740  0.250000  1.0  0.7969
  Cd  Cd3  1  0.441740  0.441740  0.500000  1.0  0.7966
  Cd  Cd4  1  0.558260  0.558260  0.000000  1.0  0.7964
  H  H5  1  0.008500  0.235900  0.677400  1.0  0.0636
  H  H6  1  0.103600  0.345300  0.686700  1.0  0.1291
  H  H7  1  0.156400  0.262200  0.858900  1.0  0.117
  H  H8  1  0.061000  0.155500  0.843600  1.0  0.0535
  H  H9  1  0.166100  0.459000  0.713300  1.0  0.1042
  H  H10  1  0.269400  0.560900  0.722400  1.0  0.0993
  H  H11  1  0.380800  0.542900  0.791500  1.0  0.1038
  H  H12  1  0.277900  0.322400  0.846600  1.0  0.0908
  H  H13  1  0.495800  0.297600  0.043500  1.0  0.0926
  H  H14  1  0.588100  0.197800  0.086900  1.0  0.0959
  H  H15  1  0.701800  0.147100  0.031200  1.0  0.079
  H  H16  1  0.639400  0.300400  0.889200  1.0  0.1131
  H  H17  1  0.783500  0.081900  0.965400  1.0  0.1286
  H  H18  1  0.889900  0.036100  0.902000  1.0  0.0732
  H  H19  1  0.858400  0.228700  0.791100  1.0  0.0722
  H  H20  1  0.759100  0.285400  0.854900  1.0  0.1269
  H  H21  1  0.475100  0.251400  0.859200  1.0  0.3352
  H  H22  1  0.396300  0.240400  0.898600  1.0  0.3316
  H  H23  1  0.991500  0.764100  0.177400  1.0  0.0632
  H  H24  1  0.896400  0.654700  0.186700  1.0  0.1292
  H  H25  1  0.843600  0.737800  0.358900  1.0  0.1175
  H  H26  1  0.939000  0.844500  0.343600  1.0  0.0528
  H  H27  1  0.833900  0.541000  0.213300  1.0  0.1045
  H  H28  1  0.730600  0.439100  0.222400  1.0  0.0989
  H  H29  1  0.619200  0.457100  0.291500  1.0  0.1041
  H  H30  1  0.722100  0.677600  0.346600  1.0  0.0902
  H  H31  1  0.504200  0.702400  0.543500  1.0  0.0926
  H  H32  1  0.411900  0.802200  0.586900  1.0  0.0957
  H  H33  1  0.298200  0.852900  0.531200  1.0  0.0792
  H  H34  1  0.360600  0.699600  0.389200  1.0  0.113
  H  H35  1  0.216500  0.918100  0.465400  1.0  0.1282
  H  H36  1  0.110100  0.963900  0.402000  1.0  0.0729
  H  H37  1  0.141600  0.771300  0.291100  1.0  0.0723
  H  H38  1  0.240900  0.714600  0.354900  1.0  0.1266
  H  H39  1  0.524900  0.748600  0.359200  1.0  0.3336
  H  H40  1  0.603700  0.759600  0.398600  1.0  0.3318
  H  H41  1  0.264100  0.508500  0.427400  1.0  0.0632
  H  H42  1  0.154700  0.603600  0.436700  1.0  0.1291
  H  H43  1  0.237800  0.656400  0.608900  1.0  0.1173
  H  H44  1  0.344500  0.561000  0.593600  1.0  0.052
  H  H45  1  0.041000  0.666100  0.463300  1.0  0.1047
  H  H46  1  0.939100  0.769400  0.472400  1.0  0.099
  H  H47  1  0.957100  0.880800  0.541500  1.0  0.1046
  H  H48  1  0.177600  0.777900  0.596600  1.0  0.0903
  H  H49  1  0.202400  0.995800  0.793500  1.0  0.0941
  H  H50  1  0.302200  0.088100  0.836900  1.0  0.0951
  H  H51  1  0.352900  0.201800  0.781200  1.0  0.0782
  H  H52  1  0.199600  0.139400  0.639200  1.0  0.1137
  H  H53  1  0.418100  0.283500  0.715400  1.0  0.1274
  H  H54  1  0.463900  0.389900  0.652000  1.0  0.072
  H  H55  1  0.271300  0.358400  0.541100  1.0  0.072
  H  H56  1  0.214600  0.259100  0.604900  1.0  0.1266
  H  H57  1  0.248600  0.975100  0.609200  1.0  0.3337
  H  H58  1  0.259600  0.896300  0.648600  1.0  0.3317
  H  H59  1  0.735900  0.491500  0.927400  1.0  0.0633
  H  H60  1  0.845300  0.396400  0.936700  1.0  0.129
  H  H61  1  0.762200  0.343600  0.108900  1.0  0.1173
  H  H62  1  0.655500  0.439000  0.093600  1.0  0.0526
  H  H63  1  0.959000  0.333900  0.963300  1.0  0.1047
  H  H64  1  0.060900  0.230600  0.972400  1.0  0.0996
  H  H65  1  0.042900  0.119200  0.041500  1.0  0.1044
  H  H66  1  0.822400  0.222100  0.096600  1.0  0.0905
  H  H67  1  0.797600  0.004200  0.293500  1.0  0.0927
  H  H68  1  0.697800  0.911900  0.336900  1.0  0.0952
  H  H69  1  0.647100  0.798200  0.281200  1.0  0.0785
  H  H70  1  0.800400  0.860600  0.139200  1.0  0.1134
  H  H71  1  0.581900  0.716500  0.215400  1.0  0.1276
  H  H72  1  0.536100  0.610100  0.152000  1.0  0.0722
  H  H73  1  0.728700  0.641600  0.041100  1.0  0.0723
  H  H74  1  0.785400  0.740900  0.104900  1.0  0.1268
  H  H75  1  0.751400  0.024900  0.109200  1.0  0.3342
  H  H76  1  0.740400  0.103700  0.148600  1.0  0.3318
  H  H77  1  0.491500  0.735900  0.072600  1.0  0.0633
  H  H78  1  0.396400  0.845300  0.063300  1.0  0.1293
  H  H79  1  0.343600  0.762200  0.891100  1.0  0.1178
  H  H80  1  0.439000  0.655500  0.906400  1.0  0.053
  H  H81  1  0.333900  0.959000  0.036700  1.0  0.104
  H  H82  1  0.230600  0.060900  0.027600  1.0  0.099
  H  H83  1  0.119200  0.042900  0.958500  1.0  0.1042
  H  H84  1  0.222100  0.822400  0.903400  1.0  0.0903
  H  H85  1  0.004200  0.797600  0.706500  1.0  0.0927
  H  H86  1  0.911900  0.697800  0.663100  1.0  0.0962
  H  H87  1  0.798200  0.647100  0.718800  1.0  0.0792
  H  H88  1  0.860600  0.800400  0.860800  1.0  0.1126
  H  H89  1  0.716500  0.581900  0.784600  1.0  0.1277
  H  H90  1  0.610100  0.536100  0.848000  1.0  0.0726
  H  H91  1  0.641600  0.728700  0.958900  1.0  0.0725
  H  H92  1  0.740900  0.785400  0.895100  1.0  0.1271
  H  H93  1  0.024900  0.751400  0.890800  1.0  0.3329
  H  H94  1  0.103700  0.740400  0.851400  1.0  0.3318
  H  H95  1  0.508500  0.264100  0.572600  1.0  0.0629
  H  H96  1  0.603600  0.154700  0.563300  1.0  0.1294
  H  H97  1  0.656400  0.237800  0.391100  1.0  0.1175
  H  H98  1  0.561000  0.344500  0.406400  1.0  0.0529
  H  H99  1  0.666100  0.041000  0.536700  1.0  0.1042
  H  H100  1  0.769400  0.939100  0.527600  1.0  0.0991
  H  H101  1  0.880800  0.957100  0.458500  1.0  0.1039
  H  H102  1  0.777900  0.177600  0.403400  1.0  0.0916
  H  H103  1  0.995800  0.202400  0.206500  1.0  0.0924
  H  H104  1  0.088100  0.302200  0.163100  1.0  0.0958
  H  H105  1  0.201800  0.352900  0.218800  1.0  0.0792
  H  H106  1  0.139400  0.199600  0.360800  1.0  0.1125
  H  H107  1  0.283500  0.418100  0.284600  1.0  0.1286
  H  H108  1  0.389900  0.463900  0.348000  1.0  0.0731
  H  H109  1  0.358400  0.271300  0.458900  1.0  0.0729
  H  H110  1  0.259100  0.214600  0.395100  1.0  0.1274
  H  H111  1  0.975100  0.248600  0.390800  1.0  0.3334
  H  H112  1  0.896300  0.259600  0.351400  1.0  0.3316
  H  H113  1  0.235900  0.008500  0.322600  1.0  0.0624
  H  H114  1  0.345300  0.103600  0.313300  1.0  0.1294
  H  H115  1  0.262200  0.156400  0.141100  1.0  0.1179
  H  H116  1  0.155500  0.061000  0.156400  1.0  0.0523
  H  H117  1  0.459000  0.166100  0.286700  1.0  0.1041
  H  H118  1  0.560900  0.269400  0.277600  1.0  0.0993
  H  H119  1  0.542900  0.380800  0.208500  1.0  0.1042
  H  H120  1  0.322400  0.277900  0.153400  1.0  0.0909
  H  H121  1  0.297600  0.495800  0.956500  1.0  0.0928
  H  H122  1  0.197800  0.588100  0.913100  1.0  0.0953
  H  H123  1  0.147100  0.701800  0.968800  1.0  0.0782
  H  H124  1  0.300400  0.639400  0.110800  1.0  0.1131
  H  H125  1  0.081900  0.783500  0.034600  1.0  0.1275
  H  H126  1  0.036100  0.889900  0.098000  1.0  0.072
  H  H127  1  0.228700  0.858400  0.208900  1.0  0.072
  H  H128  1  0.285400  0.759100  0.145100  1.0  0.1274
  H  H129  1  0.251400  0.475100  0.140800  1.0  0.3327
  H  H130  1  0.240400  0.396300  0.101400  1.0  0.3308
  H  H131  1  0.764100  0.991500  0.822600  1.0  0.063
  H  H132  1  0.654700  0.896400  0.813300  1.0  0.1294
  H  H133  1  0.737800  0.843600  0.641100  1.0  0.1177
  H  H134  1  0.844500  0.939000  0.656400  1.0  0.052
  H  H135  1  0.541000  0.833900  0.786700  1.0  0.105
  H  H136  1  0.439100  0.730600  0.777600  1.0  0.0991
  H  H137  1  0.457100  0.619200  0.708500  1.0  0.1045
  H  H138  1  0.677600  0.722100  0.653400  1.0  0.0905
  H  H139  1  0.702400  0.504200  0.456500  1.0  0.0942
  H  H140  1  0.802200  0.411900  0.413100  1.0  0.0959
  H  H141  1  0.852900  0.298200  0.468800  1.0  0.0784
  H  H142  1  0.699600  0.360600  0.610800  1.0  0.1132
  H  H143  1  0.918100  0.216500  0.534600  1.0  0.1272
  H  H144  1  0.963900  0.110100  0.598000  1.0  0.0722
  H  H145  1  0.771300  0.141600  0.708900  1.0  0.0724
  H  H146  1  0.714600  0.240900  0.645100  1.0  0.1272
  H  H147  1  0.748600  0.524900  0.640800  1.0  0.3337
  H  H148  1  0.759600  0.603700  0.601400  1.0  0.3317
  C  C149  1  0.039400  0.241400  0.714800  1.0  0.1613
  C  C150  1  0.096500  0.306800  0.719800  1.0  -0.2176
  C  C151  1  0.143400  0.315900  0.773800  1.0  0.09
  C  C152  1  0.127600  0.258100  0.820600  1.0  -0.228
  C  C153  1  0.069700  0.194800  0.811200  1.0  0.1752
  C  C154  1  0.210500  0.381600  0.779900  1.0  0.0229
  C  C155  1  0.209900  0.451900  0.742700  1.0  -0.1167
  C  C156  1  0.271800  0.512000  0.747600  1.0  -0.0873
  C  C157  1  0.337600  0.501800  0.788700  1.0  -0.0991
  C  C158  1  0.339400  0.430500  0.825800  1.0  0.0006
  C  C159  1  0.276200  0.371000  0.821200  1.0  -0.1334
  C  C160  1  0.409000  0.422100  0.869600  1.0  0.2217
  C  C161  1  0.505300  0.371500  0.931400  1.0  0.2268
  C  C162  1  0.560800  0.309100  0.961800  1.0  -0.0423
  C  C163  1  0.543300  0.278300  0.021100  1.0  -0.1093
  C  C164  1  0.598100  0.218300  0.046400  1.0  -0.0906
  C  C165  1  0.666000  0.188400  0.013500  1.0  -0.0961
  C  C166  1  0.682500  0.219400  0.953700  1.0  0.0189
  C  C167  1  0.628800  0.279300  0.929500  1.0  -0.132
  C  C168  1  0.754600  0.188800  0.916400  1.0  0.0933
  C  C169  1  0.797600  0.113300  0.929600  1.0  -0.1963
  C  C170  1  0.859600  0.085200  0.890700  1.0  0.1534
  C  C171  1  0.842200  0.198100  0.826800  1.0  0.1369
  C  C172  1  0.782200  0.231800  0.864400  1.0  -0.1972
  C  C173  1  0.960600  0.758600  0.214800  1.0  0.1616
  C  C174  1  0.903500  0.693200  0.219800  1.0  -0.218
  C  C175  1  0.856600  0.684100  0.273800  1.0  0.091
  C  C176  1  0.872400  0.741900  0.320600  1.0  -0.2284
  C  C177  1  0.930300  0.805200  0.311200  1.0  0.1756
  C  C178  1  0.789500  0.618400  0.279900  1.0  0.0219
  C  C179  1  0.790100  0.548100  0.242700  1.0  -0.1171
  C  C180  1  0.728200  0.488000  0.247600  1.0  -0.0886
  C  C181  1  0.662400  0.498200  0.288700  1.0  -0.0999
  C  C182  1  0.660600  0.569500  0.325800  1.0  0.001
  C  C183  1  0.723800  0.629000  0.321200  1.0  -0.1331
  C  C184  1  0.591000  0.577900  0.369600  1.0  0.2218
  C  C185  1  0.494700  0.628500  0.431400  1.0  0.2271
  C  C186  1  0.439200  0.690900  0.461800  1.0  -0.0412
  C  C187  1  0.456700  0.721700  0.521100  1.0  -0.1118
  C  C188  1  0.401900  0.781700  0.546400  1.0  -0.0907
  C  C189  1  0.334000  0.811600  0.513500  1.0  -0.098
  C  C190  1  0.317500  0.780600  0.453700  1.0  0.0196
  C  C191  1  0.371200  0.720700  0.429500  1.0  -0.1325
  C  C192  1  0.245400  0.811200  0.416400  1.0  0.0926
  C  C193  1  0.202400  0.886700  0.429600  1.0  -0.1968
  C  C194  1  0.140400  0.914800  0.390700  1.0  0.153
  C  C195  1  0.157800  0.801900  0.326800  1.0  0.1348
  C  C196  1  0.217800  0.768200  0.364400  1.0  -0.1966
  C  C197  1  0.258600  0.539400  0.464800  1.0  0.1612
  C  C198  1  0.193200  0.596500  0.469800  1.0  -0.2193
  C  C199  1  0.184100  0.643400  0.523800  1.0  0.0907
  C  C200  1  0.241900  0.627600  0.570600  1.0  -0.2269
  C  C201  1  0.305200  0.569700  0.561200  1.0  0.1766
  C  C202  1  0.118400  0.710500  0.529900  1.0  0.0219
  C  C203  1  0.048100  0.709900  0.492700  1.0  -0.1175
  C  C204  1  0.988000  0.771800  0.497600  1.0  -0.0899
  C  C205  1  0.998200  0.837600  0.538700  1.0  -0.0989
  C  C206  1  0.069500  0.839400  0.575800  1.0  0.0017
  C  C207  1  0.129000  0.776200  0.571200  1.0  -0.1342
  C  C208  1  0.077900  0.909000  0.619600  1.0  0.2219
  C  C209  1  0.128500  0.005300  0.681400  1.0  0.228
  C  C210  1  0.190900  0.060800  0.711800  1.0  -0.0415
  C  C211  1  0.221700  0.043300  0.771100  1.0  -0.1136
  C  C212  1  0.281700  0.098100  0.796400  1.0  -0.0906
  C  C213  1  0.311600  0.166000  0.763500  1.0  -0.0987
  C  C214  1  0.280600  0.182500  0.703700  1.0  0.0195
  C  C215  1  0.220700  0.128800  0.679500  1.0  -0.1318
  C  C216  1  0.311200  0.254600  0.666400  1.0  0.0921
  C  C217  1  0.386700  0.297600  0.679600  1.0  -0.1944
  C  C218  1  0.414800  0.359600  0.640700  1.0  0.1536
  C  C219  1  0.301900  0.342200  0.576800  1.0  0.138
  C  C220  1  0.268200  0.282200  0.614400  1.0  -0.1976
  C  C221  1  0.741400  0.460600  0.964800  1.0  0.1623
  C  C222  1  0.806800  0.403500  0.969800  1.0  -0.218
  C  C223  1  0.815900  0.356600  0.023800  1.0  0.0897
  C  C224  1  0.758100  0.372400  0.070600  1.0  -0.2271
  C  C225  1  0.694800  0.430300  0.061200  1.0  0.1756
  C  C226  1  0.881600  0.289500  0.029900  1.0  0.0203
  C  C227  1  0.951900  0.290100  0.992700  1.0  -0.1172
  C  C228  1  0.012000  0.228200  0.997600  1.0  -0.0896
  C  C229  1  0.001800  0.162400  0.038700  1.0  -0.0975
  C  C230  1  0.930500  0.160600  0.075800  1.0  0.0016
  C  C231  1  0.871000  0.223800  0.071200  1.0  -0.135
  C  C232  1  0.922100  0.091000  0.119600  1.0  0.222
  C  C233  1  0.871500  0.994700  0.181400  1.0  0.2274
  C  C234  1  0.809100  0.939200  0.211800  1.0  -0.0418
  C  C235  1  0.778300  0.956700  0.271100  1.0  -0.1112
  C  C236  1  0.718300  0.901900  0.296400  1.0  -0.0903
  C  C237  1  0.688400  0.834000  0.263500  1.0  -0.0976
  C  C238  1  0.719400  0.817500  0.203700  1.0  0.0189
  C  C239  1  0.779300  0.871200  0.179500  1.0  -0.1317
  C  C240  1  0.688800  0.745400  0.166400  1.0  0.0933
  C  C241  1  0.613300  0.702400  0.179600  1.0  -0.1954
  C  C242  1  0.585200  0.640400  0.140700  1.0  0.154
  C  C243  1  0.698100  0.657800  0.076800  1.0  0.1376
  C  C244  1  0.731800  0.717800  0.114400  1.0  -0.1973
  C  C245  1  0.460600  0.741400  0.035200  1.0  0.1621
  C  C246  1  0.403500  0.806800  0.030200  1.0  -0.2183
  C  C247  1  0.356600  0.815900  0.976200  1.0  0.0903
  C  C248  1  0.372400  0.758100  0.929400  1.0  -0.2279
  C  C249  1  0.430300  0.694800  0.938800  1.0  0.1751
  C  C250  1  0.289500  0.881600  0.970100  1.0  0.0231
  C  C251  1  0.290100  0.951900  0.007300  1.0  -0.1174
  C  C252  1  0.228200  0.012000  0.002400  1.0  -0.0883
  C  C253  1  0.162400  0.001800  0.961300  1.0  -0.0991
  C  C254  1  0.160600  0.930500  0.924200  1.0  0.0007
  C  C255  1  0.223800  0.871000  0.928800  1.0  -0.1336
  C  C256  1  0.091000  0.922100  0.880400  1.0  0.2218
  C  C257  1  0.994700  0.871500  0.818600  1.0  0.2277
  C  C258  1  0.939200  0.809100  0.788200  1.0  -0.0418
  C  C259  1  0.956700  0.778300  0.728900  1.0  -0.1123
  C  C260  1  0.901900  0.718300  0.703600  1.0  -0.0903
  C  C261  1  0.834000  0.688400  0.736500  1.0  -0.0968
  C  C262  1  0.817500  0.719400  0.796300  1.0  0.0185
  C  C263  1  0.871200  0.779300  0.820500  1.0  -0.1322
  C  C264  1  0.745400  0.688800  0.833600  1.0  0.0922
  C  C265  1  0.702400  0.613300  0.820400  1.0  -0.1963
  C  C266  1  0.640400  0.585200  0.859300  1.0  0.1528
  C  C267  1  0.657800  0.698100  0.923200  1.0  0.1347
  C  C268  1  0.717800  0.731800  0.885600  1.0  -0.197
  C  C269  1  0.539400  0.258600  0.535200  1.0  0.1616
  C  C270  1  0.596500  0.193200  0.530200  1.0  -0.2185
  C  C271  1  0.643400  0.184100  0.476200  1.0  0.0903
  C  C272  1  0.627600  0.241900  0.429400  1.0  -0.2274
  C  C273  1  0.569700  0.305200  0.438800  1.0  0.1749
  C  C274  1  0.710500  0.118400  0.470100  1.0  0.0225
  C  C275  1  0.709900  0.048100  0.507300  1.0  -0.116
  C  C276  1  0.771800  0.988000  0.502400  1.0  -0.0883
  C  C277  1  0.837600  0.998200  0.461300  1.0  -0.1001
  C  C278  1  0.839400  0.069500  0.424200  1.0  0.0006
  C  C279  1  0.776200  0.129000  0.428800  1.0  -0.1337
  C  C280  1  0.909000  0.077900  0.380400  1.0  0.2211
  C  C281  1  0.005300  0.128500  0.318600  1.0  0.2271
  C  C282  1  0.060800  0.190900  0.288200  1.0  -0.0419
  C  C283  1  0.043300  0.221700  0.228900  1.0  -0.1093
  C  C284  1  0.098100  0.281700  0.203600  1.0  -0.0898
  C  C285  1  0.166000  0.311600  0.236500  1.0  -0.0972
  C  C286  1  0.182500  0.280600  0.296300  1.0  0.0186
  C  C287  1  0.128800  0.220700  0.320500  1.0  -0.1328
  C  C288  1  0.254600  0.311200  0.333600  1.0  0.0927
  C  C289  1  0.297600  0.386700  0.320400  1.0  -0.1971
  C  C290  1  0.359600  0.414800  0.359300  1.0  0.1532
  C  C291  1  0.342200  0.301900  0.423200  1.0  0.1367
  C  C292  1  0.282200  0.268200  0.385600  1.0  -0.1977
  C  C293  1  0.241400  0.039400  0.285200  1.0  0.1625
  C  C294  1  0.306800  0.096500  0.280200  1.0  -0.2197
  C  C295  1  0.315900  0.143400  0.226200  1.0  0.0901
  C  C296  1  0.258100  0.127600  0.179400  1.0  -0.226
  C  C297  1  0.194800  0.069700  0.188800  1.0  0.1759
  C  C298  1  0.381600  0.210500  0.220100  1.0  0.0217
  C  C299  1  0.451900  0.209900  0.257300  1.0  -0.1173
  C  C300  1  0.512000  0.271800  0.252400  1.0  -0.0888
  C  C301  1  0.501800  0.337600  0.211300  1.0  -0.0981
  C  C302  1  0.430500  0.339400  0.174200  1.0  0.0016
  C  C303  1  0.371000  0.276200  0.178800  1.0  -0.1343
  C  C304  1  0.422100  0.409000  0.130400  1.0  0.2218
  C  C305  1  0.371500  0.505300  0.068600  1.0  0.2277
  C  C306  1  0.309100  0.560800  0.038200  1.0  -0.0421
  C  C307  1  0.278300  0.543300  0.978900  1.0  -0.1134
  C  C308  1  0.218300  0.598100  0.953600  1.0  -0.0899
  C  C309  1  0.188400  0.666000  0.986500  1.0  -0.0978
  C  C310  1  0.219400  0.682500  0.046300  1.0  0.0185
  C  C311  1  0.279300  0.628800  0.070500  1.0  -0.1322
  C  C312  1  0.188800  0.754600  0.083600  1.0  0.0924
  C  C313  1  0.113300  0.797600  0.070400  1.0  -0.1956
  C  C314  1  0.085200  0.859600  0.109300  1.0  0.1539
  C  C315  1  0.198100  0.842200  0.173200  1.0  0.1371
  C  C316  1  0.231800  0.782200  0.135600  1.0  -0.1978
  C  C317  1  0.758600  0.960600  0.785200  1.0  0.1618
  C  C318  1  0.693200  0.903500  0.780200  1.0  -0.2198
  C  C319  1  0.684100  0.856600  0.726200  1.0  0.091
  C  C320  1  0.741900  0.872400  0.679400  1.0  -0.2265
  C  C321  1  0.805200  0.930300  0.688800  1.0  0.1764
  C  C322  1  0.618400  0.789500  0.720100  1.0  0.0217
  C  C323  1  0.548100  0.790100  0.757300  1.0  -0.1175
  C  C324  1  0.488000  0.728200  0.752400  1.0  -0.0898
  C  C325  1  0.498200  0.662400  0.711300  1.0  -0.0986
  C  C326  1  0.569500  0.660600  0.674200  1.0  0.0011
  C  C327  1  0.629000  0.723800  0.678800  1.0  -0.1345
  C  C328  1  0.577900  0.591000  0.630400  1.0  0.2217
  C  C329  1  0.628500  0.494700  0.568600  1.0  0.2285
  C  C330  1  0.690900  0.439200  0.538200  1.0  -0.0413
  C  C331  1  0.721700  0.456700  0.478900  1.0  -0.1129
  C  C332  1  0.781700  0.401900  0.453600  1.0  -0.0899
  C  C333  1  0.811600  0.334000  0.486500  1.0  -0.0987
  C  C334  1  0.780600  0.317500  0.546300  1.0  0.019
  C  C335  1  0.720700  0.371200  0.570500  1.0  -0.132
  C  C336  1  0.811200  0.245400  0.583600  1.0  0.0925
  C  C337  1  0.886700  0.202400  0.570400  1.0  -0.195
  C  C338  1  0.914800  0.140400  0.609300  1.0  0.1533
  C  C339  1  0.801900  0.157800  0.673200  1.0  0.1378
  C  C340  1  0.768200  0.217800  0.635600  1.0  -0.1979
  N  N341  1  0.025600  0.185200  0.759900  1.0  -0.3639
  N  N342  1  0.447000  0.486600  0.896600  1.0  -0.2968
  N  N343  1  0.506700  0.454500  0.935300  1.0  -0.2237
  N  N344  1  0.444200  0.349000  0.890800  1.0  0.082
  N  N345  1  0.424300  0.267500  0.870400  1.0  -0.5682
  N  N346  1  0.879800  0.123300  0.837600  1.0  -0.3638
  N  N347  1  0.974400  0.814800  0.259900  1.0  -0.3632
  N  N348  1  0.553000  0.513400  0.396600  1.0  -0.2964
  N  N349  1  0.493300  0.545500  0.435300  1.0  -0.2227
  N  N350  1  0.555800  0.651000  0.390800  1.0  0.0826
  N  N351  1  0.575700  0.732500  0.370400  1.0  -0.5683
  N  N352  1  0.120200  0.876700  0.337600  1.0  -0.3631
  N  N353  1  0.314800  0.525600  0.509900  1.0  -0.3633
  N  N354  1  0.013400  0.947000  0.646600  1.0  -0.2968
  N  N355  1  0.045500  0.006700  0.685300  1.0  -0.2235
  N  N356  1  0.151000  0.944200  0.640800  1.0  0.083
  N  N357  1  0.232500  0.924300  0.620400  1.0  -0.5672
  N  N358  1  0.376700  0.379800  0.587600  1.0  -0.3634
  N  N359  1  0.685200  0.474400  0.009900  1.0  -0.3635
  N  N360  1  0.986600  0.053000  0.146600  1.0  -0.2973
  N  N361  1  0.954500  0.993300  0.185300  1.0  -0.2236
  N  N362  1  0.849000  0.055800  0.140800  1.0  0.0827
  N  N363  1  0.767500  0.075700  0.120400  1.0  -0.5683
  N  N364  1  0.623300  0.620200  0.087600  1.0  -0.3645
  N  N365  1  0.474400  0.685200  0.990100  1.0  -0.3636
  N  N366  1  0.053000  0.986600  0.853400  1.0  -0.2962
  N  N367  1  0.993300  0.954500  0.814700  1.0  -0.2233
  N  N368  1  0.055800  0.849000  0.859200  1.0  0.0828
  N  N369  1  0.075700  0.767500  0.879600  1.0  -0.5683
  N  N370  1  0.620200  0.623300  0.912400  1.0  -0.3635
  N  N371  1  0.525600  0.314800  0.490100  1.0  -0.3638
  N  N372  1  0.947000  0.013400  0.353400  1.0  -0.2967
  N  N373  1  0.006700  0.045500  0.314700  1.0  -0.2231
  N  N374  1  0.944200  0.151000  0.359200  1.0  0.0822
  N  N375  1  0.924300  0.232500  0.379600  1.0  -0.5679
  N  N376  1  0.379800  0.376700  0.412400  1.0  -0.3624
  N  N377  1  0.185200  0.025600  0.240100  1.0  -0.3634
  N  N378  1  0.486600  0.447000  0.103400  1.0  -0.2972
  N  N379  1  0.454500  0.506700  0.064700  1.0  -0.2237
  N  N380  1  0.349000  0.444200  0.109200  1.0  0.0825
  N  N381  1  0.267500  0.424300  0.129600  1.0  -0.5675
  N  N382  1  0.123300  0.879800  0.162400  1.0  -0.3637
  N  N383  1  0.814800  0.974400  0.740100  1.0  -0.3645
  N  N384  1  0.513400  0.553000  0.603400  1.0  -0.2966
  N  N385  1  0.545500  0.493300  0.564700  1.0  -0.2238
  N  N386  1  0.651000  0.555800  0.609200  1.0  0.083
  N  N387  1  0.732500  0.575700  0.629600  1.0  -0.5671
  N  N388  1  0.876700  0.120200  0.662400  1.0  -0.3628
  Cl  Cl389  1  0.876120  0.876120  0.000000  1.0  1.9216
  Cl  Cl390  1  0.123880  0.123880  0.500000  1.0  1.9226
  Cl  Cl391  1  0.623880  0.376120  0.750000  1.0  1.9225
  Cl  Cl392  1  0.376120  0.623880  0.250000  1.0  1.9217
  O  O393  1  0.808900  0.882400  0.970100  1.0  -0.7227
  O  O394  1  0.925900  0.865600  0.955800  1.0  -0.6626
  O  O395  1  0.882400  0.808900  0.029900  1.0  -0.7216
  O  O396  1  0.865600  0.925900  0.044200  1.0  -0.6626
  O  O397  1  0.191100  0.117600  0.470100  1.0  -0.7214
  O  O398  1  0.074100  0.134400  0.455800  1.0  -0.6612
  O  O399  1  0.117600  0.191100  0.529900  1.0  -0.7204
  O  O400  1  0.134400  0.074100  0.544200  1.0  -0.6618
  O  O401  1  0.617600  0.308900  0.720100  1.0  -0.7213
  O  O402  1  0.634400  0.425900  0.705800  1.0  -0.6618
  O  O403  1  0.691100  0.382400  0.779900  1.0  -0.721
  O  O404  1  0.574100  0.365600  0.794200  1.0  -0.6614
  O  O405  1  0.382400  0.691100  0.220100  1.0  -0.7207
  O  O406  1  0.365600  0.574100  0.205800  1.0  -0.6618
  O  O407  1  0.308900  0.617600  0.279900  1.0  -0.7231
  O  O408  1  0.425900  0.634400  0.294200  1.0  -0.6626
