# generated using pymatgen
data_CdH36C48N12ClO4
_symmetry_space_group_name_H-M   'P 1'
_cell_length_a   15.86380000
_cell_length_b   15.86380000
_cell_length_c   21.56800000
_cell_angle_alpha   90.00000000
_cell_angle_beta   90.00000000
_cell_angle_gamma   90.00000000
_symmetry_Int_Tables_number   1
_chemical_formula_structural   CdH36C48N12ClO4
_chemical_formula_sum   'Cd4 H144 C192 N48 Cl4 O16'
_cell_volume   5427.80612469
_cell_formula_units_Z   4
loop_
 _symmetry_equiv_pos_site_id
 _symmetry_equiv_pos_as_xyz
  1  'x, y, z'
loop_
 _atom_site_type_symbol
 _atom_site_label
 _atom_site_symmetry_multiplicity
 _atom_site_fract_x
 _atom_site_fract_y
 _atom_site_fract_z
 _atom_site_occupancy
 _atom_site_charge
  Cd  Cd1  1  0.059160  0.940840  0.750000  1.0  0.7915
  Cd  Cd2  1  0.940840  0.059160  0.250000  1.0  0.7917
  Cd  Cd3  1  0.559160  0.559160  0.500000  1.0  0.7915
  Cd  Cd4  1  0.440840  0.440840  0.000000  1.0  0.7916
  H  H5  1  0.938400  0.842700  0.841800  1.0  0.051
  H  H6  1  0.844400  0.735600  0.857300  1.0  0.1199
  H  H7  1  0.899700  0.650400  0.687300  1.0  0.1172
  H  H8  1  0.994000  0.761400  0.676200  1.0  0.0665
  H  H9  1  0.721100  0.676000  0.843700  1.0  0.0811
  H  H10  1  0.619500  0.455700  0.789600  1.0  0.1028
  H  H11  1  0.735200  0.432200  0.726100  1.0  0.0992
  H  H12  1  0.834500  0.536100  0.711200  1.0  0.1031
  H  H13  1  0.509200  0.704800  0.040600  1.0  0.1009
  H  H14  1  0.415400  0.799900  0.085200  1.0  0.0941
  H  H15  1  0.298200  0.851200  0.030700  1.0  0.0822
  H  H16  1  0.359000  0.695400  0.888700  1.0  0.1204
  H  H17  1  0.238300  0.713000  0.854900  1.0  0.1141
  H  H18  1  0.139500  0.769100  0.791100  1.0  0.071
  H  H19  1  0.112500  0.964100  0.900200  1.0  0.0768
  H  H20  1  0.213700  0.915000  0.967500  1.0  0.1313
  H  H21  1  0.527600  0.756700  0.855100  1.0  0.3171
  H  H22  1  0.598900  0.761000  0.899700  1.0  0.3129
  H  H23  1  0.061600  0.157300  0.341800  1.0  0.0514
  H  H24  1  0.155600  0.264400  0.357300  1.0  0.1198
  H  H25  1  0.100300  0.349600  0.187300  1.0  0.1166
  H  H26  1  0.006000  0.238600  0.176200  1.0  0.0662
  H  H27  1  0.278900  0.324000  0.343700  1.0  0.0817
  H  H28  1  0.380500  0.544300  0.289600  1.0  0.1024
  H  H29  1  0.264800  0.567800  0.226100  1.0  0.0993
  H  H30  1  0.165500  0.463900  0.211200  1.0  0.1036
  H  H31  1  0.490800  0.295200  0.540600  1.0  0.1005
  H  H32  1  0.584600  0.200100  0.585200  1.0  0.0943
  H  H33  1  0.701800  0.148800  0.530700  1.0  0.0822
  H  H34  1  0.641000  0.304600  0.388700  1.0  0.1206
  H  H35  1  0.761700  0.287000  0.354900  1.0  0.1144
  H  H36  1  0.860500  0.230900  0.291100  1.0  0.071
  H  H37  1  0.887500  0.035900  0.400200  1.0  0.077
  H  H38  1  0.786300  0.085000  0.467500  1.0  0.1318
  H  H39  1  0.472400  0.243300  0.355100  1.0  0.319
  H  H40  1  0.401100  0.239000  0.399700  1.0  0.3135
  H  H41  1  0.657300  0.438400  0.591800  1.0  0.0504
  H  H42  1  0.764400  0.344400  0.607300  1.0  0.1199
  H  H43  1  0.849600  0.399700  0.437300  1.0  0.1152
  H  H44  1  0.738600  0.494000  0.426200  1.0  0.066
  H  H45  1  0.824000  0.221100  0.593700  1.0  0.0811
  H  H46  1  0.044300  0.119500  0.539600  1.0  0.103
  H  H47  1  0.067800  0.235200  0.476100  1.0  0.0983
  H  H48  1  0.963900  0.334500  0.461200  1.0  0.1035
  H  H49  1  0.795200  0.009200  0.790600  1.0  0.101
  H  H50  1  0.700100  0.915400  0.835200  1.0  0.0934
  H  H51  1  0.648800  0.798200  0.780700  1.0  0.0813
  H  H52  1  0.804600  0.859000  0.638700  1.0  0.1209
  H  H53  1  0.787000  0.738300  0.604900  1.0  0.1143
  H  H54  1  0.730900  0.639500  0.541100  1.0  0.0713
  H  H55  1  0.535900  0.612500  0.650200  1.0  0.0764
  H  H56  1  0.585000  0.713700  0.717500  1.0  0.1307
  H  H57  1  0.743300  0.027600  0.605100  1.0  0.3161
  H  H58  1  0.739000  0.098900  0.649700  1.0  0.3133
  H  H59  1  0.342700  0.561600  0.091800  1.0  0.0501
  H  H60  1  0.235600  0.655600  0.107300  1.0  0.1199
  H  H61  1  0.150400  0.600300  0.937300  1.0  0.1166
  H  H62  1  0.261400  0.506000  0.926200  1.0  0.0661
  H  H63  1  0.176000  0.778900  0.093700  1.0  0.0808
  H  H64  1  0.955700  0.880500  0.039600  1.0  0.1029
  H  H65  1  0.932200  0.764800  0.976100  1.0  0.0985
  H  H66  1  0.036100  0.665500  0.961200  1.0  0.1031
  H  H67  1  0.204800  0.990800  0.290600  1.0  0.101
  H  H68  1  0.299900  0.084600  0.335200  1.0  0.0929
  H  H69  1  0.351200  0.201800  0.280700  1.0  0.0815
  H  H70  1  0.195400  0.141000  0.138700  1.0  0.1205
  H  H71  1  0.213000  0.261700  0.104900  1.0  0.1138
  H  H72  1  0.269100  0.360500  0.041100  1.0  0.0708
  H  H73  1  0.464100  0.387500  0.150200  1.0  0.0761
  H  H74  1  0.415000  0.286300  0.217500  1.0  0.1306
  H  H75  1  0.256700  0.972400  0.105100  1.0  0.3157
  H  H76  1  0.261000  0.901100  0.149700  1.0  0.3123
  H  H77  1  0.561600  0.342700  0.908200  1.0  0.051
  H  H78  1  0.655600  0.235600  0.892700  1.0  0.1204
  H  H79  1  0.600300  0.150400  0.062700  1.0  0.1175
  H  H80  1  0.506000  0.261400  0.073800  1.0  0.0656
  H  H81  1  0.778900  0.176000  0.906300  1.0  0.0821
  H  H82  1  0.880500  0.955700  0.960400  1.0  0.1028
  H  H83  1  0.764800  0.932200  0.023900  1.0  0.0996
  H  H84  1  0.665500  0.036100  0.038800  1.0  0.1032
  H  H85  1  0.990800  0.204800  0.709400  1.0  0.1005
  H  H86  1  0.084600  0.299900  0.664800  1.0  0.0943
  H  H87  1  0.201800  0.351200  0.719300  1.0  0.0825
  H  H88  1  0.141000  0.195400  0.861300  1.0  0.1208
  H  H89  1  0.261700  0.213000  0.895100  1.0  0.1147
  H  H90  1  0.360500  0.269100  0.958900  1.0  0.0715
  H  H91  1  0.387500  0.464100  0.849800  1.0  0.0764
  H  H92  1  0.286300  0.415000  0.782500  1.0  0.1321
  H  H93  1  0.972400  0.256700  0.894900  1.0  0.3182
  H  H94  1  0.901100  0.261000  0.850300  1.0  0.3123
  H  H95  1  0.438400  0.657300  0.408200  1.0  0.0514
  H  H96  1  0.344400  0.764400  0.392700  1.0  0.1206
  H  H97  1  0.399700  0.849600  0.562700  1.0  0.1164
  H  H98  1  0.494000  0.738600  0.573800  1.0  0.0656
  H  H99  1  0.221100  0.824000  0.406300  1.0  0.0817
  H  H100  1  0.119500  0.044300  0.460400  1.0  0.1028
  H  H101  1  0.235200  0.067800  0.523900  1.0  0.0994
  H  H102  1  0.334500  0.963900  0.538800  1.0  0.1031
  H  H103  1  0.009200  0.795200  0.209400  1.0  0.1008
  H  H104  1  0.915400  0.700100  0.164800  1.0  0.0943
  H  H105  1  0.798200  0.648800  0.219300  1.0  0.0825
  H  H106  1  0.859000  0.804600  0.361300  1.0  0.1206
  H  H107  1  0.738300  0.787000  0.395100  1.0  0.1146
  H  H108  1  0.639500  0.730900  0.458900  1.0  0.0711
  H  H109  1  0.612500  0.535900  0.349800  1.0  0.0762
  H  H110  1  0.713700  0.585000  0.282500  1.0  0.1308
  H  H111  1  0.027600  0.743300  0.394900  1.0  0.3166
  H  H112  1  0.098900  0.739000  0.350300  1.0  0.3127
  H  H113  1  0.842700  0.938400  0.158200  1.0  0.0499
  H  H114  1  0.735600  0.844400  0.142700  1.0  0.1205
  H  H115  1  0.650400  0.899700  0.312700  1.0  0.1158
  H  H116  1  0.761400  0.994000  0.323800  1.0  0.0653
  H  H117  1  0.676000  0.721100  0.156300  1.0  0.0813
  H  H118  1  0.455700  0.619500  0.210400  1.0  0.103
  H  H119  1  0.432200  0.735200  0.273900  1.0  0.0986
  H  H120  1  0.536100  0.834500  0.288800  1.0  0.1035
  H  H121  1  0.704800  0.509200  0.959400  1.0  0.1014
  H  H122  1  0.799900  0.415400  0.914800  1.0  0.0935
  H  H123  1  0.851200  0.298200  0.969300  1.0  0.0816
  H  H124  1  0.695400  0.359000  0.111300  1.0  0.1211
  H  H125  1  0.713000  0.238300  0.145100  1.0  0.1145
  H  H126  1  0.769100  0.139500  0.208900  1.0  0.0709
  H  H127  1  0.964100  0.112500  0.099800  1.0  0.0759
  H  H128  1  0.915000  0.213700  0.032500  1.0  0.1307
  H  H129  1  0.756700  0.527600  0.144900  1.0  0.3167
  H  H130  1  0.761000  0.598900  0.100300  1.0  0.3123
  H  H131  1  0.157300  0.061600  0.658200  1.0  0.0501
  H  H132  1  0.264400  0.155600  0.642700  1.0  0.1207
  H  H133  1  0.349600  0.100300  0.812700  1.0  0.116
  H  H134  1  0.238600  0.006000  0.823800  1.0  0.065
  H  H135  1  0.324000  0.278900  0.656300  1.0  0.0815
  H  H136  1  0.544300  0.380500  0.710400  1.0  0.1026
  H  H137  1  0.567800  0.264800  0.773900  1.0  0.0982
  H  H138  1  0.463900  0.165500  0.788800  1.0  0.1026
  H  H139  1  0.295200  0.490800  0.459400  1.0  0.1007
  H  H140  1  0.200100  0.584600  0.414800  1.0  0.0937
  H  H141  1  0.148800  0.701800  0.469300  1.0  0.0814
  H  H142  1  0.304600  0.641000  0.611300  1.0  0.1213
  H  H143  1  0.287000  0.761700  0.645100  1.0  0.1146
  H  H144  1  0.230900  0.860500  0.708900  1.0  0.0712
  H  H145  1  0.035900  0.887500  0.599800  1.0  0.0759
  H  H146  1  0.085000  0.786300  0.532500  1.0  0.131
  H  H147  1  0.243300  0.472400  0.644900  1.0  0.3163
  H  H148  1  0.239000  0.401100  0.600300  1.0  0.3118
  C  C149  1  0.930600  0.803100  0.809300  1.0  0.1744
  C  C150  1  0.873300  0.739800  0.818800  1.0  -0.2307
  C  C151  1  0.857800  0.681400  0.771700  1.0  0.1029
  C  C152  1  0.905400  0.690200  0.720000  1.0  -0.2049
  C  C153  1  0.962900  0.756400  0.713600  1.0  0.1484
  C  C154  1  0.791900  0.616100  0.778700  1.0  0.0187
  C  C155  1  0.723800  0.626500  0.819100  1.0  -0.1216
  C  C156  1  0.660800  0.567700  0.824500  1.0  -0.0036
  C  C157  1  0.663700  0.495900  0.787700  1.0  -0.0999
  C  C158  1  0.731000  0.483500  0.748600  1.0  -0.093
  C  C159  1  0.791800  0.543500  0.741600  1.0  -0.1243
  C  C160  1  0.591500  0.574900  0.867400  1.0  0.2488
  C  C161  1  0.495100  0.627300  0.931000  1.0  0.2287
  C  C162  1  0.441000  0.689500  0.961700  1.0  -0.0362
  C  C163  1  0.459900  0.721800  0.019000  1.0  -0.1343
  C  C164  1  0.405000  0.779900  0.044400  1.0  -0.0898
  C  C165  1  0.334200  0.810400  0.012200  1.0  -0.0978
  C  C166  1  0.318300  0.780500  0.954000  1.0  0.0286
  C  C167  1  0.371100  0.718100  0.928500  1.0  -0.1301
  C  C168  1  0.246400  0.809900  0.916100  1.0  0.0826
  C  C169  1  0.216200  0.767200  0.864200  1.0  -0.1868
  C  C170  1  0.156400  0.800300  0.826600  1.0  0.1331
  C  C171  1  0.141200  0.913500  0.889900  1.0  0.1552
  C  C172  1  0.201800  0.884900  0.930400  1.0  -0.2047
  C  C173  1  0.069400  0.196900  0.309300  1.0  0.1738
  C  C174  1  0.126700  0.260200  0.318800  1.0  -0.2304
  C  C175  1  0.142200  0.318600  0.271700  1.0  0.1028
  C  C176  1  0.094600  0.309800  0.220000  1.0  -0.2042
  C  C177  1  0.037100  0.243600  0.213600  1.0  0.148
  C  C178  1  0.208100  0.383900  0.278700  1.0  0.021
  C  C179  1  0.276200  0.373500  0.319100  1.0  -0.1218
  C  C180  1  0.339200  0.432300  0.324500  1.0  -0.0035
  C  C181  1  0.336300  0.504100  0.287700  1.0  -0.0992
  C  C182  1  0.269000  0.516500  0.248600  1.0  -0.092
  C  C183  1  0.208200  0.456500  0.241600  1.0  -0.1238
  C  C184  1  0.408500  0.425100  0.367400  1.0  0.2486
  C  C185  1  0.504900  0.372700  0.431000  1.0  0.2289
  C  C186  1  0.559000  0.310500  0.461700  1.0  -0.0368
  C  C187  1  0.540100  0.278200  0.519000  1.0  -0.1325
  C  C188  1  0.595000  0.220100  0.544400  1.0  -0.0909
  C  C189  1  0.665800  0.189600  0.512200  1.0  -0.1032
  C  C190  1  0.681700  0.219500  0.454000  1.0  0.0287
  C  C191  1  0.628900  0.281900  0.428500  1.0  -0.1293
  C  C192  1  0.753600  0.190100  0.416100  1.0  0.0823
  C  C193  1  0.783800  0.232800  0.364200  1.0  -0.1874
  C  C194  1  0.843600  0.199700  0.326600  1.0  0.1355
  C  C195  1  0.858800  0.086500  0.389900  1.0  0.1553
  C  C196  1  0.798200  0.115100  0.430400  1.0  -0.2042
  C  C197  1  0.696900  0.430600  0.559300  1.0  0.1747
  C  C198  1  0.760200  0.373300  0.568800  1.0  -0.229
  C  C199  1  0.818600  0.357800  0.521700  1.0  0.1027
  C  C200  1  0.809800  0.405400  0.470000  1.0  -0.2037
  C  C201  1  0.743600  0.462900  0.463600  1.0  0.1504
  C  C202  1  0.883900  0.291900  0.528700  1.0  0.0177
  C  C203  1  0.873500  0.223800  0.569100  1.0  -0.1235
  C  C204  1  0.932300  0.160800  0.574500  1.0  -0.0027
  C  C205  1  0.004100  0.163700  0.537700  1.0  -0.0999
  C  C206  1  0.016500  0.231000  0.498600  1.0  -0.0947
  C  C207  1  0.956500  0.291800  0.491600  1.0  -0.1241
  C  C208  1  0.925100  0.091500  0.617400  1.0  0.2498
  C  C209  1  0.872700  0.995100  0.681000  1.0  0.2291
  C  C210  1  0.810500  0.941000  0.711700  1.0  -0.0364
  C  C211  1  0.778200  0.959900  0.769000  1.0  -0.1327
  C  C212  1  0.720100  0.905000  0.794400  1.0  -0.0905
  C  C213  1  0.689600  0.834200  0.762200  1.0  -0.1003
  C  C214  1  0.719500  0.818300  0.704000  1.0  0.0288
  C  C215  1  0.781900  0.871100  0.678500  1.0  -0.1283
  C  C216  1  0.690100  0.746400  0.666100  1.0  0.0827
  C  C217  1  0.732800  0.716200  0.614200  1.0  -0.1886
  C  C218  1  0.699700  0.656400  0.576600  1.0  0.1359
  C  C219  1  0.586500  0.641200  0.639900  1.0  0.1557
  C  C220  1  0.615100  0.701800  0.680400  1.0  -0.2015
  C  C221  1  0.303100  0.569400  0.059300  1.0  0.1747
  C  C222  1  0.239800  0.626700  0.068800  1.0  -0.2302
  C  C223  1  0.181400  0.642200  0.021700  1.0  0.103
  C  C224  1  0.190200  0.594600  0.970000  1.0  -0.204
  C  C225  1  0.256400  0.537100  0.963600  1.0  0.1502
  C  C226  1  0.116100  0.708100  0.028700  1.0  0.0193
  C  C227  1  0.126500  0.776200  0.069100  1.0  -0.1236
  C  C228  1  0.067700  0.839200  0.074500  1.0  -0.0027
  C  C229  1  0.995900  0.836300  0.037700  1.0  -0.0997
  C  C230  1  0.983500  0.769000  0.998600  1.0  -0.0954
  C  C231  1  0.043500  0.708200  0.991600  1.0  -0.1242
  C  C232  1  0.074900  0.908500  0.117400  1.0  0.2497
  C  C233  1  0.127300  0.004900  0.181000  1.0  0.2295
  C  C234  1  0.189500  0.059000  0.211700  1.0  -0.0371
  C  C235  1  0.221800  0.040100  0.269000  1.0  -0.1304
  C  C236  1  0.279900  0.095000  0.294400  1.0  -0.0905
  C  C237  1  0.310400  0.165800  0.262200  1.0  -0.1004
  C  C238  1  0.280500  0.181700  0.204000  1.0  0.0279
  C  C239  1  0.218100  0.128900  0.178500  1.0  -0.129
  C  C240  1  0.309900  0.253600  0.166100  1.0  0.0823
  C  C241  1  0.267200  0.283800  0.114200  1.0  -0.1885
  C  C242  1  0.300300  0.343600  0.076600  1.0  0.1364
  C  C243  1  0.413500  0.358800  0.139900  1.0  0.1555
  C  C244  1  0.384900  0.298200  0.180400  1.0  -0.2013
  C  C245  1  0.569400  0.303100  0.940700  1.0  0.1741
  C  C246  1  0.626700  0.239800  0.931200  1.0  -0.2302
  C  C247  1  0.642200  0.181400  0.978300  1.0  0.1027
  C  C248  1  0.594600  0.190200  0.030000  1.0  -0.2041
  C  C249  1  0.537100  0.256400  0.036400  1.0  0.1484
  C  C250  1  0.708100  0.116100  0.971300  1.0  0.0191
  C  C251  1  0.776200  0.126500  0.930900  1.0  -0.1221
  C  C252  1  0.839200  0.067700  0.925500  1.0  -0.0039
  C  C253  1  0.836300  0.995900  0.962300  1.0  -0.1013
  C  C254  1  0.769000  0.983500  0.001400  1.0  -0.0928
  C  C255  1  0.708200  0.043500  0.008400  1.0  -0.1227
  C  C256  1  0.908500  0.074900  0.882600  1.0  0.2481
  C  C257  1  0.004900  0.127300  0.819000  1.0  0.2292
  C  C258  1  0.059000  0.189500  0.788300  1.0  -0.0366
  C  C259  1  0.040100  0.221800  0.731000  1.0  -0.1334
  C  C260  1  0.095000  0.279900  0.705600  1.0  -0.0899
  C  C261  1  0.165800  0.310400  0.737800  1.0  -0.0995
  C  C262  1  0.181700  0.280500  0.796000  1.0  0.0282
  C  C263  1  0.128900  0.218100  0.821500  1.0  -0.1309
  C  C264  1  0.253600  0.309900  0.833900  1.0  0.082
  C  C265  1  0.283800  0.267200  0.885800  1.0  -0.1882
  C  C266  1  0.343600  0.300300  0.923400  1.0  0.135
  C  C267  1  0.358800  0.413500  0.860100  1.0  0.1553
  C  C268  1  0.298200  0.384900  0.819600  1.0  -0.205
  C  C269  1  0.430600  0.696900  0.440700  1.0  0.1735
  C  C270  1  0.373300  0.760200  0.431200  1.0  -0.2303
  C  C271  1  0.357800  0.818600  0.478300  1.0  0.104
  C  C272  1  0.405400  0.809800  0.530000  1.0  -0.2044
  C  C273  1  0.462900  0.743600  0.536400  1.0  0.1487
  C  C274  1  0.291900  0.883900  0.471300  1.0  0.0206
  C  C275  1  0.223800  0.873500  0.430900  1.0  -0.1217
  C  C276  1  0.160800  0.932300  0.425500  1.0  -0.0036
  C  C277  1  0.163700  0.004100  0.462300  1.0  -0.0987
  C  C278  1  0.231000  0.016500  0.501400  1.0  -0.0927
  C  C279  1  0.291800  0.956500  0.508400  1.0  -0.1243
  C  C280  1  0.091500  0.925100  0.382600  1.0  0.2486
  C  C281  1  0.995100  0.872700  0.319000  1.0  0.2292
  C  C282  1  0.941000  0.810500  0.288300  1.0  -0.0362
  C  C283  1  0.959900  0.778200  0.231000  1.0  -0.1357
  C  C284  1  0.905000  0.720100  0.205600  1.0  -0.09
  C  C285  1  0.834200  0.689600  0.237800  1.0  -0.1005
  C  C286  1  0.818300  0.719500  0.296000  1.0  0.0282
  C  C287  1  0.871100  0.781900  0.321500  1.0  -0.132
  C  C288  1  0.746400  0.690100  0.333900  1.0  0.0822
  C  C289  1  0.716200  0.732800  0.385800  1.0  -0.1872
  C  C290  1  0.656400  0.699700  0.423400  1.0  0.1329
  C  C291  1  0.641200  0.586500  0.360100  1.0  0.1552
  C  C292  1  0.701800  0.615100  0.319600  1.0  -0.2051
  C  C293  1  0.803100  0.930600  0.190700  1.0  0.1746
  C  C294  1  0.739800  0.873300  0.181200  1.0  -0.2291
  C  C295  1  0.681400  0.857800  0.228300  1.0  0.103
  C  C296  1  0.690200  0.905400  0.280000  1.0  -0.2039
  C  C297  1  0.756400  0.962900  0.286400  1.0  0.1506
  C  C298  1  0.616100  0.791900  0.221300  1.0  0.019
  C  C299  1  0.626500  0.723800  0.180900  1.0  -0.1234
  C  C300  1  0.567700  0.660800  0.175500  1.0  -0.0031
  C  C301  1  0.495900  0.663700  0.212300  1.0  -0.1001
  C  C302  1  0.483500  0.731000  0.251400  1.0  -0.0961
  C  C303  1  0.543500  0.791800  0.258400  1.0  -0.1237
  C  C304  1  0.574900  0.591500  0.132600  1.0  0.2498
  C  C305  1  0.627300  0.495100  0.069000  1.0  0.23
  C  C306  1  0.689500  0.441000  0.038300  1.0  -0.0368
  C  C307  1  0.721800  0.459900  0.981000  1.0  -0.1321
  C  C308  1  0.779900  0.405000  0.955600  1.0  -0.0898
  C  C309  1  0.810400  0.334200  0.987800  1.0  -0.1003
  C  C310  1  0.780500  0.318300  0.046000  1.0  0.0274
  C  C311  1  0.718100  0.371100  0.071500  1.0  -0.1306
  C  C312  1  0.809900  0.246400  0.083900  1.0  0.0822
  C  C313  1  0.767200  0.216200  0.135800  1.0  -0.1889
  C  C314  1  0.800300  0.156400  0.173400  1.0  0.1359
  C  C315  1  0.913500  0.141200  0.110100  1.0  0.1554
  C  C316  1  0.884900  0.201800  0.069600  1.0  -0.202
  C  C317  1  0.196900  0.069400  0.690700  1.0  0.1749
  C  C318  1  0.260200  0.126700  0.681200  1.0  -0.229
  C  C319  1  0.318600  0.142200  0.728300  1.0  0.1039
  C  C320  1  0.309800  0.094600  0.780000  1.0  -0.2045
  C  C321  1  0.243600  0.037100  0.786400  1.0  0.151
  C  C322  1  0.383900  0.208100  0.721300  1.0  0.0192
  C  C323  1  0.373500  0.276200  0.680900  1.0  -0.1235
  C  C324  1  0.432300  0.339200  0.675500  1.0  -0.0028
  C  C325  1  0.504100  0.336300  0.712300  1.0  -0.1001
  C  C326  1  0.516500  0.269000  0.751400  1.0  -0.0936
  C  C327  1  0.456500  0.208200  0.758400  1.0  -0.1242
  C  C328  1  0.425100  0.408500  0.632600  1.0  0.2497
  C  C329  1  0.372700  0.504900  0.569000  1.0  0.2296
  C  C330  1  0.310500  0.559000  0.538300  1.0  -0.0366
  C  C331  1  0.278200  0.540100  0.481000  1.0  -0.134
  C  C332  1  0.220100  0.595000  0.455600  1.0  -0.0905
  C  C333  1  0.189600  0.665800  0.487800  1.0  -0.0998
  C  C334  1  0.219500  0.681700  0.546000  1.0  0.0289
  C  C335  1  0.281900  0.628900  0.571500  1.0  -0.1302
  C  C336  1  0.190100  0.753600  0.583900  1.0  0.082
  C  C337  1  0.232800  0.783800  0.635800  1.0  -0.189
  C  C338  1  0.199700  0.843600  0.673400  1.0  0.1355
  C  C339  1  0.086500  0.858800  0.610100  1.0  0.1558
  C  C340  1  0.115100  0.798200  0.569600  1.0  -0.2023
  N  N341  1  0.975500  0.813300  0.758800  1.0  -0.3676
  N  N342  1  0.493800  0.544300  0.933600  1.0  -0.2243
  N  N343  1  0.553900  0.512200  0.894800  1.0  -0.2732
  N  N344  1  0.556400  0.648500  0.889600  1.0  0.0762
  N  N345  1  0.575800  0.730900  0.868100  1.0  -0.5568
  N  N346  1  0.120100  0.874900  0.837200  1.0  -0.356
  N  N347  1  0.024500  0.186700  0.258800  1.0  -0.3676
  N  N348  1  0.506200  0.455700  0.433600  1.0  -0.2244
  N  N349  1  0.446100  0.487800  0.394800  1.0  -0.2738
  N  N350  1  0.443600  0.351500  0.389600  1.0  0.0764
  N  N351  1  0.424200  0.269100  0.368100  1.0  -0.556
  N  N352  1  0.879900  0.125100  0.337200  1.0  -0.357
  N  N353  1  0.686700  0.475500  0.508800  1.0  -0.3681
  N  N354  1  0.955700  0.993800  0.683600  1.0  -0.2244
  N  N355  1  0.987800  0.053900  0.644800  1.0  -0.274
  N  N356  1  0.851500  0.056400  0.639600  1.0  0.0765
  N  N357  1  0.769100  0.075800  0.618100  1.0  -0.5565
  N  N358  1  0.625100  0.620100  0.587200  1.0  -0.357
  N  N359  1  0.313300  0.524500  0.008800  1.0  -0.3673
  N  N360  1  0.044300  0.006200  0.183600  1.0  -0.2247
  N  N361  1  0.012200  0.946100  0.144800  1.0  -0.2723
  N  N362  1  0.148500  0.943600  0.139600  1.0  0.0773
  N  N363  1  0.230900  0.924200  0.118100  1.0  -0.5558
  N  N364  1  0.374900  0.379900  0.087200  1.0  -0.3568
  N  N365  1  0.524500  0.313300  0.991200  1.0  -0.3676
  N  N366  1  0.006200  0.044300  0.816400  1.0  -0.2239
  N  N367  1  0.946100  0.012200  0.855200  1.0  -0.2732
  N  N368  1  0.943600  0.148500  0.860400  1.0  0.0765
  N  N369  1  0.924200  0.230900  0.881900  1.0  -0.5571
  N  N370  1  0.379900  0.374900  0.912800  1.0  -0.3564
  N  N371  1  0.475500  0.686700  0.491200  1.0  -0.3667
  N  N372  1  0.993800  0.955700  0.316400  1.0  -0.2242
  N  N373  1  0.053900  0.987800  0.355200  1.0  -0.2727
  N  N374  1  0.056400  0.851500  0.360400  1.0  0.0762
  N  N375  1  0.075800  0.769100  0.381900  1.0  -0.5561
  N  N376  1  0.620100  0.625100  0.412800  1.0  -0.3568
  N  N377  1  0.813300  0.975500  0.241200  1.0  -0.3682
  N  N378  1  0.544300  0.493800  0.066400  1.0  -0.2249
  N  N379  1  0.512200  0.553900  0.105200  1.0  -0.2721
  N  N380  1  0.648500  0.556400  0.110400  1.0  0.0768
  N  N381  1  0.730900  0.575800  0.131900  1.0  -0.5556
  N  N382  1  0.874900  0.120100  0.162800  1.0  -0.3563
  N  N383  1  0.186700  0.024500  0.741200  1.0  -0.3678
  N  N384  1  0.455700  0.506200  0.566400  1.0  -0.2245
  N  N385  1  0.487800  0.446100  0.605200  1.0  -0.2733
  N  N386  1  0.351500  0.443600  0.610400  1.0  0.0764
  N  N387  1  0.269100  0.424200  0.631900  1.0  -0.5562
  N  N388  1  0.125100  0.879900  0.662800  1.0  -0.3575
  Cl  Cl389  1  0.623700  0.376300  0.250000  1.0  2.0015
  Cl  Cl390  1  0.376300  0.623700  0.750000  1.0  2.0022
  Cl  Cl391  1  0.123700  0.123700  0.000000  1.0  2.0014
  Cl  Cl392  1  0.876300  0.876300  0.500000  1.0  2.0021
  O  O393  1  0.619300  0.433500  0.211000  1.0  -0.7107
  O  O394  1  0.614300  0.308200  0.222400  1.0  -0.7117
  O  O395  1  0.566500  0.380700  0.289000  1.0  -0.7103
  O  O396  1  0.691800  0.385700  0.277600  1.0  -0.7098
  O  O397  1  0.380700  0.566500  0.711000  1.0  -0.7115
  O  O398  1  0.385700  0.691800  0.722400  1.0  -0.7097
  O  O399  1  0.433500  0.619300  0.789000  1.0  -0.7095
  O  O400  1  0.308200  0.614300  0.777600  1.0  -0.7105
  O  O401  1  0.066500  0.119300  0.961000  1.0  -0.7107
  O  O402  1  0.191800  0.114300  0.972400  1.0  -0.7104
  O  O403  1  0.119300  0.066500  0.039000  1.0  -0.7106
  O  O404  1  0.114300  0.191800  0.027600  1.0  -0.7091
  O  O405  1  0.933500  0.880700  0.461000  1.0  -0.71
  O  O406  1  0.808200  0.885700  0.472400  1.0  -0.7111
  O  O407  1  0.880700  0.933500  0.539000  1.0  -0.7116
  O  O408  1  0.885700  0.808200  0.527600  1.0  -0.7113
