# generated using pymatgen
data_CdH36C48N12(ClO4)2
_symmetry_space_group_name_H-M   'P 1'
_cell_length_a   15.86320000
_cell_length_b   15.86320000
_cell_length_c   21.76000000
_cell_angle_alpha   90.00000000
_cell_angle_beta   90.00000000
_cell_angle_gamma   90.00000000
_symmetry_Int_Tables_number   1
_chemical_formula_structural   CdH36C48N12(ClO4)2
_chemical_formula_sum   'Cd4 H144 C192 N48 Cl8 O32'
_cell_volume   5475.71064586
_cell_formula_units_Z   4
loop_
 _symmetry_equiv_pos_site_id
 _symmetry_equiv_pos_as_xyz
  1  'x, y, z'
loop_
 _atom_site_type_symbol
 _atom_site_label
 _atom_site_symmetry_multiplicity
 _atom_site_fract_x
 _atom_site_fract_y
 _atom_site_fract_z
 _atom_site_occupancy
 _atom_site_charge
  Cd  Cd1  1  0.441840  0.558160  0.250000  1.0  0.8032
  Cd  Cd2  1  0.558160  0.441840  0.750000  1.0  0.8034
  Cd  Cd3  1  0.941840  0.941840  0.000000  1.0  0.8035
  Cd  Cd4  1  0.058160  0.058160  0.500000  1.0  0.8031
  H  H5  1  0.264600  0.491300  0.322600  1.0  0.0637
  H  H6  1  0.153600  0.397200  0.313200  1.0  0.1292
  H  H7  1  0.237600  0.342600  0.142900  1.0  0.1405
  H  H8  1  0.342200  0.440500  0.156600  1.0  0.0598
  H  H9  1  0.038500  0.333600  0.287900  1.0  0.1056
  H  H10  1  0.937300  0.229700  0.278800  1.0  0.1179
  H  H11  1  0.955700  0.118600  0.209200  1.0  0.1092
  H  H12  1  0.176000  0.222100  0.154500  1.0  0.0971
  H  H13  1  0.202200  0.005100  0.959300  1.0  0.1014
  H  H14  1  0.302500  0.913800  0.915700  1.0  0.1165
  H  H15  1  0.352200  0.799200  0.970400  1.0  0.0756
  H  H16  1  0.198100  0.859700  0.111800  1.0  0.1128
  H  H17  1  0.415600  0.714500  0.034300  1.0  0.1316
  H  H18  1  0.463100  0.608800  0.098400  1.0  0.0766
  H  H19  1  0.270200  0.640700  0.209100  1.0  0.0766
  H  H20  1  0.213500  0.739200  0.145300  1.0  0.1231
  H  H21  1  0.252500  0.026000  0.150200  1.0  0.3342
  H  H22  1  0.260100  0.084200  0.099700  1.0  0.3071
  H  H23  1  0.735400  0.508700  0.822600  1.0  0.0632
  H  H24  1  0.846400  0.602800  0.813200  1.0  0.1306
  H  H25  1  0.762400  0.657400  0.642900  1.0  0.1422
  H  H26  1  0.657800  0.559500  0.656600  1.0  0.0602
  H  H27  1  0.961500  0.666400  0.787900  1.0  0.1052
  H  H28  1  0.062700  0.770300  0.778800  1.0  0.118
  H  H29  1  0.044300  0.881400  0.709200  1.0  0.1091
  H  H30  1  0.824000  0.777900  0.654500  1.0  0.0973
  H  H31  1  0.797800  0.994900  0.459300  1.0  0.1012
  H  H32  1  0.697500  0.086200  0.415700  1.0  0.1177
  H  H33  1  0.647800  0.200800  0.470400  1.0  0.0754
  H  H34  1  0.801900  0.140300  0.611800  1.0  0.1131
  H  H35  1  0.584400  0.285500  0.534300  1.0  0.1321
  H  H36  1  0.536900  0.391200  0.598400  1.0  0.0766
  H  H37  1  0.729800  0.359300  0.709100  1.0  0.0762
  H  H38  1  0.786500  0.260800  0.645300  1.0  0.1232
  H  H39  1  0.747500  0.974000  0.650200  1.0  0.3352
  H  H40  1  0.739900  0.915800  0.599700  1.0  0.3071
  H  H41  1  0.008700  0.764600  0.072600  1.0  0.0639
  H  H42  1  0.102800  0.653600  0.063200  1.0  0.1294
  H  H43  1  0.157400  0.737600  0.892900  1.0  0.1413
  H  H44  1  0.059500  0.842200  0.906600  1.0  0.06
  H  H45  1  0.166400  0.538500  0.037900  1.0  0.105
  H  H46  1  0.270300  0.437300  0.028800  1.0  0.1181
  H  H47  1  0.381400  0.455700  0.959200  1.0  0.1093
  H  H48  1  0.277900  0.676000  0.904500  1.0  0.0983
  H  H49  1  0.494900  0.702200  0.709300  1.0  0.1006
  H  H50  1  0.586200  0.802500  0.665700  1.0  0.1161
  H  H51  1  0.700800  0.852200  0.720400  1.0  0.0769
  H  H52  1  0.640300  0.698100  0.861800  1.0  0.1123
  H  H53  1  0.785500  0.915600  0.784300  1.0  0.1329
  H  H54  1  0.891200  0.963100  0.848400  1.0  0.0766
  H  H55  1  0.859300  0.770200  0.959100  1.0  0.0772
  H  H56  1  0.760800  0.713500  0.895300  1.0  0.123
  H  H57  1  0.474000  0.752500  0.900200  1.0  0.3345
  H  H58  1  0.415800  0.760100  0.849700  1.0  0.3075
  H  H59  1  0.991300  0.235400  0.572600  1.0  0.0642
  H  H60  1  0.897200  0.346400  0.563200  1.0  0.1307
  H  H61  1  0.842600  0.262400  0.392900  1.0  0.1398
  H  H62  1  0.940500  0.157800  0.406600  1.0  0.0605
  H  H63  1  0.833600  0.461500  0.537900  1.0  0.1047
  H  H64  1  0.729700  0.562700  0.528800  1.0  0.1176
  H  H65  1  0.618600  0.544300  0.459200  1.0  0.1095
  H  H66  1  0.722100  0.324000  0.404500  1.0  0.0981
  H  H67  1  0.505100  0.297800  0.209300  1.0  0.1024
  H  H68  1  0.413800  0.197500  0.165700  1.0  0.1181
  H  H69  1  0.299200  0.147800  0.220400  1.0  0.0767
  H  H70  1  0.359700  0.301900  0.361800  1.0  0.113
  H  H71  1  0.214500  0.084400  0.284300  1.0  0.1327
  H  H72  1  0.108800  0.036900  0.348400  1.0  0.0763
  H  H73  1  0.140700  0.229800  0.459100  1.0  0.0766
  H  H74  1  0.239200  0.286500  0.395300  1.0  0.1236
  H  H75  1  0.526000  0.247500  0.400200  1.0  0.3344
  H  H76  1  0.584200  0.239900  0.349700  1.0  0.3073
  H  H77  1  0.235400  0.991300  0.427400  1.0  0.0635
  H  H78  1  0.346400  0.897200  0.436800  1.0  0.1289
  H  H79  1  0.262400  0.842600  0.607100  1.0  0.1402
  H  H80  1  0.157800  0.940500  0.593400  1.0  0.0599
  H  H81  1  0.461500  0.833600  0.462100  1.0  0.1056
  H  H82  1  0.562700  0.729700  0.471200  1.0  0.1179
  H  H83  1  0.544300  0.618600  0.540800  1.0  0.1094
  H  H84  1  0.324000  0.722100  0.595500  1.0  0.0976
  H  H85  1  0.297800  0.505100  0.790700  1.0  0.1022
  H  H86  1  0.197500  0.413800  0.834300  1.0  0.118
  H  H87  1  0.147800  0.299200  0.779600  1.0  0.0756
  H  H88  1  0.301900  0.359700  0.638200  1.0  0.113
  H  H89  1  0.084400  0.214500  0.715700  1.0  0.1316
  H  H90  1  0.036900  0.108800  0.651600  1.0  0.0768
  H  H91  1  0.229800  0.140700  0.540900  1.0  0.0763
  H  H92  1  0.286500  0.239200  0.604700  1.0  0.1226
  H  H93  1  0.247500  0.526000  0.599800  1.0  0.3342
  H  H94  1  0.239900  0.584200  0.650300  1.0  0.3078
  H  H95  1  0.764600  0.008700  0.927400  1.0  0.0634
  H  H96  1  0.653600  0.102800  0.936800  1.0  0.1282
  H  H97  1  0.737600  0.157400  0.107100  1.0  0.1419
  H  H98  1  0.842200  0.059500  0.093400  1.0  0.0597
  H  H99  1  0.538500  0.166400  0.962100  1.0  0.1051
  H  H100  1  0.437300  0.270300  0.971200  1.0  0.1178
  H  H101  1  0.455700  0.381400  0.040800  1.0  0.1094
  H  H102  1  0.676000  0.277900  0.095500  1.0  0.0979
  H  H103  1  0.702200  0.494900  0.290700  1.0  0.1012
  H  H104  1  0.802500  0.586200  0.334300  1.0  0.1161
  H  H105  1  0.852200  0.700800  0.279600  1.0  0.0756
  H  H106  1  0.698100  0.640300  0.138200  1.0  0.1128
  H  H107  1  0.915600  0.785500  0.215700  1.0  0.1322
  H  H108  1  0.963100  0.891200  0.151600  1.0  0.0759
  H  H109  1  0.770200  0.859300  0.040900  1.0  0.076
  H  H110  1  0.713500  0.760800  0.104700  1.0  0.1213
  H  H111  1  0.752500  0.474000  0.099800  1.0  0.3353
  H  H112  1  0.760100  0.415800  0.150300  1.0  0.3071
  H  H113  1  0.491300  0.264600  0.677400  1.0  0.0636
  H  H114  1  0.397200  0.153600  0.686800  1.0  0.128
  H  H115  1  0.342600  0.237600  0.857100  1.0  0.1396
  H  H116  1  0.440500  0.342200  0.843400  1.0  0.0599
  H  H117  1  0.333600  0.038500  0.712100  1.0  0.105
  H  H118  1  0.229700  0.937300  0.721200  1.0  0.1181
  H  H119  1  0.118600  0.955700  0.790800  1.0  0.1095
  H  H120  1  0.222100  0.176000  0.845500  1.0  0.0977
  H  H121  1  0.005100  0.202200  0.040700  1.0  0.1013
  H  H122  1  0.913800  0.302500  0.084300  1.0  0.117
  H  H123  1  0.799200  0.352200  0.029600  1.0  0.0768
  H  H124  1  0.859700  0.198100  0.888200  1.0  0.111
  H  H125  1  0.714500  0.415600  0.965700  1.0  0.1332
  H  H126  1  0.608800  0.463100  0.901600  1.0  0.0768
  H  H127  1  0.640700  0.270200  0.790900  1.0  0.0766
  H  H128  1  0.739200  0.213500  0.854700  1.0  0.1234
  H  H129  1  0.026000  0.252500  0.849800  1.0  0.334
  H  H130  1  0.084200  0.260100  0.900300  1.0  0.3073
  H  H131  1  0.508700  0.735400  0.177400  1.0  0.0641
  H  H132  1  0.602800  0.846400  0.186800  1.0  0.1288
  H  H133  1  0.657400  0.762400  0.357100  1.0  0.1413
  H  H134  1  0.559500  0.657800  0.343400  1.0  0.0603
  H  H135  1  0.666400  0.961500  0.212100  1.0  0.1046
  H  H136  1  0.770300  0.062700  0.221200  1.0  0.118
  H  H137  1  0.881400  0.044300  0.290800  1.0  0.1092
  H  H138  1  0.777900  0.824000  0.345500  1.0  0.0987
  H  H139  1  0.994900  0.797800  0.540700  1.0  0.102
  H  H140  1  0.086200  0.697500  0.584300  1.0  0.1186
  H  H141  1  0.200800  0.647800  0.529600  1.0  0.0768
  H  H142  1  0.140300  0.801900  0.388200  1.0  0.1123
  H  H143  1  0.285500  0.584400  0.465700  1.0  0.1337
  H  H144  1  0.391200  0.536900  0.401600  1.0  0.0763
  H  H145  1  0.359300  0.729800  0.290900  1.0  0.0764
  H  H146  1  0.260800  0.786500  0.354700  1.0  0.1236
  H  H147  1  0.974000  0.747500  0.349800  1.0  0.3353
  H  H148  1  0.915800  0.739900  0.400300  1.0  0.307
  C  C149  1  0.259000  0.460500  0.285400  1.0  0.171
  C  C150  1  0.192600  0.403600  0.280400  1.0  -0.2239
  C  C151  1  0.183700  0.356400  0.227500  1.0  0.1153
  C  C152  1  0.241500  0.372200  0.180700  1.0  -0.1946
  C  C153  1  0.304100  0.430500  0.189400  1.0  0.1707
  C  C154  1  0.118400  0.289500  0.222000  1.0  0.0096
  C  C155  1  0.046300  0.289700  0.258800  1.0  -0.096
  C  C156  1  0.986400  0.227600  0.253800  1.0  -0.0774
  C  C157  1  0.997000  0.161800  0.212600  1.0  -0.0641
  C  C158  1  0.069400  0.160000  0.176200  1.0  -0.0204
  C  C159  1  0.127900  0.223300  0.180500  1.0  -0.109
  C  C160  1  0.077100  0.090000  0.131800  1.0  0.2613
  C  C161  1  0.128400  0.995400  0.069600  1.0  0.2311
  C  C162  1  0.190200  0.939500  0.039300  1.0  -0.0471
  C  C163  1  0.221400  0.957100  0.981400  1.0  -0.0639
  C  C164  1  0.281600  0.903100  0.955900  1.0  -0.0763
  C  C165  1  0.310800  0.834900  0.988300  1.0  -0.0669
  C  C166  1  0.280300  0.817100  0.047400  1.0  0.0081
  C  C167  1  0.219700  0.870600  0.071900  1.0  -0.1133
  C  C168  1  0.311300  0.744900  0.084300  1.0  0.1078
  C  C169  1  0.385000  0.701400  0.070600  1.0  -0.1955
  C  C170  1  0.413800  0.639100  0.109800  1.0  0.1607
  C  C171  1  0.301100  0.656700  0.173600  1.0  0.1445
  C  C172  1  0.267400  0.716500  0.136200  1.0  -0.1884
  C  C173  1  0.741000  0.539500  0.785400  1.0  0.1712
  C  C174  1  0.807400  0.596400  0.780400  1.0  -0.2228
  C  C175  1  0.816300  0.643600  0.727500  1.0  0.1143
  C  C176  1  0.758500  0.627800  0.680700  1.0  -0.1948
  C  C177  1  0.695900  0.569500  0.689400  1.0  0.1705
  C  C178  1  0.881600  0.710500  0.722000  1.0  0.0098
  C  C179  1  0.953700  0.710300  0.758800  1.0  -0.0979
  C  C180  1  0.013600  0.772400  0.753800  1.0  -0.0717
  C  C181  1  0.003000  0.838200  0.712600  1.0  -0.0647
  C  C182  1  0.930600  0.840000  0.676200  1.0  -0.0206
  C  C183  1  0.872100  0.776700  0.680500  1.0  -0.1098
  C  C184  1  0.922900  0.910000  0.631800  1.0  0.2611
  C  C185  1  0.871600  0.004600  0.569600  1.0  0.2307
  C  C186  1  0.809800  0.060500  0.539300  1.0  -0.0463
  C  C187  1  0.778600  0.042900  0.481400  1.0  -0.0657
  C  C188  1  0.718400  0.096900  0.455900  1.0  -0.0865
  C  C189  1  0.689200  0.165100  0.488300  1.0  -0.0668
  C  C190  1  0.719700  0.182900  0.547400  1.0  0.0093
  C  C191  1  0.780300  0.129400  0.571900  1.0  -0.1136
  C  C192  1  0.688700  0.255100  0.584300  1.0  0.108
  C  C193  1  0.615000  0.298600  0.570600  1.0  -0.1961
  C  C194  1  0.586200  0.360900  0.609800  1.0  0.162
  C  C195  1  0.698900  0.343300  0.673600  1.0  0.1445
  C  C196  1  0.732600  0.283500  0.636200  1.0  -0.1907
  C  C197  1  0.039500  0.759000  0.035400  1.0  0.1706
  C  C198  1  0.096400  0.692600  0.030400  1.0  -0.2226
  C  C199  1  0.143600  0.683700  0.977500  1.0  0.1155
  C  C200  1  0.127800  0.741500  0.930700  1.0  -0.1954
  C  C201  1  0.069500  0.804100  0.939400  1.0  0.1696
  C  C202  1  0.210500  0.618400  0.972000  1.0  0.0107
  C  C203  1  0.210300  0.546300  0.008800  1.0  -0.0955
  C  C204  1  0.272400  0.486400  0.003800  1.0  -0.0696
  C  C205  1  0.338200  0.497000  0.962600  1.0  -0.0657
  C  C206  1  0.340000  0.569400  0.926200  1.0  -0.0209
  C  C207  1  0.276700  0.627900  0.930500  1.0  -0.1083
  C  C208  1  0.410000  0.577100  0.881800  1.0  0.2626
  C  C209  1  0.504600  0.628400  0.819600  1.0  0.2324
  C  C210  1  0.560500  0.690200  0.789300  1.0  -0.0469
  C  C211  1  0.542900  0.721400  0.731400  1.0  -0.0685
  C  C212  1  0.596900  0.781600  0.705900  1.0  -0.077
  C  C213  1  0.665100  0.810800  0.738300  1.0  -0.0675
  C  C214  1  0.682900  0.780300  0.797400  1.0  0.0076
  C  C215  1  0.629400  0.719700  0.821900  1.0  -0.1143
  C  C216  1  0.755100  0.811300  0.834300  1.0  0.1083
  C  C217  1  0.798600  0.885000  0.820600  1.0  -0.1975
  C  C218  1  0.860900  0.913800  0.859800  1.0  0.1609
  C  C219  1  0.843300  0.801100  0.923600  1.0  0.1434
  C  C220  1  0.783500  0.767400  0.886200  1.0  -0.1879
  C  C221  1  0.960500  0.241000  0.535400  1.0  0.1707
  C  C222  1  0.903600  0.307400  0.530400  1.0  -0.2221
  C  C223  1  0.856400  0.316300  0.477500  1.0  0.1149
  C  C224  1  0.872200  0.258500  0.430700  1.0  -0.1953
  C  C225  1  0.930500  0.195900  0.439400  1.0  0.1705
  C  C226  1  0.789500  0.381600  0.472000  1.0  0.0102
  C  C227  1  0.789700  0.453700  0.508800  1.0  -0.0978
  C  C228  1  0.727600  0.513600  0.503800  1.0  -0.0743
  C  C229  1  0.661800  0.503000  0.462600  1.0  -0.0655
  C  C230  1  0.660000  0.430600  0.426200  1.0  -0.0208
  C  C231  1  0.723300  0.372100  0.430500  1.0  -0.1076
  C  C232  1  0.590000  0.422900  0.381800  1.0  0.2621
  C  C233  1  0.495400  0.371600  0.319600  1.0  0.2321
  C  C234  1  0.439500  0.309800  0.289300  1.0  -0.0472
  C  C235  1  0.457100  0.278600  0.231400  1.0  -0.0676
  C  C236  1  0.403100  0.218400  0.205900  1.0  -0.0766
  C  C237  1  0.334900  0.189200  0.238300  1.0  -0.0676
  C  C238  1  0.317100  0.219700  0.297400  1.0  0.0074
  C  C239  1  0.370600  0.280300  0.321900  1.0  -0.1154
  C  C240  1  0.244900  0.188700  0.334300  1.0  0.1073
  C  C241  1  0.201400  0.115000  0.320600  1.0  -0.1972
  C  C242  1  0.139100  0.086200  0.359800  1.0  0.1609
  C  C243  1  0.156700  0.198900  0.423600  1.0  0.1418
  C  C244  1  0.216500  0.232600  0.386200  1.0  -0.1884
  C  C245  1  0.241000  0.960500  0.464600  1.0  0.1716
  C  C246  1  0.307400  0.903600  0.469600  1.0  -0.2222
  C  C247  1  0.316300  0.856400  0.522500  1.0  0.1143
  C  C248  1  0.258500  0.872200  0.569300  1.0  -0.194
  C  C249  1  0.195900  0.930500  0.560600  1.0  0.1705
  C  C250  1  0.381600  0.789500  0.528000  1.0  0.009
  C  C251  1  0.453700  0.789700  0.491200  1.0  -0.0973
  C  C252  1  0.513600  0.727600  0.496200  1.0  -0.073
  C  C253  1  0.503000  0.661800  0.537400  1.0  -0.0619
  C  C254  1  0.430600  0.660000  0.573800  1.0  -0.0202
  C  C255  1  0.372100  0.723300  0.569500  1.0  -0.1103
  C  C256  1  0.422900  0.590000  0.618200  1.0  0.2605
  C  C257  1  0.371600  0.495400  0.680400  1.0  0.2302
  C  C258  1  0.309800  0.439500  0.710700  1.0  -0.0461
  C  C259  1  0.278600  0.457100  0.768600  1.0  -0.0662
  C  C260  1  0.218400  0.403100  0.794100  1.0  -0.075
  C  C261  1  0.189200  0.334900  0.761700  1.0  -0.0672
  C  C262  1  0.219700  0.317100  0.702600  1.0  0.0093
  C  C263  1  0.280300  0.370600  0.678100  1.0  -0.1132
  C  C264  1  0.188700  0.244900  0.665700  1.0  0.1085
  C  C265  1  0.115000  0.201400  0.679400  1.0  -0.1959
  C  C266  1  0.086200  0.139100  0.640200  1.0  0.1589
  C  C267  1  0.198900  0.156700  0.576400  1.0  0.1447
  C  C268  1  0.232600  0.216500  0.613800  1.0  -0.1907
  C  C269  1  0.759000  0.039500  0.964600  1.0  0.1698
  C  C270  1  0.692600  0.096400  0.969600  1.0  -0.2235
  C  C271  1  0.683700  0.143600  0.022500  1.0  0.1146
  C  C272  1  0.741500  0.127800  0.069300  1.0  -0.1943
  C  C273  1  0.804100  0.069500  0.060600  1.0  0.1712
  C  C274  1  0.618400  0.210500  0.028000  1.0  0.0104
  C  C275  1  0.546300  0.210300  0.991200  1.0  -0.0956
  C  C276  1  0.486400  0.272400  0.996200  1.0  -0.0718
  C  C277  1  0.497000  0.338200  0.037400  1.0  -0.0606
  C  C278  1  0.569400  0.340000  0.073800  1.0  -0.0204
  C  C279  1  0.627900  0.276700  0.069500  1.0  -0.1096
  C  C280  1  0.577100  0.410000  0.118200  1.0  0.2611
  C  C281  1  0.628400  0.504600  0.180400  1.0  0.2305
  C  C282  1  0.690200  0.560500  0.210700  1.0  -0.0469
  C  C283  1  0.721400  0.542900  0.268600  1.0  -0.0612
  C  C284  1  0.781600  0.596900  0.294100  1.0  -0.0767
  C  C285  1  0.810800  0.665100  0.261700  1.0  -0.0673
  C  C286  1  0.780300  0.682900  0.202600  1.0  0.0084
  C  C287  1  0.719700  0.629400  0.178100  1.0  -0.1132
  C  C288  1  0.811300  0.755100  0.165700  1.0  0.1076
  C  C289  1  0.885000  0.798600  0.179400  1.0  -0.1952
  C  C290  1  0.913800  0.860900  0.140200  1.0  0.1612
  C  C291  1  0.801100  0.843300  0.076400  1.0  0.1448
  C  C292  1  0.767400  0.783500  0.113800  1.0  -0.1905
  C  C293  1  0.460500  0.259000  0.714600  1.0  0.1704
  C  C294  1  0.403600  0.192600  0.719600  1.0  -0.2221
  C  C295  1  0.356400  0.183700  0.772500  1.0  0.1153
  C  C296  1  0.372200  0.241500  0.819300  1.0  -0.1945
  C  C297  1  0.430500  0.304100  0.810600  1.0  0.1708
  C  C298  1  0.289500  0.118400  0.778000  1.0  0.0101
  C  C299  1  0.289700  0.046300  0.741200  1.0  -0.0973
  C  C300  1  0.227600  0.986400  0.746200  1.0  -0.0734
  C  C301  1  0.161800  0.997000  0.787400  1.0  -0.0622
  C  C302  1  0.160000  0.069400  0.823800  1.0  -0.0211
  C  C303  1  0.223300  0.127900  0.819500  1.0  -0.1082
  C  C304  1  0.090000  0.077100  0.868200  1.0  0.2616
  C  C305  1  0.995400  0.128400  0.930400  1.0  0.232
  C  C306  1  0.939500  0.190200  0.960700  1.0  -0.0468
  C  C307  1  0.957100  0.221400  0.018600  1.0  -0.0673
  C  C308  1  0.903100  0.281600  0.044100  1.0  -0.0757
  C  C309  1  0.834900  0.310800  0.011700  1.0  -0.0677
  C  C310  1  0.817100  0.280300  0.952600  1.0  0.0077
  C  C311  1  0.870600  0.219700  0.928100  1.0  -0.1145
  C  C312  1  0.744900  0.311300  0.915700  1.0  0.1078
  C  C313  1  0.701400  0.385000  0.929400  1.0  -0.1976
  C  C314  1  0.639100  0.413800  0.890200  1.0  0.161
  C  C315  1  0.656700  0.301100  0.826400  1.0  0.1415
  C  C316  1  0.716500  0.267400  0.863800  1.0  -0.1881
  C  C317  1  0.539500  0.741000  0.214600  1.0  0.1705
  C  C318  1  0.596400  0.807400  0.219600  1.0  -0.2225
  C  C319  1  0.643600  0.816300  0.272500  1.0  0.115
  C  C320  1  0.627800  0.758500  0.319300  1.0  -0.1948
  C  C321  1  0.569500  0.695900  0.310600  1.0  0.1703
  C  C322  1  0.710500  0.881600  0.278000  1.0  0.0115
  C  C323  1  0.710300  0.953700  0.241200  1.0  -0.0962
  C  C324  1  0.772400  0.013600  0.246200  1.0  -0.0684
  C  C325  1  0.838200  0.003000  0.287400  1.0  -0.0618
  C  C326  1  0.840000  0.930600  0.323800  1.0  -0.0209
  C  C327  1  0.776700  0.872100  0.319500  1.0  -0.1083
  C  C328  1  0.910000  0.922900  0.368200  1.0  0.2604
  C  C329  1  0.004600  0.871600  0.430400  1.0  0.2317
  C  C330  1  0.060500  0.809800  0.460700  1.0  -0.0467
  C  C331  1  0.042900  0.778600  0.518600  1.0  -0.0677
  C  C332  1  0.096900  0.718400  0.544100  1.0  -0.0778
  C  C333  1  0.165100  0.689200  0.511700  1.0  -0.0684
  C  C334  1  0.182900  0.719700  0.452600  1.0  0.0081
  C  C335  1  0.129400  0.780300  0.428100  1.0  -0.1138
  C  C336  1  0.255100  0.688700  0.415700  1.0  0.108
  C  C337  1  0.298600  0.615000  0.429400  1.0  -0.1969
  C  C338  1  0.360900  0.586200  0.390200  1.0  0.1585
  C  C339  1  0.343300  0.698900  0.326400  1.0  0.1439
  C  C340  1  0.283500  0.732600  0.363800  1.0  -0.189
  N  N341  1  0.314500  0.473900  0.241300  1.0  -0.3629
  N  N342  1  0.013400  0.054600  0.103800  1.0  -0.2975
  N  N343  1  0.045400  0.994100  0.065100  1.0  -0.2262
  N  N344  1  0.149800  0.054800  0.111900  1.0  0.0989
  N  N345  1  0.231500  0.071700  0.133300  1.0  -0.5485
  N  N346  1  0.375800  0.619000  0.163000  1.0  -0.3526
  N  N347  1  0.685500  0.526100  0.741300  1.0  -0.362
  N  N348  1  0.986600  0.945400  0.603800  1.0  -0.2967
  N  N349  1  0.954600  0.005900  0.565100  1.0  -0.2263
  N  N350  1  0.850200  0.945200  0.611900  1.0  0.099
  N  N351  1  0.768500  0.928300  0.633300  1.0  -0.5496
  N  N352  1  0.624200  0.381000  0.663000  1.0  -0.3538
  N  N353  1  0.026100  0.814500  0.991300  1.0  -0.3623
  N  N354  1  0.445400  0.513400  0.853800  1.0  -0.2976
  N  N355  1  0.505900  0.545400  0.815100  1.0  -0.2257
  N  N356  1  0.445200  0.649800  0.861900  1.0  0.0987
  N  N357  1  0.428300  0.731500  0.883300  1.0  -0.5504
  N  N358  1  0.881000  0.875800  0.913000  1.0  -0.3532
  N  N359  1  0.973900  0.185500  0.491300  1.0  -0.3616
  N  N360  1  0.554600  0.486600  0.353800  1.0  -0.293
  N  N361  1  0.494100  0.454600  0.315100  1.0  -0.2254
  N  N362  1  0.554800  0.350200  0.361900  1.0  0.0988
  N  N363  1  0.571700  0.268500  0.383300  1.0  -0.5495
  N  N364  1  0.119000  0.124200  0.413000  1.0  -0.3528
  N  N365  1  0.185500  0.973900  0.508700  1.0  -0.3624
  N  N366  1  0.486600  0.554600  0.646200  1.0  -0.2947
  N  N367  1  0.454600  0.494100  0.684900  1.0  -0.2263
  N  N368  1  0.350200  0.554800  0.638100  1.0  0.0987
  N  N369  1  0.268500  0.571700  0.616700  1.0  -0.5483
  N  N370  1  0.124200  0.119000  0.587000  1.0  -0.3538
  N  N371  1  0.814500  0.026100  0.008700  1.0  -0.3624
  N  N372  1  0.513400  0.445400  0.146200  1.0  -0.2982
  N  N373  1  0.545400  0.505900  0.184900  1.0  -0.2257
  N  N374  1  0.649800  0.445200  0.138100  1.0  0.0989
  N  N375  1  0.731500  0.428300  0.116700  1.0  -0.5504
  N  N376  1  0.875800  0.881000  0.087000  1.0  -0.3533
  N  N377  1  0.473900  0.314500  0.758700  1.0  -0.3618
  N  N378  1  0.054600  0.013400  0.896200  1.0  -0.2937
  N  N379  1  0.994100  0.045400  0.934900  1.0  -0.2251
  N  N380  1  0.054800  0.149800  0.888100  1.0  0.0985
  N  N381  1  0.071700  0.231500  0.866700  1.0  -0.5498
  N  N382  1  0.619000  0.375800  0.837000  1.0  -0.3526
  N  N383  1  0.526100  0.685500  0.258700  1.0  -0.3625
  N  N384  1  0.945400  0.986600  0.396200  1.0  -0.2974
  N  N385  1  0.005900  0.954600  0.434900  1.0  -0.2261
  N  N386  1  0.945200  0.850200  0.388100  1.0  0.0986
  N  N387  1  0.928300  0.768500  0.366700  1.0  -0.5504
  N  N388  1  0.381000  0.624200  0.337000  1.0  -0.3536
  Cl  Cl389  1  0.874460  0.125540  0.750000  1.0  1.7188
  Cl  Cl390  1  0.125540  0.874460  0.250000  1.0  1.7181
  Cl  Cl391  1  0.374460  0.374460  0.500000  1.0  1.7184
  Cl  Cl392  1  0.625540  0.625540  0.000000  1.0  1.7176
  Cl  Cl393  1  0.230680  0.230680  0.000000  1.0  1.064
  Cl  Cl394  1  0.769320  0.769320  0.500000  1.0  1.0687
  Cl  Cl395  1  0.269320  0.730680  0.750000  1.0  1.0645
  Cl  Cl396  1  0.730680  0.269320  0.250000  1.0  1.0674
  O  O397  1  0.886700  0.212200  0.754700  1.0  -0.6802
  O  O398  1  0.925600  0.113600  0.794700  1.0  -0.5945
  O  O399  1  0.787800  0.113300  0.745300  1.0  -0.6792
  O  O400  1  0.886400  0.074400  0.705300  1.0  -0.5956
  O  O401  1  0.113300  0.787800  0.254700  1.0  -0.6818
  O  O402  1  0.074400  0.886400  0.294700  1.0  -0.5967
  O  O403  1  0.212200  0.886700  0.245300  1.0  -0.6804
  O  O404  1  0.113600  0.925600  0.205300  1.0  -0.5957
  O  O405  1  0.287800  0.386700  0.504700  1.0  -0.6799
  O  O406  1  0.386400  0.425600  0.544700  1.0  -0.5951
  O  O407  1  0.386700  0.287800  0.495300  1.0  -0.6818
  O  O408  1  0.425600  0.386400  0.455300  1.0  -0.5937
  O  O409  1  0.712200  0.613300  0.004700  1.0  -0.6804
  O  O410  1  0.613600  0.574400  0.044700  1.0  -0.5946
  O  O411  1  0.613300  0.712200  0.995300  1.0  -0.6794
  O  O412  1  0.574400  0.613600  0.955300  1.0  -0.5956
  O  O413  1  0.273100  0.254300  0.050300  1.0  -0.4407
  O  O414  1  0.290400  0.163300  0.974900  1.0  -0.5136
  O  O415  1  0.254300  0.273100  0.949700  1.0  -0.4376
  O  O416  1  0.163300  0.290400  0.025100  1.0  -0.5185
  O  O417  1  0.726900  0.745700  0.550300  1.0  -0.439
  O  O418  1  0.709600  0.836700  0.474900  1.0  -0.5161
  O  O419  1  0.745700  0.726900  0.449700  1.0  -0.4383
  O  O420  1  0.836700  0.709600  0.525100  1.0  -0.5136
  O  O421  1  0.245700  0.773100  0.800300  1.0  -0.4389
  O  O422  1  0.336700  0.790400  0.724900  1.0  -0.5148
  O  O423  1  0.226900  0.754300  0.699700  1.0  -0.4392
  O  O424  1  0.209600  0.663300  0.775100  1.0  -0.5134
  O  O425  1  0.754300  0.226900  0.300300  1.0  -0.4385
  O  O426  1  0.663300  0.209600  0.224900  1.0  -0.5157
  O  O427  1  0.773100  0.245700  0.199700  1.0  -0.4391
  O  O428  1  0.790400  0.336700  0.275100  1.0  -0.5162
