# generated using pymatgen
data_CdH36C48N12ClO4
_symmetry_space_group_name_H-M   'P 1'
_cell_length_a   15.85450000
_cell_length_b   15.85450000
_cell_length_c   21.59600000
_cell_angle_alpha   90.00000000
_cell_angle_beta   90.00000000
_cell_angle_gamma   90.00000000
_symmetry_Int_Tables_number   1
_chemical_formula_structural   CdH36C48N12ClO4
_chemical_formula_sum   'Cd4 H144 C192 N48 Cl4 O16'
_cell_volume   5428.48221672
_cell_formula_units_Z   4
loop_
 _symmetry_equiv_pos_site_id
 _symmetry_equiv_pos_as_xyz
  1  'x, y, z'
loop_
 _atom_site_type_symbol
 _atom_site_label
 _atom_site_symmetry_multiplicity
 _atom_site_fract_x
 _atom_site_fract_y
 _atom_site_fract_z
 _atom_site_occupancy
 _atom_site_charge
  Cd  Cd1  1  0.058980  0.941020  0.250000  1.0  0.7907
  Cd  Cd2  1  0.941020  0.058980  0.750000  1.0  0.7907
  Cd  Cd3  1  0.558980  0.558980  0.500000  1.0  0.7903
  Cd  Cd4  1  0.441020  0.441020  0.000000  1.0  0.7911
  H  H5  1  0.110400  0.963000  0.097700  1.0  0.0759
  H  H6  1  0.214100  0.913900  0.032100  1.0  0.1211
  H  H7  1  0.240300  0.712200  0.145100  1.0  0.1185
  H  H8  1  0.140800  0.769800  0.209200  1.0  0.0644
  H  H9  1  0.300200  0.851500  0.968700  1.0  0.0733
  H  H10  1  0.413900  0.801200  0.913900  1.0  0.1027
  H  H11  1  0.507200  0.703800  0.958000  1.0  0.0912
  H  H12  1  0.359800  0.697000  0.111700  1.0  0.1098
  H  H13  1  0.619100  0.454800  0.210000  1.0  0.1048
  H  H14  1  0.731800  0.434800  0.279300  1.0  0.1129
  H  H15  1  0.835900  0.537300  0.288000  1.0  0.097
  H  H16  1  0.723200  0.674900  0.154700  1.0  0.0962
  H  H17  1  0.899000  0.652400  0.314700  1.0  0.1228
  H  H18  1  0.993200  0.762200  0.324200  1.0  0.0596
  H  H19  1  0.940500  0.842600  0.156900  1.0  0.0575
  H  H20  1  0.844300  0.735000  0.142100  1.0  0.1351
  H  H21  1  0.528800  0.759800  0.143200  1.0  0.3535
  H  H22  1  0.585900  0.759500  0.097500  1.0  0.2706
  H  H23  1  0.889600  0.037000  0.597700  1.0  0.0756
  H  H24  1  0.785900  0.086100  0.532100  1.0  0.1215
  H  H25  1  0.759700  0.287800  0.645100  1.0  0.118
  H  H26  1  0.859200  0.230200  0.709200  1.0  0.064
  H  H27  1  0.699800  0.148500  0.468700  1.0  0.0728
  H  H28  1  0.586100  0.198800  0.413900  1.0  0.1026
  H  H29  1  0.492800  0.296200  0.458000  1.0  0.0911
  H  H30  1  0.640200  0.303000  0.611700  1.0  0.1099
  H  H31  1  0.380900  0.545200  0.710000  1.0  0.1046
  H  H32  1  0.268200  0.565200  0.779300  1.0  0.1128
  H  H33  1  0.164100  0.462700  0.788000  1.0  0.0967
  H  H34  1  0.276800  0.325100  0.654700  1.0  0.0966
  H  H35  1  0.101000  0.347600  0.814700  1.0  0.1228
  H  H36  1  0.006800  0.237800  0.824200  1.0  0.0601
  H  H37  1  0.059500  0.157400  0.656900  1.0  0.0579
  H  H38  1  0.155700  0.265000  0.642100  1.0  0.135
  H  H39  1  0.471200  0.240200  0.643200  1.0  0.3546
  H  H40  1  0.414100  0.240500  0.597500  1.0  0.2713
  H  H41  1  0.537000  0.610400  0.347700  1.0  0.0754
  H  H42  1  0.586100  0.714100  0.282100  1.0  0.1201
  H  H43  1  0.787800  0.740300  0.395100  1.0  0.1189
  H  H44  1  0.730200  0.640800  0.459200  1.0  0.0644
  H  H45  1  0.648500  0.800200  0.218700  1.0  0.071
  H  H46  1  0.698800  0.913900  0.163900  1.0  0.102
  H  H47  1  0.796200  0.007200  0.208000  1.0  0.091
  H  H48  1  0.803000  0.859800  0.361700  1.0  0.1106
  H  H49  1  0.045200  0.119100  0.460000  1.0  0.1052
  H  H50  1  0.065200  0.231800  0.529300  1.0  0.1126
  H  H51  1  0.962700  0.335900  0.538000  1.0  0.0964
  H  H52  1  0.825100  0.223200  0.404700  1.0  0.096
  H  H53  1  0.847600  0.399000  0.564700  1.0  0.1226
  H  H54  1  0.737800  0.493200  0.574200  1.0  0.0587
  H  H55  1  0.657400  0.440500  0.406900  1.0  0.0574
  H  H56  1  0.765000  0.344300  0.392100  1.0  0.1358
  H  H57  1  0.740200  0.028800  0.393200  1.0  0.3526
  H  H58  1  0.740500  0.085900  0.347500  1.0  0.2717
  H  H59  1  0.463000  0.389600  0.847700  1.0  0.0755
  H  H60  1  0.413900  0.285900  0.782100  1.0  0.1203
  H  H61  1  0.212200  0.259700  0.895100  1.0  0.1196
  H  H62  1  0.269800  0.359200  0.959200  1.0  0.0632
  H  H63  1  0.351500  0.199800  0.718700  1.0  0.0722
  H  H64  1  0.301200  0.086100  0.663900  1.0  0.1024
  H  H65  1  0.203800  0.992800  0.708000  1.0  0.0911
  H  H66  1  0.197000  0.140200  0.861700  1.0  0.1107
  H  H67  1  0.954800  0.880900  0.960000  1.0  0.1049
  H  H68  1  0.934800  0.768200  0.029300  1.0  0.1128
  H  H69  1  0.037300  0.664100  0.038000  1.0  0.0974
  H  H70  1  0.174900  0.776800  0.904700  1.0  0.0956
  H  H71  1  0.152400  0.601000  0.064700  1.0  0.1229
  H  H72  1  0.262200  0.506800  0.074200  1.0  0.0597
  H  H73  1  0.342600  0.559500  0.906900  1.0  0.0578
  H  H74  1  0.235000  0.655700  0.892100  1.0  0.1356
  H  H75  1  0.259800  0.971200  0.893200  1.0  0.3526
  H  H76  1  0.259500  0.914100  0.847500  1.0  0.2719
  H  H77  1  0.389600  0.463000  0.152300  1.0  0.0758
  H  H78  1  0.285900  0.413900  0.217900  1.0  0.1216
  H  H79  1  0.259700  0.212200  0.104900  1.0  0.1171
  H  H80  1  0.359200  0.269800  0.040800  1.0  0.0644
  H  H81  1  0.199800  0.351500  0.281300  1.0  0.0731
  H  H82  1  0.086100  0.301200  0.336100  1.0  0.1024
  H  H83  1  0.992800  0.203800  0.292000  1.0  0.0887
  H  H84  1  0.140200  0.197000  0.138300  1.0  0.11
  H  H85  1  0.880900  0.954800  0.040000  1.0  0.1047
  H  H86  1  0.768200  0.934800  0.970700  1.0  0.113
  H  H87  1  0.664100  0.037300  0.962000  1.0  0.0964
  H  H88  1  0.776800  0.174900  0.095300  1.0  0.096
  H  H89  1  0.601000  0.152400  0.935300  1.0  0.1226
  H  H90  1  0.506800  0.262200  0.925800  1.0  0.058
  H  H91  1  0.559500  0.342600  0.093100  1.0  0.057
  H  H92  1  0.655700  0.235000  0.107900  1.0  0.1354
  H  H93  1  0.971200  0.259800  0.106800  1.0  0.3535
  H  H94  1  0.914100  0.259500  0.152500  1.0  0.2705
  H  H95  1  0.610400  0.537000  0.652300  1.0  0.0761
  H  H96  1  0.714100  0.586100  0.717900  1.0  0.1214
  H  H97  1  0.740300  0.787800  0.604900  1.0  0.1178
  H  H98  1  0.640800  0.730200  0.540800  1.0  0.0645
  H  H99  1  0.800200  0.648500  0.781300  1.0  0.0731
  H  H100  1  0.913900  0.698800  0.836100  1.0  0.1027
  H  H101  1  0.007200  0.796200  0.792000  1.0  0.0889
  H  H102  1  0.859800  0.803000  0.638300  1.0  0.1098
  H  H103  1  0.119100  0.045200  0.540000  1.0  0.1044
  H  H104  1  0.231800  0.065200  0.470700  1.0  0.1128
  H  H105  1  0.335900  0.962700  0.462000  1.0  0.097
  H  H106  1  0.223200  0.825100  0.595300  1.0  0.0962
  H  H107  1  0.399000  0.847600  0.435300  1.0  0.123
  H  H108  1  0.493200  0.737800  0.425800  1.0  0.0583
  H  H109  1  0.440500  0.657400  0.593100  1.0  0.0577
  H  H110  1  0.344300  0.765000  0.607900  1.0  0.1348
  H  H111  1  0.028800  0.740200  0.606800  1.0  0.3528
  H  H112  1  0.085900  0.740500  0.652500  1.0  0.2716
  H  H113  1  0.963000  0.110400  0.902300  1.0  0.076
  H  H114  1  0.913900  0.214100  0.967900  1.0  0.1203
  H  H115  1  0.712200  0.240300  0.854900  1.0  0.1187
  H  H116  1  0.769800  0.140800  0.790800  1.0  0.0637
  H  H117  1  0.851500  0.300200  0.031300  1.0  0.0723
  H  H118  1  0.801200  0.413900  0.086100  1.0  0.1023
  H  H119  1  0.703800  0.507200  0.042000  1.0  0.0891
  H  H120  1  0.697000  0.359800  0.888300  1.0  0.1104
  H  H121  1  0.454800  0.619100  0.790000  1.0  0.1048
  H  H122  1  0.434800  0.731800  0.720700  1.0  0.1131
  H  H123  1  0.537300  0.835900  0.712000  1.0  0.097
  H  H124  1  0.674900  0.723200  0.845300  1.0  0.0957
  H  H125  1  0.652400  0.899000  0.685300  1.0  0.1226
  H  H126  1  0.762200  0.993200  0.675800  1.0  0.0578
  H  H127  1  0.842600  0.940500  0.843100  1.0  0.0575
  H  H128  1  0.735000  0.844300  0.857900  1.0  0.1354
  H  H129  1  0.759800  0.528800  0.856800  1.0  0.352
  H  H130  1  0.759500  0.585900  0.902500  1.0  0.2723
  H  H131  1  0.037000  0.889600  0.402300  1.0  0.0757
  H  H132  1  0.086100  0.785900  0.467900  1.0  0.1207
  H  H133  1  0.287800  0.759700  0.354900  1.0  0.119
  H  H134  1  0.230200  0.859200  0.290800  1.0  0.0648
  H  H135  1  0.148500  0.699800  0.531300  1.0  0.071
  H  H136  1  0.198800  0.586100  0.586100  1.0  0.1026
  H  H137  1  0.296200  0.492800  0.542000  1.0  0.0883
  H  H138  1  0.303000  0.640200  0.388300  1.0  0.111
  H  H139  1  0.545200  0.380900  0.290000  1.0  0.1049
  H  H140  1  0.565200  0.268200  0.220700  1.0  0.1127
  H  H141  1  0.462700  0.164100  0.212000  1.0  0.0969
  H  H142  1  0.325100  0.276800  0.345300  1.0  0.0957
  H  H143  1  0.347600  0.101000  0.185300  1.0  0.1229
  H  H144  1  0.237800  0.006800  0.175800  1.0  0.0578
  H  H145  1  0.157400  0.059500  0.343100  1.0  0.0572
  H  H146  1  0.265000  0.155700  0.357900  1.0  0.1358
  H  H147  1  0.240200  0.471200  0.356800  1.0  0.3533
  H  H148  1  0.240500  0.414100  0.402500  1.0  0.2723
  C  C149  1  0.139800  0.913000  0.108700  1.0  0.1463
  C  C150  1  0.201400  0.883800  0.069000  1.0  -0.2118
  C  C151  1  0.244700  0.810100  0.083300  1.0  0.0867
  C  C152  1  0.217100  0.766000  0.135700  1.0  -0.2334
  C  C153  1  0.156800  0.800400  0.173300  1.0  0.1368
  C  C154  1  0.317300  0.778900  0.046100  1.0  0.0223
  C  C155  1  0.335600  0.809800  0.986700  1.0  -0.0994
  C  C156  1  0.403700  0.780700  0.954600  1.0  -0.0742
  C  C157  1  0.458400  0.721700  0.979900  1.0  -0.1184
  C  C158  1  0.440100  0.689500  0.038400  1.0  -0.0282
  C  C159  1  0.370800  0.718500  0.071500  1.0  -0.1267
  C  C160  1  0.496000  0.627200  0.069200  1.0  0.2294
  C  C161  1  0.590700  0.576400  0.132000  1.0  0.2653
  C  C162  1  0.661100  0.567400  0.176400  1.0  -0.0146
  C  C163  1  0.662700  0.495700  0.213000  1.0  -0.0494
  C  C164  1  0.729200  0.484200  0.254400  1.0  -0.0932
  C  C165  1  0.791500  0.545000  0.259000  1.0  -0.0997
  C  C166  1  0.790700  0.616700  0.222500  1.0  0.0286
  C  C167  1  0.724600  0.626600  0.180700  1.0  -0.1272
  C  C168  1  0.857500  0.682100  0.228100  1.0  0.0972
  C  C169  1  0.905300  0.691400  0.281600  1.0  -0.2245
  C  C170  1  0.961800  0.757000  0.286900  1.0  0.1643
  C  C171  1  0.931100  0.803700  0.189600  1.0  0.1646
  C  C172  1  0.873200  0.739800  0.180500  1.0  -0.1988
  C  C173  1  0.860200  0.087000  0.608700  1.0  0.1456
  C  C174  1  0.798600  0.116200  0.569000  1.0  -0.2124
  C  C175  1  0.755300  0.189900  0.583300  1.0  0.0876
  C  C176  1  0.782900  0.234000  0.635700  1.0  -0.2331
  C  C177  1  0.843200  0.199600  0.673300  1.0  0.1381
  C  C178  1  0.682700  0.221100  0.546100  1.0  0.0228
  C  C179  1  0.664400  0.190200  0.486700  1.0  -0.0982
  C  C180  1  0.596300  0.219300  0.454600  1.0  -0.0753
  C  C181  1  0.541600  0.278300  0.479900  1.0  -0.1179
  C  C182  1  0.559900  0.310500  0.538400  1.0  -0.0281
  C  C183  1  0.629200  0.281500  0.571500  1.0  -0.1255
  C  C184  1  0.504000  0.372800  0.569200  1.0  0.2294
  C  C185  1  0.409300  0.423600  0.632000  1.0  0.2659
  C  C186  1  0.338900  0.432600  0.676400  1.0  -0.0153
  C  C187  1  0.337300  0.504300  0.713000  1.0  -0.0502
  C  C188  1  0.270800  0.515800  0.754400  1.0  -0.0943
  C  C189  1  0.208500  0.455000  0.759000  1.0  -0.0985
  C  C190  1  0.209300  0.383300  0.722500  1.0  0.0302
  C  C191  1  0.275400  0.373400  0.680700  1.0  -0.1262
  C  C192  1  0.142500  0.317900  0.728100  1.0  0.0967
  C  C193  1  0.094700  0.308600  0.781600  1.0  -0.2247
  C  C194  1  0.038200  0.243000  0.786900  1.0  0.1637
  C  C195  1  0.068900  0.196300  0.689600  1.0  0.1642
  C  C196  1  0.126800  0.260200  0.680500  1.0  -0.1992
  C  C197  1  0.587000  0.639800  0.358700  1.0  0.1477
  C  C198  1  0.616200  0.701400  0.319000  1.0  -0.2098
  C  C199  1  0.689900  0.744700  0.333333  1.0  0.0875
  C  C200  1  0.734000  0.717100  0.385700  1.0  -0.2322
  C  C201  1  0.699600  0.656800  0.423300  1.0  0.1395
  C  C202  1  0.721100  0.817300  0.296100  1.0  0.0239
  C  C203  1  0.690200  0.835600  0.236700  1.0  -0.0965
  C  C204  1  0.719300  0.903700  0.204600  1.0  -0.0746
  C  C205  1  0.778300  0.958400  0.229900  1.0  -0.1164
  C  C206  1  0.810500  0.940100  0.288400  1.0  -0.0276
  C  C207  1  0.781500  0.870800  0.321500  1.0  -0.1261
  C  C208  1  0.872800  0.996000  0.319200  1.0  0.2278
  C  C209  1  0.923600  0.090700  0.382000  1.0  0.2676
  C  C210  1  0.932600  0.161100  0.426400  1.0  -0.0158
  C  C211  1  0.004300  0.162700  0.463000  1.0  -0.0506
  C  C212  1  0.015800  0.229200  0.504400  1.0  -0.0964
  C  C213  1  0.955000  0.291500  0.509000  1.0  -0.0997
  C  C214  1  0.883300  0.290700  0.472500  1.0  0.0287
  C  C215  1  0.873400  0.224600  0.430700  1.0  -0.128
  C  C216  1  0.817900  0.357500  0.478100  1.0  0.0974
  C  C217  1  0.808600  0.405300  0.531600  1.0  -0.2241
  C  C218  1  0.743000  0.461800  0.536900  1.0  0.1655
  C  C219  1  0.696300  0.431100  0.439600  1.0  0.1649
  C  C220  1  0.760200  0.373200  0.430500  1.0  -0.199
  C  C221  1  0.413000  0.360200  0.858700  1.0  0.1473
  C  C222  1  0.383800  0.298600  0.819000  1.0  -0.2089
  C  C223  1  0.310100  0.255300  0.833300  1.0  0.0869
  C  C224  1  0.266000  0.282900  0.885700  1.0  -0.2317
  C  C225  1  0.300400  0.343200  0.923300  1.0  0.1393
  C  C226  1  0.278900  0.182700  0.796100  1.0  0.0231
  C  C227  1  0.309800  0.164400  0.736700  1.0  -0.0968
  C  C228  1  0.280700  0.096300  0.704600  1.0  -0.0745
  C  C229  1  0.221700  0.041600  0.729900  1.0  -0.1121
  C  C230  1  0.189500  0.059900  0.788400  1.0  -0.0274
  C  C231  1  0.218500  0.129200  0.821500  1.0  -0.1266
  C  C232  1  0.127200  0.004000  0.819200  1.0  0.2276
  C  C233  1  0.076400  0.909300  0.882000  1.0  0.2675
  C  C234  1  0.067400  0.838900  0.926400  1.0  -0.0159
  C  C235  1  0.995700  0.837300  0.963000  1.0  -0.0495
  C  C236  1  0.984200  0.770800  0.004400  1.0  -0.0964
  C  C237  1  0.045000  0.708500  0.009000  1.0  -0.1005
  C  C238  1  0.116700  0.709300  0.972500  1.0  0.0286
  C  C239  1  0.126600  0.775400  0.930700  1.0  -0.1274
  C  C240  1  0.182100  0.642500  0.978100  1.0  0.0969
  C  C241  1  0.191400  0.594700  0.031600  1.0  -0.2252
  C  C242  1  0.257000  0.538200  0.036900  1.0  0.166
  C  C243  1  0.303700  0.568900  0.939600  1.0  0.1647
  C  C244  1  0.239800  0.626800  0.930500  1.0  -0.1982
  C  C245  1  0.360200  0.413000  0.141300  1.0  0.1457
  C  C246  1  0.298600  0.383800  0.181000  1.0  -0.2125
  C  C247  1  0.255300  0.310100  0.166700  1.0  0.0878
  C  C248  1  0.282900  0.266000  0.114300  1.0  -0.2326
  C  C249  1  0.343200  0.300400  0.076700  1.0  0.1383
  C  C250  1  0.182700  0.278900  0.203900  1.0  0.0226
  C  C251  1  0.164400  0.309800  0.263300  1.0  -0.0993
  C  C252  1  0.096300  0.280700  0.295400  1.0  -0.0735
  C  C253  1  0.041600  0.221700  0.270100  1.0  -0.1189
  C  C254  1  0.059900  0.189500  0.211600  1.0  -0.0292
  C  C255  1  0.129200  0.218500  0.178500  1.0  -0.1259
  C  C256  1  0.004000  0.127200  0.180800  1.0  0.2291
  C  C257  1  0.909300  0.076400  0.118000  1.0  0.2652
  C  C258  1  0.838900  0.067400  0.073600  1.0  -0.0149
  C  C259  1  0.837300  0.995700  0.037000  1.0  -0.0498
  C  C260  1  0.770800  0.984200  0.995600  1.0  -0.0933
  C  C261  1  0.708500  0.045000  0.991000  1.0  -0.0985
  C  C262  1  0.709300  0.116700  0.027500  1.0  0.0292
  C  C263  1  0.775400  0.126600  0.069300  1.0  -0.1269
  C  C264  1  0.642500  0.182100  0.021900  1.0  0.0971
  C  C265  1  0.594700  0.191400  0.968400  1.0  -0.2246
  C  C266  1  0.538200  0.257000  0.963100  1.0  0.1636
  C  C267  1  0.568900  0.303700  0.060400  1.0  0.1644
  C  C268  1  0.626800  0.239800  0.069500  1.0  -0.1986
  C  C269  1  0.639800  0.587000  0.641300  1.0  0.1466
  C  C270  1  0.701400  0.616200  0.681000  1.0  -0.212
  C  C271  1  0.744700  0.689900  0.666667  1.0  0.0865
  C  C272  1  0.717100  0.734000  0.614300  1.0  -0.2324
  C  C273  1  0.656800  0.699600  0.576700  1.0  0.1381
  C  C274  1  0.817300  0.721100  0.703900  1.0  0.0227
  C  C275  1  0.835600  0.690200  0.763300  1.0  -0.0991
  C  C276  1  0.903700  0.719300  0.795400  1.0  -0.0745
  C  C277  1  0.958400  0.778300  0.770100  1.0  -0.119
  C  C278  1  0.940100  0.810500  0.711600  1.0  -0.0285
  C  C279  1  0.870800  0.781500  0.678500  1.0  -0.1265
  C  C280  1  0.996000  0.872800  0.680800  1.0  0.229
  C  C281  1  0.090700  0.923600  0.618000  1.0  0.2648
  C  C282  1  0.161100  0.932600  0.573600  1.0  -0.0149
  C  C283  1  0.162700  0.004300  0.537000  1.0  -0.0497
  C  C284  1  0.229200  0.015800  0.495600  1.0  -0.093
  C  C285  1  0.291500  0.955000  0.491000  1.0  -0.0999
  C  C286  1  0.290700  0.883300  0.527500  1.0  0.0291
  C  C287  1  0.224600  0.873400  0.569300  1.0  -0.1267
  C  C288  1  0.357500  0.817900  0.521900  1.0  0.0969
  C  C289  1  0.405300  0.808600  0.468400  1.0  -0.2233
  C  C290  1  0.461800  0.743000  0.463100  1.0  0.1647
  C  C291  1  0.431100  0.696300  0.560400  1.0  0.1649
  C  C292  1  0.373200  0.760200  0.569500  1.0  -0.1979
  C  C293  1  0.913000  0.139800  0.891300  1.0  0.1465
  C  C294  1  0.883800  0.201400  0.931000  1.0  -0.209
  C  C295  1  0.810100  0.244700  0.916700  1.0  0.0875
  C  C296  1  0.766000  0.217100  0.864300  1.0  -0.2308
  C  C297  1  0.800400  0.156800  0.826700  1.0  0.1397
  C  C298  1  0.778900  0.317300  0.953900  1.0  0.0238
  C  C299  1  0.809800  0.335600  0.013300  1.0  -0.0976
  C  C300  1  0.780700  0.403700  0.045400  1.0  -0.0741
  C  C301  1  0.721700  0.458400  0.020100  1.0  -0.1141
  C  C302  1  0.689500  0.440100  0.961600  1.0  -0.0286
  C  C303  1  0.718500  0.370800  0.928500  1.0  -0.1269
  C  C304  1  0.627200  0.496000  0.930800  1.0  0.2276
  C  C305  1  0.576400  0.590700  0.868000  1.0  0.2668
  C  C306  1  0.567400  0.661100  0.823600  1.0  -0.0154
  C  C307  1  0.495700  0.662700  0.787000  1.0  -0.0498
  C  C308  1  0.484200  0.729200  0.745600  1.0  -0.0965
  C  C309  1  0.545000  0.791500  0.741000  1.0  -0.099
  C  C310  1  0.616700  0.790700  0.777500  1.0  0.0289
  C  C311  1  0.626600  0.724600  0.819300  1.0  -0.1269
  C  C312  1  0.682100  0.857500  0.771900  1.0  0.0978
  C  C313  1  0.691400  0.905300  0.718400  1.0  -0.2249
  C  C314  1  0.757000  0.961800  0.713100  1.0  0.1659
  C  C315  1  0.803700  0.931100  0.810400  1.0  0.1654
  C  C316  1  0.739800  0.873200  0.819500  1.0  -0.1976
  C  C317  1  0.087000  0.860200  0.391300  1.0  0.1478
  C  C318  1  0.116200  0.798600  0.431000  1.0  -0.2093
  C  C319  1  0.189900  0.755300  0.416700  1.0  0.0877
  C  C320  1  0.234000  0.782900  0.364300  1.0  -0.2318
  C  C321  1  0.199600  0.843200  0.326700  1.0  0.1403
  C  C322  1  0.221100  0.682700  0.453900  1.0  0.0238
  C  C323  1  0.190200  0.664400  0.513300  1.0  -0.0967
  C  C324  1  0.219300  0.596300  0.545400  1.0  -0.0738
  C  C325  1  0.278300  0.541600  0.520100  1.0  -0.1157
  C  C326  1  0.310500  0.559900  0.461600  1.0  -0.0275
  C  C327  1  0.281500  0.629200  0.428500  1.0  -0.1267
  C  C328  1  0.372800  0.504000  0.430800  1.0  0.2275
  C  C329  1  0.423600  0.409300  0.368000  1.0  0.2663
  C  C330  1  0.432600  0.338900  0.323600  1.0  -0.016
  C  C331  1  0.504300  0.337300  0.287000  1.0  -0.0501
  C  C332  1  0.515800  0.270800  0.245600  1.0  -0.0958
  C  C333  1  0.455000  0.208500  0.241000  1.0  -0.101
  C  C334  1  0.383300  0.209300  0.277500  1.0  0.0287
  C  C335  1  0.373400  0.275400  0.319300  1.0  -0.1281
  C  C336  1  0.317900  0.142500  0.271900  1.0  0.0971
  C  C337  1  0.308600  0.094700  0.218400  1.0  -0.2246
  C  C338  1  0.243000  0.038200  0.213100  1.0  0.1661
  C  C339  1  0.196300  0.068900  0.310400  1.0  0.1655
  C  C340  1  0.260200  0.126800  0.319500  1.0  -0.198
  N  N341  1  0.118800  0.874400  0.162500  1.0  -0.3561
  N  N342  1  0.493700  0.544100  0.065500  1.0  -0.2274
  N  N343  1  0.553900  0.511800  0.104600  1.0  -0.2992
  N  N344  1  0.556000  0.649200  0.111200  1.0  0.1065
  N  N345  1  0.574000  0.731100  0.131800  1.0  -0.5451
  N  N346  1  0.974500  0.813600  0.242000  1.0  -0.3684
  N  N347  1  0.881200  0.125600  0.662500  1.0  -0.3556
  N  N348  1  0.506300  0.455900  0.565500  1.0  -0.2282
  N  N349  1  0.446100  0.488200  0.604600  1.0  -0.2996
  N  N350  1  0.444000  0.350800  0.611200  1.0  0.1056
  N  N351  1  0.426000  0.268900  0.631800  1.0  -0.5453
  N  N352  1  0.025500  0.186400  0.742000  1.0  -0.3689
  N  N353  1  0.625600  0.618800  0.412500  1.0  -0.3552
  N  N354  1  0.955900  0.993700  0.315500  1.0  -0.2265
  N  N355  1  0.988200  0.053900  0.354600  1.0  -0.3004
  N  N356  1  0.850800  0.056000  0.361200  1.0  0.1067
  N  N357  1  0.768900  0.074000  0.381800  1.0  -0.5451
  N  N358  1  0.686400  0.474500  0.492000  1.0  -0.3684
  N  N359  1  0.374400  0.381200  0.912500  1.0  -0.3553
  N  N360  1  0.044100  0.006300  0.815500  1.0  -0.2263
  N  N361  1  0.011800  0.946100  0.854600  1.0  -0.2996
  N  N362  1  0.149200  0.944000  0.861200  1.0  0.1062
  N  N363  1  0.231100  0.926000  0.881800  1.0  -0.5442
  N  N364  1  0.313600  0.525500  0.992000  1.0  -0.369
  N  N365  1  0.381200  0.374400  0.087500  1.0  -0.3559
  N  N366  1  0.006300  0.044100  0.184500  1.0  -0.2265
  N  N367  1  0.946100  0.011800  0.145400  1.0  -0.3004
  N  N368  1  0.944000  0.149200  0.138800  1.0  0.1058
  N  N369  1  0.926000  0.231100  0.118200  1.0  -0.5465
  N  N370  1  0.525500  0.313600  0.008000  1.0  -0.3685
  N  N371  1  0.618800  0.625600  0.587500  1.0  -0.356
  N  N372  1  0.993700  0.955900  0.684500  1.0  -0.2279
  N  N373  1  0.053900  0.988200  0.645400  1.0  -0.3002
  N  N374  1  0.056000  0.850800  0.638800  1.0  0.1057
  N  N375  1  0.074000  0.768900  0.618200  1.0  -0.5431
  N  N376  1  0.474500  0.686400  0.508000  1.0  -0.3687
  N  N377  1  0.874400  0.118800  0.837500  1.0  -0.3548
  N  N378  1  0.544100  0.493700  0.934500  1.0  -0.2264
  N  N379  1  0.511800  0.553900  0.895400  1.0  -0.3003
  N  N380  1  0.649200  0.556000  0.888800  1.0  0.1056
  N  N381  1  0.731100  0.574000  0.868200  1.0  -0.5432
  N  N382  1  0.813600  0.974500  0.758000  1.0  -0.3692
  N  N383  1  0.125600  0.881200  0.337500  1.0  -0.3553
  N  N384  1  0.455900  0.506300  0.434500  1.0  -0.2269
  N  N385  1  0.488200  0.446100  0.395400  1.0  -0.301
  N  N386  1  0.350800  0.444000  0.388800  1.0  0.1066
  N  N387  1  0.268900  0.426000  0.368200  1.0  -0.5444
  N  N388  1  0.186400  0.025500  0.258000  1.0  -0.3684
  Cl  Cl389  1  0.731180  0.731180  0.000000  1.0  1.32
  Cl  Cl390  1  0.268820  0.268820  0.500000  1.0  1.3153
  Cl  Cl391  1  0.768820  0.231180  0.250000  1.0  1.3144
  Cl  Cl392  1  0.231180  0.768820  0.750000  1.0  1.3205
  O  O393  1  0.754800  0.773200  0.052300  1.0  -0.5507
  O  O394  1  0.786900  0.662800  0.020700  1.0  -0.6314
  O  O395  1  0.773200  0.754800  0.947700  1.0  -0.5498
  O  O396  1  0.662800  0.786900  0.979300  1.0  -0.6282
  O  O397  1  0.245200  0.226800  0.552300  1.0  -0.5502
  O  O398  1  0.213100  0.337200  0.520700  1.0  -0.631
  O  O399  1  0.226800  0.245200  0.447700  1.0  -0.5492
  O  O400  1  0.337200  0.213100  0.479300  1.0  -0.6248
  O  O401  1  0.726800  0.254800  0.302300  1.0  -0.5473
  O  O402  1  0.837200  0.286900  0.270700  1.0  -0.6249
  O  O403  1  0.745200  0.273200  0.197700  1.0  -0.551
  O  O404  1  0.713100  0.162800  0.229300  1.0  -0.631
  O  O405  1  0.273200  0.745200  0.802300  1.0  -0.5474
  O  O406  1  0.162800  0.713100  0.770700  1.0  -0.6287
  O  O407  1  0.254800  0.726800  0.697700  1.0  -0.5503
  O  O408  1  0.286900  0.837200  0.729300  1.0  -0.6312
