# generated using pymatgen
data_CdH36C48N12ClO4
_symmetry_space_group_name_H-M   'P 1'
_cell_length_a   15.86330000
_cell_length_b   15.86330000
_cell_length_c   21.58600000
_cell_angle_alpha   90.00000000
_cell_angle_beta   90.00000000
_cell_angle_gamma   90.00000000
_symmetry_Int_Tables_number   1
_chemical_formula_structural   CdH36C48N12ClO4
_chemical_formula_sum   'Cd4 H144 C192 N48 Cl4 O16'
_cell_volume   5431.99357681
_cell_formula_units_Z   4
loop_
 _symmetry_equiv_pos_site_id
 _symmetry_equiv_pos_as_xyz
  1  'x, y, z'
loop_
 _atom_site_type_symbol
 _atom_site_label
 _atom_site_symmetry_multiplicity
 _atom_site_fract_x
 _atom_site_fract_y
 _atom_site_fract_z
 _atom_site_occupancy
 _atom_site_charge
  Cd  Cd1  1  0.440950  0.559050  0.250000  1.0  0.7964
  Cd  Cd2  1  0.559050  0.440950  0.750000  1.0  0.7966
  Cd  Cd3  1  0.940950  0.940950  0.500000  1.0  0.7967
  Cd  Cd4  1  0.059050  0.059050  0.000000  1.0  0.7963
  H  H5  1  0.389600  0.537400  0.098000  1.0  0.0813
  H  H6  1  0.285900  0.585900  0.032400  1.0  0.1276
  H  H7  1  0.260600  0.788100  0.145000  1.0  0.1231
  H  H8  1  0.359200  0.730400  0.209200  1.0  0.0696
  H  H9  1  0.200000  0.649100  0.968500  1.0  0.0758
  H  H10  1  0.085900  0.698200  0.914300  1.0  0.1069
  H  H11  1  0.993000  0.796900  0.957500  1.0  0.1062
  H  H12  1  0.139800  0.803200  0.111500  1.0  0.1243
  H  H13  1  0.880700  0.045900  0.210000  1.0  0.1113
  H  H14  1  0.768900  0.064500  0.279600  1.0  0.1158
  H  H15  1  0.663700  0.963600  0.287500  1.0  0.1066
  H  H16  1  0.776300  0.825400  0.154600  1.0  0.1043
  H  H17  1  0.601200  0.847700  0.314800  1.0  0.1292
  H  H18  1  0.506900  0.738200  0.324200  1.0  0.0639
  H  H19  1  0.560000  0.657600  0.157000  1.0  0.0644
  H  H20  1  0.655100  0.765400  0.142100  1.0  0.1395
  H  H21  1  0.971000  0.742500  0.144600  1.0  0.3489
  H  H22  1  0.913500  0.740100  0.097800  1.0  0.283
  H  H23  1  0.610400  0.462600  0.598000  1.0  0.0817
  H  H24  1  0.714100  0.414100  0.532400  1.0  0.1274
  H  H25  1  0.739400  0.211900  0.645000  1.0  0.1239
  H  H26  1  0.640800  0.269600  0.709200  1.0  0.0703
  H  H27  1  0.800000  0.350900  0.468500  1.0  0.0763
  H  H28  1  0.914100  0.301800  0.414300  1.0  0.1071
  H  H29  1  0.007000  0.203100  0.457500  1.0  0.106
  H  H30  1  0.860200  0.196800  0.611500  1.0  0.1248
  H  H31  1  0.119300  0.954100  0.710000  1.0  0.1111
  H  H32  1  0.231100  0.935500  0.779600  1.0  0.116
  H  H33  1  0.336300  0.036400  0.787500  1.0  0.1068
  H  H34  1  0.223700  0.174600  0.654600  1.0  0.1041
  H  H35  1  0.398800  0.152300  0.814800  1.0  0.1293
  H  H36  1  0.493100  0.261800  0.824200  1.0  0.0633
  H  H37  1  0.440000  0.342400  0.657000  1.0  0.0642
  H  H38  1  0.344900  0.234600  0.642100  1.0  0.1396
  H  H39  1  0.029000  0.257500  0.644600  1.0  0.35
  H  H40  1  0.086500  0.259900  0.597800  1.0  0.2819
  H  H41  1  0.962600  0.889600  0.348000  1.0  0.0816
  H  H42  1  0.914100  0.785900  0.282400  1.0  0.1261
  H  H43  1  0.711900  0.760600  0.395000  1.0  0.1249
  H  H44  1  0.769600  0.859200  0.459200  1.0  0.0692
  H  H45  1  0.850900  0.700000  0.218500  1.0  0.0773
  H  H46  1  0.801800  0.585900  0.164300  1.0  0.1064
  H  H47  1  0.703100  0.493000  0.207500  1.0  0.1061
  H  H48  1  0.696800  0.639800  0.361500  1.0  0.1253
  H  H49  1  0.454100  0.380700  0.460000  1.0  0.1112
  H  H50  1  0.435500  0.268900  0.529600  1.0  0.1158
  H  H51  1  0.536400  0.163700  0.537500  1.0  0.1068
  H  H52  1  0.674600  0.276300  0.404600  1.0  0.1032
  H  H53  1  0.652300  0.101200  0.564800  1.0  0.1293
  H  H54  1  0.761800  0.006900  0.574200  1.0  0.0635
  H  H55  1  0.842400  0.060000  0.407000  1.0  0.0642
  H  H56  1  0.734600  0.155100  0.392100  1.0  0.1401
  H  H57  1  0.757500  0.471000  0.394600  1.0  0.3483
  H  H58  1  0.759900  0.413500  0.347800  1.0  0.284
  H  H59  1  0.037400  0.110400  0.848000  1.0  0.0814
  H  H60  1  0.085900  0.214100  0.782400  1.0  0.1261
  H  H61  1  0.288100  0.239400  0.895000  1.0  0.1245
  H  H62  1  0.230400  0.140800  0.959200  1.0  0.0704
  H  H63  1  0.149100  0.300000  0.718500  1.0  0.0765
  H  H64  1  0.198200  0.414100  0.664300  1.0  0.1065
  H  H65  1  0.296900  0.507000  0.707500  1.0  0.1061
  H  H66  1  0.303200  0.360200  0.861500  1.0  0.1253
  H  H67  1  0.545900  0.619300  0.960000  1.0  0.1118
  H  H68  1  0.564500  0.731100  0.029600  1.0  0.1156
  H  H69  1  0.463600  0.836300  0.037500  1.0  0.1061
  H  H70  1  0.325400  0.723700  0.904600  1.0  0.1039
  H  H71  1  0.347700  0.898800  0.064800  1.0  0.1288
  H  H72  1  0.238200  0.993100  0.074200  1.0  0.0627
  H  H73  1  0.157600  0.940000  0.907000  1.0  0.064
  H  H74  1  0.265400  0.844900  0.892100  1.0  0.1403
  H  H75  1  0.242500  0.529000  0.894600  1.0  0.3486
  H  H76  1  0.240100  0.586500  0.847800  1.0  0.2841
  H  H77  1  0.110400  0.037400  0.152000  1.0  0.0816
  H  H78  1  0.214100  0.085900  0.217600  1.0  0.1274
  H  H79  1  0.239400  0.288100  0.105000  1.0  0.1232
  H  H80  1  0.140800  0.230400  0.040800  1.0  0.0697
  H  H81  1  0.300000  0.149100  0.281500  1.0  0.0764
  H  H82  1  0.414100  0.198200  0.335700  1.0  0.1071
  H  H83  1  0.507000  0.296900  0.292500  1.0  0.1042
  H  H84  1  0.360200  0.303200  0.138500  1.0  0.125
  H  H85  1  0.619300  0.545900  0.040000  1.0  0.1108
  H  H86  1  0.731100  0.564500  0.970400  1.0  0.1161
  H  H87  1  0.836300  0.463600  0.962500  1.0  0.1068
  H  H88  1  0.723700  0.325400  0.095400  1.0  0.1041
  H  H89  1  0.898800  0.347700  0.935200  1.0  0.1291
  H  H90  1  0.993100  0.238200  0.925800  1.0  0.0621
  H  H91  1  0.940000  0.157600  0.093000  1.0  0.0642
  H  H92  1  0.844900  0.265400  0.107900  1.0  0.139
  H  H93  1  0.529000  0.242500  0.105400  1.0  0.3492
  H  H94  1  0.586500  0.240100  0.152200  1.0  0.2823
  H  H95  1  0.889600  0.962600  0.652000  1.0  0.0811
  H  H96  1  0.785900  0.914100  0.717600  1.0  0.1277
  H  H97  1  0.760600  0.711900  0.605000  1.0  0.1226
  H  H98  1  0.859200  0.769600  0.540800  1.0  0.0701
  H  H99  1  0.700000  0.850900  0.781500  1.0  0.0762
  H  H100  1  0.585900  0.801800  0.835700  1.0  0.107
  H  H101  1  0.493000  0.703100  0.792500  1.0  0.1041
  H  H102  1  0.639800  0.696800  0.638500  1.0  0.1251
  H  H103  1  0.380700  0.454100  0.540000  1.0  0.1113
  H  H104  1  0.268900  0.435500  0.470400  1.0  0.1157
  H  H105  1  0.163700  0.536400  0.462500  1.0  0.1065
  H  H106  1  0.276300  0.674600  0.595400  1.0  0.1036
  H  H107  1  0.101200  0.652300  0.435200  1.0  0.1287
  H  H108  1  0.006900  0.761800  0.425800  1.0  0.0618
  H  H109  1  0.060000  0.842400  0.593000  1.0  0.0636
  H  H110  1  0.155100  0.734600  0.607900  1.0  0.1398
  H  H111  1  0.471000  0.757500  0.605400  1.0  0.3476
  H  H112  1  0.413500  0.759900  0.652200  1.0  0.2819
  H  H113  1  0.537400  0.389600  0.902000  1.0  0.0813
  H  H114  1  0.585900  0.285900  0.967600  1.0  0.1264
  H  H115  1  0.788100  0.260600  0.855000  1.0  0.1242
  H  H116  1  0.730400  0.359200  0.790800  1.0  0.0704
  H  H117  1  0.649100  0.200000  0.031500  1.0  0.0763
  H  H118  1  0.698200  0.085900  0.085700  1.0  0.1069
  H  H119  1  0.796900  0.993000  0.042500  1.0  0.1041
  H  H120  1  0.803200  0.139800  0.888500  1.0  0.1256
  H  H121  1  0.045900  0.880700  0.790000  1.0  0.1115
  H  H122  1  0.064500  0.768900  0.720400  1.0  0.1156
  H  H123  1  0.963600  0.663700  0.712500  1.0  0.1064
  H  H124  1  0.825400  0.776300  0.845400  1.0  0.1035
  H  H125  1  0.847700  0.601200  0.685200  1.0  0.1287
  H  H126  1  0.738200  0.506900  0.675800  1.0  0.0616
  H  H127  1  0.657600  0.560000  0.843000  1.0  0.0636
  H  H128  1  0.765400  0.655100  0.857900  1.0  0.1401
  H  H129  1  0.742500  0.971000  0.855400  1.0  0.3494
  H  H130  1  0.740100  0.913500  0.902200  1.0  0.2842
  H  H131  1  0.462600  0.610400  0.402000  1.0  0.0817
  H  H132  1  0.414100  0.714100  0.467600  1.0  0.1259
  H  H133  1  0.211900  0.739400  0.355000  1.0  0.1242
  H  H134  1  0.269600  0.640800  0.290800  1.0  0.0694
  H  H135  1  0.350900  0.800000  0.531500  1.0  0.077
  H  H136  1  0.301800  0.914100  0.585700  1.0  0.1062
  H  H137  1  0.203100  0.007000  0.542500  1.0  0.1043
  H  H138  1  0.196800  0.860200  0.388500  1.0  0.1256
  H  H139  1  0.954100  0.119300  0.290000  1.0  0.111
  H  H140  1  0.935500  0.231100  0.220400  1.0  0.1158
  H  H141  1  0.036400  0.336300  0.212500  1.0  0.1068
  H  H142  1  0.174600  0.223700  0.345400  1.0  0.1033
  H  H143  1  0.152300  0.398800  0.185200  1.0  0.1285
  H  H144  1  0.261800  0.493100  0.175800  1.0  0.0617
  H  H145  1  0.342400  0.440000  0.343000  1.0  0.0639
  H  H146  1  0.234600  0.344900  0.357900  1.0  0.1397
  H  H147  1  0.257500  0.029000  0.355400  1.0  0.3468
  H  H148  1  0.259900  0.086500  0.402200  1.0  0.284
  C  C149  1  0.360200  0.587300  0.109000  1.0  0.1538
  C  C150  1  0.298600  0.616200  0.069200  1.0  -0.2042
  C  C151  1  0.255100  0.690200  0.083100  1.0  0.1011
  C  C152  1  0.283400  0.734200  0.135600  1.0  -0.2284
  C  C153  1  0.343300  0.699800  0.173200  1.0  0.1476
  C  C154  1  0.182800  0.721000  0.046200  1.0  0.0127
  C  C155  1  0.164500  0.690400  0.986700  1.0  -0.1045
  C  C156  1  0.096200  0.719300  0.954800  1.0  -0.073
  C  C157  1  0.041400  0.778600  0.979700  1.0  -0.1311
  C  C158  1  0.060000  0.810400  0.038600  1.0  -0.0621
  C  C159  1  0.128900  0.781500  0.071300  1.0  -0.1157
  C  C160  1  0.003800  0.872700  0.069400  1.0  0.2435
  C  C161  1  0.909200  0.923900  0.132000  1.0  0.2726
  C  C162  1  0.838800  0.932500  0.176500  1.0  -0.0061
  C  C163  1  0.837300  0.004800  0.213200  1.0  -0.06
  C  C164  1  0.771100  0.015500  0.254300  1.0  -0.0765
  C  C165  1  0.708400  0.955400  0.258900  1.0  -0.1002
  C  C166  1  0.709300  0.883500  0.222600  1.0  0.0192
  C  C167  1  0.775200  0.873600  0.180700  1.0  -0.1102
  C  C168  1  0.642500  0.818000  0.228100  1.0  0.103
  C  C169  1  0.594800  0.808800  0.281700  1.0  -0.2125
  C  C170  1  0.538300  0.743300  0.286900  1.0  0.1644
  C  C171  1  0.569000  0.696500  0.189700  1.0  0.1698
  C  C172  1  0.626500  0.760500  0.180600  1.0  -0.1965
  C  C173  1  0.639800  0.412700  0.609000  1.0  0.1545
  C  C174  1  0.701400  0.383800  0.569200  1.0  -0.2037
  C  C175  1  0.744900  0.309800  0.583100  1.0  0.1003
  C  C176  1  0.716600  0.265800  0.635600  1.0  -0.2282
  C  C177  1  0.656700  0.300200  0.673200  1.0  0.1462
  C  C178  1  0.817200  0.279000  0.546200  1.0  0.0121
  C  C179  1  0.835500  0.309600  0.486700  1.0  -0.1046
  C  C180  1  0.903800  0.280700  0.454800  1.0  -0.0713
  C  C181  1  0.958600  0.221400  0.479700  1.0  -0.1316
  C  C182  1  0.940000  0.189600  0.538600  1.0  -0.0614
  C  C183  1  0.871100  0.218500  0.571300  1.0  -0.116
  C  C184  1  0.996200  0.127300  0.569400  1.0  0.2441
  C  C185  1  0.090800  0.076100  0.632000  1.0  0.2725
  C  C186  1  0.161200  0.067500  0.676500  1.0  -0.0055
  C  C187  1  0.162700  0.995200  0.713200  1.0  -0.0593
  C  C188  1  0.228900  0.984500  0.754300  1.0  -0.0763
  C  C189  1  0.291600  0.044600  0.758900  1.0  -0.0996
  C  C190  1  0.290700  0.116500  0.722600  1.0  0.018
  C  C191  1  0.224800  0.126400  0.680700  1.0  -0.1114
  C  C192  1  0.357500  0.182000  0.728100  1.0  0.1034
  C  C193  1  0.405200  0.191200  0.781700  1.0  -0.212
  C  C194  1  0.461700  0.256700  0.786900  1.0  0.1647
  C  C195  1  0.431000  0.303500  0.689700  1.0  0.1706
  C  C196  1  0.373500  0.239500  0.680600  1.0  -0.1958
  C  C197  1  0.912700  0.860200  0.359000  1.0  0.1554
  C  C198  1  0.883800  0.798600  0.319200  1.0  -0.2013
  C  C199  1  0.809800  0.755100  0.333100  1.0  0.1005
  C  C200  1  0.765800  0.783400  0.385600  1.0  -0.2267
  C  C201  1  0.800200  0.843300  0.423200  1.0  0.149
  C  C202  1  0.779000  0.682800  0.296200  1.0  0.0128
  C  C203  1  0.809600  0.664500  0.236700  1.0  -0.1022
  C  C204  1  0.780700  0.596200  0.204800  1.0  -0.072
  C  C205  1  0.721400  0.541400  0.229700  1.0  -0.1276
  C  C206  1  0.689600  0.560000  0.288600  1.0  -0.0613
  C  C207  1  0.718500  0.628900  0.321300  1.0  -0.1161
  C  C208  1  0.627300  0.503800  0.319400  1.0  0.2429
  C  C209  1  0.576100  0.409200  0.382000  1.0  0.274
  C  C210  1  0.567500  0.338800  0.426500  1.0  -0.0066
  C  C211  1  0.495200  0.337300  0.463200  1.0  -0.0595
  C  C212  1  0.484500  0.271100  0.504300  1.0  -0.0793
  C  C213  1  0.544600  0.208400  0.508900  1.0  -0.1009
  C  C214  1  0.616500  0.209300  0.472600  1.0  0.0183
  C  C215  1  0.626400  0.275200  0.430700  1.0  -0.1118
  C  C216  1  0.682000  0.142500  0.478100  1.0  0.1035
  C  C217  1  0.691200  0.094800  0.531700  1.0  -0.2131
  C  C218  1  0.756700  0.038300  0.536900  1.0  0.1661
  C  C219  1  0.803500  0.069000  0.439700  1.0  0.1703
  C  C220  1  0.739500  0.126500  0.430600  1.0  -0.1956
  C  C221  1  0.087300  0.139800  0.859000  1.0  0.1558
  C  C222  1  0.116200  0.201400  0.819200  1.0  -0.202
  C  C223  1  0.190200  0.244900  0.833100  1.0  0.1014
  C  C224  1  0.234200  0.216600  0.885600  1.0  -0.2274
  C  C225  1  0.199800  0.156700  0.923200  1.0  0.1493
  C  C226  1  0.221000  0.317200  0.796200  1.0  0.0145
  C  C227  1  0.190400  0.335500  0.736700  1.0  -0.1023
  C  C228  1  0.219300  0.403800  0.704800  1.0  -0.0711
  C  C229  1  0.278600  0.458600  0.729700  1.0  -0.1304
  C  C230  1  0.310400  0.440000  0.788600  1.0  -0.0613
  C  C231  1  0.281500  0.371100  0.821300  1.0  -0.116
  C  C232  1  0.372700  0.496200  0.819400  1.0  0.2431
  C  C233  1  0.423900  0.590800  0.882000  1.0  0.2744
  C  C234  1  0.432500  0.661200  0.926500  1.0  -0.0069
  C  C235  1  0.504800  0.662700  0.963200  1.0  -0.0599
  C  C236  1  0.515500  0.728900  0.004300  1.0  -0.079
  C  C237  1  0.455400  0.791600  0.008900  1.0  -0.1006
  C  C238  1  0.383500  0.790700  0.972600  1.0  0.0174
  C  C239  1  0.373600  0.724800  0.930700  1.0  -0.112
  C  C240  1  0.318000  0.857500  0.978100  1.0  0.1036
  C  C241  1  0.308800  0.905200  0.031700  1.0  -0.2119
  C  C242  1  0.243300  0.961700  0.036900  1.0  0.166
  C  C243  1  0.196500  0.931000  0.939700  1.0  0.1707
  C  C244  1  0.260500  0.873500  0.930600  1.0  -0.1962
  C  C245  1  0.139800  0.087300  0.141000  1.0  0.1549
  C  C246  1  0.201400  0.116200  0.180800  1.0  -0.2037
  C  C247  1  0.244900  0.190200  0.166900  1.0  0.1008
  C  C248  1  0.216600  0.234200  0.114400  1.0  -0.2275
  C  C249  1  0.156700  0.199800  0.076800  1.0  0.1473
  C  C250  1  0.317200  0.221000  0.203800  1.0  0.0121
  C  C251  1  0.335500  0.190400  0.263300  1.0  -0.1046
  C  C252  1  0.403800  0.219300  0.295200  1.0  -0.0732
  C  C253  1  0.458600  0.278600  0.270300  1.0  -0.132
  C  C254  1  0.440000  0.310400  0.211400  1.0  -0.0619
  C  C255  1  0.371100  0.281500  0.178700  1.0  -0.1166
  C  C256  1  0.496200  0.372700  0.180600  1.0  0.2438
  C  C257  1  0.590800  0.423900  0.118000  1.0  0.2716
  C  C258  1  0.661200  0.432500  0.073500  1.0  -0.0055
  C  C259  1  0.662700  0.504800  0.036800  1.0  -0.0595
  C  C260  1  0.728900  0.515500  0.995700  1.0  -0.0758
  C  C261  1  0.791600  0.455400  0.991100  1.0  -0.0998
  C  C262  1  0.790700  0.383500  0.027400  1.0  0.018
  C  C263  1  0.724800  0.373600  0.069300  1.0  -0.1109
  C  C264  1  0.857500  0.318000  0.021900  1.0  0.103
  C  C265  1  0.905200  0.308800  0.968300  1.0  -0.2107
  C  C266  1  0.961700  0.243300  0.963100  1.0  0.1651
  C  C267  1  0.931000  0.196500  0.060300  1.0  0.1705
  C  C268  1  0.873500  0.260500  0.069400  1.0  -0.1952
  C  C269  1  0.860200  0.912700  0.641000  1.0  0.1541
  C  C270  1  0.798600  0.883800  0.680800  1.0  -0.2042
  C  C271  1  0.755100  0.809800  0.666900  1.0  0.1016
  C  C272  1  0.783400  0.765800  0.614400  1.0  -0.2281
  C  C273  1  0.843300  0.800200  0.576800  1.0  0.1477
  C  C274  1  0.682800  0.779000  0.703800  1.0  0.0129
  C  C275  1  0.664500  0.809600  0.763300  1.0  -0.1053
  C  C276  1  0.596200  0.780700  0.795200  1.0  -0.0714
  C  C277  1  0.541400  0.721400  0.770300  1.0  -0.132
  C  C278  1  0.560000  0.689600  0.711400  1.0  -0.0629
  C  C279  1  0.628900  0.718500  0.678700  1.0  -0.1159
  C  C280  1  0.503800  0.627300  0.680600  1.0  0.2438
  C  C281  1  0.409200  0.576100  0.618000  1.0  0.2717
  C  C282  1  0.338800  0.567500  0.573500  1.0  -0.0058
  C  C283  1  0.337300  0.495200  0.536800  1.0  -0.0594
  C  C284  1  0.271100  0.484500  0.495700  1.0  -0.0761
  C  C285  1  0.208400  0.544600  0.491100  1.0  -0.1
  C  C286  1  0.209300  0.616500  0.527400  1.0  0.0188
  C  C287  1  0.275200  0.626400  0.569300  1.0  -0.1111
  C  C288  1  0.142500  0.682000  0.521900  1.0  0.1034
  C  C289  1  0.094800  0.691200  0.468300  1.0  -0.2129
  C  C290  1  0.038300  0.756700  0.463100  1.0  0.1641
  C  C291  1  0.069000  0.803500  0.560300  1.0  0.1699
  C  C292  1  0.126500  0.739500  0.569400  1.0  -0.1951
  C  C293  1  0.587300  0.360200  0.891000  1.0  0.156
  C  C294  1  0.616200  0.298600  0.930800  1.0  -0.2013
  C  C295  1  0.690200  0.255100  0.916900  1.0  0.1015
  C  C296  1  0.734200  0.283400  0.864400  1.0  -0.2271
  C  C297  1  0.699800  0.343300  0.826800  1.0  0.1497
  C  C298  1  0.721000  0.182800  0.953800  1.0  0.0138
  C  C299  1  0.690400  0.164500  0.013300  1.0  -0.1024
  C  C300  1  0.719300  0.096200  0.045200  1.0  -0.0711
  C  C301  1  0.778600  0.041400  0.020300  1.0  -0.1298
  C  C302  1  0.810400  0.060000  0.961400  1.0  -0.0615
  C  C303  1  0.781500  0.128900  0.928700  1.0  -0.1165
  C  C304  1  0.872700  0.003800  0.930600  1.0  0.2427
  C  C305  1  0.923900  0.909200  0.868000  1.0  0.273
  C  C306  1  0.932500  0.838800  0.823500  1.0  -0.0071
  C  C307  1  0.004800  0.837300  0.786800  1.0  -0.0595
  C  C308  1  0.015500  0.771100  0.745700  1.0  -0.0784
  C  C309  1  0.955400  0.708400  0.741100  1.0  -0.1016
  C  C310  1  0.883500  0.709300  0.777400  1.0  0.0183
  C  C311  1  0.873600  0.775200  0.819300  1.0  -0.1121
  C  C312  1  0.818000  0.642500  0.771900  1.0  0.1033
  C  C313  1  0.808800  0.594800  0.718300  1.0  -0.2129
  C  C314  1  0.743300  0.538300  0.713100  1.0  0.1659
  C  C315  1  0.696500  0.569000  0.810300  1.0  0.1711
  C  C316  1  0.760500  0.626500  0.819400  1.0  -0.1955
  C  C317  1  0.412700  0.639800  0.391000  1.0  0.1548
  C  C318  1  0.383800  0.701400  0.430800  1.0  -0.2017
  C  C319  1  0.309800  0.744900  0.416900  1.0  0.1013
  C  C320  1  0.265800  0.716600  0.364400  1.0  -0.2259
  C  C321  1  0.300200  0.656700  0.326800  1.0  0.1493
  C  C322  1  0.279000  0.817200  0.453800  1.0  0.0138
  C  C323  1  0.309600  0.835500  0.513300  1.0  -0.1031
  C  C324  1  0.280700  0.903800  0.545200  1.0  -0.0718
  C  C325  1  0.221400  0.958600  0.520300  1.0  -0.1297
  C  C326  1  0.189600  0.940000  0.461400  1.0  -0.0619
  C  C327  1  0.218500  0.871100  0.428700  1.0  -0.1165
  C  C328  1  0.127300  0.996200  0.430600  1.0  0.2428
  C  C329  1  0.076100  0.090800  0.368000  1.0  0.273
  C  C330  1  0.067500  0.161200  0.323500  1.0  -0.0061
  C  C331  1  0.995200  0.162700  0.286800  1.0  -0.0591
  C  C332  1  0.984500  0.228900  0.245700  1.0  -0.0789
  C  C333  1  0.044600  0.291600  0.241100  1.0  -0.0993
  C  C334  1  0.116500  0.290700  0.277400  1.0  0.0181
  C  C335  1  0.126400  0.224800  0.319300  1.0  -0.1115
  C  C336  1  0.182000  0.357500  0.271900  1.0  0.1043
  C  C337  1  0.191200  0.405200  0.218300  1.0  -0.2129
  C  C338  1  0.256700  0.461700  0.213100  1.0  0.1663
  C  C339  1  0.303500  0.431000  0.310300  1.0  0.1708
  C  C340  1  0.239500  0.373500  0.319400  1.0  -0.1946
  N  N341  1  0.381200  0.625700  0.162500  1.0  -0.3555
  N  N342  1  0.006400  0.955900  0.065500  1.0  -0.2262
  N  N343  1  0.945800  0.988300  0.104500  1.0  -0.2959
  N  N344  1  0.944000  0.850900  0.111200  1.0  0.1051
  N  N345  1  0.925600  0.769100  0.131700  1.0  -0.541
  N  N346  1  0.525400  0.686300  0.242100  1.0  -0.3642
  N  N347  1  0.618800  0.374300  0.662500  1.0  -0.3554
  N  N348  1  0.993600  0.044100  0.565500  1.0  -0.2254
  N  N349  1  0.054200  0.011700  0.604500  1.0  -0.2957
  N  N350  1  0.056000  0.149100  0.611200  1.0  0.1054
  N  N351  1  0.074400  0.230900  0.631700  1.0  -0.5408
  N  N352  1  0.474600  0.313700  0.742100  1.0  -0.3641
  N  N353  1  0.874300  0.881200  0.412500  1.0  -0.3542
  N  N354  1  0.544100  0.506400  0.315500  1.0  -0.2247
  N  N355  1  0.511700  0.445800  0.354500  1.0  -0.2948
  N  N356  1  0.649100  0.444000  0.361200  1.0  0.1056
  N  N357  1  0.730900  0.425600  0.381700  1.0  -0.541
  N  N358  1  0.813700  0.025400  0.492100  1.0  -0.3645
  N  N359  1  0.125700  0.118800  0.912500  1.0  -0.3543
  N  N360  1  0.455900  0.493600  0.815500  1.0  -0.2247
  N  N361  1  0.488300  0.554200  0.854500  1.0  -0.2958
  N  N362  1  0.350900  0.556000  0.861200  1.0  0.1057
  N  N363  1  0.269100  0.574400  0.881700  1.0  -0.5413
  N  N364  1  0.186300  0.974600  0.992100  1.0  -0.3639
  N  N365  1  0.118800  0.125700  0.087500  1.0  -0.3556
  N  N366  1  0.493600  0.455900  0.184500  1.0  -0.2257
  N  N367  1  0.554200  0.488300  0.145500  1.0  -0.2964
  N  N368  1  0.556000  0.350900  0.138800  1.0  0.1053
  N  N369  1  0.574400  0.269100  0.118300  1.0  -0.5397
  N  N370  1  0.974600  0.186300  0.007900  1.0  -0.3643
  N  N371  1  0.881200  0.874300  0.587500  1.0  -0.3558
  N  N372  1  0.506400  0.544100  0.684500  1.0  -0.2246
  N  N373  1  0.445800  0.511700  0.645500  1.0  -0.2968
  N  N374  1  0.444000  0.649100  0.638800  1.0  0.1052
  N  N375  1  0.425600  0.730900  0.618300  1.0  -0.5409
  N  N376  1  0.025400  0.813700  0.507900  1.0  -0.3636
  N  N377  1  0.625700  0.381200  0.837500  1.0  -0.3546
  N  N378  1  0.955900  0.006400  0.934500  1.0  -0.225
  N  N379  1  0.988300  0.945800  0.895500  1.0  -0.2968
  N  N380  1  0.850900  0.944000  0.888800  1.0  0.1057
  N  N381  1  0.769100  0.925600  0.868300  1.0  -0.5406
  N  N382  1  0.686300  0.525400  0.757900  1.0  -0.3638
  N  N383  1  0.374300  0.618800  0.337500  1.0  -0.3545
  N  N384  1  0.044100  0.993600  0.434500  1.0  -0.2246
  N  N385  1  0.011700  0.054200  0.395500  1.0  -0.2961
  N  N386  1  0.149100  0.056000  0.388800  1.0  0.1056
  N  N387  1  0.230900  0.074400  0.368300  1.0  -0.5394
  N  N388  1  0.313700  0.474600  0.257900  1.0  -0.3645
  Cl  Cl389  1  0.768880  0.768880  0.000000  1.0  0.95
  Cl  Cl390  1  0.231120  0.231120  0.500000  1.0  0.9532
  Cl  Cl391  1  0.731120  0.268880  0.250000  1.0  0.9516
  Cl  Cl392  1  0.268880  0.731120  0.750000  1.0  0.9507
  O  O393  1  0.744800  0.727500  0.052200  1.0  -0.5262
  O  O394  1  0.705900  0.841700  0.022300  1.0  -0.6661
  O  O395  1  0.727500  0.744800  0.947800  1.0  -0.5268
  O  O396  1  0.841700  0.705900  0.977700  1.0  -0.6656
  O  O397  1  0.255200  0.272500  0.552200  1.0  -0.5267
  O  O398  1  0.294100  0.158300  0.522300  1.0  -0.6651
  O  O399  1  0.272500  0.255200  0.447800  1.0  -0.5272
  O  O400  1  0.158300  0.294100  0.477700  1.0  -0.6666
  O  O401  1  0.772500  0.244800  0.302200  1.0  -0.5262
  O  O402  1  0.658300  0.205900  0.272300  1.0  -0.6655
  O  O403  1  0.755200  0.227500  0.197800  1.0  -0.5277
  O  O404  1  0.794100  0.341700  0.227700  1.0  -0.6649
  O  O405  1  0.227500  0.755200  0.802200  1.0  -0.5262
  O  O406  1  0.341700  0.794100  0.772300  1.0  -0.6662
  O  O407  1  0.244800  0.772500  0.697800  1.0  -0.5277
  O  O408  1  0.205900  0.658300  0.727700  1.0  -0.6652
