# generated using pymatgen
data_TbH27(C11O3)3
_symmetry_space_group_name_H-M   'P 1'
_cell_length_a   30.77300000
_cell_length_b   9.30880000
_cell_length_c   30.41100000
_cell_angle_alpha   90.00000000
_cell_angle_beta   111.27200000
_cell_angle_gamma   90.00000000
_symmetry_Int_Tables_number   1
_chemical_formula_structural   TbH27(C11O3)3
_chemical_formula_sum   'Tb8 H216 C264 O72'
_cell_volume   8117.99784588
_cell_formula_units_Z   8
loop_
 _symmetry_equiv_pos_site_id
 _symmetry_equiv_pos_as_xyz
  1  'x, y, z'
loop_
 _atom_site_type_symbol
 _atom_site_label
 _atom_site_symmetry_multiplicity
 _atom_site_fract_x
 _atom_site_fract_y
 _atom_site_fract_z
 _atom_site_occupancy
 _atom_site_charge
  Tb  Tb1  1  0.244870  0.954710  0.477800  1.0  2.2944
  Tb  Tb2  1  0.744870  0.454710  0.477800  1.0  2.2934
  Tb  Tb3  1  0.755130  0.954710  0.022200  1.0  2.2942
  Tb  Tb4  1  0.255130  0.454710  0.022200  1.0  2.294
  Tb  Tb5  1  0.755130  0.045290  0.522200  1.0  2.2944
  Tb  Tb6  1  0.255130  0.545290  0.522200  1.0  2.2937
  Tb  Tb7  1  0.244870  0.045290  0.977800  1.0  2.2941
  Tb  Tb8  1  0.744870  0.545290  0.977800  1.0  2.2942
  H  H9  1  0.363600  0.100600  0.474800  1.0  0.1114
  H  H10  1  0.432200  0.152400  0.464200  1.0  0.0889
  H  H11  1  0.481400  0.335600  0.509000  1.0  0.1205
  H  H12  1  0.382300  0.446100  0.559400  1.0  0.1146
  H  H13  1  0.624400  0.711600  0.833000  1.0  0.1342
  H  H14  1  0.538400  0.052200  0.809500  1.0  0.1129
  H  H15  1  0.570400  0.116000  0.886900  1.0  0.1212
  H  H16  1  0.635600  0.991700  0.936500  1.0  0.0944
  H  H17  1  0.646800  0.537400  0.562000  1.0  0.1175
  H  H18  1  0.587000  0.554700  0.588200  1.0  0.1003
  H  H19  1  0.549800  0.348800  0.602700  1.0  0.1259
  H  H20  1  0.641200  0.108200  0.568200  1.0  0.1076
  H  H21  1  0.436200  0.563200  0.608600  1.0  0.0862
  H  H22  1  0.425300  0.668900  0.565600  1.0  0.0605
  H  H23  1  0.570100  0.643900  0.752200  1.0  0.1017
  H  H24  1  0.607500  0.761300  0.753100  1.0  0.0979
  H  H25  1  0.507300  0.106600  0.581900  1.0  0.0906
  H  H26  1  0.539700  0.151100  0.633200  1.0  0.0846
  H  H27  1  0.488000  0.546400  0.702500  1.0  0.1169
  H  H28  1  0.536200  0.489800  0.703100  1.0  0.1178
  H  H29  1  0.491000  0.465700  0.658500  1.0  0.1126
  H  H30  1  0.601100  0.069000  0.683500  1.0  0.0967
  H  H31  1  0.618600  0.953700  0.723700  1.0  0.1014
  H  H32  1  0.578900  0.061000  0.722400  1.0  0.1278
  H  H33  1  0.486300  0.942100  0.535300  1.0  0.1065
  H  H34  1  0.439500  0.907700  0.542700  1.0  0.1144
  H  H35  1  0.466200  0.785500  0.527500  1.0  0.1205
  H  H36  1  0.863600  0.600600  0.474800  1.0  0.1114
  H  H37  1  0.932200  0.652400  0.464200  1.0  0.0889
  H  H38  1  0.981400  0.835600  0.509000  1.0  0.1205
  H  H39  1  0.882300  0.946100  0.559400  1.0  0.1146
  H  H40  1  0.124400  0.211600  0.833000  1.0  0.1342
  H  H41  1  0.038400  0.552200  0.809500  1.0  0.1129
  H  H42  1  0.070400  0.616000  0.886900  1.0  0.1212
  H  H43  1  0.135600  0.491700  0.936500  1.0  0.0944
  H  H44  1  0.146800  0.037400  0.562000  1.0  0.1175
  H  H45  1  0.087000  0.054700  0.588200  1.0  0.1003
  H  H46  1  0.049800  0.848800  0.602700  1.0  0.1259
  H  H47  1  0.141200  0.608200  0.568200  1.0  0.1076
  H  H48  1  0.936200  0.063200  0.608600  1.0  0.0862
  H  H49  1  0.925300  0.168900  0.565600  1.0  0.0605
  H  H50  1  0.070100  0.143900  0.752200  1.0  0.1017
  H  H51  1  0.107500  0.261300  0.753100  1.0  0.0979
  H  H52  1  0.007300  0.606600  0.581900  1.0  0.0906
  H  H53  1  0.039700  0.651100  0.633200  1.0  0.0846
  H  H54  1  0.988000  0.046400  0.702500  1.0  0.1169
  H  H55  1  0.036200  0.989800  0.703100  1.0  0.1178
  H  H56  1  0.991000  0.965700  0.658500  1.0  0.1126
  H  H57  1  0.101100  0.569000  0.683500  1.0  0.0967
  H  H58  1  0.118600  0.453700  0.723700  1.0  0.1014
  H  H59  1  0.078900  0.561000  0.722400  1.0  0.1278
  H  H60  1  0.986300  0.442100  0.535300  1.0  0.1065
  H  H61  1  0.939500  0.407700  0.542700  1.0  0.1144
  H  H62  1  0.966200  0.285500  0.527500  1.0  0.1205
  H  H63  1  0.636400  0.100600  0.025200  1.0  0.1125
  H  H64  1  0.567800  0.152400  0.035800  1.0  0.0894
  H  H65  1  0.518600  0.335600  0.991000  1.0  0.1199
  H  H66  1  0.617700  0.446100  0.940600  1.0  0.1143
  H  H67  1  0.375600  0.711600  0.667000  1.0  0.1352
  H  H68  1  0.461600  0.052200  0.690500  1.0  0.1128
  H  H69  1  0.429600  0.116000  0.613100  1.0  0.1209
  H  H70  1  0.364400  0.991700  0.563500  1.0  0.0951
  H  H71  1  0.353200  0.537400  0.938000  1.0  0.1169
  H  H72  1  0.413000  0.554700  0.911800  1.0  0.1
  H  H73  1  0.450200  0.348800  0.897300  1.0  0.1262
  H  H74  1  0.358800  0.108200  0.931800  1.0  0.1069
  H  H75  1  0.563800  0.563200  0.891400  1.0  0.086
  H  H76  1  0.574700  0.668900  0.934400  1.0  0.06
  H  H77  1  0.429900  0.643900  0.747800  1.0  0.1011
  H  H78  1  0.392500  0.761300  0.746900  1.0  0.0987
  H  H79  1  0.492700  0.106600  0.918100  1.0  0.0908
  H  H80  1  0.460300  0.151100  0.866800  1.0  0.0838
  H  H81  1  0.512000  0.546400  0.797500  1.0  0.1172
  H  H82  1  0.463800  0.489800  0.796900  1.0  0.1173
  H  H83  1  0.509000  0.465700  0.841500  1.0  0.1131
  H  H84  1  0.398900  0.069000  0.816500  1.0  0.0962
  H  H85  1  0.381400  0.953700  0.776300  1.0  0.1032
  H  H86  1  0.421100  0.061000  0.777600  1.0  0.1268
  H  H87  1  0.513700  0.942100  0.964700  1.0  0.1059
  H  H88  1  0.560500  0.907700  0.957300  1.0  0.116
  H  H89  1  0.533800  0.785500  0.972500  1.0  0.1208
  H  H90  1  0.136400  0.600600  0.025200  1.0  0.1125
  H  H91  1  0.067800  0.652400  0.035800  1.0  0.0894
  H  H92  1  0.018600  0.835600  0.991000  1.0  0.1199
  H  H93  1  0.117700  0.946100  0.940600  1.0  0.1143
  H  H94  1  0.875600  0.211600  0.667000  1.0  0.1352
  H  H95  1  0.961600  0.552200  0.690500  1.0  0.1128
  H  H96  1  0.929600  0.616000  0.613100  1.0  0.1209
  H  H97  1  0.864400  0.491700  0.563500  1.0  0.0951
  H  H98  1  0.853200  0.037400  0.938000  1.0  0.1169
  H  H99  1  0.913000  0.054700  0.911800  1.0  0.1
  H  H100  1  0.950200  0.848800  0.897300  1.0  0.1262
  H  H101  1  0.858800  0.608200  0.931800  1.0  0.1069
  H  H102  1  0.063800  0.063200  0.891400  1.0  0.086
  H  H103  1  0.074700  0.168900  0.934400  1.0  0.06
  H  H104  1  0.929900  0.143900  0.747800  1.0  0.1011
  H  H105  1  0.892500  0.261300  0.746900  1.0  0.0987
  H  H106  1  0.992700  0.606600  0.918100  1.0  0.0908
  H  H107  1  0.960300  0.651100  0.866800  1.0  0.0838
  H  H108  1  0.012000  0.046400  0.797500  1.0  0.1172
  H  H109  1  0.963800  0.989800  0.796900  1.0  0.1173
  H  H110  1  0.009000  0.965700  0.841500  1.0  0.1131
  H  H111  1  0.898900  0.569000  0.816500  1.0  0.0962
  H  H112  1  0.881400  0.453700  0.776300  1.0  0.1032
  H  H113  1  0.921100  0.561000  0.777600  1.0  0.1268
  H  H114  1  0.013700  0.442100  0.964700  1.0  0.1059
  H  H115  1  0.060500  0.407700  0.957300  1.0  0.116
  H  H116  1  0.033800  0.285500  0.972500  1.0  0.1208
  H  H117  1  0.636400  0.899400  0.525200  1.0  0.1121
  H  H118  1  0.567800  0.847600  0.535800  1.0  0.0893
  H  H119  1  0.518600  0.664400  0.491000  1.0  0.1207
  H  H120  1  0.617700  0.553900  0.440600  1.0  0.1144
  H  H121  1  0.375600  0.288400  0.167000  1.0  0.1354
  H  H122  1  0.461600  0.947800  0.190500  1.0  0.1133
  H  H123  1  0.429600  0.884000  0.113100  1.0  0.1204
  H  H124  1  0.364400  0.008300  0.063500  1.0  0.0951
  H  H125  1  0.353200  0.462600  0.438000  1.0  0.1163
  H  H126  1  0.413000  0.445300  0.411800  1.0  0.1004
  H  H127  1  0.450200  0.651200  0.397300  1.0  0.1259
  H  H128  1  0.358800  0.891800  0.431800  1.0  0.108
  H  H129  1  0.563800  0.436800  0.391400  1.0  0.0863
  H  H130  1  0.574700  0.331100  0.434400  1.0  0.0603
  H  H131  1  0.429900  0.356100  0.247800  1.0  0.1001
  H  H132  1  0.392500  0.238700  0.246900  1.0  0.099
  H  H133  1  0.492700  0.893400  0.418100  1.0  0.0909
  H  H134  1  0.460300  0.848900  0.366800  1.0  0.0831
  H  H135  1  0.512000  0.453600  0.297500  1.0  0.1174
  H  H136  1  0.463800  0.510200  0.296900  1.0  0.1166
  H  H137  1  0.509000  0.534300  0.341500  1.0  0.113
  H  H138  1  0.398900  0.931000  0.316500  1.0  0.0957
  H  H139  1  0.381400  0.046300  0.276300  1.0  0.103
  H  H140  1  0.421100  0.939000  0.277600  1.0  0.1273
  H  H141  1  0.513700  0.057900  0.464700  1.0  0.1064
  H  H142  1  0.560500  0.092300  0.457300  1.0  0.1163
  H  H143  1  0.533800  0.214500  0.472500  1.0  0.1197
  H  H144  1  0.136400  0.399400  0.525200  1.0  0.1121
  H  H145  1  0.067800  0.347600  0.535800  1.0  0.0893
  H  H146  1  0.018600  0.164400  0.491000  1.0  0.1207
  H  H147  1  0.117700  0.053900  0.440600  1.0  0.1144
  H  H148  1  0.875600  0.788400  0.167000  1.0  0.1354
  H  H149  1  0.961600  0.447800  0.190500  1.0  0.1133
  H  H150  1  0.929600  0.384000  0.113100  1.0  0.1204
  H  H151  1  0.864400  0.508300  0.063500  1.0  0.0951
  H  H152  1  0.853200  0.962600  0.438000  1.0  0.1163
  H  H153  1  0.913000  0.945300  0.411800  1.0  0.1004
  H  H154  1  0.950200  0.151200  0.397300  1.0  0.1259
  H  H155  1  0.858800  0.391800  0.431800  1.0  0.108
  H  H156  1  0.063800  0.936800  0.391400  1.0  0.0863
  H  H157  1  0.074700  0.831100  0.434400  1.0  0.0603
  H  H158  1  0.929900  0.856100  0.247800  1.0  0.1001
  H  H159  1  0.892500  0.738700  0.246900  1.0  0.099
  H  H160  1  0.992700  0.393400  0.418100  1.0  0.0909
  H  H161  1  0.960300  0.348900  0.366800  1.0  0.0831
  H  H162  1  0.012000  0.953600  0.297500  1.0  0.1174
  H  H163  1  0.963800  0.010200  0.296900  1.0  0.1166
  H  H164  1  0.009000  0.034300  0.341500  1.0  0.113
  H  H165  1  0.898900  0.431000  0.316500  1.0  0.0957
  H  H166  1  0.881400  0.546300  0.276300  1.0  0.103
  H  H167  1  0.921100  0.439000  0.277600  1.0  0.1273
  H  H168  1  0.013700  0.557900  0.464700  1.0  0.1064
  H  H169  1  0.060500  0.592300  0.457300  1.0  0.1163
  H  H170  1  0.033800  0.714500  0.472500  1.0  0.1197
  H  H171  1  0.363600  0.899400  0.974800  1.0  0.1122
  H  H172  1  0.432200  0.847600  0.964200  1.0  0.0889
  H  H173  1  0.481400  0.664400  0.009000  1.0  0.1206
  H  H174  1  0.382300  0.553900  0.059400  1.0  0.1149
  H  H175  1  0.624400  0.288400  0.333000  1.0  0.134
  H  H176  1  0.538400  0.947800  0.309500  1.0  0.1127
  H  H177  1  0.570400  0.884000  0.386900  1.0  0.1203
  H  H178  1  0.635600  0.008300  0.436500  1.0  0.0943
  H  H179  1  0.646800  0.462600  0.062000  1.0  0.1172
  H  H180  1  0.587000  0.445300  0.088200  1.0  0.1008
  H  H181  1  0.549800  0.651200  0.102700  1.0  0.1261
  H  H182  1  0.641200  0.891800  0.068200  1.0  0.108
  H  H183  1  0.436200  0.436800  0.108600  1.0  0.0853
  H  H184  1  0.425300  0.331100  0.065600  1.0  0.0605
  H  H185  1  0.570100  0.356100  0.252200  1.0  0.0997
  H  H186  1  0.607500  0.238700  0.253100  1.0  0.0992
  H  H187  1  0.507300  0.893400  0.081900  1.0  0.09
  H  H188  1  0.539700  0.848900  0.133200  1.0  0.0855
  H  H189  1  0.488000  0.453600  0.202500  1.0  0.1175
  H  H190  1  0.536200  0.510200  0.203100  1.0  0.1173
  H  H191  1  0.491000  0.534300  0.158500  1.0  0.1128
  H  H192  1  0.601100  0.931000  0.183500  1.0  0.0963
  H  H193  1  0.618600  0.046300  0.223700  1.0  0.1017
  H  H194  1  0.578900  0.939000  0.222400  1.0  0.1274
  H  H195  1  0.486300  0.057900  0.035300  1.0  0.1065
  H  H196  1  0.439500  0.092300  0.042700  1.0  0.1146
  H  H197  1  0.466200  0.214500  0.027500  1.0  0.1205
  H  H198  1  0.863600  0.399400  0.974800  1.0  0.1122
  H  H199  1  0.932200  0.347600  0.964200  1.0  0.0889
  H  H200  1  0.981400  0.164400  0.009000  1.0  0.1206
  H  H201  1  0.882300  0.053900  0.059400  1.0  0.1149
  H  H202  1  0.124400  0.788400  0.333000  1.0  0.134
  H  H203  1  0.038400  0.447800  0.309500  1.0  0.1127
  H  H204  1  0.070400  0.384000  0.386900  1.0  0.1203
  H  H205  1  0.135600  0.508300  0.436500  1.0  0.0943
  H  H206  1  0.146800  0.962600  0.062000  1.0  0.1172
  H  H207  1  0.087000  0.945300  0.088200  1.0  0.1008
  H  H208  1  0.049800  0.151200  0.102700  1.0  0.1261
  H  H209  1  0.141200  0.391800  0.068200  1.0  0.108
  H  H210  1  0.936200  0.936800  0.108600  1.0  0.0853
  H  H211  1  0.925300  0.831100  0.065600  1.0  0.0605
  H  H212  1  0.070100  0.856100  0.252200  1.0  0.0997
  H  H213  1  0.107500  0.738700  0.253100  1.0  0.0992
  H  H214  1  0.007300  0.393400  0.081900  1.0  0.09
  H  H215  1  0.039700  0.348900  0.133200  1.0  0.0855
  H  H216  1  0.988000  0.953600  0.202500  1.0  0.1175
  H  H217  1  0.036200  0.010200  0.203100  1.0  0.1173
  H  H218  1  0.991000  0.034300  0.158500  1.0  0.1128
  H  H219  1  0.101100  0.431000  0.183500  1.0  0.0963
  H  H220  1  0.118600  0.546300  0.223700  1.0  0.1017
  H  H221  1  0.078900  0.439000  0.222400  1.0  0.1274
  H  H222  1  0.986300  0.557900  0.035300  1.0  0.1065
  H  H223  1  0.939500  0.592300  0.042700  1.0  0.1146
  H  H224  1  0.966200  0.714500  0.027500  1.0  0.1205
  C  C225  1  0.318100  0.243600  0.520200  1.0  0.7385
  C  C226  1  0.365300  0.269900  0.517500  1.0  -0.1452
  C  C227  1  0.381300  0.179500  0.489800  1.0  -0.0762
  C  C228  1  0.423000  0.207400  0.484900  1.0  -0.0859
  C  C229  1  0.452300  0.318900  0.510900  1.0  -0.1767
  C  C230  1  0.436000  0.402200  0.539400  1.0  0.2406
  C  C231  1  0.393000  0.383500  0.541700  1.0  -0.1937
  C  C232  1  0.676300  0.751700  0.922100  1.0  0.6907
  C  C233  1  0.636400  0.840600  0.890500  1.0  -0.15
  C  C234  1  0.614400  0.794300  0.843600  1.0  -0.2049
  C  C235  1  0.577100  0.874600  0.813300  1.0  0.3073
  C  C236  1  0.562400  0.997100  0.830100  1.0  -0.1776
  C  C237  1  0.582100  0.038000  0.875600  1.0  -0.1555
  C  C238  1  0.620500  0.960600  0.905600  1.0  -0.0584
  C  C239  1  0.690300  0.304300  0.544900  1.0  0.7515
  C  C240  1  0.650400  0.320800  0.562400  1.0  -0.1696
  C  C241  1  0.633300  0.454400  0.568500  1.0  -0.1001
  C  C242  1  0.597400  0.464100  0.583600  1.0  -0.081
  C  C243  1  0.575000  0.341200  0.592800  1.0  -0.2448
  C  C244  1  0.592700  0.206700  0.586200  1.0  0.2773
  C  C245  1  0.629700  0.198000  0.571800  1.0  -0.1129
  C  C246  1  0.449500  0.612000  0.588300  1.0  0.0602
  C  C247  1  0.574400  0.742600  0.744300  1.0  -0.001
  C  C248  1  0.535200  0.080800  0.608400  1.0  0.0568
  C  C249  1  0.489100  0.707900  0.617300  1.0  -0.0987
  C  C250  1  0.515100  0.672000  0.663600  1.0  0.0942
  C  C251  1  0.548000  0.772000  0.691600  1.0  -0.0448
  C  C252  1  0.555400  0.900000  0.673100  1.0  0.0354
  C  C253  1  0.529700  0.934800  0.625800  1.0  -0.0549
  C  C254  1  0.496800  0.837000  0.597400  1.0  0.0567
  C  C255  1  0.506800  0.530600  0.683700  1.0  -0.3481
  C  C256  1  0.591900  0.005700  0.703500  1.0  -0.3517
  C  C257  1  0.469700  0.871200  0.546000  1.0  -0.3565
  C  C258  1  0.818100  0.743600  0.520200  1.0  0.7385
  C  C259  1  0.865300  0.769900  0.517500  1.0  -0.1452
  C  C260  1  0.881300  0.679500  0.489800  1.0  -0.0762
  C  C261  1  0.923000  0.707400  0.484900  1.0  -0.0859
  C  C262  1  0.952300  0.818900  0.510900  1.0  -0.1767
  C  C263  1  0.936000  0.902200  0.539400  1.0  0.2406
  C  C264  1  0.893000  0.883500  0.541700  1.0  -0.1937
  C  C265  1  0.176300  0.251700  0.922100  1.0  0.6907
  C  C266  1  0.136400  0.340600  0.890500  1.0  -0.15
  C  C267  1  0.114400  0.294300  0.843600  1.0  -0.2049
  C  C268  1  0.077100  0.374600  0.813300  1.0  0.3073
  C  C269  1  0.062400  0.497100  0.830100  1.0  -0.1776
  C  C270  1  0.082100  0.538000  0.875600  1.0  -0.1555
  C  C271  1  0.120500  0.460600  0.905600  1.0  -0.0584
  C  C272  1  0.190300  0.804300  0.544900  1.0  0.7515
  C  C273  1  0.150400  0.820800  0.562400  1.0  -0.1696
  C  C274  1  0.133300  0.954400  0.568500  1.0  -0.1001
  C  C275  1  0.097400  0.964100  0.583600  1.0  -0.081
  C  C276  1  0.075000  0.841200  0.592800  1.0  -0.2448
  C  C277  1  0.092700  0.706700  0.586200  1.0  0.2773
  C  C278  1  0.129700  0.698000  0.571800  1.0  -0.1129
  C  C279  1  0.949500  0.112000  0.588300  1.0  0.0602
  C  C280  1  0.074400  0.242600  0.744300  1.0  -0.001
  C  C281  1  0.035200  0.580800  0.608400  1.0  0.0568
  C  C282  1  0.989100  0.207900  0.617300  1.0  -0.0987
  C  C283  1  0.015100  0.172000  0.663600  1.0  0.0942
  C  C284  1  0.048000  0.272000  0.691600  1.0  -0.0448
  C  C285  1  0.055400  0.400000  0.673100  1.0  0.0354
  C  C286  1  0.029700  0.434800  0.625800  1.0  -0.0549
  C  C287  1  0.996800  0.337000  0.597400  1.0  0.0567
  C  C288  1  0.006800  0.030600  0.683700  1.0  -0.3481
  C  C289  1  0.091900  0.505700  0.703500  1.0  -0.3517
  C  C290  1  0.969700  0.371200  0.546000  1.0  -0.3565
  C  C291  1  0.681900  0.243600  0.979800  1.0  0.7238
  C  C292  1  0.634700  0.269900  0.982500  1.0  -0.1438
  C  C293  1  0.618700  0.179500  0.010200  1.0  -0.0765
  C  C294  1  0.577000  0.207400  0.015100  1.0  -0.0849
  C  C295  1  0.547700  0.318900  0.989100  1.0  -0.1762
  C  C296  1  0.564000  0.402200  0.960600  1.0  0.241
  C  C297  1  0.607000  0.383500  0.958300  1.0  -0.1942
  C  C298  1  0.323700  0.751700  0.577900  1.0  0.6879
  C  C299  1  0.363600  0.840600  0.609500  1.0  -0.1457
  C  C300  1  0.385600  0.794300  0.656400  1.0  -0.2052
  C  C301  1  0.422900  0.874600  0.686700  1.0  0.3059
  C  C302  1  0.437600  0.997100  0.669900  1.0  -0.1785
  C  C303  1  0.417900  0.038000  0.624400  1.0  -0.1572
  C  C304  1  0.379500  0.960600  0.594400  1.0  -0.0591
  C  C305  1  0.309700  0.304300  0.955100  1.0  0.7526
  C  C306  1  0.349600  0.320800  0.937600  1.0  -0.1707
  C  C307  1  0.366700  0.454400  0.931500  1.0  -0.1007
  C  C308  1  0.402600  0.464100  0.916400  1.0  -0.0852
  C  C309  1  0.425000  0.341200  0.907200  1.0  -0.2442
  C  C310  1  0.407300  0.206700  0.913800  1.0  0.2775
  C  C311  1  0.370300  0.198000  0.928200  1.0  -0.1142
  C  C312  1  0.550500  0.612000  0.911700  1.0  0.0602
  C  C313  1  0.425600  0.742600  0.755700  1.0  -0.0015
  C  C314  1  0.464800  0.080800  0.891600  1.0  0.0545
  C  C315  1  0.510900  0.707900  0.882700  1.0  -0.0991
  C  C316  1  0.484900  0.672000  0.836400  1.0  0.0931
  C  C317  1  0.452000  0.772000  0.808400  1.0  -0.0457
  C  C318  1  0.444600  0.900000  0.826900  1.0  0.0343
  C  C319  1  0.470300  0.934800  0.874200  1.0  -0.0549
  C  C320  1  0.503200  0.837000  0.902600  1.0  0.0572
  C  C321  1  0.493200  0.530600  0.816300  1.0  -0.3472
  C  C322  1  0.408100  0.005700  0.796500  1.0  -0.352
  C  C323  1  0.530300  0.871200  0.954000  1.0  -0.3569
  C  C324  1  0.181900  0.743600  0.979800  1.0  0.7238
  C  C325  1  0.134700  0.769900  0.982500  1.0  -0.1438
  C  C326  1  0.118700  0.679500  0.010200  1.0  -0.0765
  C  C327  1  0.077000  0.707400  0.015100  1.0  -0.0849
  C  C328  1  0.047700  0.818900  0.989100  1.0  -0.1762
  C  C329  1  0.064000  0.902200  0.960600  1.0  0.241
  C  C330  1  0.107000  0.883500  0.958300  1.0  -0.1942
  C  C331  1  0.823700  0.251700  0.577900  1.0  0.6879
  C  C332  1  0.863600  0.340600  0.609500  1.0  -0.1457
  C  C333  1  0.885600  0.294300  0.656400  1.0  -0.2052
  C  C334  1  0.922900  0.374600  0.686700  1.0  0.3059
  C  C335  1  0.937600  0.497100  0.669900  1.0  -0.1785
  C  C336  1  0.917900  0.538000  0.624400  1.0  -0.1572
  C  C337  1  0.879500  0.460600  0.594400  1.0  -0.0591
  C  C338  1  0.809700  0.804300  0.955100  1.0  0.7526
  C  C339  1  0.849600  0.820800  0.937600  1.0  -0.1707
  C  C340  1  0.866700  0.954400  0.931500  1.0  -0.1007
  C  C341  1  0.902600  0.964100  0.916400  1.0  -0.0852
  C  C342  1  0.925000  0.841200  0.907200  1.0  -0.2442
  C  C343  1  0.907300  0.706700  0.913800  1.0  0.2775
  C  C344  1  0.870300  0.698000  0.928200  1.0  -0.1142
  C  C345  1  0.050500  0.112000  0.911700  1.0  0.0602
  C  C346  1  0.925600  0.242600  0.755700  1.0  -0.0015
  C  C347  1  0.964800  0.580800  0.891600  1.0  0.0545
  C  C348  1  0.010900  0.207900  0.882700  1.0  -0.0991
  C  C349  1  0.984900  0.172000  0.836400  1.0  0.0931
  C  C350  1  0.952000  0.272000  0.808400  1.0  -0.0457
  C  C351  1  0.944600  0.400000  0.826900  1.0  0.0343
  C  C352  1  0.970300  0.434800  0.874200  1.0  -0.0549
  C  C353  1  0.003200  0.337000  0.902600  1.0  0.0572
  C  C354  1  0.993200  0.030600  0.816300  1.0  -0.3472
  C  C355  1  0.908100  0.505700  0.796500  1.0  -0.352
  C  C356  1  0.030300  0.371200  0.954000  1.0  -0.3569
  C  C357  1  0.681900  0.756400  0.479800  1.0  0.737
  C  C358  1  0.634700  0.730100  0.482500  1.0  -0.1438
  C  C359  1  0.618700  0.820500  0.510200  1.0  -0.0756
  C  C360  1  0.577000  0.792600  0.515100  1.0  -0.0845
  C  C361  1  0.547700  0.681100  0.489100  1.0  -0.1755
  C  C362  1  0.564000  0.597800  0.460600  1.0  0.2411
  C  C363  1  0.607000  0.616500  0.458300  1.0  -0.1941
  C  C364  1  0.323700  0.248300  0.077900  1.0  0.6881
  C  C365  1  0.363600  0.159400  0.109500  1.0  -0.1465
  C  C366  1  0.385600  0.205700  0.156400  1.0  -0.2064
  C  C367  1  0.422900  0.125400  0.186700  1.0  0.3053
  C  C368  1  0.437600  0.002900  0.169900  1.0  -0.1791
  C  C369  1  0.417900  0.962000  0.124400  1.0  -0.1562
  C  C370  1  0.379500  0.039400  0.094400  1.0  -0.0601
  C  C371  1  0.309700  0.695700  0.455100  1.0  0.7411
  C  C372  1  0.349600  0.679200  0.437600  1.0  -0.1709
  C  C373  1  0.366700  0.545600  0.431500  1.0  -0.0997
  C  C374  1  0.402600  0.535900  0.416400  1.0  -0.0841
  C  C375  1  0.425000  0.658800  0.407200  1.0  -0.2452
  C  C376  1  0.407300  0.793300  0.413800  1.0  0.2779
  C  C377  1  0.370300  0.802000  0.428200  1.0  -0.1169
  C  C378  1  0.550500  0.388000  0.411700  1.0  0.0604
  C  C379  1  0.425600  0.257400  0.255700  1.0  -0.0017
  C  C380  1  0.464800  0.919200  0.391600  1.0  0.0529
  C  C381  1  0.510900  0.292100  0.382700  1.0  -0.099
  C  C382  1  0.484900  0.328000  0.336400  1.0  0.0928
  C  C383  1  0.452000  0.228000  0.308400  1.0  -0.0459
  C  C384  1  0.444600  0.100000  0.326900  1.0  0.0343
  C  C385  1  0.470300  0.065200  0.374200  1.0  -0.0547
  C  C386  1  0.503200  0.163000  0.402600  1.0  0.0571
  C  C387  1  0.493200  0.469400  0.316300  1.0  -0.3467
  C  C388  1  0.408100  0.994300  0.296500  1.0  -0.353
  C  C389  1  0.530300  0.128800  0.454000  1.0  -0.3572
  C  C390  1  0.181900  0.256400  0.479800  1.0  0.737
  C  C391  1  0.134700  0.230100  0.482500  1.0  -0.1438
  C  C392  1  0.118700  0.320500  0.510200  1.0  -0.0756
  C  C393  1  0.077000  0.292600  0.515100  1.0  -0.0845
  C  C394  1  0.047700  0.181100  0.489100  1.0  -0.1755
  C  C395  1  0.064000  0.097800  0.460600  1.0  0.2411
  C  C396  1  0.107000  0.116500  0.458300  1.0  -0.1941
  C  C397  1  0.823700  0.748300  0.077900  1.0  0.6881
  C  C398  1  0.863600  0.659400  0.109500  1.0  -0.1465
  C  C399  1  0.885600  0.705700  0.156400  1.0  -0.2064
  C  C400  1  0.922900  0.625400  0.186700  1.0  0.3053
  C  C401  1  0.937600  0.502900  0.169900  1.0  -0.1791
  C  C402  1  0.917900  0.462000  0.124400  1.0  -0.1562
  C  C403  1  0.879500  0.539400  0.094400  1.0  -0.0601
  C  C404  1  0.809700  0.195700  0.455100  1.0  0.7411
  C  C405  1  0.849600  0.179200  0.437600  1.0  -0.1709
  C  C406  1  0.866700  0.045600  0.431500  1.0  -0.0997
  C  C407  1  0.902600  0.035900  0.416400  1.0  -0.0841
  C  C408  1  0.925000  0.158800  0.407200  1.0  -0.2452
  C  C409  1  0.907300  0.293300  0.413800  1.0  0.2779
  C  C410  1  0.870300  0.302000  0.428200  1.0  -0.1169
  C  C411  1  0.050500  0.888000  0.411700  1.0  0.0604
  C  C412  1  0.925600  0.757400  0.255700  1.0  -0.0017
  C  C413  1  0.964800  0.419200  0.391600  1.0  0.0529
  C  C414  1  0.010900  0.792100  0.382700  1.0  -0.099
  C  C415  1  0.984900  0.828000  0.336400  1.0  0.0928
  C  C416  1  0.952000  0.728000  0.308400  1.0  -0.0459
  C  C417  1  0.944600  0.600000  0.326900  1.0  0.0343
  C  C418  1  0.970300  0.565200  0.374200  1.0  -0.0547
  C  C419  1  0.003200  0.663000  0.402600  1.0  0.0571
  C  C420  1  0.993200  0.969400  0.316300  1.0  -0.3467
  C  C421  1  0.908100  0.494300  0.296500  1.0  -0.353
  C  C422  1  0.030300  0.628800  0.454000  1.0  -0.3572
  C  C423  1  0.318100  0.756400  0.020200  1.0  0.7248
  C  C424  1  0.365300  0.730100  0.017500  1.0  -0.1451
  C  C425  1  0.381300  0.820500  0.989800  1.0  -0.0766
  C  C426  1  0.423000  0.792600  0.984900  1.0  -0.0862
  C  C427  1  0.452300  0.681100  0.010900  1.0  -0.1772
  C  C428  1  0.436000  0.597800  0.039400  1.0  0.2406
  C  C429  1  0.393000  0.616500  0.041700  1.0  -0.1943
  C  C430  1  0.676300  0.248300  0.422100  1.0  0.69
  C  C431  1  0.636400  0.159400  0.390500  1.0  -0.1502
  C  C432  1  0.614400  0.205700  0.343600  1.0  -0.2054
  C  C433  1  0.577100  0.125400  0.313300  1.0  0.3069
  C  C434  1  0.562400  0.002900  0.330100  1.0  -0.1783
  C  C435  1  0.582100  0.962000  0.375600  1.0  -0.1564
  C  C436  1  0.620500  0.039400  0.405600  1.0  -0.0593
  C  C437  1  0.690300  0.695700  0.044900  1.0  0.7402
  C  C438  1  0.650400  0.679200  0.062400  1.0  -0.1694
  C  C439  1  0.633300  0.545600  0.068500  1.0  -0.0997
  C  C440  1  0.597400  0.535900  0.083600  1.0  -0.0804
  C  C441  1  0.575000  0.658800  0.092800  1.0  -0.2448
  C  C442  1  0.592700  0.793300  0.086200  1.0  0.2775
  C  C443  1  0.629700  0.802000  0.071800  1.0  -0.1124
  C  C444  1  0.449500  0.388000  0.088300  1.0  0.0597
  C  C445  1  0.574400  0.257400  0.244300  1.0  -0.0004
  C  C446  1  0.535200  0.919200  0.108400  1.0  0.0555
  C  C447  1  0.489100  0.292100  0.117300  1.0  -0.099
  C  C448  1  0.515100  0.328000  0.163600  1.0  0.0938
  C  C449  1  0.548000  0.228000  0.191600  1.0  -0.0442
  C  C450  1  0.555400  0.100000  0.173100  1.0  0.0356
  C  C451  1  0.529700  0.065200  0.125800  1.0  -0.0548
  C  C452  1  0.496800  0.163000  0.097400  1.0  0.0568
  C  C453  1  0.506800  0.469400  0.183700  1.0  -0.3481
  C  C454  1  0.591900  0.994300  0.203500  1.0  -0.3512
  C  C455  1  0.469700  0.128800  0.046000  1.0  -0.3567
  C  C456  1  0.818100  0.256400  0.020200  1.0  0.7248
  C  C457  1  0.865300  0.230100  0.017500  1.0  -0.1451
  C  C458  1  0.881300  0.320500  0.989800  1.0  -0.0766
  C  C459  1  0.923000  0.292600  0.984900  1.0  -0.0862
  C  C460  1  0.952300  0.181100  0.010900  1.0  -0.1772
  C  C461  1  0.936000  0.097800  0.039400  1.0  0.2406
  C  C462  1  0.893000  0.116500  0.041700  1.0  -0.1943
  C  C463  1  0.176300  0.748300  0.422100  1.0  0.69
  C  C464  1  0.136400  0.659400  0.390500  1.0  -0.1502
  C  C465  1  0.114400  0.705700  0.343600  1.0  -0.2054
  C  C466  1  0.077100  0.625400  0.313300  1.0  0.3069
  C  C467  1  0.062400  0.502900  0.330100  1.0  -0.1783
  C  C468  1  0.082100  0.462000  0.375600  1.0  -0.1564
  C  C469  1  0.120500  0.539400  0.405600  1.0  -0.0593
  C  C470  1  0.190300  0.195700  0.044900  1.0  0.7402
  C  C471  1  0.150400  0.179200  0.062400  1.0  -0.1694
  C  C472  1  0.133300  0.045600  0.068500  1.0  -0.0997
  C  C473  1  0.097400  0.035900  0.083600  1.0  -0.0804
  C  C474  1  0.075000  0.158800  0.092800  1.0  -0.2448
  C  C475  1  0.092700  0.293300  0.086200  1.0  0.2775
  C  C476  1  0.129700  0.302000  0.071800  1.0  -0.1124
  C  C477  1  0.949500  0.888000  0.088300  1.0  0.0597
  C  C478  1  0.074400  0.757400  0.244300  1.0  -0.0004
  C  C479  1  0.035200  0.419200  0.108400  1.0  0.0555
  C  C480  1  0.989100  0.792100  0.117300  1.0  -0.099
  C  C481  1  0.015100  0.828000  0.163600  1.0  0.0938
  C  C482  1  0.048000  0.728000  0.191600  1.0  -0.0442
  C  C483  1  0.055400  0.600000  0.173100  1.0  0.0356
  C  C484  1  0.029700  0.565200  0.125800  1.0  -0.0548
  C  C485  1  0.996800  0.663000  0.097400  1.0  0.0568
  C  C486  1  0.006800  0.969400  0.183700  1.0  -0.3481
  C  C487  1  0.091900  0.494300  0.203500  1.0  -0.3512
  C  C488  1  0.969700  0.628800  0.046000  1.0  -0.3567
  O  O489  1  0.301500  0.121700  0.509500  1.0  -0.6723
  O  O490  1  0.300900  0.343700  0.534400  1.0  -0.7256
  O  O491  1  0.679100  0.626300  0.913100  1.0  -0.5889
  O  O492  1  0.706300  0.811000  0.959000  1.0  -0.8526
  O  O493  1  0.701000  0.413200  0.525900  1.0  -0.7145
  O  O494  1  0.708900  0.186500  0.550800  1.0  -0.7135
  O  O495  1  0.467400  0.510100  0.564600  1.0  -0.2552
  O  O496  1  0.553500  0.841500  0.767500  1.0  -0.2936
  O  O497  1  0.574900  0.079500  0.594100  1.0  -0.259
  O  O498  1  0.801500  0.621700  0.509500  1.0  -0.6723
  O  O499  1  0.800900  0.843700  0.534400  1.0  -0.7256
  O  O500  1  0.179100  0.126300  0.913100  1.0  -0.5889
  O  O501  1  0.206300  0.311000  0.959000  1.0  -0.8526
  O  O502  1  0.201000  0.913200  0.525900  1.0  -0.7145
  O  O503  1  0.208900  0.686500  0.550800  1.0  -0.7135
  O  O504  1  0.967400  0.010100  0.564600  1.0  -0.2552
  O  O505  1  0.053500  0.341500  0.767500  1.0  -0.2936
  O  O506  1  0.074900  0.579500  0.594100  1.0  -0.259
  O  O507  1  0.698500  0.121700  0.990500  1.0  -0.6715
  O  O508  1  0.699100  0.343700  0.965600  1.0  -0.7256
  O  O509  1  0.320900  0.626300  0.586900  1.0  -0.5899
  O  O510  1  0.293700  0.811000  0.541000  1.0  -0.8516
  O  O511  1  0.299000  0.413200  0.974100  1.0  -0.7164
  O  O512  1  0.291100  0.186500  0.949200  1.0  -0.7139
  O  O513  1  0.532600  0.510100  0.935400  1.0  -0.2582
  O  O514  1  0.446500  0.841500  0.732500  1.0  -0.2955
  O  O515  1  0.425100  0.079500  0.905900  1.0  -0.2616
  O  O516  1  0.198500  0.621700  0.990500  1.0  -0.6715
  O  O517  1  0.199100  0.843700  0.965600  1.0  -0.7256
  O  O518  1  0.820900  0.126300  0.586900  1.0  -0.5899
  O  O519  1  0.793700  0.311000  0.541000  1.0  -0.8516
  O  O520  1  0.799000  0.913200  0.974100  1.0  -0.7164
  O  O521  1  0.791100  0.686500  0.949200  1.0  -0.7139
  O  O522  1  0.032600  0.010100  0.935400  1.0  -0.2582
  O  O523  1  0.946500  0.341500  0.732500  1.0  -0.2955
  O  O524  1  0.925100  0.579500  0.905900  1.0  -0.2616
  O  O525  1  0.698500  0.878300  0.490500  1.0  -0.6704
  O  O526  1  0.699100  0.656300  0.465600  1.0  -0.7253
  O  O527  1  0.320900  0.373700  0.086900  1.0  -0.5904
  O  O528  1  0.293700  0.189000  0.041000  1.0  -0.8511
  O  O529  1  0.299000  0.586800  0.474100  1.0  -0.7154
  O  O530  1  0.291100  0.813500  0.449200  1.0  -0.7158
  O  O531  1  0.532600  0.489900  0.435400  1.0  -0.2585
  O  O532  1  0.446500  0.158500  0.232500  1.0  -0.2959
  O  O533  1  0.425100  0.920500  0.405900  1.0  -0.2618
  O  O534  1  0.198500  0.378300  0.490500  1.0  -0.6704
  O  O535  1  0.199100  0.156300  0.465600  1.0  -0.7253
  O  O536  1  0.820900  0.873700  0.086900  1.0  -0.5904
  O  O537  1  0.793700  0.689000  0.041000  1.0  -0.8511
  O  O538  1  0.799000  0.086800  0.474100  1.0  -0.7154
  O  O539  1  0.791100  0.313500  0.449200  1.0  -0.7158
  O  O540  1  0.032600  0.989900  0.435400  1.0  -0.2585
  O  O541  1  0.946500  0.658500  0.232500  1.0  -0.2959
  O  O542  1  0.925100  0.420500  0.405900  1.0  -0.2618
  O  O543  1  0.301500  0.878300  0.009500  1.0  -0.6716
  O  O544  1  0.300900  0.656300  0.034400  1.0  -0.7249
  O  O545  1  0.679100  0.373700  0.413100  1.0  -0.5879
  O  O546  1  0.706300  0.189000  0.459000  1.0  -0.8521
  O  O547  1  0.701000  0.586800  0.025900  1.0  -0.7149
  O  O548  1  0.708900  0.813500  0.050800  1.0  -0.7144
  O  O549  1  0.467400  0.489900  0.064600  1.0  -0.2557
  O  O550  1  0.553500  0.158500  0.267500  1.0  -0.2928
  O  O551  1  0.574900  0.920500  0.094100  1.0  -0.2597
  O  O552  1  0.801500  0.378300  0.009500  1.0  -0.6716
  O  O553  1  0.800900  0.156300  0.034400  1.0  -0.7249
  O  O554  1  0.179100  0.873700  0.413100  1.0  -0.5879
  O  O555  1  0.206300  0.689000  0.459000  1.0  -0.8521
  O  O556  1  0.201000  0.086800  0.025900  1.0  -0.7149
  O  O557  1  0.208900  0.313500  0.050800  1.0  -0.7144
  O  O558  1  0.967400  0.989900  0.064600  1.0  -0.2557
  O  O559  1  0.053500  0.658500  0.267500  1.0  -0.2928
  O  O560  1  0.074900  0.420500  0.094100  1.0  -0.2597
