# generated using pymatgen
data_ZnH32C41N3O8
_symmetry_space_group_name_H-M   'P 1'
_cell_length_a   11.42210000
_cell_length_b   21.27420000
_cell_length_c   19.06470000
_cell_angle_alpha   90.00000000
_cell_angle_beta   95.41920000
_cell_angle_gamma   90.00000000
_symmetry_Int_Tables_number   1
_chemical_formula_structural   ZnH32C41N3O8
_chemical_formula_sum   'Zn4 H128 C164 N12 O32'
_cell_volume   4611.94039667
_cell_formula_units_Z   4
loop_
 _symmetry_equiv_pos_site_id
 _symmetry_equiv_pos_as_xyz
  1  'x, y, z'
loop_
 _atom_site_type_symbol
 _atom_site_label
 _atom_site_symmetry_multiplicity
 _atom_site_fract_x
 _atom_site_fract_y
 _atom_site_fract_z
 _atom_site_occupancy
 _atom_site_charge
  Zn  Zn1  1  0.615660  0.986530  0.084840  1.0  0.9842
  Zn  Zn2  1  0.384340  0.486530  0.415160  1.0  0.9839
  Zn  Zn3  1  0.384340  0.013470  0.915160  1.0  0.9838
  Zn  Zn4  1  0.615660  0.513470  0.584840  1.0  0.9841
  H  H5  1  0.200870  0.862830  0.475400  1.0  0.263
  H  H6  1  0.972860  0.884890  0.217640  1.0  0.1029
  H  H7  1  0.276150  0.899260  0.125390  1.0  0.094
  H  H8  1  0.171180  0.933670  0.021720  1.0  0.0942
  H  H9  1  0.968320  0.946960  0.016760  1.0  0.1013
  H  H10  1  0.402400  0.756160  0.295540  1.0  0.1072
  H  H11  1  0.309740  0.804680  0.197700  1.0  0.0899
  H  H12  1  0.428810  0.847850  0.485520  1.0  0.0865
  H  H13  1  0.524740  0.798590  0.584130  1.0  0.0957
  H  H14  1  0.540260  0.689600  0.587830  1.0  0.1072
  H  H15  1  0.343470  0.678620  0.400480  1.0  0.0999
  H  H16  1  0.050900  0.037260  0.391710  1.0  0.1134
  H  H17  1  0.027690  0.894310  0.530040  1.0  0.0975
  H  H18  1  0.315620  0.124770  0.340640  1.0  0.0938
  H  H19  1  0.422570  0.951240  0.408350  1.0  0.1084
  H  H20  1  0.267210  0.068010  0.539220  1.0  0.1237
  H  H21  1  0.223890  0.976080  0.585670  1.0  0.0544
  H  H22  1  0.352440  0.989900  0.624510  1.0  0.0649
  H  H23  1  0.387700  0.878710  0.628410  1.0  0.0649
  H  H24  1  0.282950  0.899000  0.674210  1.0  0.0583
  H  H25  1  0.203110  0.801850  0.664600  1.0  0.0637
  H  H26  1  0.289480  0.772630  0.611520  1.0  0.0582
  H  H27  1  0.122810  0.763620  0.525180  1.0  0.0684
  H  H28  1  0.114540  0.719020  0.592540  1.0  0.049
  H  H29  1  0.913170  0.718800  0.602430  1.0  0.0703
  H  H30  1  0.897350  0.749000  0.524880  1.0  0.0822
  H  H31  1  0.172730  0.182410  0.358100  1.0  0.078
  H  H32  1  0.262170  0.231060  0.399280  1.0  0.0686
  H  H33  1  0.446270  0.114780  0.267450  1.0  0.1138
  H  H34  1  0.540480  0.094720  0.169620  1.0  0.0755
  H  H35  1  0.518740  0.912690  0.198950  1.0  0.0715
  H  H36  1  0.423800  0.927260  0.298000  1.0  0.1038
  H  H37  1  0.799130  0.362830  0.024600  1.0  0.264
  H  H38  1  0.027140  0.384890  0.282360  1.0  0.1023
  H  H39  1  0.723850  0.399260  0.374610  1.0  0.0938
  H  H40  1  0.828820  0.433670  0.478280  1.0  0.0948
  H  H41  1  0.031680  0.446960  0.483240  1.0  0.1001
  H  H42  1  0.597600  0.256160  0.204460  1.0  0.1068
  H  H43  1  0.690260  0.304680  0.302300  1.0  0.0908
  H  H44  1  0.571190  0.347850  0.014480  1.0  0.0865
  H  H45  1  0.475260  0.298590  0.915870  1.0  0.0959
  H  H46  1  0.459740  0.189600  0.912170  1.0  0.1068
  H  H47  1  0.656530  0.178620  0.099520  1.0  0.1
  H  H48  1  0.949100  0.537260  0.108290  1.0  0.1126
  H  H49  1  0.972310  0.394310  0.969960  1.0  0.0969
  H  H50  1  0.684380  0.624770  0.159360  1.0  0.0934
  H  H51  1  0.577430  0.451240  0.091650  1.0  0.109
  H  H52  1  0.732790  0.568010  0.960780  1.0  0.123
  H  H53  1  0.776110  0.476080  0.914330  1.0  0.0548
  H  H54  1  0.647560  0.489900  0.875490  1.0  0.0655
  H  H55  1  0.612300  0.378710  0.871590  1.0  0.0629
  H  H56  1  0.717050  0.399000  0.825790  1.0  0.0594
  H  H57  1  0.796890  0.301850  0.835400  1.0  0.0643
  H  H58  1  0.710520  0.272630  0.888480  1.0  0.056
  H  H59  1  0.877190  0.263620  0.974820  1.0  0.0679
  H  H60  1  0.885460  0.219020  0.907460  1.0  0.0498
  H  H61  1  0.086830  0.218800  0.897570  1.0  0.069
  H  H62  1  0.102650  0.249000  0.975120  1.0  0.0794
  H  H63  1  0.827270  0.682410  0.141900  1.0  0.0779
  H  H64  1  0.737830  0.731060  0.100720  1.0  0.0691
  H  H65  1  0.553730  0.614780  0.232550  1.0  0.114
  H  H66  1  0.459520  0.594720  0.330380  1.0  0.0752
  H  H67  1  0.481260  0.412690  0.301050  1.0  0.0715
  H  H68  1  0.576200  0.427260  0.202000  1.0  0.1033
  H  H69  1  0.799130  0.137170  0.524600  1.0  0.2646
  H  H70  1  0.027140  0.115110  0.782360  1.0  0.1031
  H  H71  1  0.723850  0.100740  0.874610  1.0  0.094
  H  H72  1  0.828820  0.066330  0.978280  1.0  0.0963
  H  H73  1  0.031680  0.053040  0.983240  1.0  0.0997
  H  H74  1  0.597600  0.243840  0.704460  1.0  0.107
  H  H75  1  0.690260  0.195320  0.802300  1.0  0.0903
  H  H76  1  0.571190  0.152150  0.514480  1.0  0.0858
  H  H77  1  0.475260  0.201410  0.415870  1.0  0.0962
  H  H78  1  0.459740  0.310400  0.412170  1.0  0.1069
  H  H79  1  0.656530  0.321380  0.599520  1.0  0.1
  H  H80  1  0.949100  0.962740  0.608290  1.0  0.1125
  H  H81  1  0.972310  0.105690  0.469960  1.0  0.0971
  H  H82  1  0.684380  0.875230  0.659360  1.0  0.0945
  H  H83  1  0.577430  0.048760  0.591650  1.0  0.1065
  H  H84  1  0.732790  0.931990  0.460780  1.0  0.1216
  H  H85  1  0.776110  0.023920  0.414330  1.0  0.0546
  H  H86  1  0.647560  0.010100  0.375490  1.0  0.0642
  H  H87  1  0.612300  0.121290  0.371590  1.0  0.0628
  H  H88  1  0.717050  0.101000  0.325790  1.0  0.0597
  H  H89  1  0.796890  0.198150  0.335400  1.0  0.0645
  H  H90  1  0.710520  0.227370  0.388480  1.0  0.0562
  H  H91  1  0.877190  0.236380  0.474820  1.0  0.0676
  H  H92  1  0.885460  0.280980  0.407460  1.0  0.0497
  H  H93  1  0.086830  0.281200  0.397570  1.0  0.0696
  H  H94  1  0.102650  0.251000  0.475120  1.0  0.0787
  H  H95  1  0.827270  0.817590  0.641900  1.0  0.0775
  H  H96  1  0.737830  0.768940  0.600720  1.0  0.0688
  H  H97  1  0.553730  0.885220  0.732550  1.0  0.1149
  H  H98  1  0.459520  0.905280  0.830380  1.0  0.0753
  H  H99  1  0.481260  0.087310  0.801050  1.0  0.0715
  H  H100  1  0.576200  0.072740  0.702000  1.0  0.1034
  H  H101  1  0.200870  0.637170  0.975400  1.0  0.2638
  H  H102  1  0.972860  0.615110  0.717640  1.0  0.1033
  H  H103  1  0.276150  0.600740  0.625390  1.0  0.0941
  H  H104  1  0.171180  0.566330  0.521720  1.0  0.0961
  H  H105  1  0.968320  0.553040  0.516760  1.0  0.1012
  H  H106  1  0.402400  0.743840  0.795540  1.0  0.1073
  H  H107  1  0.309740  0.695320  0.697700  1.0  0.0899
  H  H108  1  0.428810  0.652150  0.985520  1.0  0.086
  H  H109  1  0.524740  0.701410  0.084130  1.0  0.0957
  H  H110  1  0.540260  0.810400  0.087830  1.0  0.107
  H  H111  1  0.343470  0.821380  0.900480  1.0  0.1003
  H  H112  1  0.050900  0.462740  0.891710  1.0  0.1133
  H  H113  1  0.027690  0.605690  0.030040  1.0  0.0977
  H  H114  1  0.315620  0.375230  0.840640  1.0  0.0944
  H  H115  1  0.422570  0.548760  0.908350  1.0  0.1085
  H  H116  1  0.267210  0.431990  0.039220  1.0  0.1231
  H  H117  1  0.223890  0.523920  0.085670  1.0  0.0559
  H  H118  1  0.352440  0.510100  0.124510  1.0  0.0665
  H  H119  1  0.387700  0.621290  0.128410  1.0  0.0643
  H  H120  1  0.282950  0.601000  0.174210  1.0  0.0594
  H  H121  1  0.203110  0.698150  0.164600  1.0  0.064
  H  H122  1  0.289480  0.727370  0.111520  1.0  0.0583
  H  H123  1  0.122810  0.736380  0.025180  1.0  0.0686
  H  H124  1  0.114540  0.780980  0.092540  1.0  0.0491
  H  H125  1  0.913170  0.781200  0.102430  1.0  0.0696
  H  H126  1  0.897350  0.751000  0.024880  1.0  0.0822
  H  H127  1  0.172730  0.317590  0.858100  1.0  0.0776
  H  H128  1  0.262170  0.268940  0.899280  1.0  0.0676
  H  H129  1  0.446270  0.385220  0.767450  1.0  0.1142
  H  H130  1  0.540480  0.405280  0.669620  1.0  0.0754
  H  H131  1  0.518740  0.587310  0.698950  1.0  0.0717
  H  H132  1  0.423800  0.572740  0.798000  1.0  0.1035
  C  C133  1  0.820000  0.928300  0.116300  1.0  0.6725
  C  C134  1  0.950400  0.917270  0.116000  1.0  -0.1688
  C  C135  1  0.013600  0.894880  0.177870  1.0  -0.1051
  C  C136  1  0.135000  0.887170  0.181500  1.0  -0.0169
  C  C137  1  0.193000  0.903000  0.123200  1.0  -0.1104
  C  C138  1  0.130800  0.924200  0.061800  1.0  -0.1201
  C  C139  1  0.010200  0.931700  0.058700  1.0  -0.0502
  C  C140  1  0.199500  0.860640  0.246220  1.0  -0.0101
  C  C141  1  0.173300  0.876530  0.314320  1.0  0.0951
  C  C142  1  0.230300  0.846540  0.373670  1.0  0.1013
  C  C143  1  0.316100  0.800020  0.369150  1.0  -0.0017
  C  C144  1  0.343300  0.786520  0.301800  1.0  -0.1907
  C  C145  1  0.287100  0.815860  0.242700  1.0  -0.1574
  C  C146  1  0.376500  0.768730  0.432770  1.0  0.0395
  C  C147  1  0.431200  0.803250  0.487700  1.0  -0.1382
  C  C148  1  0.489800  0.773990  0.546200  1.0  -0.0988
  C  C149  1  0.497100  0.709590  0.549000  1.0  -0.0181
  C  C150  1  0.441300  0.673890  0.494930  1.0  -0.1576
  C  C151  1  0.381600  0.703350  0.437360  1.0  -0.1094
  C  C152  1  0.451600  0.603570  0.497800  1.0  0.7034
  C  C153  1  0.106100  0.917670  0.405430  1.0  0.323
  C  C154  1  0.047800  0.959170  0.452940  1.0  0.001
  C  C155  1  0.030400  0.022030  0.435800  1.0  -0.0943
  C  C156  1  0.016600  0.937330  0.517800  1.0  -0.1147
  C  C157  1  0.280600  0.104500  0.440600  1.0  0.2487
  C  C158  1  0.322700  0.093600  0.376500  1.0  -0.2236
  C  C159  1  0.376900  0.035200  0.364700  1.0  0.0005
  C  C160  1  0.386500  0.990400  0.416600  1.0  -0.1549
  C  C161  1  0.343600  0.002100  0.481400  1.0  0.282
  C  C162  1  0.293200  0.059300  0.494300  1.0  -0.2002
  C  C163  1  0.305500  0.960200  0.593400  1.0  0.0961
  C  C164  1  0.307200  0.896400  0.625800  1.0  0.0775
  C  C165  1  0.216300  0.797100  0.614300  1.0  0.0849
  C  C166  1  0.115800  0.763300  0.576500  1.0  0.0858
  C  C167  1  0.907700  0.758800  0.575800  1.0  0.0774
  C  C168  1  0.193600  0.203400  0.403900  1.0  0.0823
  C  C169  1  0.427500  0.023880  0.297400  1.0  0.0833
  C  C170  1  0.461600  0.072500  0.255200  1.0  -0.2203
  C  C171  1  0.516700  0.060200  0.196500  1.0  0.1624
  C  C172  1  0.504200  0.954500  0.213500  1.0  0.1666
  C  C173  1  0.448500  0.962700  0.273000  1.0  -0.2123
  C  C174  1  0.180000  0.428300  0.383700  1.0  0.672
  C  C175  1  0.049600  0.417270  0.384000  1.0  -0.1709
  C  C176  1  0.986400  0.394880  0.322130  1.0  -0.1051
  C  C177  1  0.865000  0.387170  0.318500  1.0  -0.0166
  C  C178  1  0.807000  0.403000  0.376800  1.0  -0.1107
  C  C179  1  0.869200  0.424200  0.438200  1.0  -0.1194
  C  C180  1  0.989800  0.431700  0.441300  1.0  -0.0505
  C  C181  1  0.800500  0.360640  0.253780  1.0  -0.0078
  C  C182  1  0.826700  0.376530  0.185680  1.0  0.0937
  C  C183  1  0.769700  0.346540  0.126330  1.0  0.1022
  C  C184  1  0.683900  0.300020  0.130850  1.0  -0.0015
  C  C185  1  0.656700  0.286520  0.198200  1.0  -0.1907
  C  C186  1  0.712900  0.315860  0.257300  1.0  -0.1578
  C  C187  1  0.623500  0.268730  0.067230  1.0  0.0401
  C  C188  1  0.568800  0.303250  0.012300  1.0  -0.1407
  C  C189  1  0.510200  0.273990  0.953800  1.0  -0.0972
  C  C190  1  0.502900  0.209590  0.951000  1.0  -0.019
  C  C191  1  0.558700  0.173890  0.005070  1.0  -0.1579
  C  C192  1  0.618400  0.203350  0.062640  1.0  -0.1091
  C  C193  1  0.548400  0.103570  0.002200  1.0  0.702
  C  C194  1  0.893900  0.417670  0.094570  1.0  0.324
  C  C195  1  0.952200  0.459170  0.047060  1.0  -0.0014
  C  C196  1  0.969600  0.522030  0.064200  1.0  -0.0968
  C  C197  1  0.983400  0.437330  0.982200  1.0  -0.1151
  C  C198  1  0.719400  0.604500  0.059400  1.0  0.2493
  C  C199  1  0.677300  0.593600  0.123500  1.0  -0.2212
  C  C200  1  0.623100  0.535200  0.135300  1.0  0.002
  C  C201  1  0.613500  0.490400  0.083400  1.0  -0.1544
  C  C202  1  0.656400  0.502100  0.018600  1.0  0.2804
  C  C203  1  0.706800  0.559300  0.005700  1.0  -0.1994
  C  C204  1  0.694500  0.460200  0.906600  1.0  0.0987
  C  C205  1  0.692800  0.396400  0.874200  1.0  0.0781
  C  C206  1  0.783700  0.297100  0.885700  1.0  0.0863
  C  C207  1  0.884200  0.263300  0.923500  1.0  0.0869
  C  C208  1  0.092300  0.258800  0.924200  1.0  0.0775
  C  C209  1  0.806400  0.703400  0.096100  1.0  0.0803
  C  C210  1  0.572500  0.523880  0.202600  1.0  0.0859
  C  C211  1  0.538400  0.572500  0.244800  1.0  -0.219
  C  C212  1  0.483300  0.560200  0.303500  1.0  0.1618
  C  C213  1  0.495800  0.454500  0.286500  1.0  0.1645
  C  C214  1  0.551500  0.462700  0.227000  1.0  -0.2117
  C  C215  1  0.180000  0.071700  0.883700  1.0  0.6756
  C  C216  1  0.049600  0.082730  0.884000  1.0  -0.1753
  C  C217  1  0.986400  0.105120  0.822130  1.0  -0.106
  C  C218  1  0.865000  0.112830  0.818500  1.0  -0.017
  C  C219  1  0.807000  0.097000  0.876800  1.0  -0.1112
  C  C220  1  0.869200  0.075800  0.938200  1.0  -0.1185
  C  C221  1  0.989800  0.068300  0.941300  1.0  -0.0498
  C  C222  1  0.800500  0.139360  0.753780  1.0  -0.0079
  C  C223  1  0.826700  0.123470  0.685680  1.0  0.0935
  C  C224  1  0.769700  0.153460  0.626330  1.0  0.1036
  C  C225  1  0.683900  0.199980  0.630850  1.0  -0.001
  C  C226  1  0.656700  0.213480  0.698200  1.0  -0.1919
  C  C227  1  0.712900  0.184140  0.757300  1.0  -0.1583
  C  C228  1  0.623500  0.231270  0.567230  1.0  0.0405
  C  C229  1  0.568800  0.196750  0.512300  1.0  -0.1453
  C  C230  1  0.510200  0.226010  0.453800  1.0  -0.0974
  C  C231  1  0.502900  0.290410  0.451000  1.0  -0.0193
  C  C232  1  0.558700  0.326110  0.505070  1.0  -0.1574
  C  C233  1  0.618400  0.296650  0.562640  1.0  -0.1112
  C  C234  1  0.548400  0.396430  0.502200  1.0  0.7032
  C  C235  1  0.893900  0.082330  0.594570  1.0  0.3247
  C  C236  1  0.952200  0.040830  0.547060  1.0  -0.0021
  C  C237  1  0.969600  0.977970  0.564200  1.0  -0.1014
  C  C238  1  0.983400  0.062670  0.482200  1.0  -0.115
  C  C239  1  0.719400  0.895500  0.559400  1.0  0.249
  C  C240  1  0.677300  0.906400  0.623500  1.0  -0.2198
  C  C241  1  0.623100  0.964800  0.635300  1.0  0.0024
  C  C242  1  0.613500  0.009600  0.583400  1.0  -0.1547
  C  C243  1  0.656400  0.997900  0.518600  1.0  0.2827
  C  C244  1  0.706800  0.940700  0.505700  1.0  -0.1972
  C  C245  1  0.694500  0.039800  0.406600  1.0  0.0977
  C  C246  1  0.692800  0.103600  0.374200  1.0  0.0773
  C  C247  1  0.783700  0.202900  0.385700  1.0  0.0867
  C  C248  1  0.884200  0.236700  0.423500  1.0  0.0867
  C  C249  1  0.092300  0.241200  0.424200  1.0  0.0785
  C  C250  1  0.806400  0.796600  0.596100  1.0  0.0805
  C  C251  1  0.572500  0.976120  0.702600  1.0  0.0859
  C  C252  1  0.538400  0.927500  0.744800  1.0  -0.218
  C  C253  1  0.483300  0.939800  0.803500  1.0  0.1652
  C  C254  1  0.495800  0.045500  0.786500  1.0  0.1634
  C  C255  1  0.551500  0.037300  0.727000  1.0  -0.2113
  C  C256  1  0.820000  0.571700  0.616300  1.0  0.6725
  C  C257  1  0.950400  0.582730  0.616000  1.0  -0.1716
  C  C258  1  0.013600  0.605120  0.677870  1.0  -0.1057
  C  C259  1  0.135000  0.612830  0.681500  1.0  -0.0172
  C  C260  1  0.193000  0.597000  0.623200  1.0  -0.1118
  C  C261  1  0.130800  0.575800  0.561800  1.0  -0.1192
  C  C262  1  0.010200  0.568300  0.558700  1.0  -0.0503
  C  C263  1  0.199500  0.639360  0.746220  1.0  -0.0101
  C  C264  1  0.173300  0.623470  0.814320  1.0  0.0944
  C  C265  1  0.230300  0.653460  0.873670  1.0  0.103
  C  C266  1  0.316100  0.699980  0.869150  1.0  -0.0004
  C  C267  1  0.343300  0.713480  0.801800  1.0  -0.1913
  C  C268  1  0.287100  0.684140  0.742700  1.0  -0.1579
  C  C269  1  0.376500  0.731270  0.932770  1.0  0.0398
  C  C270  1  0.431200  0.696750  0.987700  1.0  -0.1452
  C  C271  1  0.489800  0.726010  0.046200  1.0  -0.0985
  C  C272  1  0.497100  0.790410  0.049000  1.0  -0.0188
  C  C273  1  0.441300  0.826110  0.994930  1.0  -0.1567
  C  C274  1  0.381600  0.796650  0.937360  1.0  -0.1102
  C  C275  1  0.451600  0.896430  0.997800  1.0  0.7042
  C  C276  1  0.106100  0.582330  0.905430  1.0  0.3232
  C  C277  1  0.047800  0.540830  0.952940  1.0  0.0017
  C  C278  1  0.030400  0.477970  0.935800  1.0  -0.0947
  C  C279  1  0.016600  0.562670  0.017800  1.0  -0.1145
  C  C280  1  0.280600  0.395500  0.940600  1.0  0.2485
  C  C281  1  0.322700  0.406400  0.876500  1.0  -0.2221
  C  C282  1  0.376900  0.464800  0.864700  1.0  0.0009
  C  C283  1  0.386500  0.509600  0.916600  1.0  -0.1559
  C  C284  1  0.343600  0.497900  0.981400  1.0  0.2887
  C  C285  1  0.293200  0.440700  0.994300  1.0  -0.1963
  C  C286  1  0.305500  0.539800  0.093400  1.0  0.0981
  C  C287  1  0.307200  0.603600  0.125800  1.0  0.0767
  C  C288  1  0.216300  0.702900  0.114300  1.0  0.0854
  C  C289  1  0.115800  0.736700  0.076500  1.0  0.0864
  C  C290  1  0.907700  0.741200  0.075800  1.0  0.0789
  C  C291  1  0.193600  0.296600  0.903900  1.0  0.0827
  C  C292  1  0.427500  0.476120  0.797400  1.0  0.0834
  C  C293  1  0.461600  0.427500  0.755200  1.0  -0.2208
  C  C294  1  0.516700  0.439800  0.696500  1.0  0.1668
  C  C295  1  0.504200  0.545500  0.713500  1.0  0.1664
  C  C296  1  0.448500  0.537300  0.773000  1.0  -0.2127
  N  N297  1  0.095200  0.921970  0.336090  1.0  -0.4019
  N  N298  1  0.183700  0.872980  0.430870  1.0  -0.2961
  N  N299  1  0.539400  0.001490  0.174520  1.0  -0.3325
  N  N300  1  0.904800  0.421970  0.163910  1.0  -0.4027
  N  N301  1  0.816300  0.372980  0.069130  1.0  -0.2949
  N  N302  1  0.460600  0.501490  0.325480  1.0  -0.3314
  N  N303  1  0.904800  0.078030  0.663910  1.0  -0.4019
  N  N304  1  0.816300  0.127020  0.569130  1.0  -0.2944
  N  N305  1  0.460600  0.998510  0.825480  1.0  -0.3318
  N  N306  1  0.095200  0.578030  0.836090  1.0  -0.4018
  N  N307  1  0.183700  0.627020  0.930870  1.0  -0.2953
  N  N308  1  0.539400  0.498510  0.674520  1.0  -0.3331
  O  O309  1  0.774400  0.964650  0.068140  1.0  -0.6022
  O  O310  1  0.763400  0.905440  0.161740  1.0  -0.5447
  O  O311  1  0.397200  0.573020  0.450430  1.0  -0.6339
  O  O312  1  0.510700  0.580120  0.548510  1.0  -0.665
  O  O313  1  0.354800  0.953990  0.528150  1.0  -0.2686
  O  O314  1  0.228300  0.857070  0.583660  1.0  -0.2895
  O  O315  1  0.010500  0.794530  0.591600  1.0  -0.3125
  O  O316  1  0.221700  0.157630  0.457550  1.0  -0.2733
  O  O317  1  0.225600  0.464650  0.431860  1.0  -0.6007
  O  O318  1  0.236600  0.405440  0.338260  1.0  -0.5457
  O  O319  1  0.602800  0.073020  0.049570  1.0  -0.6333
  O  O320  1  0.489300  0.080120  0.951490  1.0  -0.6671
  O  O321  1  0.645200  0.453990  0.971850  1.0  -0.27
  O  O322  1  0.771700  0.357070  0.916340  1.0  -0.289
  O  O323  1  0.989500  0.294530  0.908400  1.0  -0.3087
  O  O324  1  0.778300  0.657630  0.042450  1.0  -0.2723
  O  O325  1  0.225600  0.035350  0.931860  1.0  -0.6008
  O  O326  1  0.236600  0.094560  0.838260  1.0  -0.5465
  O  O327  1  0.602800  0.426980  0.549570  1.0  -0.6338
  O  O328  1  0.489300  0.419880  0.451490  1.0  -0.6657
  O  O329  1  0.645200  0.046010  0.471850  1.0  -0.2687
  O  O330  1  0.771700  0.142930  0.416340  1.0  -0.2894
  O  O331  1  0.989500  0.205470  0.408400  1.0  -0.3091
  O  O332  1  0.778300  0.842370  0.542450  1.0  -0.2733
  O  O333  1  0.774400  0.535350  0.568140  1.0  -0.603
  O  O334  1  0.763400  0.594560  0.661740  1.0  -0.5454
  O  O335  1  0.397200  0.926980  0.950430  1.0  -0.6341
  O  O336  1  0.510700  0.919880  0.048510  1.0  -0.6645
  O  O337  1  0.354800  0.546010  0.028150  1.0  -0.2677
  O  O338  1  0.228300  0.642930  0.083660  1.0  -0.2898
  O  O339  1  0.010500  0.705470  0.091600  1.0  -0.3121
  O  O340  1  0.221700  0.342370  0.957550  1.0  -0.2739
