# generated using pymatgen
data_PrH3C7NO4
_symmetry_space_group_name_H-M   'P 1'
_cell_length_a   19.98530000
_cell_length_b   19.98530000
_cell_length_c   19.98530000
_cell_angle_alpha   90.00000000
_cell_angle_beta   90.00000000
_cell_angle_gamma   90.00000000
_symmetry_Int_Tables_number   1
_chemical_formula_structural   PrH3C7NO4
_chemical_formula_sum   'Pr24 H72 C168 N24 O96'
_cell_volume   7982.37296222
_cell_formula_units_Z   24
loop_
 _symmetry_equiv_pos_site_id
 _symmetry_equiv_pos_as_xyz
  1  'x, y, z'
loop_
 _atom_site_type_symbol
 _atom_site_label
 _atom_site_symmetry_multiplicity
 _atom_site_fract_x
 _atom_site_fract_y
 _atom_site_fract_z
 _atom_site_occupancy
 _atom_site_charge
  Pr  Pr1  1  0.512040  0.744080  0.346380  1.0  1.9359
  Pr  Pr2  1  0.987960  0.255920  0.846380  1.0  1.9374
  Pr  Pr3  1  0.487960  0.244080  0.153620  1.0  1.9367
  Pr  Pr4  1  0.012040  0.755920  0.653620  1.0  1.9355
  Pr  Pr5  1  0.346380  0.512040  0.744080  1.0  1.9364
  Pr  Pr6  1  0.846380  0.987960  0.255920  1.0  1.9369
  Pr  Pr7  1  0.153620  0.487960  0.244080  1.0  1.9381
  Pr  Pr8  1  0.653620  0.012040  0.755920  1.0  1.938
  Pr  Pr9  1  0.744080  0.346380  0.512040  1.0  1.938
  Pr  Pr10  1  0.255920  0.846380  0.987960  1.0  1.9373
  Pr  Pr11  1  0.244080  0.153620  0.487960  1.0  1.9373
  Pr  Pr12  1  0.755920  0.653620  0.012040  1.0  1.9379
  Pr  Pr13  1  0.487960  0.255920  0.653620  1.0  1.9368
  Pr  Pr14  1  0.012040  0.744080  0.153620  1.0  1.9354
  Pr  Pr15  1  0.512040  0.755920  0.846380  1.0  1.9361
  Pr  Pr16  1  0.987960  0.244080  0.346380  1.0  1.9372
  Pr  Pr17  1  0.653620  0.487960  0.255920  1.0  1.9384
  Pr  Pr18  1  0.153620  0.012040  0.744080  1.0  1.9378
  Pr  Pr19  1  0.846380  0.512040  0.755920  1.0  1.9366
  Pr  Pr20  1  0.346380  0.987960  0.244080  1.0  1.9366
  Pr  Pr21  1  0.255920  0.653620  0.487960  1.0  1.9372
  Pr  Pr22  1  0.744080  0.153620  0.012040  1.0  1.938
  Pr  Pr23  1  0.755920  0.846380  0.512040  1.0  1.938
  Pr  Pr24  1  0.244080  0.346380  0.987960  1.0  1.9373
  H  H25  1  0.450400  0.820700  0.089800  1.0  0.1028
  H  H26  1  0.542900  0.642100  0.094000  1.0  0.1048
  H  H27  1  0.497900  0.730200  0.033400  1.0  0.081
  H  H28  1  0.049600  0.179300  0.589800  1.0  0.1022
  H  H29  1  0.957100  0.357900  0.594000  1.0  0.1051
  H  H30  1  0.002100  0.269800  0.533400  1.0  0.081
  H  H31  1  0.549600  0.320700  0.410200  1.0  0.1028
  H  H32  1  0.457100  0.142100  0.406000  1.0  0.1047
  H  H33  1  0.502100  0.230200  0.466600  1.0  0.0809
  H  H34  1  0.950400  0.679300  0.910200  1.0  0.1027
  H  H35  1  0.042900  0.857900  0.906000  1.0  0.1052
  H  H36  1  0.997900  0.769800  0.966600  1.0  0.0811
  H  H37  1  0.089800  0.450400  0.820700  1.0  0.1035
  H  H38  1  0.094000  0.542900  0.642100  1.0  0.105
  H  H39  1  0.033400  0.497900  0.730200  1.0  0.0809
  H  H40  1  0.589800  0.049600  0.179300  1.0  0.1024
  H  H41  1  0.594000  0.957100  0.357900  1.0  0.1057
  H  H42  1  0.533400  0.002100  0.269800  1.0  0.0811
  H  H43  1  0.410200  0.549600  0.320700  1.0  0.1034
  H  H44  1  0.406000  0.457100  0.142100  1.0  0.1054
  H  H45  1  0.466600  0.502100  0.230200  1.0  0.0807
  H  H46  1  0.910200  0.950400  0.679300  1.0  0.1031
  H  H47  1  0.906000  0.042900  0.857900  1.0  0.105
  H  H48  1  0.966600  0.997900  0.769800  1.0  0.0805
  H  H49  1  0.820700  0.089800  0.450400  1.0  0.1026
  H  H50  1  0.642100  0.094000  0.542900  1.0  0.1043
  H  H51  1  0.730200  0.033400  0.497900  1.0  0.0792
  H  H52  1  0.179300  0.589800  0.049600  1.0  0.1029
  H  H53  1  0.357900  0.594000  0.957100  1.0  0.1044
  H  H54  1  0.269800  0.533400  0.002100  1.0  0.0794
  H  H55  1  0.320700  0.410200  0.549600  1.0  0.103
  H  H56  1  0.142100  0.406000  0.457100  1.0  0.104
  H  H57  1  0.230200  0.466600  0.502100  1.0  0.0797
  H  H58  1  0.679300  0.910200  0.950400  1.0  0.1029
  H  H59  1  0.857900  0.906000  0.042900  1.0  0.1044
  H  H60  1  0.769800  0.966600  0.997900  1.0  0.0796
  H  H61  1  0.549600  0.179300  0.910200  1.0  0.1026
  H  H62  1  0.457100  0.357900  0.906000  1.0  0.105
  H  H63  1  0.502100  0.269800  0.966600  1.0  0.0807
  H  H64  1  0.950400  0.820700  0.410200  1.0  0.1029
  H  H65  1  0.042900  0.642100  0.406000  1.0  0.1049
  H  H66  1  0.997900  0.730200  0.466600  1.0  0.0811
  H  H67  1  0.450400  0.679300  0.589800  1.0  0.1023
  H  H68  1  0.542900  0.857900  0.594000  1.0  0.1055
  H  H69  1  0.497900  0.769800  0.533400  1.0  0.0812
  H  H70  1  0.049600  0.320700  0.089800  1.0  0.1028
  H  H71  1  0.957100  0.142100  0.094000  1.0  0.1043
  H  H72  1  0.002100  0.230200  0.033400  1.0  0.081
  H  H73  1  0.910200  0.549600  0.179300  1.0  0.1029
  H  H74  1  0.906000  0.457100  0.357900  1.0  0.1052
  H  H75  1  0.966600  0.502100  0.269800  1.0  0.0806
  H  H76  1  0.410200  0.950400  0.820700  1.0  0.1034
  H  H77  1  0.406000  0.042900  0.642100  1.0  0.1052
  H  H78  1  0.466600  0.997900  0.730200  1.0  0.0805
  H  H79  1  0.589800  0.450400  0.679300  1.0  0.1026
  H  H80  1  0.594000  0.542900  0.857900  1.0  0.1052
  H  H81  1  0.533400  0.497900  0.769800  1.0  0.0809
  H  H82  1  0.089800  0.049600  0.320700  1.0  0.1035
  H  H83  1  0.094000  0.957100  0.142100  1.0  0.1053
  H  H84  1  0.033400  0.002100  0.230200  1.0  0.0812
  H  H85  1  0.179300  0.910200  0.549600  1.0  0.1029
  H  H86  1  0.357900  0.906000  0.457100  1.0  0.1045
  H  H87  1  0.269800  0.966600  0.502100  1.0  0.0797
  H  H88  1  0.820700  0.410200  0.950400  1.0  0.1031
  H  H89  1  0.642100  0.406000  0.042900  1.0  0.1039
  H  H90  1  0.730200  0.466600  0.997900  1.0  0.0796
  H  H91  1  0.679300  0.589800  0.450400  1.0  0.1027
  H  H92  1  0.857900  0.594000  0.542900  1.0  0.1045
  H  H93  1  0.769800  0.533400  0.497900  1.0  0.0794
  H  H94  1  0.320700  0.089800  0.049600  1.0  0.1027
  H  H95  1  0.142100  0.094000  0.957100  1.0  0.1041
  H  H96  1  0.230200  0.033400  0.002100  1.0  0.0791
  C  C97  1  0.445630  0.841300  0.225430  1.0  0.7073
  C  C98  1  0.554970  0.630620  0.229630  1.0  0.6916
  C  C99  1  0.472910  0.785600  0.181910  1.0  0.0849
  C  C100  1  0.525950  0.683650  0.184350  1.0  0.0724
  C  C101  1  0.470100  0.785600  0.113160  1.0  -0.1315
  C  C102  1  0.525300  0.679300  0.115720  1.0  -0.149
  C  C103  1  0.497800  0.731400  0.079890  1.0  -0.121
  C  C104  1  0.054370  0.158700  0.725430  1.0  0.7102
  C  C105  1  0.945030  0.369380  0.729630  1.0  0.69
  C  C106  1  0.027090  0.214400  0.681910  1.0  0.0853
  C  C107  1  0.974050  0.316350  0.684350  1.0  0.0711
  C  C108  1  0.029900  0.214400  0.613160  1.0  -0.1322
  C  C109  1  0.974700  0.320700  0.615720  1.0  -0.1488
  C  C110  1  0.002200  0.268600  0.579890  1.0  -0.1206
  C  C111  1  0.554370  0.341300  0.274570  1.0  0.7088
  C  C112  1  0.445030  0.130620  0.270370  1.0  0.6898
  C  C113  1  0.527090  0.285600  0.318090  1.0  0.0856
  C  C114  1  0.474050  0.183650  0.315650  1.0  0.0715
  C  C115  1  0.529900  0.285600  0.386840  1.0  -0.1308
  C  C116  1  0.474700  0.179300  0.384280  1.0  -0.149
  C  C117  1  0.502200  0.231400  0.420110  1.0  -0.1186
  C  C118  1  0.945630  0.658700  0.774570  1.0  0.709
  C  C119  1  0.054970  0.869380  0.770370  1.0  0.6897
  C  C120  1  0.972910  0.714400  0.818090  1.0  0.0849
  C  C121  1  0.025950  0.816350  0.815650  1.0  0.0719
  C  C122  1  0.970100  0.714400  0.886840  1.0  -0.1318
  C  C123  1  0.025300  0.820700  0.884280  1.0  -0.1496
  C  C124  1  0.997800  0.768600  0.920110  1.0  -0.119
  C  C125  1  0.225430  0.445630  0.841300  1.0  0.7089
  C  C126  1  0.229630  0.554970  0.630620  1.0  0.6899
  C  C127  1  0.181910  0.472910  0.785600  1.0  0.0865
  C  C128  1  0.184350  0.525950  0.683650  1.0  0.0714
  C  C129  1  0.113160  0.470100  0.785600  1.0  -0.1338
  C  C130  1  0.115720  0.525300  0.679300  1.0  -0.1496
  C  C131  1  0.079890  0.497800  0.731400  1.0  -0.1245
  C  C132  1  0.725430  0.054370  0.158700  1.0  0.7087
  C  C133  1  0.729630  0.945030  0.369380  1.0  0.69
  C  C134  1  0.681910  0.027090  0.214400  1.0  0.0871
  C  C135  1  0.684350  0.974050  0.316350  1.0  0.0716
  C  C136  1  0.613160  0.029900  0.214400  1.0  -0.134
  C  C137  1  0.615720  0.974700  0.320700  1.0  -0.1506
  C  C138  1  0.579890  0.002200  0.268600  1.0  -0.1244
  C  C139  1  0.274570  0.554370  0.341300  1.0  0.7076
  C  C140  1  0.270370  0.445030  0.130620  1.0  0.6895
  C  C141  1  0.318090  0.527090  0.285600  1.0  0.0851
  C  C142  1  0.315650  0.474050  0.183650  1.0  0.071
  C  C143  1  0.386840  0.529900  0.285600  1.0  -0.1345
  C  C144  1  0.384280  0.474700  0.179300  1.0  -0.1506
  C  C145  1  0.420110  0.502200  0.231400  1.0  -0.1227
  C  C146  1  0.774570  0.945630  0.658700  1.0  0.7091
  C  C147  1  0.770370  0.054970  0.869380  1.0  0.69
  C  C148  1  0.818090  0.972910  0.714400  1.0  0.0855
  C  C149  1  0.815650  0.025950  0.816350  1.0  0.0716
  C  C150  1  0.886840  0.970100  0.714400  1.0  -0.1347
  C  C151  1  0.884280  0.025300  0.820700  1.0  -0.1513
  C  C152  1  0.920110  0.997800  0.768600  1.0  -0.1229
  C  C153  1  0.841300  0.225430  0.445630  1.0  0.7066
  C  C154  1  0.630620  0.229630  0.554970  1.0  0.688
  C  C155  1  0.785600  0.181910  0.472910  1.0  0.0853
  C  C156  1  0.683650  0.184350  0.525950  1.0  0.0715
  C  C157  1  0.785600  0.113160  0.470100  1.0  -0.1323
  C  C158  1  0.679300  0.115720  0.525300  1.0  -0.149
  C  C159  1  0.731400  0.079890  0.497800  1.0  -0.1196
  C  C160  1  0.158700  0.725430  0.054370  1.0  0.7047
  C  C161  1  0.369380  0.729630  0.945030  1.0  0.6887
  C  C162  1  0.214400  0.681910  0.027090  1.0  0.0849
  C  C163  1  0.316350  0.684350  0.974050  1.0  0.0715
  C  C164  1  0.214400  0.613160  0.029900  1.0  -0.1313
  C  C165  1  0.320700  0.615720  0.974700  1.0  -0.1489
  C  C166  1  0.268600  0.579890  0.002200  1.0  -0.119
  C  C167  1  0.341300  0.274570  0.554370  1.0  0.707
  C  C168  1  0.130620  0.270370  0.445030  1.0  0.6883
  C  C169  1  0.285600  0.318090  0.527090  1.0  0.0856
  C  C170  1  0.183650  0.315650  0.474050  1.0  0.0714
  C  C171  1  0.285600  0.386840  0.529900  1.0  -0.132
  C  C172  1  0.179300  0.384280  0.474700  1.0  -0.1491
  C  C173  1  0.231400  0.420110  0.502200  1.0  -0.1188
  C  C174  1  0.658700  0.774570  0.945630  1.0  0.7064
  C  C175  1  0.869380  0.770370  0.054970  1.0  0.6892
  C  C176  1  0.714400  0.818090  0.972910  1.0  0.0848
  C  C177  1  0.816350  0.815650  0.025950  1.0  0.0712
  C  C178  1  0.714400  0.886840  0.970100  1.0  -0.1314
  C  C179  1  0.820700  0.884280  0.025300  1.0  -0.1484
  C  C180  1  0.768600  0.920110  0.997800  1.0  -0.1187
  C  C181  1  0.554370  0.158700  0.774570  1.0  0.709
  C  C182  1  0.445030  0.369380  0.770370  1.0  0.6896
  C  C183  1  0.527090  0.214400  0.818090  1.0  0.0852
  C  C184  1  0.474050  0.316350  0.815650  1.0  0.0717
  C  C185  1  0.529900  0.214400  0.886840  1.0  -0.132
  C  C186  1  0.474700  0.320700  0.884280  1.0  -0.1499
  C  C187  1  0.502200  0.268600  0.920110  1.0  -0.1186
  C  C188  1  0.945630  0.841300  0.274570  1.0  0.7084
  C  C189  1  0.054970  0.630620  0.270370  1.0  0.69
  C  C190  1  0.972910  0.785600  0.318090  1.0  0.0856
  C  C191  1  0.025950  0.683650  0.315650  1.0  0.0725
  C  C192  1  0.970100  0.785600  0.386840  1.0  -0.1311
  C  C193  1  0.025300  0.679300  0.384280  1.0  -0.1496
  C  C194  1  0.997800  0.731400  0.420110  1.0  -0.119
  C  C195  1  0.445630  0.658700  0.725430  1.0  0.7096
  C  C196  1  0.554970  0.869380  0.729630  1.0  0.6906
  C  C197  1  0.472910  0.714400  0.681910  1.0  0.085
  C  C198  1  0.525950  0.816350  0.684350  1.0  0.0712
  C  C199  1  0.470100  0.714400  0.613160  1.0  -0.1319
  C  C200  1  0.525300  0.820700  0.615720  1.0  -0.1486
  C  C201  1  0.497800  0.768600  0.579890  1.0  -0.1213
  C  C202  1  0.054370  0.341300  0.225430  1.0  0.7082
  C  C203  1  0.945030  0.130620  0.229630  1.0  0.6909
  C  C204  1  0.027090  0.285600  0.181910  1.0  0.085
  C  C205  1  0.974050  0.183650  0.184350  1.0  0.0718
  C  C206  1  0.029900  0.285600  0.113160  1.0  -0.1314
  C  C207  1  0.974700  0.179300  0.115720  1.0  -0.1486
  C  C208  1  0.002200  0.231400  0.079890  1.0  -0.1204
  C  C209  1  0.774570  0.554370  0.158700  1.0  0.7089
  C  C210  1  0.770370  0.445030  0.369380  1.0  0.6902
  C  C211  1  0.818090  0.527090  0.214400  1.0  0.0861
  C  C212  1  0.815650  0.474050  0.316350  1.0  0.0714
  C  C213  1  0.886840  0.529900  0.214400  1.0  -0.1353
  C  C214  1  0.884280  0.474700  0.320700  1.0  -0.1511
  C  C215  1  0.920110  0.502200  0.268600  1.0  -0.1227
  C  C216  1  0.274570  0.945630  0.841300  1.0  0.7089
  C  C217  1  0.270370  0.054970  0.630620  1.0  0.6902
  C  C218  1  0.318090  0.972910  0.785600  1.0  0.085
  C  C219  1  0.315650  0.025950  0.683650  1.0  0.0714
  C  C220  1  0.386840  0.970100  0.785600  1.0  -0.1342
  C  C221  1  0.384280  0.025300  0.679300  1.0  -0.1502
  C  C222  1  0.420110  0.997800  0.731400  1.0  -0.1228
  C  C223  1  0.725430  0.445630  0.658700  1.0  0.7085
  C  C224  1  0.729630  0.554970  0.869380  1.0  0.6901
  C  C225  1  0.681910  0.472910  0.714400  1.0  0.087
  C  C226  1  0.684350  0.525950  0.816350  1.0  0.0714
  C  C227  1  0.613160  0.470100  0.714400  1.0  -0.1331
  C  C228  1  0.615720  0.525300  0.820700  1.0  -0.1514
  C  C229  1  0.579890  0.497800  0.768600  1.0  -0.1244
  C  C230  1  0.225430  0.054370  0.341300  1.0  0.7079
  C  C231  1  0.229630  0.945030  0.130620  1.0  0.6885
  C  C232  1  0.181910  0.027090  0.285600  1.0  0.0862
  C  C233  1  0.184350  0.974050  0.183650  1.0  0.0715
  C  C234  1  0.113160  0.029900  0.285600  1.0  -0.1346
  C  C235  1  0.115720  0.974700  0.179300  1.0  -0.1498
  C  C236  1  0.079890  0.002200  0.231400  1.0  -0.1244
  C  C237  1  0.158700  0.774570  0.554370  1.0  0.7061
  C  C238  1  0.369380  0.770370  0.445030  1.0  0.6881
  C  C239  1  0.214400  0.818090  0.527090  1.0  0.0851
  C  C240  1  0.316350  0.815650  0.474050  1.0  0.0715
  C  C241  1  0.214400  0.886840  0.529900  1.0  -0.1311
  C  C242  1  0.320700  0.884280  0.474700  1.0  -0.1482
  C  C243  1  0.268600  0.920110  0.502200  1.0  -0.1182
  C  C244  1  0.841300  0.274570  0.945630  1.0  0.7068
  C  C245  1  0.630620  0.270370  0.054970  1.0  0.6889
  C  C246  1  0.785600  0.318090  0.972910  1.0  0.0856
  C  C247  1  0.683650  0.315650  0.025950  1.0  0.0714
  C  C248  1  0.785600  0.386840  0.970100  1.0  -0.1318
  C  C249  1  0.679300  0.384280  0.025300  1.0  -0.1491
  C  C250  1  0.731400  0.420110  0.997800  1.0  -0.1192
  C  C251  1  0.658700  0.725430  0.445630  1.0  0.706
  C  C252  1  0.869380  0.729630  0.554970  1.0  0.6887
  C  C253  1  0.714400  0.681910  0.472910  1.0  0.0848
  C  C254  1  0.816350  0.684350  0.525950  1.0  0.0713
  C  C255  1  0.714400  0.613160  0.470100  1.0  -0.1316
  C  C256  1  0.820700  0.615720  0.525300  1.0  -0.1489
  C  C257  1  0.768600  0.579890  0.497800  1.0  -0.1193
  C  C258  1  0.341300  0.225430  0.054370  1.0  0.7059
  C  C259  1  0.130620  0.229630  0.945030  1.0  0.6885
  C  C260  1  0.285600  0.181910  0.027090  1.0  0.0852
  C  C261  1  0.183650  0.184350  0.974050  1.0  0.0715
  C  C262  1  0.285600  0.113160  0.029900  1.0  -0.1322
  C  C263  1  0.179300  0.115720  0.974700  1.0  -0.1492
  C  C264  1  0.231400  0.079890  0.002200  1.0  -0.1193
  N  N265  1  0.500600  0.735810  0.216880  1.0  -0.5153
  N  N266  1  0.999400  0.264190  0.716880  1.0  -0.5154
  N  N267  1  0.499400  0.235810  0.283120  1.0  -0.5153
  N  N268  1  0.000600  0.764190  0.783120  1.0  -0.5145
  N  N269  1  0.216880  0.500600  0.735810  1.0  -0.5073
  N  N270  1  0.716880  0.999400  0.264190  1.0  -0.5072
  N  N271  1  0.283120  0.499400  0.235810  1.0  -0.5076
  N  N272  1  0.783120  0.000600  0.764190  1.0  -0.5075
  N  N273  1  0.735810  0.216880  0.500600  1.0  -0.5098
  N  N274  1  0.264190  0.716880  0.999400  1.0  -0.5107
  N  N275  1  0.235810  0.283120  0.499400  1.0  -0.5078
  N  N276  1  0.764190  0.783120  0.000600  1.0  -0.5086
  N  N277  1  0.499400  0.264190  0.783120  1.0  -0.5147
  N  N278  1  0.000600  0.735810  0.283120  1.0  -0.5152
  N  N279  1  0.500600  0.764190  0.716880  1.0  -0.515
  N  N280  1  0.999400  0.235810  0.216880  1.0  -0.5157
  N  N281  1  0.783120  0.499400  0.264190  1.0  -0.5076
  N  N282  1  0.283120  0.000600  0.735810  1.0  -0.5076
  N  N283  1  0.716880  0.500600  0.764190  1.0  -0.5073
  N  N284  1  0.216880  0.999400  0.235810  1.0  -0.5071
  N  N285  1  0.264190  0.783120  0.499400  1.0  -0.5083
  N  N286  1  0.735810  0.283120  0.000600  1.0  -0.5081
  N  N287  1  0.764190  0.716880  0.500600  1.0  -0.5109
  N  N288  1  0.235810  0.216880  0.999400  1.0  -0.5096
  O  O289  1  0.550630  0.641750  0.291950  1.0  -0.7183
  O  O290  1  0.580860  0.579900  0.204620  1.0  -0.7073
  O  O291  1  0.409020  0.884590  0.199870  1.0  -0.7466
  O  O292  1  0.461560  0.838340  0.286160  1.0  -0.6933
  O  O293  1  0.949370  0.358250  0.791950  1.0  -0.7187
  O  O294  1  0.919140  0.420100  0.704620  1.0  -0.7078
  O  O295  1  0.090980  0.115410  0.699870  1.0  -0.748
  O  O296  1  0.038440  0.161660  0.786160  1.0  -0.693
  O  O297  1  0.449370  0.141750  0.208050  1.0  -0.7173
  O  O298  1  0.419140  0.079900  0.295380  1.0  -0.7061
  O  O299  1  0.590980  0.384590  0.300130  1.0  -0.7463
  O  O300  1  0.538440  0.338340  0.213840  1.0  -0.6925
  O  O301  1  0.050630  0.858250  0.708050  1.0  -0.7177
  O  O302  1  0.080860  0.920100  0.795380  1.0  -0.7067
  O  O303  1  0.909020  0.615410  0.800130  1.0  -0.7477
  O  O304  1  0.961560  0.661660  0.713840  1.0  -0.6924
  O  O305  1  0.291950  0.550630  0.641750  1.0  -0.7176
  O  O306  1  0.204620  0.580860  0.579900  1.0  -0.71
  O  O307  1  0.199870  0.409020  0.884590  1.0  -0.747
  O  O308  1  0.286160  0.461560  0.838340  1.0  -0.6932
  O  O309  1  0.791950  0.949370  0.358250  1.0  -0.7178
  O  O310  1  0.704620  0.919140  0.420100  1.0  -0.709
  O  O311  1  0.699870  0.090980  0.115410  1.0  -0.7468
  O  O312  1  0.786160  0.038440  0.161660  1.0  -0.6933
  O  O313  1  0.208050  0.449370  0.141750  1.0  -0.7168
  O  O314  1  0.295380  0.419140  0.079900  1.0  -0.7086
  O  O315  1  0.300130  0.590980  0.384590  1.0  -0.7478
  O  O316  1  0.213840  0.538440  0.338340  1.0  -0.693
  O  O317  1  0.708050  0.050630  0.858250  1.0  -0.7178
  O  O318  1  0.795380  0.080860  0.920100  1.0  -0.7083
  O  O319  1  0.800130  0.909020  0.615410  1.0  -0.7483
  O  O320  1  0.713840  0.961560  0.661660  1.0  -0.6932
  O  O321  1  0.641750  0.291950  0.550630  1.0  -0.7146
  O  O322  1  0.579900  0.204620  0.580860  1.0  -0.7098
  O  O323  1  0.884590  0.199870  0.409020  1.0  -0.7472
  O  O324  1  0.838340  0.286160  0.461560  1.0  -0.6915
  O  O325  1  0.358250  0.791950  0.949370  1.0  -0.7136
  O  O326  1  0.420100  0.704620  0.919140  1.0  -0.711
  O  O327  1  0.115410  0.699870  0.090980  1.0  -0.7483
  O  O328  1  0.161660  0.786160  0.038440  1.0  -0.6915
  O  O329  1  0.141750  0.208050  0.449370  1.0  -0.7129
  O  O330  1  0.079900  0.295380  0.419140  1.0  -0.7115
  O  O331  1  0.384590  0.300130  0.590980  1.0  -0.7476
  O  O332  1  0.338340  0.213840  0.538440  1.0  -0.6908
  O  O333  1  0.858250  0.708050  0.050630  1.0  -0.7145
  O  O334  1  0.920100  0.795380  0.080860  1.0  -0.709
  O  O335  1  0.615410  0.800130  0.909020  1.0  -0.7474
  O  O336  1  0.661660  0.713840  0.961560  1.0  -0.6917
  O  O337  1  0.449370  0.358250  0.708050  1.0  -0.7176
  O  O338  1  0.419140  0.420100  0.795380  1.0  -0.7092
  O  O339  1  0.590980  0.115410  0.800130  1.0  -0.7476
  O  O340  1  0.538440  0.161660  0.713840  1.0  -0.6927
  O  O341  1  0.050630  0.641750  0.208050  1.0  -0.7175
  O  O342  1  0.080860  0.579900  0.295380  1.0  -0.7091
  O  O343  1  0.909020  0.884590  0.300130  1.0  -0.7462
  O  O344  1  0.961560  0.838340  0.213840  1.0  -0.6923
  O  O345  1  0.550630  0.858250  0.791950  1.0  -0.7184
  O  O346  1  0.580860  0.920100  0.704620  1.0  -0.7091
  O  O347  1  0.409020  0.615410  0.699870  1.0  -0.7482
  O  O348  1  0.461560  0.661660  0.786160  1.0  -0.6929
  O  O349  1  0.949370  0.141750  0.291950  1.0  -0.7187
  O  O350  1  0.919140  0.079900  0.204620  1.0  -0.7087
  O  O351  1  0.090980  0.384590  0.199870  1.0  -0.7467
  O  O352  1  0.038440  0.338340  0.286160  1.0  -0.6934
  O  O353  1  0.708050  0.449370  0.358250  1.0  -0.7174
  O  O354  1  0.795380  0.419140  0.420100  1.0  -0.7099
  O  O355  1  0.800130  0.590980  0.115410  1.0  -0.7473
  O  O356  1  0.713840  0.538440  0.161660  1.0  -0.6932
  O  O357  1  0.208050  0.050630  0.641750  1.0  -0.7172
  O  O358  1  0.295380  0.080860  0.579900  1.0  -0.7105
  O  O359  1  0.300130  0.909020  0.884590  1.0  -0.7479
  O  O360  1  0.213840  0.961560  0.838340  1.0  -0.6929
  O  O361  1  0.791950  0.550630  0.858250  1.0  -0.718
  O  O362  1  0.704620  0.580860  0.920100  1.0  -0.7118
  O  O363  1  0.699870  0.409020  0.615410  1.0  -0.7476
  O  O364  1  0.786160  0.461560  0.661660  1.0  -0.693
  O  O365  1  0.291950  0.949370  0.141750  1.0  -0.7173
  O  O366  1  0.204620  0.919140  0.079900  1.0  -0.7119
  O  O367  1  0.199870  0.090980  0.384590  1.0  -0.7471
  O  O368  1  0.286160  0.038440  0.338340  1.0  -0.6932
  O  O369  1  0.358250  0.708050  0.449370  1.0  -0.7137
  O  O370  1  0.420100  0.795380  0.419140  1.0  -0.7125
  O  O371  1  0.115410  0.800130  0.590980  1.0  -0.748
  O  O372  1  0.161660  0.713840  0.538440  1.0  -0.6909
  O  O373  1  0.641750  0.208050  0.050630  1.0  -0.7135
  O  O374  1  0.579900  0.295380  0.080860  1.0  -0.712
  O  O375  1  0.884590  0.300130  0.909020  1.0  -0.7466
  O  O376  1  0.838340  0.213840  0.961560  1.0  -0.6916
  O  O377  1  0.858250  0.791950  0.550630  1.0  -0.7146
  O  O378  1  0.920100  0.704620  0.580860  1.0  -0.7119
  O  O379  1  0.615410  0.699870  0.409020  1.0  -0.7478
  O  O380  1  0.661660  0.786160  0.461560  1.0  -0.6925
  O  O381  1  0.141750  0.291950  0.949370  1.0  -0.7138
  O  O382  1  0.079900  0.204620  0.919140  1.0  -0.7139
  O  O383  1  0.384590  0.199870  0.090980  1.0  -0.7482
  O  O384  1  0.338340  0.286160  0.038440  1.0  -0.6906
