# generated using pymatgen
data_Cu3P2H10C14(NO5)2
_symmetry_space_group_name_H-M   'P 1'
_cell_length_a   8.55300000
_cell_length_b   9.11400000
_cell_length_c   10.39900000
_cell_angle_alpha   105.16000000
_cell_angle_beta   97.83000000
_cell_angle_gamma   114.41000000
_symmetry_Int_Tables_number   1
_chemical_formula_structural   Cu3P2H10C14(NO5)2
_chemical_formula_sum   'Cu3 P2 H10 C14 N2 O10'
_cell_volume   684.39667624
_cell_formula_units_Z   1
loop_
 _symmetry_equiv_pos_site_id
 _symmetry_equiv_pos_as_xyz
  1  'x, y, z'
loop_
 _atom_site_type_symbol
 _atom_site_label
 _atom_site_symmetry_multiplicity
 _atom_site_fract_x
 _atom_site_fract_y
 _atom_site_fract_z
 _atom_site_occupancy
 _atom_site_charge
  Cu  Cu1  1  0.828250  0.957900  0.297300  1.0  0.9361
  Cu  Cu2  1  0.171750  0.042100  0.702700  1.0  0.9382
  Cu  Cu3  1  0.500000  0.500000  0.500000  1.0  0.5797
  P  P4  1  0.236040  0.099730  0.423970  1.0  1.5285
  P  P5  1  0.763960  0.900270  0.576030  1.0  1.5275
  H  H6  1  0.158300  0.033900  0.130400  1.0  0.118
  H  H7  1  0.411400  0.768500  0.988500  1.0  0.1405
  H  H8  1  0.432500  0.912600  0.390500  1.0  0.119
  H  H9  1  0.555000  0.680000  0.145000  1.0  0.2284
  H  H10  1  0.540000  0.717000  0.286000  1.0  0.3224
  H  H11  1  0.841700  0.966100  0.869600  1.0  0.1183
  H  H12  1  0.588600  0.231500  0.011500  1.0  0.1405
  H  H13  1  0.567500  0.087400  0.609500  1.0  0.1198
  H  H14  1  0.445000  0.320000  0.855000  1.0  0.23
  H  H15  1  0.460000  0.283000  0.714000  1.0  0.3225
  C  C16  1  0.287400  0.988100  0.279900  1.0  -0.2443
  C  C17  1  0.229500  0.982700  0.146600  1.0  0.0375
  C  C18  1  0.275800  0.902800  0.038000  1.0  -0.1335
  C  C19  1  0.382100  0.825400  0.061800  1.0  -0.1235
  C  C20  1  0.443400  0.833500  0.193800  1.0  0.1966
  C  C21  1  0.394000  0.911500  0.302000  1.0  -0.1036
  C  C22  1  0.221900  0.903600  0.895200  1.0  0.7113
  C  C23  1  0.712600  0.011900  0.720100  1.0  -0.2447
  C  C24  1  0.770500  0.017300  0.853400  1.0  0.0377
  C  C25  1  0.724200  0.097200  0.962000  1.0  -0.1328
  C  C26  1  0.617900  0.174600  0.938200  1.0  -0.1247
  C  C27  1  0.556600  0.166500  0.806200  1.0  0.197
  C  C28  1  0.606000  0.088500  0.698000  1.0  -0.1038
  C  C29  1  0.778100  0.096400  0.104800  1.0  0.711
  N  N30  1  0.567200  0.768500  0.223000  1.0  -0.5841
  N  N31  1  0.432800  0.231500  0.777000  1.0  -0.5854
  O  O32  1  0.080500  0.126400  0.364900  1.0  -0.7615
  O  O33  1  0.401000  0.270500  0.504500  1.0  -0.8087
  O  O34  1  0.193200  0.988700  0.513900  1.0  -0.7729
  O  O35  1  0.217300  0.793900  0.793700  1.0  -0.5026
  O  O36  1  0.186200  0.024700  0.887400  1.0  -0.5953
  O  O37  1  0.919500  0.873600  0.635100  1.0  -0.764
  O  O38  1  0.599000  0.729500  0.495500  1.0  -0.8046
  O  O39  1  0.806800  0.011300  0.486100  1.0  -0.7708
  O  O40  1  0.782700  0.206100  0.206300  1.0  -0.5048
  O  O41  1  0.813800  0.975300  0.112600  1.0  -0.595
