# generated using pymatgen
data_SmH3C7NO4
_symmetry_space_group_name_H-M   'P 1'
_cell_length_a   19.83300000
_cell_length_b   19.83300000
_cell_length_c   19.83300000
_cell_angle_alpha   90.00000000
_cell_angle_beta   90.00000000
_cell_angle_gamma   90.00000000
_symmetry_Int_Tables_number   1
_chemical_formula_structural   SmH3C7NO4
_chemical_formula_sum   'Sm24 H72 C168 N24 O96'
_cell_volume   7801.26868254
_cell_formula_units_Z   24
loop_
 _symmetry_equiv_pos_site_id
 _symmetry_equiv_pos_as_xyz
  1  'x, y, z'
loop_
 _atom_site_type_symbol
 _atom_site_label
 _atom_site_symmetry_multiplicity
 _atom_site_fract_x
 _atom_site_fract_y
 _atom_site_fract_z
 _atom_site_occupancy
 _atom_site_charge
  Sm  Sm1  1  0.506570  0.747340  0.347240  1.0  2.1354
  Sm  Sm2  1  0.993430  0.252660  0.847240  1.0  2.1354
  Sm  Sm3  1  0.493430  0.247340  0.152760  1.0  2.1342
  Sm  Sm4  1  0.006570  0.752660  0.652760  1.0  2.134
  Sm  Sm5  1  0.347240  0.506570  0.747340  1.0  2.1338
  Sm  Sm6  1  0.847240  0.993430  0.252660  1.0  2.134
  Sm  Sm7  1  0.152760  0.493430  0.247340  1.0  2.1349
  Sm  Sm8  1  0.652760  0.006570  0.752660  1.0  2.135
  Sm  Sm9  1  0.747340  0.347240  0.506570  1.0  2.1348
  Sm  Sm10  1  0.252660  0.847240  0.993430  1.0  2.135
  Sm  Sm11  1  0.247340  0.152760  0.493430  1.0  2.1349
  Sm  Sm12  1  0.752660  0.652760  0.006570  1.0  2.135
  Sm  Sm13  1  0.493430  0.252660  0.652760  1.0  2.1341
  Sm  Sm14  1  0.006570  0.747340  0.152760  1.0  2.1342
  Sm  Sm15  1  0.506570  0.752660  0.847240  1.0  2.1353
  Sm  Sm16  1  0.993430  0.247340  0.347240  1.0  2.1355
  Sm  Sm17  1  0.652760  0.493430  0.252660  1.0  2.135
  Sm  Sm18  1  0.152760  0.006570  0.747340  1.0  2.1349
  Sm  Sm19  1  0.847240  0.506570  0.752660  1.0  2.1339
  Sm  Sm20  1  0.347240  0.993430  0.247340  1.0  2.1339
  Sm  Sm21  1  0.252660  0.652760  0.493430  1.0  2.135
  Sm  Sm22  1  0.747340  0.152760  0.006570  1.0  2.1349
  Sm  Sm23  1  0.752660  0.847240  0.506570  1.0  2.1349
  Sm  Sm24  1  0.247340  0.347240  0.993430  1.0  2.1349
  H  H25  1  0.451300  0.829300  0.091600  1.0  0.0958
  H  H26  1  0.546200  0.651200  0.093600  1.0  0.096
  H  H27  1  0.497300  0.738400  0.034100  1.0  0.0729
  H  H28  1  0.048700  0.170700  0.591600  1.0  0.0949
  H  H29  1  0.953800  0.348800  0.593600  1.0  0.0965
  H  H30  1  0.002700  0.261600  0.534100  1.0  0.0729
  H  H31  1  0.548700  0.329300  0.408400  1.0  0.0957
  H  H32  1  0.453800  0.151200  0.406400  1.0  0.0961
  H  H33  1  0.502700  0.238400  0.465900  1.0  0.0722
  H  H34  1  0.951300  0.670700  0.908400  1.0  0.0954
  H  H35  1  0.046200  0.848800  0.906400  1.0  0.0959
  H  H36  1  0.997300  0.761600  0.965900  1.0  0.0723
  H  H37  1  0.091600  0.451300  0.829300  1.0  0.0964
  H  H38  1  0.093600  0.546200  0.651200  1.0  0.0965
  H  H39  1  0.034100  0.497300  0.738400  1.0  0.0729
  H  H40  1  0.591600  0.048700  0.170700  1.0  0.0958
  H  H41  1  0.593600  0.953800  0.348800  1.0  0.0974
  H  H42  1  0.534100  0.002700  0.261600  1.0  0.0726
  H  H43  1  0.408400  0.548700  0.329300  1.0  0.096
  H  H44  1  0.406400  0.453800  0.151200  1.0  0.0968
  H  H45  1  0.465900  0.502700  0.238400  1.0  0.0747
  H  H46  1  0.908400  0.951300  0.670700  1.0  0.096
  H  H47  1  0.906400  0.046200  0.848800  1.0  0.0967
  H  H48  1  0.965900  0.997300  0.761600  1.0  0.0747
  H  H49  1  0.829300  0.091600  0.451300  1.0  0.0949
  H  H50  1  0.651200  0.093600  0.546200  1.0  0.0953
  H  H51  1  0.738400  0.034100  0.497300  1.0  0.0715
  H  H52  1  0.170700  0.591600  0.048700  1.0  0.0952
  H  H53  1  0.348800  0.593600  0.953800  1.0  0.0953
  H  H54  1  0.261600  0.534100  0.002700  1.0  0.0719
  H  H55  1  0.329300  0.408400  0.548700  1.0  0.095
  H  H56  1  0.151200  0.406400  0.453800  1.0  0.0954
  H  H57  1  0.238400  0.465900  0.502700  1.0  0.0723
  H  H58  1  0.670700  0.908400  0.951300  1.0  0.095
  H  H59  1  0.848800  0.906400  0.046200  1.0  0.095
  H  H60  1  0.761600  0.965900  0.997300  1.0  0.0721
  H  H61  1  0.548700  0.170700  0.908400  1.0  0.0953
  H  H62  1  0.453800  0.348800  0.906400  1.0  0.0962
  H  H63  1  0.502700  0.261600  0.965900  1.0  0.0722
  H  H64  1  0.951300  0.829300  0.408400  1.0  0.0959
  H  H65  1  0.046200  0.651200  0.406400  1.0  0.0957
  H  H66  1  0.997300  0.738400  0.465900  1.0  0.0723
  H  H67  1  0.451300  0.670700  0.591600  1.0  0.095
  H  H68  1  0.546200  0.848800  0.593600  1.0  0.0965
  H  H69  1  0.497300  0.761600  0.534100  1.0  0.0731
  H  H70  1  0.048700  0.329300  0.091600  1.0  0.0957
  H  H71  1  0.953800  0.151200  0.093600  1.0  0.096
  H  H72  1  0.002700  0.238400  0.034100  1.0  0.0727
  H  H73  1  0.908400  0.548700  0.170700  1.0  0.0958
  H  H74  1  0.906400  0.453800  0.348800  1.0  0.0969
  H  H75  1  0.965900  0.502700  0.261600  1.0  0.0746
  H  H76  1  0.408400  0.951300  0.829300  1.0  0.0962
  H  H77  1  0.406400  0.046200  0.651200  1.0  0.0966
  H  H78  1  0.465900  0.997300  0.738400  1.0  0.0748
  H  H79  1  0.591600  0.451300  0.670700  1.0  0.0959
  H  H80  1  0.593600  0.546200  0.848800  1.0  0.0971
  H  H81  1  0.534100  0.497300  0.761600  1.0  0.0728
  H  H82  1  0.091600  0.048700  0.329300  1.0  0.0962
  H  H83  1  0.093600  0.953800  0.151200  1.0  0.0968
  H  H84  1  0.034100  0.002700  0.238400  1.0  0.0727
  H  H85  1  0.170700  0.908400  0.548700  1.0  0.0951
  H  H86  1  0.348800  0.906400  0.453800  1.0  0.0956
  H  H87  1  0.261600  0.965900  0.502700  1.0  0.0724
  H  H88  1  0.829300  0.408400  0.951300  1.0  0.0951
  H  H89  1  0.651200  0.406400  0.046200  1.0  0.0951
  H  H90  1  0.738400  0.465900  0.997300  1.0  0.072
  H  H91  1  0.670700  0.591600  0.451300  1.0  0.0947
  H  H92  1  0.848800  0.593600  0.546200  1.0  0.0951
  H  H93  1  0.761600  0.534100  0.497300  1.0  0.0717
  H  H94  1  0.329300  0.091600  0.048700  1.0  0.0951
  H  H95  1  0.151200  0.093600  0.953800  1.0  0.0953
  H  H96  1  0.238400  0.034100  0.002700  1.0  0.0718
  C  C97  1  0.554900  0.636500  0.230700  1.0  0.6682
  C  C98  1  0.445800  0.848500  0.228400  1.0  0.6637
  C  C99  1  0.473200  0.793300  0.184100  1.0  0.0613
  C  C100  1  0.526200  0.690300  0.185800  1.0  0.0678
  C  C101  1  0.470800  0.793600  0.114900  1.0  -0.1571
  C  C102  1  0.526800  0.687500  0.116000  1.0  -0.1639
  C  C103  1  0.498300  0.739500  0.081000  1.0  -0.125
  C  C104  1  0.945100  0.363500  0.730700  1.0  0.6659
  C  C105  1  0.054200  0.151500  0.728400  1.0  0.6649
  C  C106  1  0.026800  0.206700  0.684100  1.0  0.0615
  C  C107  1  0.973800  0.309700  0.685800  1.0  0.0671
  C  C108  1  0.029200  0.206400  0.614900  1.0  -0.1568
  C  C109  1  0.973200  0.312500  0.616000  1.0  -0.1639
  C  C110  1  0.001700  0.260500  0.581000  1.0  -0.1253
  C  C111  1  0.445100  0.136500  0.269300  1.0  0.6668
  C  C112  1  0.554200  0.348500  0.271600  1.0  0.6642
  C  C113  1  0.526800  0.293300  0.315900  1.0  0.0621
  C  C114  1  0.473800  0.190300  0.314200  1.0  0.0668
  C  C115  1  0.529200  0.293600  0.385100  1.0  -0.1572
  C  C116  1  0.473200  0.187500  0.384000  1.0  -0.1635
  C  C117  1  0.501700  0.239500  0.419000  1.0  -0.1242
  C  C118  1  0.054900  0.863500  0.769300  1.0  0.6669
  C  C119  1  0.945800  0.651500  0.771600  1.0  0.6632
  C  C120  1  0.973200  0.706700  0.815900  1.0  0.0613
  C  C121  1  0.026200  0.809700  0.814200  1.0  0.0671
  C  C122  1  0.970800  0.706400  0.885100  1.0  -0.1565
  C  C123  1  0.026800  0.812500  0.884000  1.0  -0.1643
  C  C124  1  0.998300  0.760500  0.919000  1.0  -0.1239
  C  C125  1  0.230700  0.554900  0.636500  1.0  0.6664
  C  C126  1  0.228400  0.445800  0.848500  1.0  0.6648
  C  C127  1  0.184100  0.473200  0.793300  1.0  0.0609
  C  C128  1  0.185800  0.526200  0.690300  1.0  0.0665
  C  C129  1  0.114900  0.470800  0.793600  1.0  -0.1573
  C  C130  1  0.116000  0.526800  0.687500  1.0  -0.1659
  C  C131  1  0.081000  0.498300  0.739500  1.0  -0.13
  C  C132  1  0.730700  0.945100  0.363500  1.0  0.6668
  C  C133  1  0.728400  0.054200  0.151500  1.0  0.6644
  C  C134  1  0.684100  0.026800  0.206700  1.0  0.0614
  C  C135  1  0.685800  0.973800  0.309700  1.0  0.0671
  C  C136  1  0.614900  0.029200  0.206400  1.0  -0.1579
  C  C137  1  0.616000  0.973200  0.312500  1.0  -0.1659
  C  C138  1  0.581000  0.001700  0.260500  1.0  -0.1303
  C  C139  1  0.269300  0.445100  0.136500  1.0  0.666
  C  C140  1  0.271600  0.554200  0.348500  1.0  0.6646
  C  C141  1  0.315900  0.526800  0.293300  1.0  0.0609
  C  C142  1  0.314200  0.473800  0.190300  1.0  0.0663
  C  C143  1  0.385100  0.529200  0.293600  1.0  -0.1592
  C  C144  1  0.384000  0.473200  0.187500  1.0  -0.1662
  C  C145  1  0.419000  0.501700  0.239500  1.0  -0.1255
  C  C146  1  0.769300  0.054900  0.863500  1.0  0.6651
  C  C147  1  0.771600  0.945800  0.651500  1.0  0.664
  C  C148  1  0.815900  0.973200  0.706700  1.0  0.0609
  C  C149  1  0.814200  0.026200  0.809700  1.0  0.0671
  C  C150  1  0.885100  0.970800  0.706400  1.0  -0.1588
  C  C151  1  0.884000  0.026800  0.812500  1.0  -0.1663
  C  C152  1  0.919000  0.998300  0.760500  1.0  -0.1257
  C  C153  1  0.636500  0.230700  0.554900  1.0  0.6643
  C  C154  1  0.848500  0.228400  0.445800  1.0  0.6623
  C  C155  1  0.793300  0.184100  0.473200  1.0  0.0608
  C  C156  1  0.690300  0.185800  0.526200  1.0  0.0661
  C  C157  1  0.793600  0.114900  0.470800  1.0  -0.1567
  C  C158  1  0.687500  0.116000  0.526800  1.0  -0.1645
  C  C159  1  0.739500  0.081000  0.498300  1.0  -0.1234
  C  C160  1  0.363500  0.730700  0.945100  1.0  0.6665
  C  C161  1  0.151500  0.728400  0.054200  1.0  0.6614
  C  C162  1  0.206700  0.684100  0.026800  1.0  0.0605
  C  C163  1  0.309700  0.685800  0.973800  1.0  0.0655
  C  C164  1  0.206400  0.614900  0.029200  1.0  -0.1562
  C  C165  1  0.312500  0.616000  0.973200  1.0  -0.1647
  C  C166  1  0.260500  0.581000  0.001700  1.0  -0.1236
  C  C167  1  0.136500  0.269300  0.445100  1.0  0.6652
  C  C168  1  0.348500  0.271600  0.554200  1.0  0.6624
  C  C169  1  0.293300  0.315900  0.526800  1.0  0.0611
  C  C170  1  0.190300  0.314200  0.473800  1.0  0.0663
  C  C171  1  0.293600  0.385100  0.529200  1.0  -0.1569
  C  C172  1  0.187500  0.384000  0.473200  1.0  -0.1645
  C  C173  1  0.239500  0.419000  0.501700  1.0  -0.1244
  C  C174  1  0.863500  0.769300  0.054900  1.0  0.6666
  C  C175  1  0.651500  0.771600  0.945800  1.0  0.6627
  C  C176  1  0.706700  0.815900  0.973200  1.0  0.0606
  C  C177  1  0.809700  0.814200  0.026200  1.0  0.0664
  C  C178  1  0.706400  0.885100  0.970800  1.0  -0.1564
  C  C179  1  0.812500  0.884000  0.026800  1.0  -0.1644
  C  C180  1  0.760500  0.919000  0.998300  1.0  -0.1244
  C  C181  1  0.445100  0.363500  0.769300  1.0  0.6666
  C  C182  1  0.554200  0.151500  0.771600  1.0  0.6631
  C  C183  1  0.526800  0.206700  0.815900  1.0  0.0617
  C  C184  1  0.473800  0.309700  0.814200  1.0  0.0671
  C  C185  1  0.529200  0.206400  0.885100  1.0  -0.1566
  C  C186  1  0.473200  0.312500  0.884000  1.0  -0.1643
  C  C187  1  0.501700  0.260500  0.919000  1.0  -0.1242
  C  C188  1  0.054900  0.636500  0.269300  1.0  0.6677
  C  C189  1  0.945800  0.848500  0.271600  1.0  0.6639
  C  C190  1  0.973200  0.793300  0.315900  1.0  0.0624
  C  C191  1  0.026200  0.690300  0.314200  1.0  0.0673
  C  C192  1  0.970800  0.793600  0.385100  1.0  -0.1575
  C  C193  1  0.026800  0.687500  0.384000  1.0  -0.1644
  C  C194  1  0.998300  0.739500  0.419000  1.0  -0.124
  C  C195  1  0.554900  0.863500  0.730700  1.0  0.6667
  C  C196  1  0.445800  0.651500  0.728400  1.0  0.6645
  C  C197  1  0.473200  0.706700  0.684100  1.0  0.0611
  C  C198  1  0.526200  0.809700  0.685800  1.0  0.0671
  C  C199  1  0.470800  0.706400  0.614900  1.0  -0.1565
  C  C200  1  0.526800  0.812500  0.616000  1.0  -0.1642
  C  C201  1  0.498300  0.760500  0.581000  1.0  -0.1251
  C  C202  1  0.945100  0.136500  0.230700  1.0  0.6669
  C  C203  1  0.054200  0.348500  0.228400  1.0  0.6645
  C  C204  1  0.026800  0.293300  0.184100  1.0  0.0611
  C  C205  1  0.973800  0.190300  0.185800  1.0  0.0674
  C  C206  1  0.029200  0.293600  0.114900  1.0  -0.1571
  C  C207  1  0.973200  0.187500  0.116000  1.0  -0.1632
  C  C208  1  0.001700  0.239500  0.081000  1.0  -0.1252
  C  C209  1  0.769300  0.445100  0.363500  1.0  0.666
  C  C210  1  0.771600  0.554200  0.151500  1.0  0.6651
  C  C211  1  0.815900  0.526800  0.206700  1.0  0.0616
  C  C212  1  0.814200  0.473800  0.309700  1.0  0.0671
  C  C213  1  0.885100  0.529200  0.206400  1.0  -0.1599
  C  C214  1  0.884000  0.473200  0.312500  1.0  -0.1663
  C  C215  1  0.919000  0.501700  0.260500  1.0  -0.1257
  C  C216  1  0.269300  0.054900  0.636500  1.0  0.6661
  C  C217  1  0.271600  0.945800  0.848500  1.0  0.6652
  C  C218  1  0.315900  0.973200  0.793300  1.0  0.0608
  C  C219  1  0.314200  0.026200  0.690300  1.0  0.0667
  C  C220  1  0.385100  0.970800  0.793600  1.0  -0.1583
  C  C221  1  0.384000  0.026800  0.687500  1.0  -0.1662
  C  C222  1  0.419000  0.998300  0.739500  1.0  -0.1254
  C  C223  1  0.730700  0.554900  0.863500  1.0  0.6662
  C  C224  1  0.728400  0.445800  0.651500  1.0  0.6632
  C  C225  1  0.684100  0.473200  0.706700  1.0  0.0611
  C  C226  1  0.685800  0.526200  0.809700  1.0  0.0669
  C  C227  1  0.614900  0.470800  0.706400  1.0  -0.1566
  C  C228  1  0.616000  0.526800  0.812500  1.0  -0.1666
  C  C229  1  0.581000  0.498300  0.760500  1.0  -0.1302
  C  C230  1  0.230700  0.945100  0.136500  1.0  0.6659
  C  C231  1  0.228400  0.054200  0.348500  1.0  0.6646
  C  C232  1  0.184100  0.026800  0.293300  1.0  0.0606
  C  C233  1  0.185800  0.973800  0.190300  1.0  0.0665
  C  C234  1  0.114900  0.029200  0.293600  1.0  -0.1583
  C  C235  1  0.116000  0.973200  0.187500  1.0  -0.1653
  C  C236  1  0.081000  0.001700  0.239500  1.0  -0.13
  C  C237  1  0.363500  0.769300  0.445100  1.0  0.6664
  C  C238  1  0.151500  0.771600  0.554200  1.0  0.6626
  C  C239  1  0.206700  0.815900  0.526800  1.0  0.0606
  C  C240  1  0.309700  0.814200  0.473800  1.0  0.0661
  C  C241  1  0.206400  0.885100  0.529200  1.0  -0.1564
  C  C242  1  0.312500  0.884000  0.473200  1.0  -0.1642
  C  C243  1  0.260500  0.919000  0.501700  1.0  -0.1245
  C  C244  1  0.636500  0.269300  0.054900  1.0  0.6652
  C  C245  1  0.848500  0.271600  0.945800  1.0  0.6618
  C  C246  1  0.793300  0.315900  0.973200  1.0  0.0611
  C  C247  1  0.690300  0.314200  0.026200  1.0  0.0668
  C  C248  1  0.793600  0.385100  0.970800  1.0  -0.1567
  C  C249  1  0.687500  0.384000  0.026800  1.0  -0.1648
  C  C250  1  0.739500  0.419000  0.998300  1.0  -0.1243
  C  C251  1  0.863500  0.730700  0.554900  1.0  0.666
  C  C252  1  0.651500  0.728400  0.445800  1.0  0.6625
  C  C253  1  0.706700  0.684100  0.473200  1.0  0.0607
  C  C254  1  0.809700  0.685800  0.526200  1.0  0.0656
  C  C255  1  0.706400  0.614900  0.470800  1.0  -0.1561
  C  C256  1  0.812500  0.616000  0.526800  1.0  -0.1649
  C  C257  1  0.760500  0.581000  0.498300  1.0  -0.1236
  C  C258  1  0.136500  0.230700  0.945100  1.0  0.665
  C  C259  1  0.348500  0.228400  0.054200  1.0  0.6618
  C  C260  1  0.293300  0.184100  0.026800  1.0  0.0606
  C  C261  1  0.190300  0.185800  0.973800  1.0  0.066
  C  C262  1  0.293600  0.114900  0.029200  1.0  -0.1569
  C  C263  1  0.187500  0.116000  0.973200  1.0  -0.1643
  C  C264  1  0.239500  0.081000  0.001700  1.0  -0.1234
  N  N265  1  0.500390  0.742830  0.219440  1.0  -0.4958
  N  N266  1  0.999610  0.257170  0.719440  1.0  -0.4962
  N  N267  1  0.499610  0.242830  0.280560  1.0  -0.4958
  N  N268  1  0.000390  0.757170  0.780560  1.0  -0.4954
  N  N269  1  0.219440  0.500390  0.742830  1.0  -0.4879
  N  N270  1  0.719440  0.999610  0.257170  1.0  -0.4878
  N  N271  1  0.280560  0.499610  0.242830  1.0  -0.4912
  N  N272  1  0.780560  0.000390  0.757170  1.0  -0.4909
  N  N273  1  0.742830  0.219440  0.500390  1.0  -0.4903
  N  N274  1  0.257170  0.719440  0.999610  1.0  -0.4914
  N  N275  1  0.242830  0.280560  0.499610  1.0  -0.4885
  N  N276  1  0.757170  0.780560  0.000390  1.0  -0.489
  N  N277  1  0.499610  0.257170  0.780560  1.0  -0.4957
  N  N278  1  0.000390  0.742830  0.280560  1.0  -0.4955
  N  N279  1  0.500390  0.757170  0.719440  1.0  -0.4959
  N  N280  1  0.999610  0.242830  0.219440  1.0  -0.4961
  N  N281  1  0.780560  0.499610  0.257170  1.0  -0.491
  N  N282  1  0.280560  0.000390  0.742830  1.0  -0.4911
  N  N283  1  0.719440  0.500390  0.757170  1.0  -0.4877
  N  N284  1  0.219440  0.999610  0.242830  1.0  -0.4879
  N  N285  1  0.257170  0.780560  0.499610  1.0  -0.4891
  N  N286  1  0.742830  0.280560  0.000390  1.0  -0.4884
  N  N287  1  0.757170  0.719440  0.500390  1.0  -0.4913
  N  N288  1  0.242830  0.219440  0.999610  1.0  -0.4904
  O  O289  1  0.549100  0.646970  0.293670  1.0  -0.7212
  O  O290  1  0.458810  0.843160  0.290600  1.0  -0.7199
  O  O291  1  0.411500  0.894180  0.202900  1.0  -0.7735
  O  O292  1  0.582150  0.586390  0.205390  1.0  -0.7039
  O  O293  1  0.950900  0.353030  0.793670  1.0  -0.7205
  O  O294  1  0.041190  0.156840  0.790600  1.0  -0.7206
  O  O295  1  0.088500  0.105820  0.702900  1.0  -0.774
  O  O296  1  0.917850  0.413610  0.705390  1.0  -0.7042
  O  O297  1  0.450900  0.146970  0.206330  1.0  -0.7226
  O  O298  1  0.541190  0.343160  0.209400  1.0  -0.7204
  O  O299  1  0.588500  0.394180  0.297100  1.0  -0.7738
  O  O300  1  0.417850  0.086390  0.294610  1.0  -0.7035
  O  O301  1  0.049100  0.853030  0.706330  1.0  -0.7229
  O  O302  1  0.958810  0.656840  0.709400  1.0  -0.7192
  O  O303  1  0.911500  0.605820  0.797100  1.0  -0.7751
  O  O304  1  0.082150  0.913610  0.794610  1.0  -0.7024
  O  O305  1  0.293670  0.549100  0.646970  1.0  -0.7205
  O  O306  1  0.290600  0.458810  0.843160  1.0  -0.7185
  O  O307  1  0.202900  0.411500  0.894180  1.0  -0.7754
  O  O308  1  0.205390  0.582150  0.586390  1.0  -0.7039
  O  O309  1  0.793670  0.950900  0.353030  1.0  -0.7204
  O  O310  1  0.790600  0.041190  0.156840  1.0  -0.718
  O  O311  1  0.702900  0.088500  0.105820  1.0  -0.7769
  O  O312  1  0.705390  0.917850  0.413610  1.0  -0.7028
  O  O313  1  0.206330  0.450900  0.146970  1.0  -0.7202
  O  O314  1  0.209400  0.541190  0.343160  1.0  -0.7185
  O  O315  1  0.297100  0.588500  0.394180  1.0  -0.776
  O  O316  1  0.294610  0.417850  0.086390  1.0  -0.7046
  O  O317  1  0.706330  0.049100  0.853030  1.0  -0.7212
  O  O318  1  0.709400  0.958810  0.656840  1.0  -0.7176
  O  O319  1  0.797100  0.911500  0.605820  1.0  -0.7763
  O  O320  1  0.794610  0.082150  0.913610  1.0  -0.7035
  O  O321  1  0.646970  0.293670  0.549100  1.0  -0.7194
  O  O322  1  0.843160  0.290600  0.458810  1.0  -0.7156
  O  O323  1  0.894180  0.202900  0.411500  1.0  -0.7748
  O  O324  1  0.586390  0.205390  0.582150  1.0  -0.7058
  O  O325  1  0.353030  0.793670  0.950900  1.0  -0.7186
  O  O326  1  0.156840  0.790600  0.041190  1.0  -0.717
  O  O327  1  0.105820  0.702900  0.088500  1.0  -0.7741
  O  O328  1  0.413610  0.705390  0.917850  1.0  -0.7056
  O  O329  1  0.146970  0.206330  0.450900  1.0  -0.7173
  O  O330  1  0.343160  0.209400  0.541190  1.0  -0.7159
  O  O331  1  0.394180  0.297100  0.588500  1.0  -0.7747
  O  O332  1  0.086390  0.294610  0.417850  1.0  -0.706
  O  O333  1  0.853030  0.706330  0.049100  1.0  -0.718
  O  O334  1  0.656840  0.709400  0.958810  1.0  -0.7166
  O  O335  1  0.605820  0.797100  0.911500  1.0  -0.7743
  O  O336  1  0.913610  0.794610  0.082150  1.0  -0.7043
  O  O337  1  0.450900  0.353030  0.706330  1.0  -0.7227
  O  O338  1  0.541190  0.156840  0.709400  1.0  -0.7204
  O  O339  1  0.588500  0.105820  0.797100  1.0  -0.7747
  O  O340  1  0.417850  0.413610  0.794610  1.0  -0.7029
  O  O341  1  0.049100  0.646970  0.206330  1.0  -0.7228
  O  O342  1  0.958810  0.843160  0.209400  1.0  -0.7191
  O  O343  1  0.911500  0.894180  0.297100  1.0  -0.7741
  O  O344  1  0.082150  0.586390  0.294610  1.0  -0.7031
  O  O345  1  0.549100  0.853030  0.793670  1.0  -0.7208
  O  O346  1  0.458810  0.656840  0.790600  1.0  -0.7198
  O  O347  1  0.411500  0.605820  0.702900  1.0  -0.7744
  O  O348  1  0.582150  0.913610  0.705390  1.0  -0.703
  O  O349  1  0.950900  0.146970  0.293670  1.0  -0.721
  O  O350  1  0.041190  0.343160  0.290600  1.0  -0.7209
  O  O351  1  0.088500  0.394180  0.202900  1.0  -0.7733
  O  O352  1  0.917850  0.086390  0.205390  1.0  -0.7045
  O  O353  1  0.706330  0.450900  0.353030  1.0  -0.7205
  O  O354  1  0.709400  0.541190  0.156840  1.0  -0.7181
  O  O355  1  0.797100  0.588500  0.105820  1.0  -0.7763
  O  O356  1  0.794610  0.417850  0.413610  1.0  -0.7028
  O  O357  1  0.206330  0.049100  0.646970  1.0  -0.7209
  O  O358  1  0.209400  0.958810  0.843160  1.0  -0.7182
  O  O359  1  0.297100  0.911500  0.894180  1.0  -0.7751
  O  O360  1  0.294610  0.082150  0.586390  1.0  -0.7038
  O  O361  1  0.793670  0.549100  0.853030  1.0  -0.7208
  O  O362  1  0.790600  0.458810  0.656840  1.0  -0.7177
  O  O363  1  0.702900  0.411500  0.605820  1.0  -0.7765
  O  O364  1  0.705390  0.582150  0.913610  1.0  -0.7031
  O  O365  1  0.293670  0.950900  0.146970  1.0  -0.7202
  O  O366  1  0.290600  0.041190  0.343160  1.0  -0.7186
  O  O367  1  0.202900  0.088500  0.394180  1.0  -0.7766
  O  O368  1  0.205390  0.917850  0.086390  1.0  -0.7038
  O  O369  1  0.353030  0.706330  0.450900  1.0  -0.7175
  O  O370  1  0.156840  0.709400  0.541190  1.0  -0.7165
  O  O371  1  0.105820  0.797100  0.588500  1.0  -0.7744
  O  O372  1  0.413610  0.794610  0.417850  1.0  -0.7049
  O  O373  1  0.646970  0.206330  0.049100  1.0  -0.7177
  O  O374  1  0.843160  0.209400  0.958810  1.0  -0.7159
  O  O375  1  0.894180  0.297100  0.911500  1.0  -0.7741
  O  O376  1  0.586390  0.294610  0.082150  1.0  -0.7053
  O  O377  1  0.853030  0.793670  0.549100  1.0  -0.719
  O  O378  1  0.656840  0.790600  0.458810  1.0  -0.7169
  O  O379  1  0.605820  0.702900  0.411500  1.0  -0.7748
  O  O380  1  0.913610  0.705390  0.582150  1.0  -0.705
  O  O381  1  0.146970  0.293670  0.950900  1.0  -0.7189
  O  O382  1  0.343160  0.290600  0.041190  1.0  -0.7157
  O  O383  1  0.394180  0.202900  0.088500  1.0  -0.7749
  O  O384  1  0.086390  0.205390  0.917850  1.0  -0.7066
