# generated using pymatgen
data_NdH3C7NO4
_symmetry_space_group_name_H-M   'P 1'
_cell_length_a   19.90910000
_cell_length_b   19.90910000
_cell_length_c   19.90910000
_cell_angle_alpha   90.00000000
_cell_angle_beta   90.00000000
_cell_angle_gamma   90.00000000
_symmetry_Int_Tables_number   1
_chemical_formula_structural   NdH3C7NO4
_chemical_formula_sum   'Nd24 H72 C168 N24 O96'
_cell_volume   7891.41501751
_cell_formula_units_Z   24
loop_
 _symmetry_equiv_pos_site_id
 _symmetry_equiv_pos_as_xyz
  1  'x, y, z'
loop_
 _atom_site_type_symbol
 _atom_site_label
 _atom_site_symmetry_multiplicity
 _atom_site_fract_x
 _atom_site_fract_y
 _atom_site_fract_z
 _atom_site_occupancy
 _atom_site_charge
  Nd  Nd1  1  0.492270  0.252930  0.652440  1.0  2.1309
  Nd  Nd2  1  0.007730  0.747070  0.152440  1.0  2.1312
  Nd  Nd3  1  0.507730  0.752930  0.847560  1.0  2.1321
  Nd  Nd4  1  0.992270  0.247070  0.347560  1.0  2.132
  Nd  Nd5  1  0.652440  0.492270  0.252930  1.0  2.132
  Nd  Nd6  1  0.152440  0.007730  0.747070  1.0  2.1317
  Nd  Nd7  1  0.847560  0.507730  0.752930  1.0  2.1308
  Nd  Nd8  1  0.347560  0.992270  0.247070  1.0  2.131
  Nd  Nd9  1  0.252930  0.652440  0.492270  1.0  2.1318
  Nd  Nd10  1  0.747070  0.152440  0.007730  1.0  2.1317
  Nd  Nd11  1  0.752930  0.847560  0.507730  1.0  2.1316
  Nd  Nd12  1  0.247070  0.347560  0.992270  1.0  2.1318
  Nd  Nd13  1  0.507730  0.747070  0.347560  1.0  2.1322
  Nd  Nd14  1  0.992270  0.252930  0.847560  1.0  2.1319
  Nd  Nd15  1  0.492270  0.247070  0.152440  1.0  2.1311
  Nd  Nd16  1  0.007730  0.752930  0.652440  1.0  2.131
  Nd  Nd17  1  0.347560  0.507730  0.747070  1.0  2.1308
  Nd  Nd18  1  0.847560  0.992270  0.252930  1.0  2.1311
  Nd  Nd19  1  0.152440  0.492270  0.247070  1.0  2.1319
  Nd  Nd20  1  0.652440  0.007730  0.752930  1.0  2.1318
  Nd  Nd21  1  0.747070  0.347560  0.507730  1.0  2.1316
  Nd  Nd22  1  0.252930  0.847560  0.992270  1.0  2.1318
  Nd  Nd23  1  0.247070  0.152440  0.492270  1.0  2.1317
  Nd  Nd24  1  0.752930  0.652440  0.007730  1.0  2.1317
  H  H25  1  0.549500  0.172700  0.908800  1.0  0.0937
  H  H26  1  0.454500  0.350100  0.906100  1.0  0.0948
  H  H27  1  0.501800  0.262600  0.966300  1.0  0.0771
  H  H28  1  0.950500  0.827300  0.408800  1.0  0.0938
  H  H29  1  0.045500  0.649900  0.406100  1.0  0.0944
  H  H30  1  0.998200  0.737400  0.466300  1.0  0.0771
  H  H31  1  0.450500  0.672700  0.591200  1.0  0.0933
  H  H32  1  0.545500  0.850100  0.593900  1.0  0.0953
  H  H33  1  0.498200  0.762600  0.533700  1.0  0.0768
  H  H34  1  0.049500  0.327300  0.091200  1.0  0.0937
  H  H35  1  0.954500  0.149900  0.093900  1.0  0.0946
  H  H36  1  0.001800  0.237400  0.033700  1.0  0.0769
  H  H37  1  0.908800  0.549500  0.172700  1.0  0.094
  H  H38  1  0.906100  0.454500  0.350100  1.0  0.0953
  H  H39  1  0.966300  0.501800  0.262600  1.0  0.0773
  H  H40  1  0.408800  0.950500  0.827300  1.0  0.0947
  H  H41  1  0.406100  0.045500  0.649900  1.0  0.0949
  H  H42  1  0.466300  0.998200  0.737400  1.0  0.0772
  H  H43  1  0.591200  0.450500  0.672700  1.0  0.0941
  H  H44  1  0.593900  0.545500  0.850100  1.0  0.0953
  H  H45  1  0.533700  0.498200  0.762600  1.0  0.0763
  H  H46  1  0.091200  0.049500  0.327300  1.0  0.0947
  H  H47  1  0.093900  0.954500  0.149900  1.0  0.0951
  H  H48  1  0.033700  0.001800  0.237400  1.0  0.0762
  H  H49  1  0.172700  0.908800  0.549500  1.0  0.0933
  H  H50  1  0.350100  0.906100  0.454500  1.0  0.0944
  H  H51  1  0.262600  0.966300  0.501800  1.0  0.0752
  H  H52  1  0.827300  0.408800  0.950500  1.0  0.0934
  H  H53  1  0.649900  0.406100  0.045500  1.0  0.0937
  H  H54  1  0.737400  0.466300  0.998200  1.0  0.0749
  H  H55  1  0.672700  0.591200  0.450500  1.0  0.093
  H  H56  1  0.850100  0.593900  0.545500  1.0  0.0938
  H  H57  1  0.762600  0.533700  0.498200  1.0  0.0759
  H  H58  1  0.327300  0.091200  0.049500  1.0  0.0932
  H  H59  1  0.149900  0.093900  0.954500  1.0  0.094
  H  H60  1  0.237400  0.033700  0.001800  1.0  0.0759
  H  H61  1  0.450500  0.827300  0.091200  1.0  0.0937
  H  H62  1  0.545500  0.649900  0.093900  1.0  0.0947
  H  H63  1  0.498200  0.737400  0.033700  1.0  0.0768
  H  H64  1  0.049500  0.172700  0.591200  1.0  0.0933
  H  H65  1  0.954500  0.350100  0.593900  1.0  0.0952
  H  H66  1  0.001800  0.262600  0.533700  1.0  0.0769
  H  H67  1  0.549500  0.327300  0.408800  1.0  0.0938
  H  H68  1  0.454500  0.149900  0.406100  1.0  0.0946
  H  H69  1  0.501800  0.237400  0.466300  1.0  0.0771
  H  H70  1  0.950500  0.672700  0.908800  1.0  0.0938
  H  H71  1  0.045500  0.850100  0.906100  1.0  0.0948
  H  H72  1  0.998200  0.762600  0.966300  1.0  0.0771
  H  H73  1  0.091200  0.450500  0.827300  1.0  0.095
  H  H74  1  0.093900  0.545500  0.649900  1.0  0.0948
  H  H75  1  0.033700  0.498200  0.737400  1.0  0.0765
  H  H76  1  0.591200  0.049500  0.172700  1.0  0.0941
  H  H77  1  0.593900  0.954500  0.350100  1.0  0.0956
  H  H78  1  0.533700  0.001800  0.262600  1.0  0.0762
  H  H79  1  0.408800  0.549500  0.327300  1.0  0.0944
  H  H80  1  0.406100  0.454500  0.149900  1.0  0.0953
  H  H81  1  0.466300  0.501800  0.237400  1.0  0.0774
  H  H82  1  0.908800  0.950500  0.672700  1.0  0.0941
  H  H83  1  0.906100  0.045500  0.850100  1.0  0.0951
  H  H84  1  0.966300  0.998200  0.762600  1.0  0.0772
  H  H85  1  0.827300  0.091200  0.450500  1.0  0.093
  H  H86  1  0.649900  0.093900  0.545500  1.0  0.0938
  H  H87  1  0.737400  0.033700  0.498200  1.0  0.0757
  H  H88  1  0.172700  0.591200  0.049500  1.0  0.0934
  H  H89  1  0.350100  0.593900  0.954500  1.0  0.0941
  H  H90  1  0.262600  0.533700  0.001800  1.0  0.0761
  H  H91  1  0.327300  0.408800  0.549500  1.0  0.0933
  H  H92  1  0.149900  0.406100  0.454500  1.0  0.0941
  H  H93  1  0.237400  0.466300  0.501800  1.0  0.0751
  H  H94  1  0.672700  0.908800  0.950500  1.0  0.0933
  H  H95  1  0.850100  0.906100  0.045500  1.0  0.0939
  H  H96  1  0.762600  0.966300  0.998200  1.0  0.075
  C  C97  1  0.445550  0.364570  0.769740  1.0  0.6779
  C  C98  1  0.554310  0.152780  0.772530  1.0  0.6592
  C  C99  1  0.526660  0.208100  0.816330  1.0  0.0737
  C  C100  1  0.474100  0.310900  0.814990  1.0  0.0474
  C  C101  1  0.529400  0.208000  0.885670  1.0  -0.1504
  C  C102  1  0.473500  0.313700  0.884000  1.0  -0.1567
  C  C103  1  0.501600  0.261700  0.919600  1.0  -0.1225
  C  C104  1  0.054450  0.635430  0.269740  1.0  0.6792
  C  C105  1  0.945690  0.847220  0.272530  1.0  0.6595
  C  C106  1  0.973340  0.791900  0.316330  1.0  0.0742
  C  C107  1  0.025900  0.689100  0.314990  1.0  0.0472
  C  C108  1  0.970600  0.792000  0.385670  1.0  -0.1498
  C  C109  1  0.026500  0.686300  0.384000  1.0  -0.1568
  C  C110  1  0.998400  0.738300  0.419600  1.0  -0.122
  C  C111  1  0.554450  0.864570  0.730260  1.0  0.6785
  C  C112  1  0.445690  0.652780  0.727470  1.0  0.6611
  C  C113  1  0.473340  0.708100  0.683670  1.0  0.0735
  C  C114  1  0.525900  0.810900  0.685010  1.0  0.0469
  C  C115  1  0.470600  0.708000  0.614330  1.0  -0.1502
  C  C116  1  0.526500  0.813700  0.616000  1.0  -0.156
  C  C117  1  0.498400  0.761700  0.580400  1.0  -0.1237
  C  C118  1  0.945550  0.135430  0.230260  1.0  0.6785
  C  C119  1  0.054310  0.347220  0.227470  1.0  0.6603
  C  C120  1  0.026660  0.291900  0.183670  1.0  0.0734
  C  C121  1  0.974100  0.189100  0.185010  1.0  0.0474
  C  C122  1  0.029400  0.292000  0.114330  1.0  -0.1499
  C  C123  1  0.973500  0.186300  0.116000  1.0  -0.1559
  C  C124  1  0.001600  0.238300  0.080400  1.0  -0.1239
  C  C125  1  0.769740  0.445550  0.364570  1.0  0.6786
  C  C126  1  0.772530  0.554310  0.152780  1.0  0.66
  C  C127  1  0.816330  0.526660  0.208100  1.0  0.0735
  C  C128  1  0.814990  0.474100  0.310900  1.0  0.0474
  C  C129  1  0.885670  0.529400  0.208000  1.0  -0.1537
  C  C130  1  0.884000  0.473500  0.313700  1.0  -0.1587
  C  C131  1  0.919600  0.501600  0.261700  1.0  -0.1248
  C  C132  1  0.269740  0.054450  0.635430  1.0  0.6789
  C  C133  1  0.272530  0.945690  0.847220  1.0  0.6611
  C  C134  1  0.316330  0.973340  0.791900  1.0  0.0724
  C  C135  1  0.314990  0.025900  0.689100  1.0  0.0464
  C  C136  1  0.385670  0.970600  0.792000  1.0  -0.1533
  C  C137  1  0.384000  0.026500  0.686300  1.0  -0.1577
  C  C138  1  0.419600  0.998400  0.738300  1.0  -0.1249
  C  C139  1  0.730260  0.554450  0.864570  1.0  0.6788
  C  C140  1  0.727470  0.445690  0.652780  1.0  0.6584
  C  C141  1  0.683670  0.473340  0.708100  1.0  0.0729
  C  C142  1  0.685010  0.525900  0.810900  1.0  0.0478
  C  C143  1  0.614330  0.470600  0.708000  1.0  -0.1511
  C  C144  1  0.616000  0.526500  0.813700  1.0  -0.1597
  C  C145  1  0.580400  0.498400  0.761700  1.0  -0.1281
  C  C146  1  0.230260  0.945550  0.135430  1.0  0.6773
  C  C147  1  0.227470  0.054310  0.347220  1.0  0.6608
  C  C148  1  0.183670  0.026660  0.291900  1.0  0.0719
  C  C149  1  0.185010  0.974100  0.189100  1.0  0.0473
  C  C150  1  0.114330  0.029400  0.292000  1.0  -0.1524
  C  C151  1  0.116000  0.973500  0.186300  1.0  -0.1575
  C  C152  1  0.080400  0.001600  0.238300  1.0  -0.1283
  C  C153  1  0.364570  0.769740  0.445550  1.0  0.6781
  C  C154  1  0.152780  0.772530  0.554310  1.0  0.6585
  C  C155  1  0.208100  0.816330  0.526660  1.0  0.0735
  C  C156  1  0.310900  0.814990  0.474100  1.0  0.046
  C  C157  1  0.208000  0.885670  0.529400  1.0  -0.1497
  C  C158  1  0.313700  0.884000  0.473500  1.0  -0.1562
  C  C159  1  0.261700  0.919600  0.501600  1.0  -0.1219
  C  C160  1  0.635430  0.269740  0.054450  1.0  0.6771
  C  C161  1  0.847220  0.272530  0.945690  1.0  0.6574
  C  C162  1  0.791900  0.316330  0.973340  1.0  0.0736
  C  C163  1  0.689100  0.314990  0.025900  1.0  0.0464
  C  C164  1  0.792000  0.385670  0.970600  1.0  -0.1503
  C  C165  1  0.686300  0.384000  0.026500  1.0  -0.1572
  C  C166  1  0.738300  0.419600  0.998400  1.0  -0.122
  C  C167  1  0.864570  0.730260  0.554450  1.0  0.6781
  C  C168  1  0.652780  0.727470  0.445690  1.0  0.6574
  C  C169  1  0.708100  0.683670  0.473340  1.0  0.0734
  C  C170  1  0.810900  0.685010  0.525900  1.0  0.0458
  C  C171  1  0.708000  0.614330  0.470600  1.0  -0.1497
  C  C172  1  0.813700  0.616000  0.526500  1.0  -0.157
  C  C173  1  0.761700  0.580400  0.498400  1.0  -0.1215
  C  C174  1  0.135430  0.230260  0.945550  1.0  0.6769
  C  C175  1  0.347220  0.227470  0.054310  1.0  0.6577
  C  C176  1  0.291900  0.183670  0.026660  1.0  0.0732
  C  C177  1  0.189100  0.185010  0.974100  1.0  0.0459
  C  C178  1  0.292000  0.114330  0.029400  1.0  -0.1508
  C  C179  1  0.186300  0.116000  0.973500  1.0  -0.1572
  C  C180  1  0.238300  0.080400  0.001600  1.0  -0.1217
  C  C181  1  0.554450  0.635430  0.230260  1.0  0.6801
  C  C182  1  0.445690  0.847220  0.227470  1.0  0.6596
  C  C183  1  0.473340  0.791900  0.183670  1.0  0.0743
  C  C184  1  0.525900  0.689100  0.185010  1.0  0.0479
  C  C185  1  0.470600  0.792000  0.114330  1.0  -0.1496
  C  C186  1  0.526500  0.686300  0.116000  1.0  -0.1565
  C  C187  1  0.498400  0.738300  0.080400  1.0  -0.1236
  C  C188  1  0.945550  0.364570  0.730260  1.0  0.6772
  C  C189  1  0.054310  0.152780  0.727470  1.0  0.6614
  C  C190  1  0.026660  0.208100  0.683670  1.0  0.0744
  C  C191  1  0.974100  0.310900  0.685010  1.0  0.0471
  C  C192  1  0.029400  0.208000  0.614330  1.0  -0.1508
  C  C193  1  0.973500  0.313700  0.616000  1.0  -0.156
  C  C194  1  0.001600  0.261700  0.580400  1.0  -0.124
  C  C195  1  0.445550  0.135430  0.269740  1.0  0.6784
  C  C196  1  0.554310  0.347220  0.272530  1.0  0.6597
  C  C197  1  0.526660  0.291900  0.316330  1.0  0.0746
  C  C198  1  0.474100  0.189100  0.314990  1.0  0.0471
  C  C199  1  0.529400  0.292000  0.385670  1.0  -0.1498
  C  C200  1  0.473500  0.186300  0.384000  1.0  -0.156
  C  C201  1  0.501600  0.238300  0.419600  1.0  -0.1223
  C  C202  1  0.054450  0.864570  0.769740  1.0  0.6783
  C  C203  1  0.945690  0.652780  0.772530  1.0  0.6594
  C  C204  1  0.973340  0.708100  0.816330  1.0  0.0742
  C  C205  1  0.025900  0.810900  0.814990  1.0  0.0469
  C  C206  1  0.970600  0.708000  0.885670  1.0  -0.15
  C  C207  1  0.026500  0.813700  0.884000  1.0  -0.1563
  C  C208  1  0.998400  0.761700  0.919600  1.0  -0.1221
  C  C209  1  0.230260  0.554450  0.635430  1.0  0.6785
  C  C210  1  0.227470  0.445690  0.847220  1.0  0.661
  C  C211  1  0.183670  0.473340  0.791900  1.0  0.0729
  C  C212  1  0.185010  0.525900  0.689100  1.0  0.0471
  C  C213  1  0.114330  0.470600  0.792000  1.0  -0.1521
  C  C214  1  0.116000  0.526500  0.686300  1.0  -0.1574
  C  C215  1  0.080400  0.498400  0.738300  1.0  -0.1282
  C  C216  1  0.730260  0.945550  0.364570  1.0  0.6786
  C  C217  1  0.727470  0.054310  0.152780  1.0  0.6595
  C  C218  1  0.683670  0.026660  0.208100  1.0  0.074
  C  C219  1  0.685010  0.974100  0.310900  1.0  0.0483
  C  C220  1  0.614330  0.029400  0.208000  1.0  -0.1517
  C  C221  1  0.616000  0.973500  0.313700  1.0  -0.1586
  C  C222  1  0.580400  0.001600  0.261700  1.0  -0.1283
  C  C223  1  0.269740  0.445550  0.135430  1.0  0.6785
  C  C224  1  0.272530  0.554310  0.347220  1.0  0.6604
  C  C225  1  0.316330  0.526660  0.291900  1.0  0.073
  C  C226  1  0.314990  0.474100  0.189100  1.0  0.0465
  C  C227  1  0.385670  0.529400  0.292000  1.0  -0.1531
  C  C228  1  0.384000  0.473500  0.186300  1.0  -0.158
  C  C229  1  0.419600  0.501600  0.238300  1.0  -0.1249
  C  C230  1  0.769740  0.054450  0.864570  1.0  0.6782
  C  C231  1  0.772530  0.945690  0.652780  1.0  0.6591
  C  C232  1  0.816330  0.973340  0.708100  1.0  0.0735
  C  C233  1  0.814990  0.025900  0.810900  1.0  0.0472
  C  C234  1  0.885670  0.970600  0.708000  1.0  -0.1534
  C  C235  1  0.884000  0.026500  0.813700  1.0  -0.1592
  C  C236  1  0.919600  0.998400  0.761700  1.0  -0.1248
  C  C237  1  0.635430  0.230260  0.554450  1.0  0.6762
  C  C238  1  0.847220  0.227470  0.445690  1.0  0.6575
  C  C239  1  0.791900  0.183670  0.473340  1.0  0.074
  C  C240  1  0.689100  0.185010  0.525900  1.0  0.0462
  C  C241  1  0.792000  0.114330  0.470600  1.0  -0.1507
  C  C242  1  0.686300  0.116000  0.526500  1.0  -0.1571
  C  C243  1  0.738300  0.080400  0.498400  1.0  -0.1216
  C  C244  1  0.364570  0.730260  0.945550  1.0  0.6785
  C  C245  1  0.152780  0.727470  0.054310  1.0  0.657
  C  C246  1  0.208100  0.683670  0.026660  1.0  0.0739
  C  C247  1  0.310900  0.685010  0.974100  1.0  0.0458
  C  C248  1  0.208000  0.614330  0.029400  1.0  -0.1497
  C  C249  1  0.313700  0.616000  0.973500  1.0  -0.1571
  C  C250  1  0.261700  0.580400  0.001600  1.0  -0.1216
  C  C251  1  0.135430  0.269740  0.445550  1.0  0.6771
  C  C252  1  0.347220  0.272530  0.554310  1.0  0.6587
  C  C253  1  0.291900  0.316330  0.526660  1.0  0.0742
  C  C254  1  0.189100  0.314990  0.474100  1.0  0.0462
  C  C255  1  0.292000  0.385670  0.529400  1.0  -0.1504
  C  C256  1  0.186300  0.384000  0.473500  1.0  -0.157
  C  C257  1  0.238300  0.419600  0.501600  1.0  -0.122
  C  C258  1  0.864570  0.769740  0.054450  1.0  0.6787
  C  C259  1  0.652780  0.772530  0.945690  1.0  0.658
  C  C260  1  0.708100  0.816330  0.973340  1.0  0.0741
  C  C261  1  0.810900  0.814990  0.025900  1.0  0.0464
  C  C262  1  0.708000  0.885670  0.970600  1.0  -0.1497
  C  C263  1  0.813700  0.884000  0.026500  1.0  -0.1564
  C  C264  1  0.761700  0.919600  0.998400  1.0  -0.1219
  N  N265  1  0.499610  0.258340  0.781300  1.0  -0.5257
  N  N266  1  0.000390  0.741660  0.281300  1.0  -0.5253
  N  N267  1  0.500390  0.758340  0.718700  1.0  -0.5266
  N  N268  1  0.999610  0.241660  0.218700  1.0  -0.527
  N  N269  1  0.781300  0.499610  0.258340  1.0  -0.5216
  N  N270  1  0.281300  0.000390  0.741660  1.0  -0.5215
  N  N271  1  0.718700  0.500390  0.758340  1.0  -0.5209
  N  N272  1  0.218700  0.999610  0.241660  1.0  -0.5211
  N  N273  1  0.258340  0.781300  0.499610  1.0  -0.5197
  N  N274  1  0.741660  0.281300  0.000390  1.0  -0.5196
  N  N275  1  0.758340  0.718700  0.500390  1.0  -0.5215
  N  N276  1  0.241660  0.218700  0.999610  1.0  -0.5205
  N  N277  1  0.500390  0.741660  0.218700  1.0  -0.5265
  N  N278  1  0.999610  0.258340  0.718700  1.0  -0.5272
  N  N279  1  0.499610  0.241660  0.281300  1.0  -0.5256
  N  N280  1  0.000390  0.758340  0.781300  1.0  -0.5254
  N  N281  1  0.218700  0.500390  0.741660  1.0  -0.521
  N  N282  1  0.718700  0.999610  0.258340  1.0  -0.521
  N  N283  1  0.281300  0.499610  0.241660  1.0  -0.5218
  N  N284  1  0.781300  0.000390  0.758340  1.0  -0.5213
  N  N285  1  0.741660  0.218700  0.500390  1.0  -0.5206
  N  N286  1  0.258340  0.718700  0.999610  1.0  -0.5214
  N  N287  1  0.241660  0.281300  0.499610  1.0  -0.5194
  N  N288  1  0.758340  0.781300  0.000390  1.0  -0.5199
  O  O289  1  0.450900  0.354020  0.707270  1.0  -0.7334
  O  O290  1  0.540330  0.157210  0.711110  1.0  -0.7103
  O  O291  1  0.585300  0.204690  0.581090  1.0  -0.7147
  O  O292  1  0.391900  0.298110  0.589140  1.0  -0.7439
  O  O293  1  0.049100  0.645980  0.207270  1.0  -0.7336
  O  O294  1  0.959670  0.842790  0.211110  1.0  -0.7108
  O  O295  1  0.914700  0.795310  0.081090  1.0  -0.7135
  O  O296  1  0.108100  0.701890  0.089140  1.0  -0.7433
  O  O297  1  0.549100  0.854020  0.792730  1.0  -0.7342
  O  O298  1  0.459670  0.657210  0.788890  1.0  -0.7124
  O  O299  1  0.414700  0.704690  0.918910  1.0  -0.715
  O  O300  1  0.608100  0.798110  0.910860  1.0  -0.743
  O  O301  1  0.950900  0.145980  0.292730  1.0  -0.7346
  O  O302  1  0.040330  0.342790  0.288890  1.0  -0.7122
  O  O303  1  0.085300  0.295310  0.418910  1.0  -0.7152
  O  O304  1  0.891900  0.201890  0.410860  1.0  -0.7433
  O  O305  1  0.707270  0.450900  0.354020  1.0  -0.7319
  O  O306  1  0.711110  0.540330  0.157210  1.0  -0.7101
  O  O307  1  0.581090  0.585300  0.204690  1.0  -0.7134
  O  O308  1  0.589140  0.391900  0.298110  1.0  -0.7432
  O  O309  1  0.207270  0.049100  0.645980  1.0  -0.7322
  O  O310  1  0.211110  0.959670  0.842790  1.0  -0.7105
  O  O311  1  0.081090  0.914700  0.795310  1.0  -0.7125
  O  O312  1  0.089140  0.108100  0.701890  1.0  -0.7439
  O  O313  1  0.792730  0.549100  0.854020  1.0  -0.733
  O  O314  1  0.788890  0.459670  0.657210  1.0  -0.7102
  O  O315  1  0.918910  0.414700  0.704690  1.0  -0.7135
  O  O316  1  0.910860  0.608100  0.798110  1.0  -0.7445
  O  O317  1  0.292730  0.950900  0.145980  1.0  -0.7328
  O  O318  1  0.288890  0.040330  0.342790  1.0  -0.7106
  O  O319  1  0.418910  0.085300  0.295310  1.0  -0.7127
  O  O320  1  0.410860  0.891900  0.201890  1.0  -0.7432
  O  O321  1  0.354020  0.707270  0.450900  1.0  -0.731
  O  O322  1  0.157210  0.711110  0.540330  1.0  -0.7087
  O  O323  1  0.204690  0.581090  0.585300  1.0  -0.7128
  O  O324  1  0.298110  0.589140  0.391900  1.0  -0.7453
  O  O325  1  0.645980  0.207270  0.049100  1.0  -0.7299
  O  O326  1  0.842790  0.211110  0.959670  1.0  -0.708
  O  O327  1  0.795310  0.081090  0.914700  1.0  -0.7134
  O  O328  1  0.701890  0.089140  0.108100  1.0  -0.7444
  O  O329  1  0.854020  0.792730  0.549100  1.0  -0.7309
  O  O330  1  0.657210  0.788890  0.459670  1.0  -0.7094
  O  O331  1  0.704690  0.918910  0.414700  1.0  -0.7117
  O  O332  1  0.798110  0.910860  0.608100  1.0  -0.7443
  O  O333  1  0.145980  0.292730  0.950900  1.0  -0.731
  O  O334  1  0.342790  0.288890  0.040330  1.0  -0.7084
  O  O335  1  0.295310  0.418910  0.085300  1.0  -0.7137
  O  O336  1  0.201890  0.410860  0.891900  1.0  -0.7449
  O  O337  1  0.549100  0.645980  0.292730  1.0  -0.7344
  O  O338  1  0.459670  0.842790  0.288890  1.0  -0.7123
  O  O339  1  0.414700  0.795310  0.418910  1.0  -0.7139
  O  O340  1  0.608100  0.701890  0.410860  1.0  -0.743
  O  O341  1  0.950900  0.354020  0.792730  1.0  -0.7343
  O  O342  1  0.040330  0.157210  0.788890  1.0  -0.7122
  O  O343  1  0.085300  0.204690  0.918910  1.0  -0.7155
  O  O344  1  0.891900  0.298110  0.910860  1.0  -0.7431
  O  O345  1  0.450900  0.145980  0.207270  1.0  -0.7335
  O  O346  1  0.540330  0.342790  0.211110  1.0  -0.7106
  O  O347  1  0.585300  0.295310  0.081090  1.0  -0.714
  O  O348  1  0.391900  0.201890  0.089140  1.0  -0.7438
  O  O349  1  0.049100  0.854020  0.707270  1.0  -0.7336
  O  O350  1  0.959670  0.657210  0.711110  1.0  -0.7106
  O  O351  1  0.914700  0.704690  0.581090  1.0  -0.7135
  O  O352  1  0.108100  0.798110  0.589140  1.0  -0.7438
  O  O353  1  0.292730  0.549100  0.645980  1.0  -0.733
  O  O354  1  0.288890  0.459670  0.842790  1.0  -0.7108
  O  O355  1  0.418910  0.414700  0.795310  1.0  -0.7123
  O  O356  1  0.410860  0.608100  0.701890  1.0  -0.7442
  O  O357  1  0.792730  0.950900  0.354020  1.0  -0.7328
  O  O358  1  0.788890  0.040330  0.157210  1.0  -0.7102
  O  O359  1  0.918910  0.085300  0.204690  1.0  -0.7135
  O  O360  1  0.910860  0.891900  0.298110  1.0  -0.7435
  O  O361  1  0.207270  0.450900  0.145980  1.0  -0.7319
  O  O362  1  0.211110  0.540330  0.342790  1.0  -0.7105
  O  O363  1  0.081090  0.585300  0.295310  1.0  -0.7121
  O  O364  1  0.089140  0.391900  0.201890  1.0  -0.743
  O  O365  1  0.707270  0.049100  0.854020  1.0  -0.7322
  O  O366  1  0.711110  0.959670  0.657210  1.0  -0.71
  O  O367  1  0.581090  0.914700  0.704690  1.0  -0.7123
  O  O368  1  0.589140  0.108100  0.798110  1.0  -0.7441
  O  O369  1  0.645980  0.292730  0.549100  1.0  -0.7309
  O  O370  1  0.842790  0.288890  0.459670  1.0  -0.7084
  O  O371  1  0.795310  0.418910  0.414700  1.0  -0.7123
  O  O372  1  0.701890  0.410860  0.608100  1.0  -0.7445
  O  O373  1  0.354020  0.792730  0.950900  1.0  -0.731
  O  O374  1  0.157210  0.788890  0.040330  1.0  -0.7094
  O  O375  1  0.204690  0.918910  0.085300  1.0  -0.7125
  O  O376  1  0.298110  0.910860  0.891900  1.0  -0.7446
  O  O377  1  0.145980  0.207270  0.450900  1.0  -0.7301
  O  O378  1  0.342790  0.211110  0.540330  1.0  -0.7083
  O  O379  1  0.295310  0.081090  0.585300  1.0  -0.7132
  O  O380  1  0.201890  0.089140  0.391900  1.0  -0.7457
  O  O381  1  0.854020  0.707270  0.049100  1.0  -0.7312
  O  O382  1  0.657210  0.711110  0.959670  1.0  -0.7085
  O  O383  1  0.704690  0.581090  0.914700  1.0  -0.7124
  O  O384  1  0.798110  0.589140  0.108100  1.0  -0.7442
