# generated using pymatgen
data_FeH3(C2O)4
_symmetry_space_group_name_H-M   'P 1'
_cell_length_a   18.69800000
_cell_length_b   19.29200000
_cell_length_c   19.38300000
_cell_angle_alpha   90.00000000
_cell_angle_beta   91.04500000
_cell_angle_gamma   90.00000000
_symmetry_Int_Tables_number   1
_chemical_formula_structural   FeH3(C2O)4
_chemical_formula_sum   'Fe16 H48 C128 O64'
_cell_volume   6990.70806939
_cell_formula_units_Z   16
loop_
 _symmetry_equiv_pos_site_id
 _symmetry_equiv_pos_as_xyz
  1  'x, y, z'
loop_
 _atom_site_type_symbol
 _atom_site_label
 _atom_site_symmetry_multiplicity
 _atom_site_fract_x
 _atom_site_fract_y
 _atom_site_fract_z
 _atom_site_occupancy
 _atom_site_charge
  Fe  Fe1  1  0.729480  0.985910  0.479070  1.0  1.1353
  Fe  Fe2  1  0.229840  0.522760  0.516960  1.0  1.1091
  Fe  Fe3  1  0.869620  0.866630  0.455680  1.0  0.9764
  Fe  Fe4  1  0.367560  0.555820  0.637980  1.0  0.8861
  Fe  Fe5  1  0.270520  0.485910  0.020930  1.0  1.1332
  Fe  Fe6  1  0.770160  0.022760  0.983040  1.0  1.1066
  Fe  Fe7  1  0.130380  0.366630  0.044320  1.0  0.9782
  Fe  Fe8  1  0.632440  0.055820  0.862020  1.0  0.8874
  Fe  Fe9  1  0.270520  0.014090  0.520930  1.0  1.1329
  Fe  Fe10  1  0.770160  0.477240  0.483040  1.0  1.1078
  Fe  Fe11  1  0.130380  0.133370  0.544320  1.0  0.9795
  Fe  Fe12  1  0.632440  0.444180  0.362020  1.0  0.8853
  Fe  Fe13  1  0.729480  0.514090  0.979070  1.0  1.1352
  Fe  Fe14  1  0.229840  0.977240  0.016960  1.0  1.1102
  Fe  Fe15  1  0.869620  0.633370  0.955680  1.0  0.9788
  Fe  Fe16  1  0.367560  0.944180  0.137980  1.0  0.8819
  H  H17  1  0.072900  0.011500  0.648000  1.0  0.1102
  H  H18  1  0.772100  0.989200  0.702200  1.0  0.111
  H  H19  1  0.050300  0.985100  0.852500  1.0  0.1111
  H  H20  1  0.425100  0.649200  0.494600  1.0  0.0839
  H  H21  1  0.564400  0.832900  0.486800  1.0  0.108
  H  H22  1  0.972800  0.954300  0.640000  1.0  0.1106
  H  H23  1  0.259200  0.775200  0.511900  1.0  0.1122
  H  H24  1  0.727800  0.701400  0.459500  1.0  0.1198
  H  H25  1  0.938900  0.016800  0.831600  1.0  0.1125
  H  H26  1  0.450800  0.853100  0.474600  1.0  0.1105
  H  H27  1  0.524600  0.632900  0.445200  1.0  0.1133
  H  H28  1  0.246100  0.997300  0.770600  1.0  0.1068
  H  H29  1  0.927100  0.511500  0.852000  1.0  0.11
  H  H30  1  0.227900  0.489200  0.797800  1.0  0.1104
  H  H31  1  0.949700  0.485100  0.647500  1.0  0.1109
  H  H32  1  0.574900  0.149200  0.005400  1.0  0.0842
  H  H33  1  0.435600  0.332900  0.013200  1.0  0.1081
  H  H34  1  0.027200  0.454300  0.860000  1.0  0.111
  H  H35  1  0.740800  0.275200  0.988100  1.0  0.1116
  H  H36  1  0.272200  0.201400  0.040500  1.0  0.1183
  H  H37  1  0.061100  0.516800  0.668400  1.0  0.1121
  H  H38  1  0.549200  0.353100  0.025400  1.0  0.1095
  H  H39  1  0.475400  0.132900  0.054800  1.0  0.1135
  H  H40  1  0.753900  0.497300  0.729400  1.0  0.1077
  H  H41  1  0.927100  0.988500  0.352000  1.0  0.1101
  H  H42  1  0.227900  0.010800  0.297800  1.0  0.1104
  H  H43  1  0.949700  0.014900  0.147500  1.0  0.1107
  H  H44  1  0.574900  0.350800  0.505400  1.0  0.0848
  H  H45  1  0.435600  0.167100  0.513200  1.0  0.1083
  H  H46  1  0.027200  0.045700  0.360000  1.0  0.1114
  H  H47  1  0.740800  0.224800  0.488100  1.0  0.1114
  H  H48  1  0.272200  0.298600  0.540500  1.0  0.1184
  H  H49  1  0.061100  0.983200  0.168400  1.0  0.1119
  H  H50  1  0.549200  0.146900  0.525400  1.0  0.1094
  H  H51  1  0.475400  0.367100  0.554800  1.0  0.1133
  H  H52  1  0.753900  0.002700  0.229400  1.0  0.1077
  H  H53  1  0.072900  0.488500  0.148000  1.0  0.1101
  H  H54  1  0.772100  0.510800  0.202200  1.0  0.111
  H  H55  1  0.050300  0.514900  0.352500  1.0  0.111
  H  H56  1  0.425100  0.850800  0.994600  1.0  0.0843
  H  H57  1  0.564400  0.667100  0.986800  1.0  0.1082
  H  H58  1  0.972800  0.545700  0.140000  1.0  0.1107
  H  H59  1  0.259200  0.724800  0.011900  1.0  0.1123
  H  H60  1  0.727800  0.798600  0.959500  1.0  0.12
  H  H61  1  0.938900  0.483200  0.331600  1.0  0.1123
  H  H62  1  0.450800  0.646900  0.974600  1.0  0.1102
  H  H63  1  0.524600  0.867100  0.945200  1.0  0.1136
  H  H64  1  0.246100  0.502700  0.270600  1.0  0.1069
  C  C65  1  0.212400  0.016200  0.640800  1.0  0.6417
  C  C66  1  0.167400  0.006000  0.702100  1.0  -0.1158
  C  C67  1  0.092800  0.004200  0.691700  1.0  -0.0858
  C  C68  1  0.290600  0.640800  0.515500  1.0  0.6562
  C  C69  1  0.452600  0.747500  0.479600  1.0  0.0399
  C  C70  1  0.866900  0.970300  0.659400  1.0  -0.1372
  C  C71  1  0.967700  0.986700  0.737100  1.0  0.009
  C  C72  1  0.847600  0.005200  0.776600  1.0  -0.1552
  C  C73  1  0.630300  0.655700  0.450300  1.0  -0.1545
  C  C74  1  0.821200  0.988300  0.711000  1.0  0.0263
  C  C75  1  0.350700  0.825100  0.495600  1.0  -0.1539
  C  C76  1  0.654100  0.776300  0.471900  1.0  -0.1581
  C  C77  1  0.079500  0.988200  0.814300  1.0  -0.0546
  C  C78  1  0.839600  0.951500  0.589100  1.0  0.7585
  C  C79  1  0.706700  0.836700  0.477900  1.0  0.7364
  C  C80  1  0.531900  0.735400  0.469400  1.0  -0.0503
  C  C81  1  0.406300  0.693800  0.493200  1.0  -0.0582
  C  C82  1  0.336200  0.701200  0.504500  1.0  -0.0405
  C  C83  1  0.185700  0.984200  0.894200  1.0  0.6628
  C  C84  1  0.580600  0.788300  0.477500  1.0  0.0139
  C  C85  1  0.941600  0.968300  0.674000  1.0  -0.0566
  C  C86  1  0.154400  0.989900  0.824400  1.0  -0.1449
  C  C87  1  0.307800  0.768800  0.505000  1.0  0.0165
  C  C88  1  0.048400  0.991000  0.748700  1.0  0.0034
  C  C89  1  0.796100  0.020200  0.834200  1.0  0.7242
  C  C90  1  0.678900  0.710000  0.460500  1.0  0.016
  C  C91  1  0.920900  0.004700  0.788300  1.0  0.0137
  C  C92  1  0.421800  0.814700  0.482200  1.0  -0.0446
  C  C93  1  0.557000  0.668600  0.453500  1.0  -0.0732
  C  C94  1  0.321700  0.896200  0.502100  1.0  0.635
  C  C95  1  0.659500  0.584000  0.437300  1.0  0.7205
  C  C96  1  0.196600  0.997800  0.765500  1.0  -0.0182
  C  C97  1  0.787600  0.516200  0.859200  1.0  0.6421
  C  C98  1  0.832600  0.506000  0.797900  1.0  -0.1142
  C  C99  1  0.907200  0.504200  0.808300  1.0  -0.0839
  C  C100  1  0.709400  0.140800  0.984500  1.0  0.6562
  C  C101  1  0.547400  0.247500  0.020400  1.0  0.0393
  C  C102  1  0.133100  0.470300  0.840600  1.0  -0.1381
  C  C103  1  0.032300  0.486700  0.762900  1.0  0.0095
  C  C104  1  0.152400  0.505200  0.723400  1.0  -0.1543
  C  C105  1  0.369700  0.155700  0.049700  1.0  -0.155
  C  C106  1  0.178800  0.488300  0.789000  1.0  0.028
  C  C107  1  0.649300  0.325100  0.004400  1.0  -0.1547
  C  C108  1  0.345900  0.276300  0.028100  1.0  -0.1573
  C  C109  1  0.920500  0.488200  0.685700  1.0  -0.0543
  C  C110  1  0.160400  0.451500  0.910900  1.0  0.7578
  C  C111  1  0.293300  0.336700  0.022100  1.0  0.736
  C  C112  1  0.468100  0.235400  0.030600  1.0  -0.0504
  C  C113  1  0.593700  0.193800  0.006800  1.0  -0.0594
  C  C114  1  0.663800  0.201200  0.995500  1.0  -0.0401
  C  C115  1  0.814300  0.484200  0.605800  1.0  0.6633
  C  C116  1  0.419400  0.288300  0.022500  1.0  0.0137
  C  C117  1  0.058400  0.468300  0.826000  1.0  -0.0561
  C  C118  1  0.845600  0.489900  0.675600  1.0  -0.1428
  C  C119  1  0.692200  0.268800  0.995000  1.0  0.0169
  C  C120  1  0.951600  0.491000  0.751300  1.0  0.0037
  C  C121  1  0.203900  0.520200  0.665800  1.0  0.7235
  C  C122  1  0.321100  0.210000  0.039500  1.0  0.0141
  C  C123  1  0.079100  0.504700  0.711700  1.0  0.0136
  C  C124  1  0.578200  0.314700  0.017800  1.0  -0.0446
  C  C125  1  0.443000  0.168600  0.046500  1.0  -0.0727
  C  C126  1  0.678300  0.396200  0.997900  1.0  0.635
  C  C127  1  0.340500  0.084000  0.062700  1.0  0.7214
  C  C128  1  0.803400  0.497800  0.734500  1.0  -0.0193
  C  C129  1  0.787600  0.983800  0.359200  1.0  0.6421
  C  C130  1  0.832600  0.994000  0.297900  1.0  -0.1142
  C  C131  1  0.907200  0.995800  0.308300  1.0  -0.0837
  C  C132  1  0.709400  0.359200  0.484500  1.0  0.6564
  C  C133  1  0.547400  0.252500  0.520400  1.0  0.0391
  C  C134  1  0.133100  0.029700  0.340600  1.0  -0.1383
  C  C135  1  0.032300  0.013300  0.262900  1.0  0.0095
  C  C136  1  0.152400  0.994800  0.223400  1.0  -0.1548
  C  C137  1  0.369700  0.344300  0.549700  1.0  -0.1541
  C  C138  1  0.178800  0.011700  0.289000  1.0  0.028
  C  C139  1  0.649300  0.174900  0.504400  1.0  -0.1539
  C  C140  1  0.345900  0.223700  0.528100  1.0  -0.1576
  C  C141  1  0.920500  0.011800  0.185700  1.0  -0.0543
  C  C142  1  0.160400  0.048500  0.410900  1.0  0.7574
  C  C143  1  0.293300  0.163300  0.522100  1.0  0.7359
  C  C144  1  0.468100  0.264600  0.530600  1.0  -0.0504
  C  C145  1  0.593700  0.306200  0.506800  1.0  -0.0588
  C  C146  1  0.663800  0.298800  0.495500  1.0  -0.0402
  C  C147  1  0.814300  0.015800  0.105800  1.0  0.6633
  C  C148  1  0.419400  0.211700  0.522500  1.0  0.0148
  C  C149  1  0.058400  0.031700  0.326000  1.0  -0.0559
  C  C150  1  0.845600  0.010100  0.175600  1.0  -0.1427
  C  C151  1  0.692200  0.231200  0.495000  1.0  0.0166
  C  C152  1  0.951600  0.009000  0.251300  1.0  0.0039
  C  C153  1  0.203900  0.979800  0.165800  1.0  0.7241
  C  C154  1  0.321100  0.290000  0.539500  1.0  0.0141
  C  C155  1  0.079100  0.995300  0.211700  1.0  0.014
  C  C156  1  0.578200  0.185300  0.517800  1.0  -0.0439
  C  C157  1  0.443000  0.331400  0.546500  1.0  -0.0739
  C  C158  1  0.678300  0.103800  0.497900  1.0  0.6346
  C  C159  1  0.340500  0.416000  0.562700  1.0  0.7218
  C  C160  1  0.803400  0.002200  0.234500  1.0  -0.0193
  C  C161  1  0.212400  0.483800  0.140800  1.0  0.6417
  C  C162  1  0.167400  0.494000  0.202100  1.0  -0.1158
  C  C163  1  0.092800  0.495800  0.191700  1.0  -0.0858
  C  C164  1  0.290600  0.859200  0.015500  1.0  0.6566
  C  C165  1  0.452600  0.752500  0.979600  1.0  0.0396
  C  C166  1  0.866900  0.529700  0.159400  1.0  -0.137
  C  C167  1  0.967700  0.513300  0.237100  1.0  0.009
  C  C168  1  0.847600  0.494800  0.276600  1.0  -0.1556
  C  C169  1  0.630300  0.844300  0.950300  1.0  -0.1537
  C  C170  1  0.821200  0.511700  0.211000  1.0  0.0262
  C  C171  1  0.350700  0.674900  0.995600  1.0  -0.1538
  C  C172  1  0.654100  0.723700  0.971900  1.0  -0.1574
  C  C173  1  0.079500  0.511800  0.314300  1.0  -0.0549
  C  C174  1  0.839600  0.548500  0.089100  1.0  0.7584
  C  C175  1  0.706700  0.663300  0.977900  1.0  0.7364
  C  C176  1  0.531900  0.764600  0.969400  1.0  -0.0504
  C  C177  1  0.406300  0.806200  0.993200  1.0  -0.0577
  C  C178  1  0.336200  0.798800  0.004500  1.0  -0.0406
  C  C179  1  0.185700  0.515800  0.394200  1.0  0.6629
  C  C180  1  0.580600  0.711700  0.977500  1.0  0.0143
  C  C181  1  0.941600  0.531700  0.174000  1.0  -0.0557
  C  C182  1  0.154400  0.510100  0.324400  1.0  -0.145
  C  C183  1  0.307800  0.731200  0.005000  1.0  0.0162
  C  C184  1  0.048400  0.509000  0.248700  1.0  0.0035
  C  C185  1  0.796100  0.479800  0.334200  1.0  0.7249
  C  C186  1  0.678900  0.790000  0.960500  1.0  0.0158
  C  C187  1  0.920900  0.495300  0.288300  1.0  0.0144
  C  C188  1  0.421800  0.685300  0.982200  1.0  -0.0436
  C  C189  1  0.557000  0.831400  0.953500  1.0  -0.074
  C  C190  1  0.321700  0.603800  0.002100  1.0  0.6349
  C  C191  1  0.659500  0.916000  0.937300  1.0  0.7211
  C  C192  1  0.196600  0.502200  0.265500  1.0  -0.0182
  O  O193  1  0.180700  0.038200  0.582000  1.0  -0.6671
  O  O194  1  0.276300  0.001900  0.642100  1.0  -0.5438
  O  O195  1  0.778600  0.972400  0.571400  1.0  -0.5994
  O  O196  1  0.731000  0.026900  0.819700  1.0  -0.6568
  O  O197  1  0.824300  0.023000  0.894000  1.0  -0.5893
  O  O198  1  0.320100  0.584600  0.538100  1.0  -0.6512
  O  O199  1  0.224400  0.642300  0.502100  1.0  -0.5898
  O  O200  1  0.770400  0.821000  0.479500  1.0  -0.6152
  O  O201  1  0.145200  0.991000  0.945400  1.0  -0.5657
  O  O202  1  0.718500  0.569900  0.460300  1.0  -0.5833
  O  O203  1  0.257800  0.903000  0.521300  1.0  -0.5316
  O  O204  1  0.677500  0.895400  0.479500  1.0  -0.5773
  O  O205  1  0.252200  0.977400  0.902800  1.0  -0.5268
  O  O206  1  0.617100  0.543200  0.403700  1.0  -0.6632
  O  O207  1  0.880700  0.914100  0.551700  1.0  -0.6927
  O  O208  1  0.360700  0.948400  0.490300  1.0  -0.5367
  O  O209  1  0.819300  0.538200  0.918000  1.0  -0.6685
  O  O210  1  0.723700  0.501900  0.857900  1.0  -0.5461
  O  O211  1  0.221400  0.472400  0.928600  1.0  -0.6001
  O  O212  1  0.269000  0.526900  0.680300  1.0  -0.6574
  O  O213  1  0.175700  0.523000  0.606000  1.0  -0.5893
  O  O214  1  0.679900  0.084600  0.961900  1.0  -0.6517
  O  O215  1  0.775600  0.142300  0.997900  1.0  -0.5889
  O  O216  1  0.229600  0.321000  0.020500  1.0  -0.6149
  O  O217  1  0.854800  0.491000  0.554600  1.0  -0.5661
  O  O218  1  0.281500  0.069900  0.039700  1.0  -0.581
  O  O219  1  0.742200  0.403000  0.978700  1.0  -0.5312
  O  O220  1  0.322500  0.395400  0.020500  1.0  -0.5773
  O  O221  1  0.747800  0.477400  0.597200  1.0  -0.525
  O  O222  1  0.382900  0.043200  0.096300  1.0  -0.6637
  O  O223  1  0.119300  0.414100  0.948300  1.0  -0.6933
  O  O224  1  0.639300  0.448400  0.009700  1.0  -0.5365
  O  O225  1  0.819300  0.961800  0.418000  1.0  -0.6692
  O  O226  1  0.723700  0.998100  0.357900  1.0  -0.5465
  O  O227  1  0.221400  0.027600  0.428600  1.0  -0.6001
  O  O228  1  0.269000  0.973100  0.180300  1.0  -0.6551
  O  O229  1  0.175700  0.977000  0.106000  1.0  -0.5896
  O  O230  1  0.679900  0.415400  0.461900  1.0  -0.6519
  O  O231  1  0.775600  0.357700  0.497900  1.0  -0.5893
  O  O232  1  0.229600  0.179000  0.520500  1.0  -0.6148
  O  O233  1  0.854800  0.009000  0.054600  1.0  -0.5673
  O  O234  1  0.281500  0.430100  0.539700  1.0  -0.5811
  O  O235  1  0.742200  0.097000  0.478700  1.0  -0.5309
  O  O236  1  0.322500  0.104600  0.520500  1.0  -0.5773
  O  O237  1  0.747800  0.022600  0.097200  1.0  -0.5242
  O  O238  1  0.382900  0.456800  0.596300  1.0  -0.6638
  O  O239  1  0.119300  0.085900  0.448300  1.0  -0.6932
  O  O240  1  0.639300  0.051600  0.509700  1.0  -0.5376
  O  O241  1  0.180700  0.461800  0.082000  1.0  -0.6679
  O  O242  1  0.276300  0.498100  0.142100  1.0  -0.5437
  O  O243  1  0.778600  0.527600  0.071400  1.0  -0.5995
  O  O244  1  0.731000  0.473100  0.319700  1.0  -0.655
  O  O245  1  0.824300  0.477000  0.394000  1.0  -0.5895
  O  O246  1  0.320100  0.915400  0.038100  1.0  -0.6511
  O  O247  1  0.224400  0.857700  0.002100  1.0  -0.5886
  O  O248  1  0.770400  0.679000  0.979500  1.0  -0.6147
  O  O249  1  0.145200  0.509000  0.445400  1.0  -0.5672
  O  O250  1  0.718500  0.930100  0.960300  1.0  -0.5819
  O  O251  1  0.257800  0.597000  0.021300  1.0  -0.5318
  O  O252  1  0.677500  0.604600  0.979500  1.0  -0.5772
  O  O253  1  0.252200  0.522600  0.402800  1.0  -0.526
  O  O254  1  0.617100  0.956800  0.903700  1.0  -0.6641
  O  O255  1  0.880700  0.585900  0.051700  1.0  -0.6941
  O  O256  1  0.360700  0.551600  0.990300  1.0  -0.54
