# generated using pymatgen
data_Na3Fe2H12(C2O)16
_symmetry_space_group_name_H-M   'P 1'
_cell_length_a   13.54300000
_cell_length_b   19.34010000
_cell_length_c   23.22300000
_cell_angle_alpha   90.00000000
_cell_angle_beta   123.45200000
_cell_angle_gamma   90.00000000
_symmetry_Int_Tables_number   1
_chemical_formula_structural   Na3Fe2H12(C2O)16
_chemical_formula_sum   'Na12 Fe8 H48 C128 O64'
_cell_volume   5075.03571690
_cell_formula_units_Z   4
loop_
 _symmetry_equiv_pos_site_id
 _symmetry_equiv_pos_as_xyz
  1  'x, y, z'
loop_
 _atom_site_type_symbol
 _atom_site_label
 _atom_site_symmetry_multiplicity
 _atom_site_fract_x
 _atom_site_fract_y
 _atom_site_fract_z
 _atom_site_occupancy
 _atom_site_charge
  Na  Na1  1  0.871900  0.213810  0.281980  1.0  0.9514
  Na  Na2  1  0.353500  0.256000  0.260140  1.0  0.94
  Na  Na3  1  0.848700  0.659990  0.057220  1.0  0.9549
  Na  Na4  1  0.128100  0.713810  0.218020  1.0  0.9529
  Na  Na5  1  0.646500  0.756000  0.239860  1.0  0.9396
  Na  Na6  1  0.151300  0.159990  0.442780  1.0  0.9544
  Na  Na7  1  0.128100  0.786190  0.718020  1.0  0.9526
  Na  Na8  1  0.646500  0.744000  0.739860  1.0  0.9394
  Na  Na9  1  0.151300  0.340010  0.942780  1.0  0.9585
  Na  Na10  1  0.871900  0.286190  0.781980  1.0  0.951
  Na  Na11  1  0.353500  0.244000  0.760140  1.0  0.9399
  Na  Na12  1  0.848700  0.840010  0.557220  1.0  0.9583
  Fe  Fe13  1  0.609840  0.230670  0.265420  1.0  1.0727
  Fe  Fe14  1  0.128970  0.237040  0.289480  1.0  1.1023
  Fe  Fe15  1  0.390160  0.730670  0.234580  1.0  1.0721
  Fe  Fe16  1  0.871030  0.737040  0.210520  1.0  1.103
  Fe  Fe17  1  0.390160  0.769330  0.734580  1.0  1.0711
  Fe  Fe18  1  0.871030  0.762960  0.710520  1.0  1.1033
  Fe  Fe19  1  0.609840  0.269330  0.765420  1.0  1.0716
  Fe  Fe20  1  0.128970  0.262960  0.789480  1.0  1.1031
  H  H21  1  0.884100  0.233400  0.120700  1.0  0.0736
  H  H22  1  0.073100  0.473100  0.243100  1.0  0.1077
  H  H23  1  0.696800  0.273800  0.920900  1.0  0.1099
  H  H24  1  0.830300  0.380500  0.258800  1.0  0.0994
  H  H25  1  0.048000  0.250200  0.024800  1.0  0.1199
  H  H26  1  0.394500  0.257300  0.025800  1.0  0.0957
  H  H27  1  0.673500  0.587700  0.236900  1.0  0.0874
  H  H28  1  0.692000  0.386200  0.265700  1.0  0.1272
  H  H29  1  0.813900  0.582500  0.229400  1.0  0.1088
  H  H30  1  0.742400  0.260700  0.123100  1.0  0.0859
  H  H31  1  0.442000  0.495800  0.266300  1.0  0.1218
  H  H32  1  0.542700  0.253900  0.918600  1.0  0.1031
  H  H33  1  0.115900  0.733400  0.379300  1.0  0.0757
  H  H34  1  0.926900  0.973100  0.256900  1.0  0.1082
  H  H35  1  0.303200  0.773800  0.579100  1.0  0.1098
  H  H36  1  0.169700  0.880500  0.241200  1.0  0.0999
  H  H37  1  0.952000  0.750200  0.475200  1.0  0.12
  H  H38  1  0.605500  0.757300  0.474200  1.0  0.0956
  H  H39  1  0.326500  0.087700  0.263100  1.0  0.0866
  H  H40  1  0.308000  0.886200  0.234300  1.0  0.1276
  H  H41  1  0.186100  0.082500  0.270600  1.0  0.1083
  H  H42  1  0.257600  0.760700  0.376900  1.0  0.0864
  H  H43  1  0.558000  0.995800  0.233700  1.0  0.1216
  H  H44  1  0.457300  0.753900  0.581400  1.0  0.1021
  H  H45  1  0.115900  0.766600  0.879300  1.0  0.0759
  H  H46  1  0.926900  0.526900  0.756900  1.0  0.1083
  H  H47  1  0.303200  0.726200  0.079100  1.0  0.1104
  H  H48  1  0.169700  0.619500  0.741200  1.0  0.1003
  H  H49  1  0.952000  0.749800  0.975200  1.0  0.1198
  H  H50  1  0.605500  0.742700  0.974200  1.0  0.0954
  H  H51  1  0.326500  0.412300  0.763100  1.0  0.0868
  H  H52  1  0.308000  0.613800  0.734300  1.0  0.1274
  H  H53  1  0.186100  0.417500  0.770600  1.0  0.1082
  H  H54  1  0.257600  0.739300  0.876900  1.0  0.0862
  H  H55  1  0.558000  0.504200  0.733700  1.0  0.1214
  H  H56  1  0.457300  0.746100  0.081400  1.0  0.102
  H  H57  1  0.884100  0.266600  0.620700  1.0  0.0733
  H  H58  1  0.073100  0.026900  0.743100  1.0  0.1079
  H  H59  1  0.696800  0.226200  0.420900  1.0  0.1098
  H  H60  1  0.830300  0.119500  0.758800  1.0  0.0997
  H  H61  1  0.048000  0.249800  0.524800  1.0  0.12
  H  H62  1  0.394500  0.242700  0.525800  1.0  0.0958
  H  H63  1  0.673500  0.912300  0.736900  1.0  0.0873
  H  H64  1  0.692000  0.113800  0.765700  1.0  0.127
  H  H65  1  0.813900  0.917500  0.729400  1.0  0.1086
  H  H66  1  0.742400  0.239300  0.623100  1.0  0.086
  H  H67  1  0.442000  0.004200  0.766300  1.0  0.1218
  H  H68  1  0.542700  0.246100  0.418600  1.0  0.103
  C  C69  1  0.002000  0.602000  0.227100  1.0  0.7298
  C  C70  1  0.095000  0.229500  0.148800  1.0  0.7318
  C  C71  1  0.871900  0.263300  0.963400  1.0  -0.1592
  C  C72  1  0.880600  0.242000  0.080200  1.0  -0.091
  C  C73  1  0.559500  0.430400  0.267700  1.0  -0.1861
  C  C74  1  0.004700  0.475400  0.243300  1.0  0.008
  C  C75  1  0.768800  0.265300  0.962100  1.0  -0.0794
  C  C76  1  0.980800  0.241200  0.082900  1.0  -0.1305
  C  C77  1  0.580500  0.256000  0.151600  1.0  0.6743
  C  C78  1  0.331600  0.257800  0.898000  1.0  0.6912
  C  C79  1  0.804200  0.482500  0.245700  1.0  0.0214
  C  C80  1  0.860900  0.420900  0.252800  1.0  -0.0939
  C  C81  1  0.958600  0.416500  0.251400  1.0  -0.1115
  C  C82  1  0.952200  0.537500  0.235600  1.0  -0.08
  C  C83  1  0.701000  0.486600  0.251300  1.0  0.0117
  C  C84  1  0.978500  0.251400  0.023900  1.0  -0.0548
  C  C85  1  0.462000  0.258200  0.024500  1.0  0.0314
  C  C86  1  0.569500  0.259700  0.084300  1.0  -0.1532
  C  C87  1  0.645700  0.547500  0.245300  1.0  -0.1167
  C  C88  1  0.450000  0.257800  0.962200  1.0  -0.1242
  C  C89  1  0.656400  0.428600  0.262000  1.0  -0.0789
  C  C90  1  0.020300  0.351300  0.262200  1.0  0.6887
  C  C91  1  0.851300  0.540200  0.236000  1.0  -0.1153
  C  C92  1  0.492900  0.619200  0.246700  1.0  0.705
  C  C93  1  0.550900  0.551700  0.251200  1.0  -0.1578
  C  C94  1  0.668400  0.259400  0.081800  1.0  -0.0811
  C  C95  1  0.506600  0.493200  0.262400  1.0  -0.0316
  C  C96  1  0.509900  0.365600  0.278200  1.0  0.7394
  C  C97  1  0.772500  0.254700  0.021500  1.0  0.0642
  C  C98  1  0.869700  0.274400  0.899800  1.0  0.7252
  C  C99  1  0.662900  0.257300  0.021800  1.0  0.0299
  C  C100  1  0.550100  0.256100  0.960800  1.0  -0.0876
  C  C101  1  0.998000  0.102000  0.272900  1.0  0.7277
  C  C102  1  0.905000  0.729500  0.351200  1.0  0.733
  C  C103  1  0.128100  0.763300  0.536600  1.0  -0.1605
  C  C104  1  0.119400  0.742000  0.419800  1.0  -0.0915
  C  C105  1  0.440500  0.930400  0.232300  1.0  -0.1861
  C  C106  1  0.995300  0.975400  0.256700  1.0  0.0082
  C  C107  1  0.231200  0.765300  0.537900  1.0  -0.0778
  C  C108  1  0.019200  0.741200  0.417100  1.0  -0.1309
  C  C109  1  0.419500  0.756000  0.348400  1.0  0.6739
  C  C110  1  0.668400  0.757800  0.602000  1.0  0.6912
  C  C111  1  0.195800  0.982500  0.254300  1.0  0.0213
  C  C112  1  0.139100  0.920900  0.247200  1.0  -0.0942
  C  C113  1  0.041400  0.916500  0.248600  1.0  -0.1115
  C  C114  1  0.047800  0.037500  0.264400  1.0  -0.0795
  C  C115  1  0.299000  0.986600  0.248700  1.0  0.0117
  C  C116  1  0.021500  0.751400  0.476100  1.0  -0.0533
  C  C117  1  0.538000  0.758200  0.475500  1.0  0.0307
  C  C118  1  0.430500  0.759700  0.415700  1.0  -0.1524
  C  C119  1  0.354300  0.047500  0.254700  1.0  -0.1181
  C  C120  1  0.550000  0.757800  0.537800  1.0  -0.1243
  C  C121  1  0.343600  0.928600  0.238000  1.0  -0.0799
  C  C122  1  0.979700  0.851300  0.237800  1.0  0.6891
  C  C123  1  0.148700  0.040200  0.264000  1.0  -0.114
  C  C124  1  0.507100  0.119200  0.253300  1.0  0.7041
  C  C125  1  0.449100  0.051700  0.248800  1.0  -0.1592
  C  C126  1  0.331600  0.759400  0.418200  1.0  -0.0809
  C  C127  1  0.493400  0.993200  0.237600  1.0  -0.0308
  C  C128  1  0.490100  0.865600  0.221800  1.0  0.7398
  C  C129  1  0.227500  0.754700  0.478500  1.0  0.0637
  C  C130  1  0.130300  0.774400  0.600200  1.0  0.7249
  C  C131  1  0.337100  0.757300  0.478200  1.0  0.0283
  C  C132  1  0.449900  0.756100  0.539200  1.0  -0.0875
  C  C133  1  0.998000  0.398000  0.772900  1.0  0.7267
  C  C134  1  0.905000  0.770500  0.851200  1.0  0.7331
  C  C135  1  0.128100  0.736700  0.036600  1.0  -0.1603
  C  C136  1  0.119400  0.758000  0.919800  1.0  -0.0918
  C  C137  1  0.440500  0.569600  0.732300  1.0  -0.1855
  C  C138  1  0.995300  0.524600  0.756700  1.0  0.0083
  C  C139  1  0.231200  0.734700  0.037900  1.0  -0.0772
  C  C140  1  0.019200  0.758800  0.917100  1.0  -0.1308
  C  C141  1  0.419500  0.744000  0.848400  1.0  0.6741
  C  C142  1  0.668400  0.742200  0.102000  1.0  0.6911
  C  C143  1  0.195800  0.517500  0.754300  1.0  0.0213
  C  C144  1  0.139100  0.579100  0.747200  1.0  -0.0938
  C  C145  1  0.041400  0.583500  0.748600  1.0  -0.1109
  C  C146  1  0.047800  0.462500  0.764400  1.0  -0.0795
  C  C147  1  0.299000  0.513400  0.748700  1.0  0.0117
  C  C148  1  0.021500  0.748600  0.976100  1.0  -0.0534
  C  C149  1  0.538000  0.741800  0.975500  1.0  0.0307
  C  C150  1  0.430500  0.740300  0.915700  1.0  -0.1525
  C  C151  1  0.354300  0.452500  0.754700  1.0  -0.1191
  C  C152  1  0.550000  0.742200  0.037800  1.0  -0.1244
  C  C153  1  0.343600  0.571400  0.738000  1.0  -0.0802
  C  C154  1  0.979700  0.648700  0.737800  1.0  0.6896
  C  C155  1  0.148700  0.459800  0.764000  1.0  -0.114
  C  C156  1  0.507100  0.380800  0.753300  1.0  0.7037
  C  C157  1  0.449100  0.448300  0.748800  1.0  -0.1593
  C  C158  1  0.331600  0.740600  0.918200  1.0  -0.0809
  C  C159  1  0.493400  0.506800  0.737600  1.0  -0.031
  C  C160  1  0.490100  0.634400  0.721800  1.0  0.7399
  C  C161  1  0.227500  0.745300  0.978500  1.0  0.0638
  C  C162  1  0.130300  0.725600  0.100200  1.0  0.7246
  C  C163  1  0.337100  0.742700  0.978200  1.0  0.0283
  C  C164  1  0.449900  0.743900  0.039200  1.0  -0.0871
  C  C165  1  0.002000  0.898000  0.727100  1.0  0.7294
  C  C166  1  0.095000  0.270500  0.648800  1.0  0.7318
  C  C167  1  0.871900  0.236700  0.463400  1.0  -0.1599
  C  C168  1  0.880600  0.258000  0.580200  1.0  -0.091
  C  C169  1  0.559500  0.069600  0.767700  1.0  -0.1862
  C  C170  1  0.004700  0.024600  0.743300  1.0  0.008
  C  C171  1  0.768800  0.234700  0.462100  1.0  -0.0792
  C  C172  1  0.980800  0.258800  0.582900  1.0  -0.1308
  C  C173  1  0.580500  0.244000  0.651600  1.0  0.674
  C  C174  1  0.331600  0.242200  0.398000  1.0  0.691
  C  C175  1  0.804200  0.017500  0.745700  1.0  0.0212
  C  C176  1  0.860900  0.079100  0.752800  1.0  -0.0933
  C  C177  1  0.958600  0.083500  0.751400  1.0  -0.1116
  C  C178  1  0.952200  0.962500  0.735600  1.0  -0.0803
  C  C179  1  0.701000  0.013400  0.751300  1.0  0.0116
  C  C180  1  0.978500  0.248600  0.523900  1.0  -0.0551
  C  C181  1  0.462000  0.241800  0.524500  1.0  0.0314
  C  C182  1  0.569500  0.240300  0.584300  1.0  -0.153
  C  C183  1  0.645700  0.952500  0.745300  1.0  -0.118
  C  C184  1  0.450000  0.242200  0.462200  1.0  -0.1241
  C  C185  1  0.656400  0.071400  0.762000  1.0  -0.0793
  C  C186  1  0.020300  0.148700  0.762200  1.0  0.6888
  C  C187  1  0.851300  0.959800  0.736000  1.0  -0.1152
  C  C188  1  0.492900  0.880800  0.746700  1.0  0.7052
  C  C189  1  0.550900  0.948300  0.751200  1.0  -0.1582
  C  C190  1  0.668400  0.240600  0.581800  1.0  -0.0812
  C  C191  1  0.506600  0.006800  0.762400  1.0  -0.0319
  C  C192  1  0.509900  0.134400  0.778200  1.0  0.7392
  C  C193  1  0.772500  0.245300  0.521500  1.0  0.0641
  C  C194  1  0.869700  0.225600  0.399800  1.0  0.7245
  C  C195  1  0.662900  0.242700  0.521800  1.0  0.0299
  C  C196  1  0.550100  0.243900  0.460800  1.0  -0.0876
  O  O197  1  0.932000  0.650900  0.192200  1.0  -0.7734
  O  O198  1  0.107600  0.606200  0.253600  1.0  -0.5862
  O  O199  1  0.242500  0.251000  0.901500  1.0  -0.632
  O  O200  1  0.491400  0.254900  0.153300  1.0  -0.5498
  O  O201  1  0.317800  0.266700  0.841800  1.0  -0.6163
  O  O202  1  0.975700  0.295100  0.266200  1.0  -0.6868
  O  O203  1  0.680300  0.250400  0.205100  1.0  -0.6575
  O  O204  1  0.115100  0.348400  0.267700  1.0  -0.5652
  O  O205  1  0.519000  0.671900  0.227000  1.0  -0.6346
  O  O206  1  0.573900  0.313700  0.298100  1.0  -0.6843
  O  O207  1  0.963000  0.275100  0.902500  1.0  -0.6364
  O  O208  1  0.417000  0.621700  0.260100  1.0  -0.5485
  O  O209  1  0.773700  0.284500  0.844900  1.0  -0.7257
  O  O210  1  0.187800  0.243500  0.153200  1.0  -0.587
  O  O211  1  0.092700  0.206800  0.198300  1.0  -0.6626
  O  O212  1  0.412800  0.368200  0.268700  1.0  -0.632
  O  O213  1  0.068000  0.150900  0.307800  1.0  -0.7728
  O  O214  1  0.892400  0.106200  0.246400  1.0  -0.5907
  O  O215  1  0.757500  0.751000  0.598500  1.0  -0.6352
  O  O216  1  0.508600  0.754900  0.346700  1.0  -0.5483
  O  O217  1  0.682200  0.766700  0.658200  1.0  -0.6151
  O  O218  1  0.024300  0.795100  0.233800  1.0  -0.6864
  O  O219  1  0.319700  0.750400  0.294900  1.0  -0.657
  O  O220  1  0.884900  0.848400  0.232300  1.0  -0.5652
  O  O221  1  0.481000  0.171900  0.273000  1.0  -0.6359
  O  O222  1  0.426100  0.813700  0.201900  1.0  -0.683
  O  O223  1  0.037000  0.775100  0.597500  1.0  -0.6358
  O  O224  1  0.583000  0.121700  0.239900  1.0  -0.5483
  O  O225  1  0.226300  0.784500  0.655100  1.0  -0.7264
  O  O226  1  0.812200  0.743500  0.346800  1.0  -0.5883
  O  O227  1  0.907300  0.706800  0.301700  1.0  -0.6619
  O  O228  1  0.587200  0.868200  0.231300  1.0  -0.6303
  O  O229  1  0.068000  0.349100  0.807800  1.0  -0.773
  O  O230  1  0.892400  0.393800  0.746400  1.0  -0.5925
  O  O231  1  0.757500  0.749000  0.098500  1.0  -0.636
  O  O232  1  0.508600  0.745100  0.846700  1.0  -0.5483
  O  O233  1  0.682200  0.733300  0.158200  1.0  -0.6159
  O  O234  1  0.024300  0.704900  0.733800  1.0  -0.6863
  O  O235  1  0.319700  0.749600  0.794900  1.0  -0.6573
  O  O236  1  0.884900  0.651600  0.732300  1.0  -0.5635
  O  O237  1  0.481000  0.328100  0.773000  1.0  -0.6354
  O  O238  1  0.426100  0.686300  0.701900  1.0  -0.6827
  O  O239  1  0.037000  0.724900  0.097500  1.0  -0.6353
  O  O240  1  0.583000  0.378300  0.739900  1.0  -0.5482
  O  O241  1  0.226300  0.715500  0.155100  1.0  -0.7255
  O  O242  1  0.812200  0.756500  0.846800  1.0  -0.5878
  O  O243  1  0.907300  0.793200  0.801700  1.0  -0.6626
  O  O244  1  0.587200  0.631800  0.731300  1.0  -0.6312
  O  O245  1  0.932000  0.849100  0.692200  1.0  -0.7736
  O  O246  1  0.107600  0.893800  0.753600  1.0  -0.5869
  O  O247  1  0.242500  0.249000  0.401500  1.0  -0.6327
  O  O248  1  0.491400  0.245100  0.653300  1.0  -0.55
  O  O249  1  0.317800  0.233300  0.341800  1.0  -0.6168
  O  O250  1  0.975700  0.204900  0.766200  1.0  -0.6875
  O  O251  1  0.680300  0.249600  0.705100  1.0  -0.6578
  O  O252  1  0.115100  0.151600  0.767700  1.0  -0.5654
  O  O253  1  0.519000  0.828100  0.727000  1.0  -0.6348
  O  O254  1  0.573900  0.186300  0.798100  1.0  -0.6838
  O  O255  1  0.963000  0.224900  0.402500  1.0  -0.6362
  O  O256  1  0.417000  0.878300  0.760100  1.0  -0.5483
  O  O257  1  0.773700  0.215500  0.344900  1.0  -0.7266
  O  O258  1  0.187800  0.256500  0.653200  1.0  -0.5867
  O  O259  1  0.092700  0.293200  0.698300  1.0  -0.6618
  O  O260  1  0.412800  0.131800  0.768700  1.0  -0.6308
