# generated using pymatgen
data_EuH3C7NO4
_symmetry_space_group_name_H-M   'P 1'
_cell_length_a   19.80850000
_cell_length_b   19.80850000
_cell_length_c   19.80850000
_cell_angle_alpha   90.00000000
_cell_angle_beta   90.00000000
_cell_angle_gamma   90.00000000
_symmetry_Int_Tables_number   1
_chemical_formula_structural   EuH3C7NO4
_chemical_formula_sum   'Eu24 H72 C168 N24 O96'
_cell_volume   7772.39331226
_cell_formula_units_Z   24
loop_
 _symmetry_equiv_pos_site_id
 _symmetry_equiv_pos_as_xyz
  1  'x, y, z'
loop_
 _atom_site_type_symbol
 _atom_site_label
 _atom_site_symmetry_multiplicity
 _atom_site_fract_x
 _atom_site_fract_y
 _atom_site_fract_z
 _atom_site_occupancy
 _atom_site_charge
  Eu  Eu1  1  0.493250  0.247010  0.153090  1.0  2.0609
  Eu  Eu2  1  0.006750  0.752990  0.653090  1.0  2.0607
  Eu  Eu3  1  0.506750  0.747010  0.346910  1.0  2.0611
  Eu  Eu4  1  0.993250  0.252990  0.846910  1.0  2.061
  Eu  Eu5  1  0.153090  0.493250  0.247010  1.0  2.062
  Eu  Eu6  1  0.653090  0.006750  0.752990  1.0  2.062
  Eu  Eu7  1  0.346910  0.506750  0.747010  1.0  2.0608
  Eu  Eu8  1  0.846910  0.993250  0.252990  1.0  2.0609
  Eu  Eu9  1  0.247010  0.153090  0.493250  1.0  2.0616
  Eu  Eu10  1  0.752990  0.653090  0.006750  1.0  2.0615
  Eu  Eu11  1  0.747010  0.346910  0.506750  1.0  2.0618
  Eu  Eu12  1  0.252990  0.846910  0.993250  1.0  2.062
  Eu  Eu13  1  0.506750  0.752990  0.846910  1.0  2.061
  Eu  Eu14  1  0.993250  0.247010  0.346910  1.0  2.0611
  Eu  Eu15  1  0.493250  0.252990  0.653090  1.0  2.0607
  Eu  Eu16  1  0.006750  0.747010  0.153090  1.0  2.0609
  Eu  Eu17  1  0.846910  0.506750  0.752990  1.0  2.0608
  Eu  Eu18  1  0.346910  0.993250  0.247010  1.0  2.0609
  Eu  Eu19  1  0.653090  0.493250  0.252990  1.0  2.0621
  Eu  Eu20  1  0.153090  0.006750  0.747010  1.0  2.0619
  Eu  Eu21  1  0.752990  0.846910  0.506750  1.0  2.0617
  Eu  Eu22  1  0.247010  0.346910  0.993250  1.0  2.062
  Eu  Eu23  1  0.252990  0.653090  0.493250  1.0  2.0616
  Eu  Eu24  1  0.747010  0.153090  0.006750  1.0  2.0615
  H  H25  1  0.549200  0.328700  0.408600  1.0  0.1041
  H  H26  1  0.454100  0.150600  0.406800  1.0  0.1008
  H  H27  1  0.503600  0.237100  0.465700  1.0  0.079
  H  H28  1  0.950800  0.671300  0.908600  1.0  0.104
  H  H29  1  0.045900  0.849400  0.906800  1.0  0.1009
  H  H30  1  0.996400  0.762900  0.965700  1.0  0.0788
  H  H31  1  0.450800  0.828700  0.091400  1.0  0.1042
  H  H32  1  0.545900  0.650600  0.093200  1.0  0.1007
  H  H33  1  0.496400  0.737100  0.034300  1.0  0.0791
  H  H34  1  0.049200  0.171300  0.591400  1.0  0.1033
  H  H35  1  0.954100  0.349400  0.593200  1.0  0.1013
  H  H36  1  0.003600  0.262900  0.534300  1.0  0.0793
  H  H37  1  0.408600  0.549200  0.328700  1.0  0.1045
  H  H38  1  0.406800  0.454100  0.150600  1.0  0.1011
  H  H39  1  0.465700  0.503600  0.237100  1.0  0.0789
  H  H40  1  0.908600  0.950800  0.671300  1.0  0.104
  H  H41  1  0.906800  0.045900  0.849400  1.0  0.1014
  H  H42  1  0.965700  0.996400  0.762900  1.0  0.079
  H  H43  1  0.091400  0.450800  0.828700  1.0  0.1049
  H  H44  1  0.093200  0.545900  0.650600  1.0  0.1009
  H  H45  1  0.034300  0.496400  0.737100  1.0  0.0791
  H  H46  1  0.591400  0.049200  0.171300  1.0  0.104
  H  H47  1  0.593200  0.954100  0.349400  1.0  0.1021
  H  H48  1  0.534300  0.003600  0.262900  1.0  0.079
  H  H49  1  0.328700  0.408600  0.549200  1.0  0.1034
  H  H50  1  0.150600  0.406800  0.454100  1.0  0.1
  H  H51  1  0.237100  0.465700  0.503600  1.0  0.0778
  H  H52  1  0.671300  0.908600  0.950800  1.0  0.1036
  H  H53  1  0.849400  0.906800  0.045900  1.0  0.0998
  H  H54  1  0.762900  0.965700  0.996400  1.0  0.0778
  H  H55  1  0.828700  0.091400  0.450800  1.0  0.1034
  H  H56  1  0.650600  0.093200  0.545900  1.0  0.0999
  H  H57  1  0.737100  0.034300  0.496400  1.0  0.0773
  H  H58  1  0.171300  0.591400  0.049200  1.0  0.1036
  H  H59  1  0.349400  0.593200  0.954100  1.0  0.0998
  H  H60  1  0.262900  0.534300  0.003600  1.0  0.0777
  H  H61  1  0.450800  0.671300  0.591400  1.0  0.1035
  H  H62  1  0.545900  0.849400  0.593200  1.0  0.1014
  H  H63  1  0.496400  0.762900  0.534300  1.0  0.0791
  H  H64  1  0.049200  0.328700  0.091400  1.0  0.104
  H  H65  1  0.954100  0.150600  0.093200  1.0  0.1007
  H  H66  1  0.003600  0.237100  0.034300  1.0  0.0792
  H  H67  1  0.549200  0.171300  0.908600  1.0  0.1038
  H  H68  1  0.454100  0.349400  0.906800  1.0  0.1011
  H  H69  1  0.503600  0.262900  0.965700  1.0  0.079
  H  H70  1  0.950800  0.828700  0.408600  1.0  0.1042
  H  H71  1  0.045900  0.650600  0.406800  1.0  0.1005
  H  H72  1  0.996400  0.737100  0.465700  1.0  0.0788
  H  H73  1  0.591400  0.450800  0.671300  1.0  0.104
  H  H74  1  0.593200  0.545900  0.849400  1.0  0.1018
  H  H75  1  0.534300  0.496400  0.762900  1.0  0.0791
  H  H76  1  0.091400  0.049200  0.328700  1.0  0.1049
  H  H77  1  0.093200  0.954100  0.150600  1.0  0.1011
  H  H78  1  0.034300  0.003600  0.237100  1.0  0.079
  H  H79  1  0.908600  0.549200  0.171300  1.0  0.1041
  H  H80  1  0.906800  0.454100  0.349400  1.0  0.1016
  H  H81  1  0.965700  0.503600  0.262900  1.0  0.0789
  H  H82  1  0.408600  0.950800  0.828700  1.0  0.1045
  H  H83  1  0.406800  0.045900  0.650600  1.0  0.1009
  H  H84  1  0.465700  0.996400  0.737100  1.0  0.079
  H  H85  1  0.671300  0.591400  0.450800  1.0  0.1033
  H  H86  1  0.849400  0.593200  0.545900  1.0  0.0997
  H  H87  1  0.762900  0.534300  0.496400  1.0  0.0776
  H  H88  1  0.328700  0.091400  0.049200  1.0  0.1036
  H  H89  1  0.150600  0.093200  0.954100  1.0  0.0998
  H  H90  1  0.237100  0.034300  0.003600  1.0  0.0774
  H  H91  1  0.171300  0.908600  0.549200  1.0  0.1036
  H  H92  1  0.349400  0.906800  0.454100  1.0  0.1003
  H  H93  1  0.262900  0.965700  0.503600  1.0  0.0779
  H  H94  1  0.828700  0.408600  0.950800  1.0  0.1035
  H  H95  1  0.650600  0.406800  0.045900  1.0  0.0998
  H  H96  1  0.737100  0.465700  0.996400  1.0  0.0778
  C  C97  1  0.445100  0.135700  0.268700  1.0  0.6658
  C  C98  1  0.554400  0.348000  0.271700  1.0  0.6717
  C  C99  1  0.527400  0.292800  0.315900  1.0  0.0655
  C  C100  1  0.474300  0.188800  0.314200  1.0  0.0785
  C  C101  1  0.529800  0.293000  0.385100  1.0  -0.1456
  C  C102  1  0.473700  0.186700  0.384000  1.0  -0.1665
  C  C103  1  0.502400  0.238500  0.418800  1.0  -0.1276
  C  C104  1  0.054900  0.864300  0.768700  1.0  0.6657
  C  C105  1  0.945600  0.652000  0.771700  1.0  0.6706
  C  C106  1  0.972600  0.707200  0.815900  1.0  0.0655
  C  C107  1  0.025700  0.811200  0.814200  1.0  0.0783
  C  C108  1  0.970200  0.707000  0.885100  1.0  -0.1447
  C  C109  1  0.026300  0.813300  0.884000  1.0  -0.1672
  C  C110  1  0.997600  0.761500  0.918800  1.0  -0.1275
  C  C111  1  0.554900  0.635700  0.231300  1.0  0.6669
  C  C112  1  0.445600  0.848000  0.228300  1.0  0.6705
  C  C113  1  0.472600  0.792800  0.184100  1.0  0.0652
  C  C114  1  0.525700  0.688800  0.185800  1.0  0.0799
  C  C115  1  0.470200  0.793000  0.114900  1.0  -0.1453
  C  C116  1  0.526300  0.686700  0.116000  1.0  -0.1667
  C  C117  1  0.497600  0.738500  0.081200  1.0  -0.1285
  C  C118  1  0.945100  0.364300  0.731300  1.0  0.6652
  C  C119  1  0.054400  0.152000  0.728300  1.0  0.6723
  C  C120  1  0.027400  0.207200  0.684100  1.0  0.0651
  C  C121  1  0.974300  0.311200  0.685800  1.0  0.0787
  C  C122  1  0.029800  0.207000  0.614900  1.0  -0.1452
  C  C123  1  0.973700  0.313300  0.616000  1.0  -0.1668
  C  C124  1  0.002400  0.261500  0.581200  1.0  -0.1286
  C  C125  1  0.268700  0.445100  0.135700  1.0  0.6653
  C  C126  1  0.271700  0.554400  0.348000  1.0  0.6711
  C  C127  1  0.315900  0.527400  0.292800  1.0  0.064
  C  C128  1  0.314200  0.474300  0.188800  1.0  0.078
  C  C129  1  0.385100  0.529800  0.293000  1.0  -0.1467
  C  C130  1  0.384000  0.473700  0.186700  1.0  -0.1682
  C  C131  1  0.418800  0.502400  0.238500  1.0  -0.1302
  C  C132  1  0.768700  0.054900  0.864300  1.0  0.6648
  C  C133  1  0.771700  0.945600  0.652000  1.0  0.6715
  C  C134  1  0.815900  0.972600  0.707200  1.0  0.0649
  C  C135  1  0.814200  0.025700  0.811200  1.0  0.0787
  C  C136  1  0.885100  0.970200  0.707000  1.0  -0.1468
  C  C137  1  0.884000  0.026300  0.813300  1.0  -0.1697
  C  C138  1  0.918800  0.997600  0.761500  1.0  -0.1299
  C  C139  1  0.231300  0.554900  0.635700  1.0  0.6648
  C  C140  1  0.228300  0.445600  0.848000  1.0  0.6718
  C  C141  1  0.184100  0.472600  0.792800  1.0  0.0646
  C  C142  1  0.185800  0.525700  0.688800  1.0  0.0787
  C  C143  1  0.114900  0.470200  0.793000  1.0  -0.1455
  C  C144  1  0.116000  0.526300  0.686700  1.0  -0.1678
  C  C145  1  0.081200  0.497600  0.738500  1.0  -0.1332
  C  C146  1  0.731300  0.945100  0.364300  1.0  0.6652
  C  C147  1  0.728300  0.054400  0.152000  1.0  0.6717
  C  C148  1  0.684100  0.027400  0.207200  1.0  0.0653
  C  C149  1  0.685800  0.974300  0.311200  1.0  0.0795
  C  C150  1  0.614900  0.029800  0.207000  1.0  -0.1458
  C  C151  1  0.616000  0.973700  0.313300  1.0  -0.169
  C  C152  1  0.581200  0.002400  0.261500  1.0  -0.1331
  C  C153  1  0.135700  0.268700  0.445100  1.0  0.6645
  C  C154  1  0.348000  0.271700  0.554400  1.0  0.669
  C  C155  1  0.292800  0.315900  0.527400  1.0  0.0651
  C  C156  1  0.188800  0.314200  0.474300  1.0  0.0778
  C  C157  1  0.293000  0.385100  0.529800  1.0  -0.1448
  C  C158  1  0.186700  0.384000  0.473700  1.0  -0.1668
  C  C159  1  0.238500  0.418800  0.502400  1.0  -0.1289
  C  C160  1  0.864300  0.768700  0.054900  1.0  0.6664
  C  C161  1  0.652000  0.771700  0.945600  1.0  0.6693
  C  C162  1  0.707200  0.815900  0.972600  1.0  0.0643
  C  C163  1  0.811200  0.814200  0.025700  1.0  0.0787
  C  C164  1  0.707000  0.885100  0.970200  1.0  -0.1441
  C  C165  1  0.813300  0.884000  0.026300  1.0  -0.1668
  C  C166  1  0.761500  0.918800  0.997600  1.0  -0.1285
  C  C167  1  0.635700  0.231300  0.554900  1.0  0.6638
  C  C168  1  0.848000  0.228300  0.445600  1.0  0.6693
  C  C169  1  0.792800  0.184100  0.472600  1.0  0.0642
  C  C170  1  0.688800  0.185800  0.525700  1.0  0.0774
  C  C171  1  0.793000  0.114900  0.470200  1.0  -0.1446
  C  C172  1  0.686700  0.116000  0.526300  1.0  -0.167
  C  C173  1  0.738500  0.081200  0.497600  1.0  -0.1281
  C  C174  1  0.364300  0.731300  0.945100  1.0  0.6655
  C  C175  1  0.152000  0.728300  0.054400  1.0  0.6674
  C  C176  1  0.207200  0.684100  0.027400  1.0  0.0641
  C  C177  1  0.311200  0.685800  0.974300  1.0  0.0785
  C  C178  1  0.207000  0.614900  0.029800  1.0  -0.1441
  C  C179  1  0.313300  0.616000  0.973700  1.0  -0.1679
  C  C180  1  0.261500  0.581200  0.002400  1.0  -0.1285
  C  C181  1  0.554900  0.864300  0.731300  1.0  0.6658
  C  C182  1  0.445600  0.652000  0.728300  1.0  0.6714
  C  C183  1  0.472600  0.707200  0.684100  1.0  0.0653
  C  C184  1  0.525700  0.811200  0.685800  1.0  0.079
  C  C185  1  0.470200  0.707000  0.614900  1.0  -0.1447
  C  C186  1  0.526300  0.813300  0.616000  1.0  -0.1667
  C  C187  1  0.497600  0.761500  0.581200  1.0  -0.1285
  C  C188  1  0.945100  0.135700  0.231300  1.0  0.6661
  C  C189  1  0.054400  0.348000  0.228300  1.0  0.6718
  C  C190  1  0.027400  0.292800  0.184100  1.0  0.0645
  C  C191  1  0.974300  0.188800  0.185800  1.0  0.0792
  C  C192  1  0.029800  0.293000  0.114900  1.0  -0.1456
  C  C193  1  0.973700  0.186700  0.116000  1.0  -0.1665
  C  C194  1  0.002400  0.238500  0.081200  1.0  -0.1286
  C  C195  1  0.445100  0.364300  0.768700  1.0  0.6657
  C  C196  1  0.554400  0.152000  0.771700  1.0  0.6709
  C  C197  1  0.527400  0.207200  0.815900  1.0  0.0652
  C  C198  1  0.474300  0.311200  0.814200  1.0  0.0786
  C  C199  1  0.529800  0.207000  0.885100  1.0  -0.1449
  C  C200  1  0.473700  0.313300  0.884000  1.0  -0.1676
  C  C201  1  0.502400  0.261500  0.918800  1.0  -0.1277
  C  C202  1  0.054900  0.635700  0.268700  1.0  0.666
  C  C203  1  0.945600  0.848000  0.271700  1.0  0.6709
  C  C204  1  0.972600  0.792800  0.315900  1.0  0.0662
  C  C205  1  0.025700  0.688800  0.314200  1.0  0.0788
  C  C206  1  0.970200  0.793000  0.385100  1.0  -0.1457
  C  C207  1  0.026300  0.686700  0.384000  1.0  -0.1668
  C  C208  1  0.997600  0.738500  0.418800  1.0  -0.1274
  C  C209  1  0.731300  0.554900  0.864300  1.0  0.665
  C  C210  1  0.728300  0.445600  0.652000  1.0  0.6711
  C  C211  1  0.684100  0.472600  0.707200  1.0  0.0652
  C  C212  1  0.685800  0.525700  0.811200  1.0  0.0793
  C  C213  1  0.614900  0.470200  0.707000  1.0  -0.145
  C  C214  1  0.616000  0.526300  0.813300  1.0  -0.17
  C  C215  1  0.581200  0.497600  0.761500  1.0  -0.133
  C  C216  1  0.231300  0.945100  0.135700  1.0  0.6641
  C  C217  1  0.228300  0.054400  0.348000  1.0  0.6714
  C  C218  1  0.184100  0.027400  0.292800  1.0  0.0642
  C  C219  1  0.185800  0.974300  0.188800  1.0  0.0787
  C  C220  1  0.114900  0.029800  0.293000  1.0  -0.1461
  C  C221  1  0.116000  0.973700  0.186700  1.0  -0.1678
  C  C222  1  0.081200  0.002400  0.238500  1.0  -0.1334
  C  C223  1  0.768700  0.445100  0.364300  1.0  0.6655
  C  C224  1  0.771700  0.554400  0.152000  1.0  0.6719
  C  C225  1  0.815900  0.527400  0.207200  1.0  0.065
  C  C226  1  0.814200  0.474300  0.311200  1.0  0.0786
  C  C227  1  0.885100  0.529800  0.207000  1.0  -0.1476
  C  C228  1  0.884000  0.473700  0.313300  1.0  -0.1693
  C  C229  1  0.918800  0.502400  0.261500  1.0  -0.13
  C  C230  1  0.268700  0.054900  0.635700  1.0  0.6655
  C  C231  1  0.271700  0.945600  0.848000  1.0  0.6718
  C  C232  1  0.315900  0.972600  0.792800  1.0  0.0642
  C  C233  1  0.314200  0.025700  0.688800  1.0  0.0782
  C  C234  1  0.385100  0.970200  0.793000  1.0  -0.1462
  C  C235  1  0.384000  0.026300  0.686700  1.0  -0.168
  C  C236  1  0.418800  0.997600  0.738500  1.0  -0.1301
  C  C237  1  0.864300  0.731300  0.554900  1.0  0.6655
  C  C238  1  0.652000  0.728300  0.445600  1.0  0.6689
  C  C239  1  0.707200  0.684100  0.472600  1.0  0.0641
  C  C240  1  0.811200  0.685800  0.525700  1.0  0.0783
  C  C241  1  0.707000  0.614900  0.470200  1.0  -0.144
  C  C242  1  0.813300  0.616000  0.526300  1.0  -0.1679
  C  C243  1  0.761500  0.581200  0.497600  1.0  -0.1284
  C  C244  1  0.135700  0.231300  0.945100  1.0  0.6641
  C  C245  1  0.348000  0.228300  0.054400  1.0  0.6684
  C  C246  1  0.292800  0.184100  0.027400  1.0  0.0643
  C  C247  1  0.188800  0.185800  0.974300  1.0  0.0776
  C  C248  1  0.293000  0.114900  0.029800  1.0  -0.1448
  C  C249  1  0.186700  0.116000  0.973700  1.0  -0.1676
  C  C250  1  0.238500  0.081200  0.002400  1.0  -0.1283
  C  C251  1  0.364300  0.768700  0.445100  1.0  0.6656
  C  C252  1  0.152000  0.771700  0.554400  1.0  0.6687
  C  C253  1  0.207200  0.815900  0.527400  1.0  0.0645
  C  C254  1  0.311200  0.814200  0.474300  1.0  0.0789
  C  C255  1  0.207000  0.885100  0.529800  1.0  -0.1441
  C  C256  1  0.313300  0.884000  0.473700  1.0  -0.1667
  C  C257  1  0.261500  0.918800  0.502400  1.0  -0.1287
  C  C258  1  0.635700  0.268700  0.054900  1.0  0.6649
  C  C259  1  0.848000  0.271700  0.945600  1.0  0.6689
  C  C260  1  0.792800  0.315900  0.972600  1.0  0.0648
  C  C261  1  0.688800  0.314200  0.025700  1.0  0.0778
  C  C262  1  0.793000  0.385100  0.970200  1.0  -0.1444
  C  C263  1  0.686700  0.384000  0.026300  1.0  -0.1664
  C  C264  1  0.738500  0.418800  0.997600  1.0  -0.1286
  N  N265  1  0.499500  0.241900  0.280500  1.0  -0.5234
  N  N266  1  0.000500  0.758100  0.780500  1.0  -0.5233
  N  N267  1  0.500500  0.741900  0.219500  1.0  -0.5264
  N  N268  1  0.999500  0.258100  0.719500  1.0  -0.5268
  N  N269  1  0.280500  0.499500  0.241900  1.0  -0.5198
  N  N270  1  0.780500  0.000500  0.758100  1.0  -0.5196
  N  N271  1  0.219500  0.500500  0.741900  1.0  -0.519
  N  N272  1  0.719500  0.999500  0.258100  1.0  -0.5188
  N  N273  1  0.241900  0.280500  0.499500  1.0  -0.5177
  N  N274  1  0.758100  0.780500  0.000500  1.0  -0.518
  N  N275  1  0.741900  0.219500  0.500500  1.0  -0.5188
  N  N276  1  0.258100  0.719500  0.999500  1.0  -0.5194
  N  N277  1  0.500500  0.758100  0.719500  1.0  -0.5265
  N  N278  1  0.999500  0.241900  0.219500  1.0  -0.5267
  N  N279  1  0.499500  0.258100  0.780500  1.0  -0.5235
  N  N280  1  0.000500  0.741900  0.280500  1.0  -0.5231
  N  N281  1  0.719500  0.500500  0.758100  1.0  -0.5187
  N  N282  1  0.219500  0.999500  0.241900  1.0  -0.5191
  N  N283  1  0.780500  0.499500  0.258100  1.0  -0.5197
  N  N284  1  0.280500  0.000500  0.741900  1.0  -0.5197
  N  N285  1  0.758100  0.719500  0.500500  1.0  -0.5195
  N  N286  1  0.241900  0.219500  0.999500  1.0  -0.5186
  N  N287  1  0.258100  0.780500  0.499500  1.0  -0.5178
  N  N288  1  0.741900  0.280500  0.000500  1.0  -0.5179
  O  O289  1  0.450800  0.147200  0.206000  1.0  -0.7132
  O  O290  1  0.541300  0.342300  0.209200  1.0  -0.6984
  O  O291  1  0.417400  0.086000  0.294300  1.0  -0.6962
  O  O292  1  0.589200  0.393500  0.296900  1.0  -0.755
  O  O293  1  0.049200  0.852800  0.706000  1.0  -0.7134
  O  O294  1  0.958700  0.657700  0.709200  1.0  -0.6976
  O  O295  1  0.082600  0.914000  0.794300  1.0  -0.6956
  O  O296  1  0.910800  0.606500  0.796900  1.0  -0.7553
  O  O297  1  0.549200  0.647200  0.294000  1.0  -0.7126
  O  O298  1  0.458700  0.842300  0.290800  1.0  -0.6982
  O  O299  1  0.582600  0.586000  0.205700  1.0  -0.6969
  O  O300  1  0.410800  0.893500  0.203100  1.0  -0.7553
  O  O301  1  0.950800  0.352800  0.794000  1.0  -0.7121
  O  O302  1  0.041300  0.157700  0.790800  1.0  -0.6993
  O  O303  1  0.917400  0.414000  0.705700  1.0  -0.6971
  O  O304  1  0.089200  0.106500  0.703100  1.0  -0.7544
  O  O305  1  0.206000  0.450800  0.147200  1.0  -0.711
  O  O306  1  0.209200  0.541300  0.342300  1.0  -0.6967
  O  O307  1  0.294300  0.417400  0.086000  1.0  -0.6976
  O  O308  1  0.296900  0.589200  0.393500  1.0  -0.7566
  O  O309  1  0.706000  0.049200  0.852800  1.0  -0.7117
  O  O310  1  0.709200  0.958700  0.657700  1.0  -0.6962
  O  O311  1  0.794300  0.082600  0.914000  1.0  -0.6969
  O  O312  1  0.796900  0.910800  0.606500  1.0  -0.7561
  O  O313  1  0.294000  0.549200  0.647200  1.0  -0.7116
  O  O314  1  0.290800  0.458700  0.842300  1.0  -0.697
  O  O315  1  0.205700  0.582600  0.586000  1.0  -0.6964
  O  O316  1  0.203100  0.410800  0.893500  1.0  -0.7565
  O  O317  1  0.794000  0.950800  0.352800  1.0  -0.7112
  O  O318  1  0.790800  0.041300  0.157700  1.0  -0.6971
  O  O319  1  0.705700  0.917400  0.414000  1.0  -0.6958
  O  O320  1  0.703100  0.089200  0.106500  1.0  -0.7567
  O  O321  1  0.147200  0.206000  0.450800  1.0  -0.7081
  O  O322  1  0.342300  0.209200  0.541300  1.0  -0.6954
  O  O323  1  0.086000  0.294300  0.417400  1.0  -0.6981
  O  O324  1  0.393500  0.296900  0.589200  1.0  -0.7562
  O  O325  1  0.852800  0.706000  0.049200  1.0  -0.7087
  O  O326  1  0.657700  0.709200  0.958700  1.0  -0.6961
  O  O327  1  0.914000  0.794300  0.082600  1.0  -0.6972
  O  O328  1  0.606500  0.796900  0.910800  1.0  -0.7546
  O  O329  1  0.647200  0.294000  0.549200  1.0  -0.71
  O  O330  1  0.842300  0.290800  0.458700  1.0  -0.6957
  O  O331  1  0.586000  0.205700  0.582600  1.0  -0.6982
  O  O332  1  0.893500  0.203100  0.410800  1.0  -0.7555
  O  O333  1  0.352800  0.794000  0.950800  1.0  -0.71
  O  O334  1  0.157700  0.790800  0.041300  1.0  -0.6968
  O  O335  1  0.414000  0.705700  0.917400  1.0  -0.6985
  O  O336  1  0.106500  0.703100  0.089200  1.0  -0.7556
  O  O337  1  0.549200  0.852800  0.794000  1.0  -0.7121
  O  O338  1  0.458700  0.657700  0.790800  1.0  -0.6985
  O  O339  1  0.582600  0.914000  0.705700  1.0  -0.6957
  O  O340  1  0.410800  0.606500  0.703100  1.0  -0.7551
  O  O341  1  0.950800  0.147200  0.294000  1.0  -0.7125
  O  O342  1  0.041300  0.342300  0.290800  1.0  -0.6991
  O  O343  1  0.917400  0.086000  0.205700  1.0  -0.6967
  O  O344  1  0.089200  0.393500  0.203100  1.0  -0.7548
  O  O345  1  0.450800  0.352800  0.706000  1.0  -0.7132
  O  O346  1  0.541300  0.157700  0.709200  1.0  -0.6985
  O  O347  1  0.417400  0.414000  0.794300  1.0  -0.6953
  O  O348  1  0.589200  0.106500  0.796900  1.0  -0.7548
  O  O349  1  0.049200  0.647200  0.206000  1.0  -0.7134
  O  O350  1  0.958700  0.842300  0.209200  1.0  -0.6975
  O  O351  1  0.082600  0.586000  0.294300  1.0  -0.6955
  O  O352  1  0.910800  0.893500  0.296900  1.0  -0.7555
  O  O353  1  0.794000  0.549200  0.852800  1.0  -0.7115
  O  O354  1  0.790800  0.458700  0.657700  1.0  -0.6968
  O  O355  1  0.705700  0.582600  0.914000  1.0  -0.6957
  O  O356  1  0.703100  0.410800  0.606500  1.0  -0.7565
  O  O357  1  0.294000  0.950800  0.147200  1.0  -0.7113
  O  O358  1  0.290800  0.041300  0.342300  1.0  -0.6969
  O  O359  1  0.205700  0.917400  0.086000  1.0  -0.6961
  O  O360  1  0.203100  0.089200  0.393500  1.0  -0.7573
  O  O361  1  0.706000  0.450800  0.352800  1.0  -0.7111
  O  O362  1  0.709200  0.541300  0.157700  1.0  -0.6967
  O  O363  1  0.794300  0.417400  0.414000  1.0  -0.6958
  O  O364  1  0.796900  0.589200  0.106500  1.0  -0.7561
  O  O365  1  0.206000  0.049200  0.647200  1.0  -0.7116
  O  O366  1  0.209200  0.958700  0.842300  1.0  -0.6963
  O  O367  1  0.294300  0.082600  0.586000  1.0  -0.6963
  O  O368  1  0.296900  0.910800  0.893500  1.0  -0.756
  O  O369  1  0.852800  0.794000  0.549200  1.0  -0.7099
  O  O370  1  0.657700  0.790800  0.458700  1.0  -0.6971
  O  O371  1  0.914000  0.705700  0.582600  1.0  -0.6977
  O  O372  1  0.606500  0.703100  0.410800  1.0  -0.7553
  O  O373  1  0.147200  0.294000  0.950800  1.0  -0.71
  O  O374  1  0.342300  0.290800  0.041300  1.0  -0.6954
  O  O375  1  0.086000  0.205700  0.917400  1.0  -0.6984
  O  O376  1  0.393500  0.203100  0.089200  1.0  -0.7565
  O  O377  1  0.352800  0.706000  0.450800  1.0  -0.7086
  O  O378  1  0.157700  0.709200  0.541300  1.0  -0.6958
  O  O379  1  0.414000  0.794300  0.417400  1.0  -0.6978
  O  O380  1  0.106500  0.796900  0.589200  1.0  -0.7555
  O  O381  1  0.647200  0.206000  0.049200  1.0  -0.708
  O  O382  1  0.842300  0.209200  0.958700  1.0  -0.6957
  O  O383  1  0.586000  0.294300  0.082600  1.0  -0.6975
  O  O384  1  0.893500  0.296900  0.910800  1.0  -0.7547
