# generated using pymatgen
data_FeH18C24(N2O)2
_symmetry_space_group_name_H-M   'P 1'
_cell_length_a   19.33070000
_cell_length_b   19.33070000
_cell_length_c   19.48100000
_cell_angle_alpha   119.74500000
_cell_angle_beta   119.74500000
_cell_angle_gamma   90.00010000
_symmetry_Int_Tables_number   1
_chemical_formula_structural   FeH18C24(N2O)2
_chemical_formula_sum   'Fe8 H144 C192 N32 O16'
_cell_volume   5186.86333720
_cell_formula_units_Z   8
loop_
 _symmetry_equiv_pos_site_id
 _symmetry_equiv_pos_as_xyz
  1  'x, y, z'
loop_
 _atom_site_type_symbol
 _atom_site_label
 _atom_site_symmetry_multiplicity
 _atom_site_fract_x
 _atom_site_fract_y
 _atom_site_fract_z
 _atom_site_occupancy
 _atom_site_charge
  Fe  Fe1  1  0.720450  0.720450  0.440900  1.0  0.6177
  Fe  Fe2  1  0.279550  0.279550  0.559100  1.0  0.6165
  Fe  Fe3  1  0.529550  0.029550  0.059100  1.0  0.6165
  Fe  Fe4  1  0.970450  0.470450  0.940900  1.0  0.6177
  Fe  Fe5  1  0.920240  0.875000  0.250000  1.0  0.7251
  Fe  Fe6  1  0.329760  0.375000  0.250000  1.0  0.725
  Fe  Fe7  1  0.125000  0.670240  0.750000  1.0  0.7257
  Fe  Fe8  1  0.625000  0.079760  0.750000  1.0  0.727
  H  H9  1  0.839000  0.882700  0.995000  1.0  0.1165
  H  H10  1  0.725000  0.776600  0.841600  1.0  0.0966
  H  H11  1  0.629500  0.679600  0.818400  1.0  0.1179
  H  H12  1  0.653600  0.686400  0.950200  1.0  0.1018
  H  H13  1  0.659600  0.759400  0.082800  1.0  0.0717
  H  H14  1  0.594800  0.740100  0.153200  1.0  0.1238
  H  H15  1  0.602400  0.718000  0.263200  1.0  0.0713
  H  H16  1  0.840300  0.736400  0.377000  1.0  0.0698
  H  H17  1  0.842300  0.758500  0.272600  1.0  0.1124
  H  H18  1  0.839500  0.515000  0.429600  1.0  0.099
  H  H19  1  0.831700  0.445600  0.494800  1.0  0.1048
  H  H20  1  0.785700  0.498600  0.599000  1.0  0.1209
  H  H21  1  0.730700  0.607500  0.614400  1.0  0.1027
  H  H22  1  0.654400  0.680900  0.584800  1.0  0.0989
  H  H23  1  0.542700  0.759000  0.569200  1.0  0.1215
  H  H24  1  0.523800  0.889200  0.621000  1.0  0.0704
  H  H25  1  0.747100  0.994700  0.703200  1.0  0.0801
  H  H26  1  0.774100  0.868800  0.654600  1.0  0.1231
  H  H27  1  0.156000  0.112300  0.995000  1.0  0.1162
  H  H28  1  0.116600  0.065000  0.841600  1.0  0.0967
  H  H29  1  0.188900  0.138800  0.818400  1.0  0.1184
  H  H30  1  0.296600  0.263800  0.950200  1.0  0.1013
  H  H31  1  0.423200  0.323400  0.082800  1.0  0.0706
  H  H32  1  0.558400  0.413100  0.153200  1.0  0.1237
  H  H33  1  0.660800  0.545200  0.263200  1.0  0.0705
  H  H34  1  0.536700  0.640600  0.377000  1.0  0.0699
  H  H35  1  0.430300  0.514100  0.272600  1.0  0.1121
  H  H36  1  0.590100  0.914600  0.429600  1.0  0.1004
  H  H37  1  0.663100  0.049200  0.494800  1.0  0.105
  H  H38  1  0.813300  0.100400  0.599000  1.0  0.1213
  H  H39  1  0.883700  0.006900  0.614400  1.0  0.1013
  H  H40  1  0.930400  0.903900  0.584800  1.0  0.0991
  H  H41  1  0.026500  0.810200  0.569200  1.0  0.1221
  H  H42  1  0.097200  0.731800  0.621000  1.0  0.071
  H  H43  1  0.956100  0.708500  0.703200  1.0  0.0796
  H  H44  1  0.880500  0.785800  0.654600  1.0  0.1202
  H  H45  1  0.117300  0.844000  0.005000  1.0  0.1174
  H  H46  1  0.223400  0.883400  0.158400  1.0  0.0969
  H  H47  1  0.320400  0.811100  0.181600  1.0  0.1182
  H  H48  1  0.313600  0.703400  0.049800  1.0  0.1028
  H  H49  1  0.240600  0.576800  0.917200  1.0  0.0726
  H  H50  1  0.259900  0.441600  0.846800  1.0  0.1241
  H  H51  1  0.282000  0.339200  0.736800  1.0  0.0705
  H  H52  1  0.263600  0.463300  0.623000  1.0  0.0715
  H  H53  1  0.241500  0.569700  0.727400  1.0  0.1129
  H  H54  1  0.485000  0.409900  0.570400  1.0  0.0996
  H  H55  1  0.554400  0.336900  0.505200  1.0  0.1058
  H  H56  1  0.501400  0.186700  0.401000  1.0  0.1218
  H  H57  1  0.392500  0.116300  0.385600  1.0  0.1033
  H  H58  1  0.319100  0.069600  0.415200  1.0  0.0985
  H  H59  1  0.241000  0.973500  0.430800  1.0  0.1215
  H  H60  1  0.110800  0.902800  0.379000  1.0  0.0696
  H  H61  1  0.005300  0.043900  0.296800  1.0  0.081
  H  H62  1  0.131200  0.119500  0.345400  1.0  0.1212
  H  H63  1  0.887700  0.161000  0.005000  1.0  0.1159
  H  H64  1  0.935000  0.275000  0.158400  1.0  0.0961
  H  H65  1  0.861200  0.370500  0.181600  1.0  0.1184
  H  H66  1  0.736200  0.346400  0.049800  1.0  0.101
  H  H67  1  0.676600  0.340400  0.917200  1.0  0.0721
  H  H68  1  0.586900  0.405200  0.846800  1.0  0.1241
  H  H69  1  0.454800  0.397600  0.736800  1.0  0.0716
  H  H70  1  0.359400  0.159700  0.623000  1.0  0.0698
  H  H71  1  0.485900  0.157700  0.727400  1.0  0.1127
  H  H72  1  0.085400  0.160500  0.570400  1.0  0.0992
  H  H73  1  0.950800  0.168300  0.505200  1.0  0.1052
  H  H74  1  0.899600  0.214300  0.401000  1.0  0.1227
  H  H75  1  0.993100  0.269300  0.385600  1.0  0.102
  H  H76  1  0.096100  0.345600  0.415200  1.0  0.0994
  H  H77  1  0.189800  0.457300  0.430800  1.0  0.1214
  H  H78  1  0.268200  0.476200  0.379000  1.0  0.0714
  H  H79  1  0.291500  0.252900  0.296800  1.0  0.0795
  H  H80  1  0.214200  0.225900  0.345400  1.0  0.1215
  H  H81  1  0.094000  0.867300  0.505000  1.0  0.1163
  H  H82  1  0.133400  0.973400  0.658400  1.0  0.0951
  H  H83  1  0.061100  0.070400  0.681600  1.0  0.1176
  H  H84  1  0.953400  0.063600  0.549800  1.0  0.1002
  H  H85  1  0.826800  0.990600  0.417200  1.0  0.0724
  H  H86  1  0.691600  0.009900  0.346800  1.0  0.1248
  H  H87  1  0.589200  0.032000  0.236800  1.0  0.07
  H  H88  1  0.713300  0.013600  0.123000  1.0  0.0715
  H  H89  1  0.819700  0.991500  0.227400  1.0  0.112
  H  H90  1  0.659900  0.235000  0.070400  1.0  0.101
  H  H91  1  0.586900  0.304400  0.005200  1.0  0.1049
  H  H92  1  0.436700  0.251400  0.901000  1.0  0.1226
  H  H93  1  0.366300  0.142500  0.885600  1.0  0.1016
  H  H94  1  0.319600  0.069100  0.915200  1.0  0.0987
  H  H95  1  0.223500  0.991000  0.930800  1.0  0.1215
  H  H96  1  0.152800  0.860800  0.879000  1.0  0.069
  H  H97  1  0.293900  0.755300  0.796800  1.0  0.0803
  H  H98  1  0.369500  0.881200  0.845400  1.0  0.1202
  H  H99  1  0.411000  0.637700  0.505000  1.0  0.117
  H  H100  1  0.525000  0.685000  0.658400  1.0  0.0968
  H  H101  1  0.620500  0.611200  0.681600  1.0  0.119
  H  H102  1  0.596400  0.486200  0.549800  1.0  0.1019
  H  H103  1  0.590400  0.426600  0.417200  1.0  0.0719
  H  H104  1  0.655200  0.336900  0.346800  1.0  0.1236
  H  H105  1  0.647600  0.204800  0.236800  1.0  0.0721
  H  H106  1  0.409700  0.109400  0.123000  1.0  0.0698
  H  H107  1  0.407700  0.235900  0.227400  1.0  0.112
  H  H108  1  0.410500  0.835400  0.070400  1.0  0.0989
  H  H109  1  0.418300  0.700800  0.005200  1.0  0.1057
  H  H110  1  0.464300  0.649600  0.901000  1.0  0.122
  H  H111  1  0.519300  0.743100  0.885600  1.0  0.1025
  H  H112  1  0.595600  0.846100  0.915200  1.0  0.1001
  H  H113  1  0.707300  0.939800  0.930800  1.0  0.1226
  H  H114  1  0.726200  0.018200  0.879000  1.0  0.0712
  H  H115  1  0.502900  0.041500  0.796800  1.0  0.0801
  H  H116  1  0.475900  0.964200  0.845400  1.0  0.1222
  H  H117  1  0.362300  0.906000  0.495000  1.0  0.1166
  H  H118  1  0.315000  0.866600  0.341600  1.0  0.0981
  H  H119  1  0.388800  0.938900  0.318400  1.0  0.118
  H  H120  1  0.513800  0.046600  0.450200  1.0  0.1011
  H  H121  1  0.573400  0.173200  0.582800  1.0  0.0709
  H  H122  1  0.663100  0.308400  0.653200  1.0  0.1242
  H  H123  1  0.795200  0.410800  0.763200  1.0  0.0708
  H  H124  1  0.890600  0.286700  0.877000  1.0  0.07
  H  H125  1  0.764100  0.180300  0.772600  1.0  0.1127
  H  H126  1  0.164600  0.340100  0.929600  1.0  0.101
  H  H127  1  0.299200  0.413100  0.994800  1.0  0.1048
  H  H128  1  0.350400  0.563300  0.099000  1.0  0.1225
  H  H129  1  0.256900  0.633700  0.114400  1.0  0.1019
  H  H130  1  0.153900  0.680400  0.084800  1.0  0.0995
  H  H131  1  0.060200  0.776500  0.069200  1.0  0.1215
  H  H132  1  0.981800  0.847200  0.121000  1.0  0.0718
  H  H133  1  0.958500  0.706100  0.203200  1.0  0.0797
  H  H134  1  0.035800  0.630500  0.154600  1.0  0.12
  H  H135  1  0.132700  0.589000  0.495000  1.0  0.1168
  H  H136  1  0.026600  0.475000  0.341600  1.0  0.0962
  H  H137  1  0.929600  0.379500  0.318400  1.0  0.117
  H  H138  1  0.936400  0.403600  0.450200  1.0  0.1016
  H  H139  1  0.009400  0.409600  0.582800  1.0  0.0708
  H  H140  1  0.990100  0.344800  0.653200  1.0  0.1246
  H  H141  1  0.968000  0.352400  0.763200  1.0  0.0709
  H  H142  1  0.986400  0.590300  0.877000  1.0  0.0699
  H  H143  1  0.008500  0.592300  0.772600  1.0  0.1139
  H  H144  1  0.765000  0.589500  0.929600  1.0  0.0986
  H  H145  1  0.695600  0.581700  0.994800  1.0  0.1064
  H  H146  1  0.748600  0.535700  0.099000  1.0  0.121
  H  H147  1  0.857500  0.480700  0.114400  1.0  0.1022
  H  H148  1  0.930900  0.404400  0.084800  1.0  0.0989
  H  H149  1  0.009000  0.292700  0.069200  1.0  0.1216
  H  H150  1  0.139200  0.273800  0.121000  1.0  0.072
  H  H151  1  0.244700  0.497100  0.203200  1.0  0.0801
  H  H152  1  0.118800  0.524100  0.154600  1.0  0.1219
  C  C153  1  0.815600  0.850100  0.068800  1.0  0.3092
  C  C154  1  0.801400  0.843400  0.987200  1.0  -0.1889
  C  C155  1  0.733200  0.780100  0.895600  1.0  -0.1085
  C  C156  1  0.676900  0.722000  0.881400  1.0  -0.1263
  C  C157  1  0.690900  0.727200  0.959600  1.0  -0.1222
  C  C158  1  0.757200  0.789300  0.052000  1.0  0.1305
  C  C159  1  0.714120  0.769120  0.133240  1.0  0.1642
  C  C160  1  0.719900  0.755200  0.202800  1.0  0.0252
  C  C161  1  0.646400  0.740200  0.199000  1.0  -0.2015
  C  C162  1  0.651400  0.725700  0.264000  1.0  0.1604
  C  C163  1  0.789800  0.736400  0.330200  1.0  0.1682
  C  C164  1  0.791900  0.751100  0.269400  1.0  -0.1726
  C  C165  1  0.784700  0.601300  0.476200  1.0  0.3192
  C  C166  1  0.816000  0.533600  0.466000  1.0  -0.1322
  C  C167  1  0.813400  0.493500  0.506600  1.0  -0.1304
  C  C168  1  0.783600  0.523200  0.566400  1.0  -0.1569
  C  C169  1  0.751900  0.588000  0.575800  1.0  -0.1265
  C  C170  1  0.749800  0.626600  0.530800  1.0  0.0944
  C  C171  1  0.677380  0.718580  0.577960  1.0  0.1196
  C  C172  1  0.662170  0.799070  0.606940  1.0  0.0828
  C  C173  1  0.586200  0.806700  0.597000  1.0  -0.1695
  C  C174  1  0.575700  0.885000  0.628400  1.0  0.172
  C  C175  1  0.705100  0.945900  0.675800  1.0  0.1581
  C  C176  1  0.721800  0.871000  0.647000  1.0  -0.2007
  C  C177  1  0.253200  0.218700  0.068800  1.0  0.3123
  C  C178  1  0.185800  0.143800  0.987200  1.0  -0.1861
  C  C179  1  0.162400  0.115500  0.895600  1.0  -0.1063
  C  C180  1  0.204500  0.159400  0.881400  1.0  -0.1257
  C  C181  1  0.268700  0.232400  0.959600  1.0  -0.1192
  C  C182  1  0.294800  0.262700  0.052000  1.0  0.1305
  C  C183  1  0.419120  0.364120  0.133240  1.0  0.1669
  C  C184  1  0.482900  0.447600  0.202800  1.0  0.0282
  C  C185  1  0.552600  0.458800  0.199000  1.0  -0.2047
  C  C186  1  0.612600  0.538300  0.264000  1.0  0.1603
  C  C187  1  0.540400  0.593800  0.330200  1.0  0.1662
  C  C188  1  0.477500  0.518300  0.269400  1.0  -0.1728
  C  C189  1  0.691500  0.874900  0.476200  1.0  0.3133
  C  C190  1  0.650000  0.932400  0.466000  1.0  -0.1333
  C  C191  1  0.693200  0.013100  0.506600  1.0  -0.133
  C  C192  1  0.782800  0.043200  0.566400  1.0  -0.1555
  C  C193  1  0.823900  0.987800  0.575800  1.0  -0.1278
  C  C194  1  0.781000  0.904200  0.530800  1.0  0.094
  C  C195  1  0.900580  0.859380  0.577960  1.0  0.1191
  C  C196  1  0.944770  0.807870  0.606940  1.0  0.0822
  C  C197  1  0.010800  0.790300  0.597000  1.0  -0.1708
  C  C198  1  0.052700  0.743400  0.628400  1.0  0.1716
  C  C199  1  0.970700  0.729900  0.675800  1.0  0.1587
  C  C200  1  0.925200  0.776000  0.647000  1.0  -0.1973
  C  C201  1  0.149900  0.746800  0.931200  1.0  0.3089
  C  C202  1  0.156600  0.814200  0.012800  1.0  -0.1892
  C  C203  1  0.219900  0.837600  0.104400  1.0  -0.1083
  C  C204  1  0.278000  0.795500  0.118600  1.0  -0.1249
  C  C205  1  0.272800  0.731300  0.040400  1.0  -0.1215
  C  C206  1  0.210700  0.705200  0.948000  1.0  0.1301
  C  C207  1  0.230880  0.580880  0.866760  1.0  0.165
  C  C208  1  0.244800  0.517100  0.797200  1.0  0.0252
  C  C209  1  0.259800  0.447400  0.801000  1.0  -0.1998
  C  C210  1  0.274300  0.387400  0.736000  1.0  0.1574
  C  C211  1  0.263600  0.459600  0.669800  1.0  0.166
  C  C212  1  0.248900  0.522500  0.730600  1.0  -0.1707
  C  C213  1  0.398700  0.308500  0.523800  1.0  0.316
  C  C214  1  0.466400  0.350000  0.534000  1.0  -0.1388
  C  C215  1  0.506500  0.306800  0.493400  1.0  -0.1328
  C  C216  1  0.476800  0.217200  0.433600  1.0  -0.1596
  C  C217  1  0.412000  0.176100  0.424200  1.0  -0.1266
  C  C218  1  0.373400  0.219000  0.469200  1.0  0.0951
  C  C219  1  0.281420  0.099420  0.422040  1.0  0.117
  C  C220  1  0.200930  0.055230  0.393060  1.0  0.0826
  C  C221  1  0.193300  0.989200  0.403000  1.0  -0.1684
  C  C222  1  0.115000  0.947300  0.371600  1.0  0.1729
  C  C223  1  0.054100  0.029300  0.324200  1.0  0.1589
  C  C224  1  0.129000  0.074800  0.353000  1.0  -0.1956
  C  C225  1  0.781300  0.184400  0.931200  1.0  0.312
  C  C226  1  0.856200  0.198600  0.012800  1.0  -0.1884
  C  C227  1  0.884500  0.266800  0.104400  1.0  -0.1085
  C  C228  1  0.840600  0.323100  0.118600  1.0  -0.1244
  C  C229  1  0.767600  0.309100  0.040400  1.0  -0.1196
  C  C230  1  0.737300  0.242800  0.948000  1.0  0.1305
  C  C231  1  0.635880  0.285880  0.866760  1.0  0.1648
  C  C232  1  0.552400  0.280100  0.797200  1.0  0.0259
  C  C233  1  0.541200  0.353600  0.801000  1.0  -0.2031
  C  C234  1  0.461700  0.348600  0.736000  1.0  0.1585
  C  C235  1  0.406200  0.210200  0.669800  1.0  0.1654
  C  C236  1  0.481700  0.208100  0.730600  1.0  -0.173
  C  C237  1  0.125100  0.215300  0.523800  1.0  0.3164
  C  C238  1  0.067600  0.184000  0.534000  1.0  -0.1353
  C  C239  1  0.986900  0.186600  0.493400  1.0  -0.1339
  C  C240  1  0.956800  0.216400  0.433600  1.0  -0.1602
  C  C241  1  0.012200  0.248100  0.424200  1.0  -0.1244
  C  C242  1  0.095800  0.250200  0.469200  1.0  0.0948
  C  C243  1  0.140620  0.322620  0.422040  1.0  0.1187
  C  C244  1  0.192130  0.337830  0.393060  1.0  0.0808
  C  C245  1  0.209700  0.413800  0.403000  1.0  -0.1716
  C  C246  1  0.256600  0.424300  0.371600  1.0  0.1712
  C  C247  1  0.270100  0.294900  0.324200  1.0  0.1585
  C  C248  1  0.224000  0.278200  0.353000  1.0  -0.1995
  C  C249  1  0.996800  0.899900  0.431200  1.0  0.3089
  C  C250  1  0.064200  0.906600  0.512800  1.0  -0.1862
  C  C251  1  0.087600  0.969900  0.604400  1.0  -0.1068
  C  C252  1  0.045500  0.028000  0.618600  1.0  -0.1226
  C  C253  1  0.981300  0.022800  0.540400  1.0  -0.1235
  C  C254  1  0.955200  0.960700  0.448000  1.0  0.1319
  C  C255  1  0.830880  0.980880  0.366760  1.0  0.165
  C  C256  1  0.767100  0.994800  0.297200  1.0  0.0254
  C  C257  1  0.697400  0.009800  0.301000  1.0  -0.2016
  C  C258  1  0.637400  0.024300  0.236000  1.0  0.1571
  C  C259  1  0.709600  0.013600  0.169800  1.0  0.1669
  C  C260  1  0.772500  0.998900  0.230600  1.0  -0.1712
  C  C261  1  0.558500  0.148700  0.023800  1.0  0.3136
  C  C262  1  0.600000  0.216400  0.034000  1.0  -0.137
  C  C263  1  0.556800  0.256500  0.993400  1.0  -0.1321
  C  C264  1  0.467200  0.226800  0.933600  1.0  -0.1593
  C  C265  1  0.426100  0.162000  0.924200  1.0  -0.1265
  C  C266  1  0.469000  0.123400  0.969200  1.0  0.0951
  C  C267  1  0.349420  0.031420  0.922040  1.0  0.1181
  C  C268  1  0.305230  0.950930  0.893060  1.0  0.0815
  C  C269  1  0.239200  0.943300  0.903000  1.0  -0.1685
  C  C270  1  0.197300  0.865000  0.871600  1.0  0.1737
  C  C271  1  0.279300  0.804100  0.824200  1.0  0.1597
  C  C272  1  0.324800  0.879000  0.853000  1.0  -0.1959
  C  C273  1  0.434400  0.531300  0.431200  1.0  0.3117
  C  C274  1  0.448600  0.606200  0.512800  1.0  -0.187
  C  C275  1  0.516800  0.634500  0.604400  1.0  -0.1069
  C  C276  1  0.573100  0.590600  0.618600  1.0  -0.1252
  C  C277  1  0.559100  0.517600  0.540400  1.0  -0.1222
  C  C278  1  0.492800  0.487300  0.448000  1.0  0.13
  C  C279  1  0.535880  0.385880  0.366760  1.0  0.1646
  C  C280  1  0.530100  0.302400  0.297200  1.0  0.0263
  C  C281  1  0.603600  0.291200  0.301000  1.0  -0.2013
  C  C282  1  0.598600  0.211700  0.236000  1.0  0.1611
  C  C283  1  0.460200  0.156200  0.169800  1.0  0.1655
  C  C284  1  0.458100  0.231700  0.230600  1.0  -0.1714
  C  C285  1  0.465300  0.875100  0.023800  1.0  0.3155
  C  C286  1  0.434000  0.817600  0.034000  1.0  -0.1357
  C  C287  1  0.436600  0.736900  0.993400  1.0  -0.131
  C  C288  1  0.466400  0.706800  0.933600  1.0  -0.1577
  C  C289  1  0.498100  0.762200  0.924200  1.0  -0.1258
  C  C290  1  0.500200  0.845800  0.969200  1.0  0.0945
  C  C291  1  0.572620  0.890620  0.922040  1.0  0.1185
  C  C292  1  0.587830  0.942130  0.893060  1.0  0.0824
  C  C293  1  0.663800  0.959700  0.903000  1.0  -0.1688
  C  C294  1  0.674300  0.006600  0.871600  1.0  0.173
  C  C295  1  0.544900  0.020100  0.824200  1.0  0.1582
  C  C296  1  0.528200  0.974000  0.853000  1.0  -0.1989
  C  C297  1  0.468700  0.003200  0.568800  1.0  0.3117
  C  C298  1  0.393800  0.935800  0.487200  1.0  -0.1878
  C  C299  1  0.365500  0.912400  0.395600  1.0  -0.1059
  C  C300  1  0.409400  0.954500  0.381400  1.0  -0.1262
  C  C301  1  0.482400  0.018700  0.459600  1.0  -0.1193
  C  C302  1  0.512700  0.044800  0.552000  1.0  0.1298
  C  C303  1  0.614120  0.169120  0.633240  1.0  0.1667
  C  C304  1  0.697600  0.232900  0.702800  1.0  0.025
  C  C305  1  0.708800  0.302600  0.699000  1.0  -0.2024
  C  C306  1  0.788300  0.362600  0.764000  1.0  0.1611
  C  C307  1  0.843800  0.290400  0.830200  1.0  0.1652
  C  C308  1  0.768300  0.227500  0.769400  1.0  -0.1721
  C  C309  1  0.124900  0.441500  0.976200  1.0  0.3133
  C  C310  1  0.182400  0.400000  0.966000  1.0  -0.1384
  C  C311  1  0.263100  0.443200  0.006600  1.0  -0.1315
  C  C312  1  0.293200  0.532800  0.066400  1.0  -0.1602
  C  C313  1  0.237800  0.573900  0.075800  1.0  -0.1265
  C  C314  1  0.154200  0.531000  0.030800  1.0  0.0947
  C  C315  1  0.109380  0.650580  0.077960  1.0  0.1184
  C  C316  1  0.057870  0.694770  0.106940  1.0  0.081
  C  C317  1  0.040300  0.760800  0.097000  1.0  -0.1699
  C  C318  1  0.993400  0.802700  0.128400  1.0  0.1726
  C  C319  1  0.979900  0.720700  0.175800  1.0  0.1577
  C  C320  1  0.026000  0.675200  0.147000  1.0  -0.1982
  C  C321  1  0.100100  0.565600  0.568800  1.0  0.3089
  C  C322  1  0.093400  0.551400  0.487200  1.0  -0.1919
  C  C323  1  0.030100  0.483200  0.395600  1.0  -0.1086
  C  C324  1  0.972000  0.426900  0.381400  1.0  -0.1271
  C  C325  1  0.977200  0.440900  0.459600  1.0  -0.1186
  C  C326  1  0.039300  0.507200  0.552000  1.0  0.1299
  C  C327  1  0.019120  0.464120  0.633240  1.0  0.1637
  C  C328  1  0.005200  0.469900  0.702800  1.0  0.0252
  C  C329  1  0.990200  0.396400  0.699000  1.0  -0.2057
  C  C330  1  0.975700  0.401400  0.764000  1.0  0.1593
  C  C331  1  0.986400  0.539800  0.830200  1.0  0.1695
  C  C332  1  0.001100  0.541900  0.769400  1.0  -0.1721
  C  C333  1  0.851300  0.534700  0.976200  1.0  0.3187
  C  C334  1  0.783600  0.566000  0.966000  1.0  -0.1319
  C  C335  1  0.743500  0.563400  0.006600  1.0  -0.1354
  C  C336  1  0.773200  0.533600  0.066400  1.0  -0.1601
  C  C337  1  0.838000  0.501900  0.075800  1.0  -0.126
  C  C338  1  0.876600  0.499800  0.030800  1.0  0.0949
  C  C339  1  0.968580  0.427380  0.077960  1.0  0.1189
  C  C340  1  0.049070  0.412170  0.106940  1.0  0.0838
  C  C341  1  0.056700  0.336200  0.097000  1.0  -0.1733
  C  C342  1  0.135000  0.325700  0.128400  1.0  0.1695
  C  C343  1  0.195900  0.455100  0.175800  1.0  0.1578
  C  C344  1  0.121000  0.471800  0.147000  1.0  -0.2006
  N  N345  1  0.777390  0.793590  0.134980  1.0  -0.4084
  N  N346  1  0.720160  0.721860  0.327320  1.0  -0.3287
  N  N347  1  0.721980  0.697480  0.542760  1.0  -0.3624
  N  N348  1  0.632840  0.954140  0.667680  1.0  -0.3075
  N  N349  1  0.357590  0.341390  0.134980  1.0  -0.4118
  N  N350  1  0.607160  0.605460  0.327320  1.0  -0.3279
  N  N351  1  0.820780  0.845280  0.542760  1.0  -0.3616
  N  N352  1  0.034840  0.713540  0.667680  1.0  -0.307
  N  N353  1  0.206410  0.642410  0.865020  1.0  -0.4133
  N  N354  1  0.278140  0.392840  0.672680  1.0  -0.3224
  N  N355  1  0.302520  0.179220  0.457240  1.0  -0.3617
  N  N356  1  0.045860  0.965160  0.332320  1.0  -0.3105
  N  N357  1  0.658610  0.222610  0.865020  1.0  -0.4133
  N  N358  1  0.394540  0.279840  0.672680  1.0  -0.3255
  N  N359  1  0.154720  0.278020  0.457240  1.0  -0.3609
  N  N360  1  0.286460  0.367160  0.332320  1.0  -0.3097
  N  N361  1  0.892410  0.956410  0.365020  1.0  -0.4133
  N  N362  1  0.642840  0.028140  0.172680  1.0  -0.3255
  N  N363  1  0.429220  0.052520  0.957240  1.0  -0.3612
  N  N364  1  0.215160  0.795860  0.832320  1.0  -0.31
  N  N365  1  0.472610  0.408610  0.365020  1.0  -0.4104
  N  N366  1  0.529840  0.144540  0.172680  1.0  -0.3244
  N  N367  1  0.528020  0.904720  0.957240  1.0  -0.3612
  N  N368  1  0.617160  0.036460  0.832320  1.0  -0.3102
  N  N369  1  0.591390  0.107590  0.634980  1.0  -0.4116
  N  N370  1  0.855460  0.357160  0.827320  1.0  -0.3266
  N  N371  1  0.095280  0.570780  0.042760  1.0  -0.361
  N  N372  1  0.963540  0.784840  0.167680  1.0  -0.3093
  N  N373  1  0.043590  0.527390  0.634980  1.0  -0.4122
  N  N374  1  0.971860  0.470160  0.827320  1.0  -0.3252
  N  N375  1  0.947480  0.471980  0.042760  1.0  -0.3617
  N  N376  1  0.204140  0.382840  0.167680  1.0  -0.3055
  O  O377  1  0.879140  0.909840  0.157160  1.0  -0.5602
  O  O378  1  0.787770  0.640620  0.438640  1.0  -0.5697
  O  O379  1  0.278020  0.247320  0.157160  1.0  -0.5661
  O  O380  1  0.650870  0.798020  0.438640  1.0  -0.566
  O  O381  1  0.090160  0.721980  0.842840  1.0  -0.561
  O  O382  1  0.359380  0.349130  0.561360  1.0  -0.5695
  O  O383  1  0.752680  0.120860  0.842840  1.0  -0.5623
  O  O384  1  0.201980  0.212230  0.561360  1.0  -0.5661
  O  O385  1  0.971980  0.840160  0.342840  1.0  -0.5629
  O  O386  1  0.599130  0.109380  0.061360  1.0  -0.5656
  O  O387  1  0.370860  0.502680  0.342840  1.0  -0.5619
  O  O388  1  0.462230  0.951980  0.061360  1.0  -0.5676
  O  O389  1  0.497320  0.028020  0.657160  1.0  -0.5639
  O  O390  1  0.048020  0.400870  0.938640  1.0  -0.5668
  O  O391  1  0.159840  0.629140  0.657160  1.0  -0.5593
  O  O392  1  0.890620  0.537770  0.938640  1.0  -0.5702
