# generated using pymatgen
data_GdH3C7NO4
_symmetry_space_group_name_H-M   'P 1'
_cell_length_a   19.78220000
_cell_length_b   19.78220000
_cell_length_c   19.78220000
_cell_angle_alpha   90.00000000
_cell_angle_beta   90.00000000
_cell_angle_gamma   90.00000000
_symmetry_Int_Tables_number   1
_chemical_formula_structural   GdH3C7NO4
_chemical_formula_sum   'Gd24 H72 C168 N24 O96'
_cell_volume   7741.47587866
_cell_formula_units_Z   24
loop_
 _symmetry_equiv_pos_site_id
 _symmetry_equiv_pos_as_xyz
  1  'x, y, z'
loop_
 _atom_site_type_symbol
 _atom_site_label
 _atom_site_symmetry_multiplicity
 _atom_site_fract_x
 _atom_site_fract_y
 _atom_site_fract_z
 _atom_site_occupancy
 _atom_site_charge
  Gd  Gd1  1  0.753690  0.846130  0.508830  1.0  1.9418
  Gd  Gd2  1  0.746310  0.153870  0.008830  1.0  1.942
  Gd  Gd3  1  0.246310  0.346130  0.991170  1.0  1.9422
  Gd  Gd4  1  0.253690  0.653870  0.491170  1.0  1.9426
  Gd  Gd5  1  0.508830  0.753690  0.846130  1.0  1.9416
  Gd  Gd6  1  0.008830  0.746310  0.153870  1.0  1.9406
  Gd  Gd7  1  0.991170  0.246310  0.346130  1.0  1.9411
  Gd  Gd8  1  0.491170  0.253690  0.653870  1.0  1.9408
  Gd  Gd9  1  0.846130  0.508830  0.753690  1.0  1.9409
  Gd  Gd10  1  0.153870  0.008830  0.746310  1.0  1.9422
  Gd  Gd11  1  0.346130  0.991170  0.246310  1.0  1.941
  Gd  Gd12  1  0.653870  0.491170  0.253690  1.0  1.9423
  Gd  Gd13  1  0.246310  0.153870  0.491170  1.0  1.9425
  Gd  Gd14  1  0.253690  0.846130  0.991170  1.0  1.9424
  Gd  Gd15  1  0.753690  0.653870  0.008830  1.0  1.9421
  Gd  Gd16  1  0.746310  0.346130  0.508830  1.0  1.9416
  Gd  Gd17  1  0.491170  0.246310  0.153870  1.0  1.9405
  Gd  Gd18  1  0.991170  0.253690  0.846130  1.0  1.9415
  Gd  Gd19  1  0.008830  0.753690  0.653870  1.0  1.9409
  Gd  Gd20  1  0.508830  0.746310  0.346130  1.0  1.9412
  Gd  Gd21  1  0.153870  0.491170  0.246310  1.0  1.9423
  Gd  Gd22  1  0.846130  0.991170  0.253690  1.0  1.941
  Gd  Gd23  1  0.653870  0.008830  0.753690  1.0  1.9422
  Gd  Gd24  1  0.346130  0.508830  0.746310  1.0  1.9408
  H  H25  1  0.673800  0.590400  0.450100  1.0  0.1045
  H  H26  1  0.852500  0.593500  0.545600  1.0  0.1037
  H  H27  1  0.765400  0.533300  0.497200  1.0  0.0808
  H  H28  1  0.826200  0.409600  0.950100  1.0  0.1049
  H  H29  1  0.647500  0.406500  0.045600  1.0  0.1038
  H  H30  1  0.734600  0.466700  0.997200  1.0  0.0797
  H  H31  1  0.326200  0.090400  0.049900  1.0  0.1044
  H  H32  1  0.147500  0.093500  0.954400  1.0  0.1039
  H  H33  1  0.234600  0.033300  0.002800  1.0  0.0804
  H  H34  1  0.173800  0.909600  0.549900  1.0  0.1045
  H  H35  1  0.352500  0.906500  0.454400  1.0  0.104
  H  H36  1  0.265400  0.966700  0.502800  1.0  0.0798
  H  H37  1  0.450100  0.673800  0.590400  1.0  0.1047
  H  H38  1  0.545600  0.852500  0.593500  1.0  0.1047
  H  H39  1  0.497200  0.765400  0.533300  1.0  0.081
  H  H40  1  0.950100  0.826200  0.409600  1.0  0.1048
  H  H41  1  0.045600  0.647500  0.406500  1.0  0.1041
  H  H42  1  0.997200  0.734600  0.466700  1.0  0.0814
  H  H43  1  0.049900  0.326200  0.090400  1.0  0.1052
  H  H44  1  0.954400  0.147500  0.093500  1.0  0.1041
  H  H45  1  0.002800  0.234600  0.033300  1.0  0.081
  H  H46  1  0.549900  0.173800  0.909600  1.0  0.1048
  H  H47  1  0.454400  0.352500  0.906500  1.0  0.1046
  H  H48  1  0.502800  0.265400  0.966700  1.0  0.0813
  H  H49  1  0.590400  0.450100  0.673800  1.0  0.1054
  H  H50  1  0.593500  0.545600  0.852500  1.0  0.1055
  H  H51  1  0.533300  0.497200  0.765400  1.0  0.081
  H  H52  1  0.409600  0.950100  0.826200  1.0  0.1056
  H  H53  1  0.406500  0.045600  0.647500  1.0  0.1049
  H  H54  1  0.466700  0.997200  0.734600  1.0  0.0812
  H  H55  1  0.090400  0.049900  0.326200  1.0  0.1059
  H  H56  1  0.093500  0.954400  0.147500  1.0  0.1051
  H  H57  1  0.033300  0.002800  0.234600  1.0  0.0808
  H  H58  1  0.909600  0.549900  0.173800  1.0  0.1055
  H  H59  1  0.906500  0.454400  0.352500  1.0  0.1055
  H  H60  1  0.966700  0.502800  0.265400  1.0  0.0809
  H  H61  1  0.326200  0.409600  0.549900  1.0  0.1044
  H  H62  1  0.147500  0.406500  0.454400  1.0  0.104
  H  H63  1  0.234600  0.466700  0.502800  1.0  0.0797
  H  H64  1  0.173800  0.590400  0.049900  1.0  0.1046
  H  H65  1  0.352500  0.593500  0.954400  1.0  0.1038
  H  H66  1  0.265400  0.533300  0.002800  1.0  0.0807
  H  H67  1  0.673800  0.909600  0.950100  1.0  0.1047
  H  H68  1  0.852500  0.906500  0.045600  1.0  0.1036
  H  H69  1  0.765400  0.966700  0.997200  1.0  0.0799
  H  H70  1  0.826200  0.090400  0.450100  1.0  0.1046
  H  H71  1  0.647500  0.093500  0.545600  1.0  0.104
  H  H72  1  0.734600  0.033300  0.497200  1.0  0.0806
  H  H73  1  0.549900  0.326200  0.409600  1.0  0.1049
  H  H74  1  0.454400  0.147500  0.406500  1.0  0.1043
  H  H75  1  0.502800  0.234600  0.466700  1.0  0.0814
  H  H76  1  0.049900  0.173800  0.590400  1.0  0.1048
  H  H77  1  0.954400  0.352500  0.593500  1.0  0.1046
  H  H78  1  0.002800  0.265400  0.533300  1.0  0.0811
  H  H79  1  0.950100  0.673800  0.909600  1.0  0.1049
  H  H80  1  0.045600  0.852500  0.906500  1.0  0.1045
  H  H81  1  0.997200  0.765400  0.966700  1.0  0.0812
  H  H82  1  0.450100  0.826200  0.090400  1.0  0.1051
  H  H83  1  0.545600  0.647500  0.093500  1.0  0.1042
  H  H84  1  0.497200  0.734600  0.033300  1.0  0.081
  H  H85  1  0.409600  0.549900  0.326200  1.0  0.1056
  H  H86  1  0.406500  0.454400  0.147500  1.0  0.1052
  H  H87  1  0.466700  0.502800  0.234600  1.0  0.0811
  H  H88  1  0.590400  0.049900  0.173800  1.0  0.1055
  H  H89  1  0.593500  0.954400  0.352500  1.0  0.1058
  H  H90  1  0.533300  0.002800  0.265400  1.0  0.0807
  H  H91  1  0.909600  0.950100  0.673800  1.0  0.1056
  H  H92  1  0.906500  0.045600  0.852500  1.0  0.1052
  H  H93  1  0.966700  0.997200  0.765400  1.0  0.0811
  H  H94  1  0.090400  0.450100  0.826200  1.0  0.1059
  H  H95  1  0.093500  0.545600  0.647500  1.0  0.1048
  H  H96  1  0.033300  0.497200  0.734600  1.0  0.0811
  C  C97  1  0.865800  0.731000  0.555500  1.0  0.6666
  C  C98  1  0.654100  0.728000  0.445300  1.0  0.6759
  C  C99  1  0.709200  0.683700  0.472600  1.0  0.0857
  C  C100  1  0.812600  0.685600  0.526200  1.0  0.1064
  C  C101  1  0.709300  0.614000  0.470000  1.0  -0.132
  C  C102  1  0.815800  0.615800  0.526400  1.0  -0.1559
  C  C103  1  0.764000  0.580300  0.497900  1.0  -0.1133
  C  C104  1  0.634200  0.269000  0.055500  1.0  0.6655
  C  C105  1  0.845900  0.272000  0.945300  1.0  0.6756
  C  C106  1  0.790800  0.316300  0.972600  1.0  0.0863
  C  C107  1  0.687400  0.314400  0.026200  1.0  0.1072
  C  C108  1  0.790700  0.386000  0.970000  1.0  -0.1325
  C  C109  1  0.684200  0.384200  0.026400  1.0  -0.155
  C  C110  1  0.736000  0.419700  0.997900  1.0  -0.1127
  C  C111  1  0.134200  0.231000  0.944500  1.0  0.6658
  C  C112  1  0.345900  0.228000  0.054700  1.0  0.6758
  C  C113  1  0.290800  0.183700  0.027400  1.0  0.0858
  C  C114  1  0.187400  0.185600  0.973800  1.0  0.1078
  C  C115  1  0.290700  0.114000  0.030000  1.0  -0.1327
  C  C116  1  0.184200  0.115800  0.973600  1.0  -0.1557
  C  C117  1  0.236000  0.080300  0.002100  1.0  -0.1131
  C  C118  1  0.365800  0.769000  0.444500  1.0  0.6662
  C  C119  1  0.154100  0.772000  0.554700  1.0  0.6755
  C  C120  1  0.209200  0.816300  0.527400  1.0  0.0862
  C  C121  1  0.312600  0.814400  0.473800  1.0  0.1074
  C  C122  1  0.209300  0.886000  0.530000  1.0  -0.132
  C  C123  1  0.315800  0.884200  0.473600  1.0  -0.1549
  C  C124  1  0.264000  0.919700  0.502100  1.0  -0.1131
  C  C125  1  0.555500  0.865800  0.731000  1.0  0.6667
  C  C126  1  0.445300  0.654100  0.728000  1.0  0.6787
  C  C127  1  0.472600  0.709200  0.683700  1.0  0.0869
  C  C128  1  0.526200  0.812600  0.685600  1.0  0.1105
  C  C129  1  0.470000  0.709300  0.614000  1.0  -0.1333
  C  C130  1  0.526400  0.815800  0.615800  1.0  -0.1548
  C  C131  1  0.497900  0.764000  0.580300  1.0  -0.1143
  C  C132  1  0.055500  0.634200  0.269000  1.0  0.6666
  C  C133  1  0.945300  0.845900  0.272000  1.0  0.6777
  C  C134  1  0.972600  0.790800  0.316300  1.0  0.0874
  C  C135  1  0.026200  0.687400  0.314400  1.0  0.1101
  C  C136  1  0.970000  0.790700  0.386000  1.0  -0.133
  C  C137  1  0.026400  0.684200  0.384200  1.0  -0.1549
  C  C138  1  0.997900  0.736000  0.419700  1.0  -0.1122
  C  C139  1  0.944500  0.134200  0.231000  1.0  0.6669
  C  C140  1  0.054700  0.345900  0.228000  1.0  0.6781
  C  C141  1  0.027400  0.290800  0.183700  1.0  0.0864
  C  C142  1  0.973800  0.187400  0.185600  1.0  0.1104
  C  C143  1  0.030000  0.290700  0.114000  1.0  -0.1327
  C  C144  1  0.973600  0.184200  0.115800  1.0  -0.1543
  C  C145  1  0.002100  0.236000  0.080300  1.0  -0.114
  C  C146  1  0.444500  0.365800  0.769000  1.0  0.6666
  C  C147  1  0.554700  0.154100  0.772000  1.0  0.6775
  C  C148  1  0.527400  0.209200  0.816300  1.0  0.0866
  C  C149  1  0.473800  0.312600  0.814400  1.0  0.1093
  C  C150  1  0.530000  0.209300  0.886000  1.0  -0.1331
  C  C151  1  0.473600  0.315800  0.884200  1.0  -0.1553
  C  C152  1  0.502100  0.264000  0.919700  1.0  -0.1127
  C  C153  1  0.731000  0.555500  0.865800  1.0  0.667
  C  C154  1  0.728000  0.445300  0.654100  1.0  0.6769
  C  C155  1  0.683700  0.472600  0.709200  1.0  0.0863
  C  C156  1  0.685600  0.526200  0.812600  1.0  0.1079
  C  C157  1  0.614000  0.470000  0.709300  1.0  -0.1334
  C  C158  1  0.615800  0.526400  0.815800  1.0  -0.1576
  C  C159  1  0.580300  0.497900  0.764000  1.0  -0.1197
  C  C160  1  0.269000  0.055500  0.634200  1.0  0.6668
  C  C161  1  0.272000  0.945300  0.845900  1.0  0.6786
  C  C162  1  0.316300  0.972600  0.790800  1.0  0.0858
  C  C163  1  0.314400  0.026200  0.687400  1.0  0.1076
  C  C164  1  0.386000  0.970000  0.790700  1.0  -0.1354
  C  C165  1  0.384200  0.026400  0.684200  1.0  -0.156
  C  C166  1  0.419700  0.997900  0.736000  1.0  -0.1169
  C  C167  1  0.231000  0.944500  0.134200  1.0  0.665
  C  C168  1  0.228000  0.054700  0.345900  1.0  0.678
  C  C169  1  0.183700  0.027400  0.290800  1.0  0.0853
  C  C170  1  0.185600  0.973800  0.187400  1.0  0.108
  C  C171  1  0.114000  0.030000  0.290700  1.0  -0.1354
  C  C172  1  0.115800  0.973600  0.184200  1.0  -0.1561
  C  C173  1  0.080300  0.002100  0.236000  1.0  -0.1201
  C  C174  1  0.769000  0.444500  0.365800  1.0  0.6666
  C  C175  1  0.772000  0.554700  0.154100  1.0  0.678
  C  C176  1  0.816300  0.527400  0.209200  1.0  0.0871
  C  C177  1  0.814400  0.473800  0.312600  1.0  0.1083
  C  C178  1  0.886000  0.530000  0.209300  1.0  -0.1358
  C  C179  1  0.884200  0.473600  0.315800  1.0  -0.1563
  C  C180  1  0.919700  0.502100  0.264000  1.0  -0.1168
  C  C181  1  0.134200  0.269000  0.444500  1.0  0.6656
  C  C182  1  0.345900  0.272000  0.554700  1.0  0.6762
  C  C183  1  0.290800  0.316300  0.527400  1.0  0.0866
  C  C184  1  0.187400  0.314400  0.473800  1.0  0.1078
  C  C185  1  0.290700  0.386000  0.530000  1.0  -0.1328
  C  C186  1  0.184200  0.384200  0.473600  1.0  -0.1551
  C  C187  1  0.236000  0.419700  0.502100  1.0  -0.1128
  C  C188  1  0.365800  0.731000  0.944500  1.0  0.6668
  C  C189  1  0.154100  0.728000  0.054700  1.0  0.6751
  C  C190  1  0.209200  0.683700  0.027400  1.0  0.0859
  C  C191  1  0.312600  0.685600  0.973800  1.0  0.1072
  C  C192  1  0.209300  0.614000  0.030000  1.0  -0.1317
  C  C193  1  0.315800  0.615800  0.973600  1.0  -0.1559
  C  C194  1  0.264000  0.580300  0.002100  1.0  -0.1133
  C  C195  1  0.865800  0.769000  0.055500  1.0  0.6667
  C  C196  1  0.654100  0.772000  0.945300  1.0  0.6753
  C  C197  1  0.709200  0.816300  0.972600  1.0  0.0859
  C  C198  1  0.812600  0.814400  0.026200  1.0  0.1068
  C  C199  1  0.709300  0.886000  0.970000  1.0  -0.1321
  C  C200  1  0.815800  0.884200  0.026400  1.0  -0.1551
  C  C201  1  0.764000  0.919700  0.997900  1.0  -0.113
  C  C202  1  0.634200  0.231000  0.555500  1.0  0.6651
  C  C203  1  0.845900  0.228000  0.445300  1.0  0.6761
  C  C204  1  0.790800  0.183700  0.472600  1.0  0.0857
  C  C205  1  0.687400  0.185600  0.526200  1.0  0.1071
  C  C206  1  0.790700  0.114000  0.470000  1.0  -0.1328
  C  C207  1  0.684200  0.115800  0.526400  1.0  -0.1553
  C  C208  1  0.736000  0.080300  0.497900  1.0  -0.1131
  C  C209  1  0.444500  0.134200  0.269000  1.0  0.6665
  C  C210  1  0.554700  0.345900  0.272000  1.0  0.6775
  C  C211  1  0.527400  0.290800  0.316300  1.0  0.0869
  C  C212  1  0.473800  0.187400  0.314400  1.0  0.1089
  C  C213  1  0.530000  0.290700  0.386000  1.0  -0.1325
  C  C214  1  0.473600  0.184200  0.384200  1.0  -0.1546
  C  C215  1  0.502100  0.236000  0.419700  1.0  -0.1123
  C  C216  1  0.944500  0.365800  0.731000  1.0  0.6661
  C  C217  1  0.054700  0.154100  0.728000  1.0  0.6792
  C  C218  1  0.027400  0.209200  0.683700  1.0  0.0867
  C  C219  1  0.973800  0.312600  0.685600  1.0  0.1102
  C  C220  1  0.030000  0.209300  0.614000  1.0  -0.1337
  C  C221  1  0.973600  0.315800  0.615800  1.0  -0.1547
  C  C222  1  0.002100  0.264000  0.580300  1.0  -0.1146
  C  C223  1  0.055500  0.865800  0.769000  1.0  0.6667
  C  C224  1  0.945300  0.654100  0.772000  1.0  0.6778
  C  C225  1  0.972600  0.709200  0.816300  1.0  0.0868
  C  C226  1  0.026200  0.812600  0.814400  1.0  0.1098
  C  C227  1  0.970000  0.709300  0.886000  1.0  -0.1331
  C  C228  1  0.026400  0.815800  0.884200  1.0  -0.1551
  C  C229  1  0.997900  0.764000  0.919700  1.0  -0.1125
  C  C230  1  0.555500  0.634200  0.231000  1.0  0.6676
  C  C231  1  0.445300  0.845900  0.228000  1.0  0.6775
  C  C232  1  0.472600  0.790800  0.183700  1.0  0.0868
  C  C233  1  0.526200  0.687400  0.185600  1.0  0.1113
  C  C234  1  0.470000  0.790700  0.114000  1.0  -0.1329
  C  C235  1  0.526400  0.684200  0.115800  1.0  -0.1546
  C  C236  1  0.497900  0.736000  0.080300  1.0  -0.1137
  C  C237  1  0.269000  0.444500  0.134200  1.0  0.6658
  C  C238  1  0.272000  0.554700  0.345900  1.0  0.6779
  C  C239  1  0.316300  0.527400  0.290800  1.0  0.0858
  C  C240  1  0.314400  0.473800  0.187400  1.0  0.1076
  C  C241  1  0.386000  0.530000  0.290700  1.0  -0.1359
  C  C242  1  0.384200  0.473600  0.184200  1.0  -0.1563
  C  C243  1  0.419700  0.502100  0.236000  1.0  -0.117
  C  C244  1  0.731000  0.944500  0.365800  1.0  0.6667
  C  C245  1  0.728000  0.054700  0.154100  1.0  0.6775
  C  C246  1  0.683700  0.027400  0.209200  1.0  0.0865
  C  C247  1  0.685600  0.973800  0.312600  1.0  0.1085
  C  C248  1  0.614000  0.030000  0.209300  1.0  -0.1342
  C  C249  1  0.615800  0.973600  0.315800  1.0  -0.1568
  C  C250  1  0.580300  0.002100  0.264000  1.0  -0.12
  C  C251  1  0.769000  0.055500  0.865800  1.0  0.6665
  C  C252  1  0.772000  0.945300  0.654100  1.0  0.6773
  C  C253  1  0.816300  0.972600  0.709200  1.0  0.0867
  C  C254  1  0.814400  0.026200  0.812600  1.0  0.108
  C  C255  1  0.886000  0.970000  0.709300  1.0  -0.1352
  C  C256  1  0.884200  0.026400  0.815800  1.0  -0.1567
  C  C257  1  0.919700  0.997900  0.764000  1.0  -0.1167
  C  C258  1  0.231000  0.555500  0.634200  1.0  0.6665
  C  C259  1  0.228000  0.445300  0.845900  1.0  0.6785
  C  C260  1  0.183700  0.472600  0.790800  1.0  0.0855
  C  C261  1  0.185600  0.526200  0.687400  1.0  0.1077
  C  C262  1  0.114000  0.470000  0.790700  1.0  -0.1349
  C  C263  1  0.115800  0.526400  0.684200  1.0  -0.1559
  C  C264  1  0.080300  0.497900  0.736000  1.0  -0.1198
  N  N265  1  0.759810  0.718940  0.500690  1.0  -0.4936
  N  N266  1  0.740190  0.281060  0.000690  1.0  -0.4917
  N  N267  1  0.240190  0.218940  0.999310  1.0  -0.4929
  N  N268  1  0.259810  0.781060  0.499310  1.0  -0.4915
  N  N269  1  0.500690  0.759810  0.718940  1.0  -0.4987
  N  N270  1  0.000690  0.740190  0.281060  1.0  -0.497
  N  N271  1  0.999310  0.240190  0.218940  1.0  -0.499
  N  N272  1  0.499310  0.259810  0.781060  1.0  -0.4973
  N  N273  1  0.718940  0.500690  0.759810  1.0  -0.4928
  N  N274  1  0.281060  0.000690  0.740190  1.0  -0.4936
  N  N275  1  0.218940  0.999310  0.240190  1.0  -0.4929
  N  N276  1  0.781060  0.499310  0.259810  1.0  -0.4936
  N  N277  1  0.240190  0.281060  0.499310  1.0  -0.4915
  N  N278  1  0.259810  0.718940  0.999310  1.0  -0.4935
  N  N279  1  0.759810  0.781060  0.000690  1.0  -0.4917
  N  N280  1  0.740190  0.218940  0.500690  1.0  -0.493
  N  N281  1  0.499310  0.240190  0.281060  1.0  -0.4974
  N  N282  1  0.999310  0.259810  0.718940  1.0  -0.4993
  N  N283  1  0.000690  0.759810  0.781060  1.0  -0.4969
  N  N284  1  0.500690  0.740190  0.218940  1.0  -0.4984
  N  N285  1  0.281060  0.499310  0.240190  1.0  -0.4935
  N  N286  1  0.718940  0.999310  0.259810  1.0  -0.4928
  N  N287  1  0.781060  0.000690  0.759810  1.0  -0.4936
  N  N288  1  0.218940  0.500690  0.740190  1.0  -0.4929
  O  O289  1  0.854270  0.794310  0.550460  1.0  -0.7045
  O  O290  1  0.658850  0.790110  0.460020  1.0  -0.6946
  O  O291  1  0.916620  0.706010  0.582500  1.0  -0.704
  O  O292  1  0.609160  0.703100  0.409270  1.0  -0.7656
  O  O293  1  0.645730  0.205690  0.050460  1.0  -0.7037
  O  O294  1  0.841150  0.209890  0.960020  1.0  -0.6944
  O  O295  1  0.583380  0.293990  0.082500  1.0  -0.7054
  O  O296  1  0.890840  0.296900  0.909270  1.0  -0.7661
  O  O297  1  0.145730  0.294310  0.949540  1.0  -0.7042
  O  O298  1  0.341150  0.290110  0.039980  1.0  -0.6941
  O  O299  1  0.083380  0.206010  0.917500  1.0  -0.7063
  O  O300  1  0.390840  0.203100  0.090730  1.0  -0.7664
  O  O301  1  0.354270  0.705690  0.449540  1.0  -0.7039
  O  O302  1  0.158850  0.709890  0.539980  1.0  -0.6939
  O  O303  1  0.416620  0.793990  0.417500  1.0  -0.7043
  O  O304  1  0.109160  0.796900  0.590730  1.0  -0.7656
  O  O305  1  0.550460  0.854270  0.794310  1.0  -0.7076
  O  O306  1  0.460020  0.658850  0.790110  1.0  -0.6976
  O  O307  1  0.582500  0.916620  0.706010  1.0  -0.7018
  O  O308  1  0.409270  0.609160  0.703100  1.0  -0.766
  O  O309  1  0.050460  0.645730  0.205690  1.0  -0.711
  O  O310  1  0.960020  0.841150  0.209890  1.0  -0.6954
  O  O311  1  0.082500  0.583380  0.293990  1.0  -0.7019
  O  O312  1  0.909270  0.890840  0.296900  1.0  -0.7654
  O  O313  1  0.949540  0.145730  0.294310  1.0  -0.7078
  O  O314  1  0.039980  0.341150  0.290110  1.0  -0.6978
  O  O315  1  0.917500  0.083380  0.206010  1.0  -0.7028
  O  O316  1  0.090730  0.390840  0.203100  1.0  -0.7658
  O  O317  1  0.449540  0.354270  0.705690  1.0  -0.7108
  O  O318  1  0.539980  0.158850  0.709890  1.0  -0.6958
  O  O319  1  0.417500  0.416620  0.793990  1.0  -0.7027
  O  O320  1  0.590730  0.109160  0.796900  1.0  -0.7654
  O  O321  1  0.794310  0.550460  0.854270  1.0  -0.7072
  O  O322  1  0.790110  0.460020  0.658850  1.0  -0.6927
  O  O323  1  0.706010  0.582500  0.916620  1.0  -0.703
  O  O324  1  0.703100  0.409270  0.609160  1.0  -0.7673
  O  O325  1  0.205690  0.050460  0.645730  1.0  -0.7077
  O  O326  1  0.209890  0.960020  0.841150  1.0  -0.6952
  O  O327  1  0.293990  0.082500  0.583380  1.0  -0.7034
  O  O328  1  0.296900  0.909270  0.890840  1.0  -0.7662
  O  O329  1  0.294310  0.949540  0.145730  1.0  -0.7067
  O  O330  1  0.290110  0.039980  0.341150  1.0  -0.6932
  O  O331  1  0.206010  0.917500  0.083380  1.0  -0.7037
  O  O332  1  0.203100  0.090730  0.390840  1.0  -0.7659
  O  O333  1  0.705690  0.449540  0.354270  1.0  -0.7076
  O  O334  1  0.709890  0.539980  0.158850  1.0  -0.6951
  O  O335  1  0.793990  0.417500  0.416620  1.0  -0.7027
  O  O336  1  0.796900  0.590730  0.109160  1.0  -0.7682
  O  O337  1  0.145730  0.205690  0.449540  1.0  -0.7035
  O  O338  1  0.341150  0.209890  0.539980  1.0  -0.6943
  O  O339  1  0.083380  0.293990  0.417500  1.0  -0.7061
  O  O340  1  0.390840  0.296900  0.590730  1.0  -0.7668
  O  O341  1  0.354270  0.794310  0.949540  1.0  -0.7042
  O  O342  1  0.158850  0.790110  0.039980  1.0  -0.6943
  O  O343  1  0.416620  0.706010  0.917500  1.0  -0.7053
  O  O344  1  0.109160  0.703100  0.090730  1.0  -0.7654
  O  O345  1  0.854270  0.705690  0.050460  1.0  -0.7045
  O  O346  1  0.658850  0.709890  0.960020  1.0  -0.694
  O  O347  1  0.916620  0.793990  0.082500  1.0  -0.704
  O  O348  1  0.609160  0.796900  0.909270  1.0  -0.7652
  O  O349  1  0.645730  0.294310  0.550460  1.0  -0.7047
  O  O350  1  0.841150  0.290110  0.460020  1.0  -0.6944
  O  O351  1  0.583380  0.206010  0.582500  1.0  -0.7059
  O  O352  1  0.890840  0.203100  0.409270  1.0  -0.7664
  O  O353  1  0.449540  0.145730  0.205690  1.0  -0.7109
  O  O354  1  0.539980  0.341150  0.209890  1.0  -0.6961
  O  O355  1  0.417500  0.083380  0.293990  1.0  -0.7031
  O  O356  1  0.590730  0.390840  0.296900  1.0  -0.7652
  O  O357  1  0.949540  0.354270  0.794310  1.0  -0.7072
  O  O358  1  0.039980  0.158850  0.790110  1.0  -0.6975
  O  O359  1  0.917500  0.416620  0.706010  1.0  -0.7034
  O  O360  1  0.090730  0.109160  0.703100  1.0  -0.7654
  O  O361  1  0.050460  0.854270  0.705690  1.0  -0.711
  O  O362  1  0.960020  0.658850  0.709890  1.0  -0.6952
  O  O363  1  0.082500  0.916620  0.793990  1.0  -0.7021
  O  O364  1  0.909270  0.609160  0.796900  1.0  -0.7659
  O  O365  1  0.550460  0.645730  0.294310  1.0  -0.708
  O  O366  1  0.460020  0.841150  0.290110  1.0  -0.6979
  O  O367  1  0.582500  0.583380  0.206010  1.0  -0.7023
  O  O368  1  0.409270  0.890840  0.203100  1.0  -0.7657
  O  O369  1  0.205690  0.449540  0.145730  1.0  -0.7073
  O  O370  1  0.209890  0.539980  0.341150  1.0  -0.6953
  O  O371  1  0.293990  0.417500  0.083380  1.0  -0.7043
  O  O372  1  0.296900  0.590730  0.390840  1.0  -0.7668
  O  O373  1  0.794310  0.949540  0.354270  1.0  -0.7068
  O  O374  1  0.790110  0.039980  0.158850  1.0  -0.6931
  O  O375  1  0.706010  0.917500  0.416620  1.0  -0.7025
  O  O376  1  0.703100  0.090730  0.109160  1.0  -0.7673
  O  O377  1  0.705690  0.050460  0.854270  1.0  -0.7081
  O  O378  1  0.709890  0.960020  0.658850  1.0  -0.6949
  O  O379  1  0.793990  0.082500  0.916620  1.0  -0.7035
  O  O380  1  0.796900  0.909270  0.609160  1.0  -0.7684
  O  O381  1  0.294310  0.550460  0.645730  1.0  -0.7071
  O  O382  1  0.290110  0.460020  0.841150  1.0  -0.6929
  O  O383  1  0.206010  0.582500  0.583380  1.0  -0.7034
  O  O384  1  0.203100  0.409270  0.890840  1.0  -0.7651
