# generated using pymatgen
data_EuH3C7NO4
_symmetry_space_group_name_H-M   'P 1'
_cell_length_a   19.80270000
_cell_length_b   19.80270000
_cell_length_c   19.80270000
_cell_angle_alpha   90.00000000
_cell_angle_beta   90.00000000
_cell_angle_gamma   90.00000000
_symmetry_Int_Tables_number   1
_chemical_formula_structural   EuH3C7NO4
_chemical_formula_sum   'Eu24 H72 C168 N24 O96'
_cell_volume   7765.56795705
_cell_formula_units_Z   24
loop_
 _symmetry_equiv_pos_site_id
 _symmetry_equiv_pos_as_xyz
  1  'x, y, z'
loop_
 _atom_site_type_symbol
 _atom_site_label
 _atom_site_symmetry_multiplicity
 _atom_site_fract_x
 _atom_site_fract_y
 _atom_site_fract_z
 _atom_site_occupancy
 _atom_site_charge
  Eu  Eu1  1  0.652190  0.500000  0.250000  1.0  2.0229
  Eu  Eu2  1  0.847810  0.500000  0.750000  1.0  2.0239
  Eu  Eu3  1  0.347810  0.000000  0.250000  1.0  2.0239
  Eu  Eu4  1  0.152190  0.000000  0.750000  1.0  2.0229
  Eu  Eu5  1  0.250000  0.652190  0.500000  1.0  2.0244
  Eu  Eu6  1  0.750000  0.847810  0.500000  1.0  2.024
  Eu  Eu7  1  0.250000  0.347810  0.000000  1.0  2.024
  Eu  Eu8  1  0.750000  0.152190  0.000000  1.0  2.0244
  Eu  Eu9  1  0.500000  0.250000  0.652190  1.0  2.022
  Eu  Eu10  1  0.500000  0.750000  0.847810  1.0  2.0242
  Eu  Eu11  1  0.000000  0.250000  0.347810  1.0  2.0242
  Eu  Eu12  1  0.000000  0.750000  0.152190  1.0  2.022
  Eu  Eu13  1  0.347810  0.500000  0.750000  1.0  2.0239
  Eu  Eu14  1  0.152190  0.500000  0.250000  1.0  2.0229
  Eu  Eu15  1  0.652190  0.000000  0.750000  1.0  2.0229
  Eu  Eu16  1  0.847810  0.000000  0.250000  1.0  2.0239
  Eu  Eu17  1  0.750000  0.347810  0.500000  1.0  2.024
  Eu  Eu18  1  0.250000  0.152190  0.500000  1.0  2.0244
  Eu  Eu19  1  0.750000  0.652190  0.000000  1.0  2.0244
  Eu  Eu20  1  0.250000  0.847810  0.000000  1.0  2.024
  Eu  Eu21  1  0.500000  0.750000  0.347810  1.0  2.0242
  Eu  Eu22  1  0.500000  0.250000  0.152190  1.0  2.022
  Eu  Eu23  1  0.000000  0.750000  0.652190  1.0  2.022
  Eu  Eu24  1  0.000000  0.250000  0.847810  1.0  2.0242
  H  H25  1  0.907000  0.453300  0.339900  1.0  0.1041
  H  H26  1  0.407000  0.953300  0.839900  1.0  0.1041
  H  H27  1  0.593000  0.546700  0.839900  1.0  0.1042
  H  H28  1  0.093000  0.046700  0.339900  1.0  0.1042
  H  H29  1  0.093000  0.953300  0.160100  1.0  0.1033
  H  H30  1  0.593000  0.453300  0.660100  1.0  0.1033
  H  H31  1  0.407000  0.046700  0.660100  1.0  0.1035
  H  H32  1  0.907000  0.546700  0.160100  1.0  0.1035
  H  H33  1  0.339900  0.907000  0.453300  1.0  0.1021
  H  H34  1  0.839900  0.407000  0.953300  1.0  0.1021
  H  H35  1  0.839900  0.593000  0.546700  1.0  0.1015
  H  H36  1  0.339900  0.093000  0.046700  1.0  0.1015
  H  H37  1  0.160100  0.093000  0.953300  1.0  0.102
  H  H38  1  0.660100  0.593000  0.453300  1.0  0.102
  H  H39  1  0.660100  0.407000  0.046700  1.0  0.102
  H  H40  1  0.160100  0.907000  0.546700  1.0  0.102
  H  H41  1  0.453300  0.339900  0.907000  1.0  0.1029
  H  H42  1  0.953300  0.839900  0.407000  1.0  0.1029
  H  H43  1  0.546700  0.839900  0.593000  1.0  0.1028
  H  H44  1  0.046700  0.339900  0.093000  1.0  0.1028
  H  H45  1  0.953300  0.160100  0.093000  1.0  0.1023
  H  H46  1  0.453300  0.660100  0.593000  1.0  0.1023
  H  H47  1  0.046700  0.660100  0.407000  1.0  0.1024
  H  H48  1  0.546700  0.160100  0.907000  1.0  0.1024
  H  H49  1  0.093000  0.546700  0.660100  1.0  0.1033
  H  H50  1  0.593000  0.046700  0.160100  1.0  0.1033
  H  H51  1  0.407000  0.453300  0.160100  1.0  0.1034
  H  H52  1  0.907000  0.953300  0.660100  1.0  0.1034
  H  H53  1  0.907000  0.046700  0.839900  1.0  0.1041
  H  H54  1  0.407000  0.546700  0.339900  1.0  0.1041
  H  H55  1  0.593000  0.953300  0.339900  1.0  0.1042
  H  H56  1  0.093000  0.453300  0.839900  1.0  0.1042
  H  H57  1  0.660100  0.093000  0.546700  1.0  0.102
  H  H58  1  0.160100  0.593000  0.046700  1.0  0.102
  H  H59  1  0.160100  0.407000  0.453300  1.0  0.1022
  H  H60  1  0.660100  0.907000  0.953300  1.0  0.1022
  H  H61  1  0.839900  0.907000  0.046700  1.0  0.1018
  H  H62  1  0.339900  0.407000  0.546700  1.0  0.1018
  H  H63  1  0.339900  0.593000  0.953300  1.0  0.1015
  H  H64  1  0.839900  0.093000  0.453300  1.0  0.1015
  H  H65  1  0.546700  0.660100  0.093000  1.0  0.1021
  H  H66  1  0.046700  0.160100  0.593000  1.0  0.1021
  H  H67  1  0.453300  0.160100  0.407000  1.0  0.1026
  H  H68  1  0.953300  0.660100  0.907000  1.0  0.1026
  H  H69  1  0.046700  0.839900  0.907000  1.0  0.1028
  H  H70  1  0.546700  0.339900  0.407000  1.0  0.1028
  H  H71  1  0.953300  0.339900  0.593000  1.0  0.1029
  H  H72  1  0.453300  0.839900  0.093000  1.0  0.1029
  H  H73  1  0.965500  0.500000  0.250000  1.0  0.0771
  H  H74  1  0.534500  0.500000  0.750000  1.0  0.0761
  H  H75  1  0.034500  0.000000  0.250000  1.0  0.0761
  H  H76  1  0.465500  0.000000  0.750000  1.0  0.0771
  H  H77  1  0.250000  0.965500  0.500000  1.0  0.0762
  H  H78  1  0.750000  0.534500  0.500000  1.0  0.0754
  H  H79  1  0.250000  0.034500  0.000000  1.0  0.0754
  H  H80  1  0.750000  0.465500  0.000000  1.0  0.0762
  H  H81  1  0.500000  0.250000  0.965500  1.0  0.0769
  H  H82  1  0.500000  0.750000  0.534500  1.0  0.0773
  H  H83  1  0.000000  0.250000  0.034500  1.0  0.0773
  H  H84  1  0.000000  0.750000  0.465500  1.0  0.0769
  H  H85  1  0.034500  0.500000  0.750000  1.0  0.0761
  H  H86  1  0.465500  0.500000  0.250000  1.0  0.0771
  H  H87  1  0.965500  0.000000  0.750000  1.0  0.0771
  H  H88  1  0.534500  0.000000  0.250000  1.0  0.0761
  H  H89  1  0.750000  0.034500  0.500000  1.0  0.0754
  H  H90  1  0.250000  0.465500  0.500000  1.0  0.0762
  H  H91  1  0.750000  0.965500  0.000000  1.0  0.0762
  H  H92  1  0.250000  0.534500  0.000000  1.0  0.0754
  H  H93  1  0.500000  0.750000  0.034500  1.0  0.0773
  H  H94  1  0.500000  0.250000  0.465500  1.0  0.0769
  H  H95  1  0.000000  0.750000  0.965500  1.0  0.0769
  H  H96  1  0.000000  0.250000  0.534500  1.0  0.0773
  C  C97  1  0.769300  0.445600  0.356000  1.0  0.6796
  C  C98  1  0.814000  0.473800  0.302000  1.0  0.0649
  C  C99  1  0.884000  0.472400  0.303600  1.0  -0.1551
  C  C100  1  0.269300  0.945600  0.856000  1.0  0.6796
  C  C101  1  0.314000  0.973800  0.802000  1.0  0.0649
  C  C102  1  0.384000  0.972400  0.803600  1.0  -0.1551
  C  C103  1  0.730700  0.554400  0.856000  1.0  0.6792
  C  C104  1  0.686000  0.526200  0.802000  1.0  0.0632
  C  C105  1  0.616000  0.527600  0.803600  1.0  -0.1554
  C  C106  1  0.230700  0.054400  0.356000  1.0  0.6792
  C  C107  1  0.186000  0.026200  0.302000  1.0  0.0632
  C  C108  1  0.116000  0.027600  0.303600  1.0  -0.1554
  C  C109  1  0.230700  0.945600  0.144000  1.0  0.6784
  C  C110  1  0.186000  0.973800  0.198000  1.0  0.0632
  C  C111  1  0.116000  0.972400  0.196400  1.0  -0.157
  C  C112  1  0.730700  0.445600  0.644000  1.0  0.6784
  C  C113  1  0.686000  0.473800  0.698000  1.0  0.0632
  C  C114  1  0.616000  0.472400  0.696400  1.0  -0.157
  C  C115  1  0.269300  0.054400  0.644000  1.0  0.6774
  C  C116  1  0.314000  0.026200  0.698000  1.0  0.064
  C  C117  1  0.384000  0.027600  0.696400  1.0  -0.1581
  C  C118  1  0.769300  0.554400  0.144000  1.0  0.6774
  C  C119  1  0.814000  0.526200  0.198000  1.0  0.064
  C  C120  1  0.884000  0.527600  0.196400  1.0  -0.1581
  C  C121  1  0.356000  0.769300  0.445600  1.0  0.6774
  C  C122  1  0.302000  0.814000  0.473800  1.0  0.0633
  C  C123  1  0.303600  0.884000  0.472400  1.0  -0.1555
  C  C124  1  0.856000  0.269300  0.945600  1.0  0.6774
  C  C125  1  0.802000  0.314000  0.973800  1.0  0.0633
  C  C126  1  0.803600  0.384000  0.972400  1.0  -0.1555
  C  C127  1  0.856000  0.730700  0.554400  1.0  0.6774
  C  C128  1  0.802000  0.686000  0.526200  1.0  0.0622
  C  C129  1  0.803600  0.616000  0.527600  1.0  -0.1566
  C  C130  1  0.356000  0.230700  0.054400  1.0  0.6774
  C  C131  1  0.302000  0.186000  0.026200  1.0  0.0622
  C  C132  1  0.303600  0.116000  0.027600  1.0  -0.1566
  C  C133  1  0.144000  0.230700  0.945600  1.0  0.676
  C  C134  1  0.198000  0.186000  0.973800  1.0  0.0634
  C  C135  1  0.196400  0.116000  0.972400  1.0  -0.1573
  C  C136  1  0.644000  0.730700  0.445600  1.0  0.676
  C  C137  1  0.698000  0.686000  0.473800  1.0  0.0634
  C  C138  1  0.696400  0.616000  0.472400  1.0  -0.1573
  C  C139  1  0.644000  0.269300  0.054400  1.0  0.6777
  C  C140  1  0.698000  0.314000  0.026200  1.0  0.0639
  C  C141  1  0.696400  0.384000  0.027600  1.0  -0.1575
  C  C142  1  0.144000  0.769300  0.554400  1.0  0.6777
  C  C143  1  0.198000  0.814000  0.526200  1.0  0.0639
  C  C144  1  0.196400  0.884000  0.527600  1.0  -0.1575
  C  C145  1  0.445600  0.356000  0.769300  1.0  0.6781
  C  C146  1  0.473800  0.302000  0.814000  1.0  0.0648
  C  C147  1  0.472400  0.303600  0.884000  1.0  -0.1562
  C  C148  1  0.945600  0.856000  0.269300  1.0  0.6781
  C  C149  1  0.973800  0.802000  0.314000  1.0  0.0648
  C  C150  1  0.972400  0.803600  0.384000  1.0  -0.1562
  C  C151  1  0.554400  0.856000  0.730700  1.0  0.6792
  C  C152  1  0.526200  0.802000  0.686000  1.0  0.065
  C  C153  1  0.527600  0.803600  0.616000  1.0  -0.156
  C  C154  1  0.054400  0.356000  0.230700  1.0  0.6792
  C  C155  1  0.026200  0.302000  0.186000  1.0  0.065
  C  C156  1  0.027600  0.303600  0.116000  1.0  -0.156
  C  C157  1  0.945600  0.144000  0.230700  1.0  0.6797
  C  C158  1  0.973800  0.198000  0.186000  1.0  0.0658
  C  C159  1  0.972400  0.196400  0.116000  1.0  -0.1566
  C  C160  1  0.445600  0.644000  0.730700  1.0  0.6797
  C  C161  1  0.473800  0.698000  0.686000  1.0  0.0658
  C  C162  1  0.472400  0.696400  0.616000  1.0  -0.1566
  C  C163  1  0.054400  0.644000  0.269300  1.0  0.6786
  C  C164  1  0.026200  0.698000  0.314000  1.0  0.0644
  C  C165  1  0.027600  0.696400  0.384000  1.0  -0.158
  C  C166  1  0.554400  0.144000  0.769300  1.0  0.6786
  C  C167  1  0.526200  0.198000  0.814000  1.0  0.0644
  C  C168  1  0.527600  0.196400  0.884000  1.0  -0.158
  C  C169  1  0.230700  0.554400  0.644000  1.0  0.6779
  C  C170  1  0.186000  0.526200  0.698000  1.0  0.0628
  C  C171  1  0.116000  0.527600  0.696400  1.0  -0.1552
  C  C172  1  0.730700  0.054400  0.144000  1.0  0.6779
  C  C173  1  0.686000  0.026200  0.198000  1.0  0.0628
  C  C174  1  0.616000  0.027600  0.196400  1.0  -0.1552
  C  C175  1  0.269300  0.445600  0.144000  1.0  0.6781
  C  C176  1  0.314000  0.473800  0.198000  1.0  0.064
  C  C177  1  0.384000  0.472400  0.196400  1.0  -0.1561
  C  C178  1  0.769300  0.945600  0.644000  1.0  0.6781
  C  C179  1  0.814000  0.973800  0.698000  1.0  0.064
  C  C180  1  0.884000  0.972400  0.696400  1.0  -0.1561
  C  C181  1  0.769300  0.054400  0.856000  1.0  0.6781
  C  C182  1  0.814000  0.026200  0.802000  1.0  0.0644
  C  C183  1  0.884000  0.027600  0.803600  1.0  -0.1573
  C  C184  1  0.269300  0.554400  0.356000  1.0  0.6781
  C  C185  1  0.314000  0.526200  0.302000  1.0  0.0644
  C  C186  1  0.384000  0.527600  0.303600  1.0  -0.1573
  C  C187  1  0.730700  0.945600  0.356000  1.0  0.6805
  C  C188  1  0.686000  0.973800  0.302000  1.0  0.0639
  C  C189  1  0.616000  0.972400  0.303600  1.0  -0.1569
  C  C190  1  0.230700  0.445600  0.856000  1.0  0.6805
  C  C191  1  0.186000  0.473800  0.802000  1.0  0.0639
  C  C192  1  0.116000  0.472400  0.803600  1.0  -0.1569
  C  C193  1  0.644000  0.230700  0.554400  1.0  0.676
  C  C194  1  0.698000  0.186000  0.526200  1.0  0.0633
  C  C195  1  0.696400  0.116000  0.527600  1.0  -0.1553
  C  C196  1  0.144000  0.730700  0.054400  1.0  0.676
  C  C197  1  0.198000  0.686000  0.026200  1.0  0.0633
  C  C198  1  0.196400  0.616000  0.027600  1.0  -0.1553
  C  C199  1  0.144000  0.269300  0.445600  1.0  0.6768
  C  C200  1  0.198000  0.314000  0.473800  1.0  0.0639
  C  C201  1  0.196400  0.384000  0.472400  1.0  -0.1551
  C  C202  1  0.644000  0.769300  0.945600  1.0  0.6768
  C  C203  1  0.698000  0.814000  0.973800  1.0  0.0639
  C  C204  1  0.696400  0.884000  0.972400  1.0  -0.1551
  C  C205  1  0.856000  0.769300  0.054400  1.0  0.6784
  C  C206  1  0.802000  0.814000  0.026200  1.0  0.0631
  C  C207  1  0.803600  0.884000  0.027600  1.0  -0.1577
  C  C208  1  0.356000  0.269300  0.554400  1.0  0.6784
  C  C209  1  0.302000  0.314000  0.526200  1.0  0.0631
  C  C210  1  0.303600  0.384000  0.527600  1.0  -0.1577
  C  C211  1  0.356000  0.730700  0.945600  1.0  0.6769
  C  C212  1  0.302000  0.686000  0.973800  1.0  0.0623
  C  C213  1  0.303600  0.616000  0.972400  1.0  -0.1583
  C  C214  1  0.856000  0.230700  0.445600  1.0  0.6769
  C  C215  1  0.802000  0.186000  0.473800  1.0  0.0623
  C  C216  1  0.803600  0.116000  0.472400  1.0  -0.1583
  C  C217  1  0.554400  0.644000  0.230700  1.0  0.6805
  C  C218  1  0.526200  0.698000  0.186000  1.0  0.0658
  C  C219  1  0.527600  0.696400  0.116000  1.0  -0.1556
  C  C220  1  0.054400  0.144000  0.730700  1.0  0.6805
  C  C221  1  0.026200  0.198000  0.686000  1.0  0.0658
  C  C222  1  0.027600  0.196400  0.616000  1.0  -0.1556
  C  C223  1  0.445600  0.144000  0.269300  1.0  0.6785
  C  C224  1  0.473800  0.198000  0.314000  1.0  0.0647
  C  C225  1  0.472400  0.196400  0.384000  1.0  -0.1552
  C  C226  1  0.945600  0.644000  0.769300  1.0  0.6785
  C  C227  1  0.973800  0.698000  0.814000  1.0  0.0647
  C  C228  1  0.972400  0.696400  0.884000  1.0  -0.1552
  C  C229  1  0.054400  0.856000  0.769300  1.0  0.6781
  C  C230  1  0.026200  0.802000  0.814000  1.0  0.0643
  C  C231  1  0.027600  0.803600  0.884000  1.0  -0.1582
  C  C232  1  0.554400  0.356000  0.269300  1.0  0.6781
  C  C233  1  0.526200  0.302000  0.314000  1.0  0.0643
  C  C234  1  0.527600  0.303600  0.384000  1.0  -0.1582
  C  C235  1  0.945600  0.356000  0.730700  1.0  0.6785
  C  C236  1  0.973800  0.302000  0.686000  1.0  0.0651
  C  C237  1  0.972400  0.303600  0.616000  1.0  -0.1573
  C  C238  1  0.445600  0.856000  0.230700  1.0  0.6785
  C  C239  1  0.473800  0.802000  0.186000  1.0  0.0651
  C  C240  1  0.472400  0.803600  0.116000  1.0  -0.1573
  C  C241  1  0.918500  0.500000  0.250000  1.0  -0.131
  C  C242  1  0.581500  0.500000  0.750000  1.0  -0.1329
  C  C243  1  0.081500  0.000000  0.250000  1.0  -0.1329
  C  C244  1  0.418500  0.000000  0.750000  1.0  -0.131
  C  C245  1  0.250000  0.918500  0.500000  1.0  -0.1289
  C  C246  1  0.750000  0.581500  0.500000  1.0  -0.129
  C  C247  1  0.250000  0.081500  0.000000  1.0  -0.129
  C  C248  1  0.750000  0.418500  0.000000  1.0  -0.1289
  C  C249  1  0.500000  0.250000  0.918500  1.0  -0.1285
  C  C250  1  0.500000  0.750000  0.581500  1.0  -0.1287
  C  C251  1  0.000000  0.250000  0.081500  1.0  -0.1287
  C  C252  1  0.000000  0.750000  0.418500  1.0  -0.1285
  C  C253  1  0.081500  0.500000  0.750000  1.0  -0.1329
  C  C254  1  0.418500  0.500000  0.250000  1.0  -0.131
  C  C255  1  0.918500  0.000000  0.750000  1.0  -0.131
  C  C256  1  0.581500  0.000000  0.250000  1.0  -0.1329
  C  C257  1  0.750000  0.081500  0.500000  1.0  -0.129
  C  C258  1  0.250000  0.418500  0.500000  1.0  -0.1289
  C  C259  1  0.750000  0.918500  0.000000  1.0  -0.1289
  C  C260  1  0.250000  0.581500  0.000000  1.0  -0.129
  C  C261  1  0.500000  0.750000  0.081500  1.0  -0.1287
  C  C262  1  0.500000  0.250000  0.418500  1.0  -0.1285
  C  C263  1  0.000000  0.750000  0.918500  1.0  -0.1285
  C  C264  1  0.000000  0.250000  0.581500  1.0  -0.1287
  N  N265  1  0.779500  0.500000  0.250000  1.0  -0.5063
  N  N266  1  0.720500  0.500000  0.750000  1.0  -0.5044
  N  N267  1  0.220500  0.000000  0.250000  1.0  -0.5044
  N  N268  1  0.279500  0.000000  0.750000  1.0  -0.5063
  N  N269  1  0.250000  0.779500  0.500000  1.0  -0.5048
  N  N270  1  0.750000  0.720500  0.500000  1.0  -0.5053
  N  N271  1  0.250000  0.220500  0.000000  1.0  -0.5053
  N  N272  1  0.750000  0.279500  0.000000  1.0  -0.5048
  N  N273  1  0.500000  0.250000  0.779500  1.0  -0.5084
  N  N274  1  0.500000  0.750000  0.720500  1.0  -0.5105
  N  N275  1  0.000000  0.250000  0.220500  1.0  -0.5105
  N  N276  1  0.000000  0.750000  0.279500  1.0  -0.5084
  N  N277  1  0.220500  0.500000  0.750000  1.0  -0.5044
  N  N278  1  0.279500  0.500000  0.250000  1.0  -0.5063
  N  N279  1  0.779500  0.000000  0.750000  1.0  -0.5063
  N  N280  1  0.720500  0.000000  0.250000  1.0  -0.5044
  N  N281  1  0.750000  0.220500  0.500000  1.0  -0.5053
  N  N282  1  0.250000  0.279500  0.500000  1.0  -0.5048
  N  N283  1  0.750000  0.779500  0.000000  1.0  -0.5048
  N  N284  1  0.250000  0.720500  0.000000  1.0  -0.5053
  N  N285  1  0.500000  0.750000  0.220500  1.0  -0.5105
  N  N286  1  0.500000  0.250000  0.279500  1.0  -0.5084
  N  N287  1  0.000000  0.750000  0.779500  1.0  -0.5084
  N  N288  1  0.000000  0.250000  0.720500  1.0  -0.5105
  O  O289  1  0.706360  0.454500  0.347760  1.0  -0.7101
  O  O290  1  0.795100  0.415100  0.404700  1.0  -0.7106
  O  O291  1  0.206360  0.954500  0.847760  1.0  -0.7101
  O  O292  1  0.295100  0.915100  0.904700  1.0  -0.7106
  O  O293  1  0.793640  0.545500  0.847760  1.0  -0.7102
  O  O294  1  0.704900  0.584900  0.904700  1.0  -0.7123
  O  O295  1  0.293640  0.045500  0.347760  1.0  -0.7102
  O  O296  1  0.204900  0.084900  0.404700  1.0  -0.7123
  O  O297  1  0.293640  0.954500  0.152240  1.0  -0.7105
  O  O298  1  0.204900  0.915100  0.095300  1.0  -0.7104
  O  O299  1  0.793640  0.454500  0.652240  1.0  -0.7105
  O  O300  1  0.704900  0.415100  0.595300  1.0  -0.7104
  O  O301  1  0.206360  0.045500  0.652240  1.0  -0.7106
  O  O302  1  0.295100  0.084900  0.595300  1.0  -0.7084
  O  O303  1  0.706360  0.545500  0.152240  1.0  -0.7106
  O  O304  1  0.795100  0.584900  0.095300  1.0  -0.7084
  O  O305  1  0.347760  0.706360  0.454500  1.0  -0.7084
  O  O306  1  0.404700  0.795100  0.415100  1.0  -0.7085
  O  O307  1  0.847760  0.206360  0.954500  1.0  -0.7084
  O  O308  1  0.904700  0.295100  0.915100  1.0  -0.7085
  O  O309  1  0.847760  0.793640  0.545500  1.0  -0.7095
  O  O310  1  0.904700  0.704900  0.584900  1.0  -0.7088
  O  O311  1  0.347760  0.293640  0.045500  1.0  -0.7095
  O  O312  1  0.404700  0.204900  0.084900  1.0  -0.7088
  O  O313  1  0.152240  0.293640  0.954500  1.0  -0.7106
  O  O314  1  0.095300  0.204900  0.915100  1.0  -0.7087
  O  O315  1  0.652240  0.793640  0.454500  1.0  -0.7106
  O  O316  1  0.595300  0.704900  0.415100  1.0  -0.7087
  O  O317  1  0.652240  0.206360  0.045500  1.0  -0.7091
  O  O318  1  0.595300  0.295100  0.084900  1.0  -0.7094
  O  O319  1  0.152240  0.706360  0.545500  1.0  -0.7091
  O  O320  1  0.095300  0.795100  0.584900  1.0  -0.7094
  O  O321  1  0.454500  0.347760  0.706360  1.0  -0.7125
  O  O322  1  0.415100  0.404700  0.795100  1.0  -0.7074
  O  O323  1  0.954500  0.847760  0.206360  1.0  -0.7125
  O  O324  1  0.915100  0.904700  0.295100  1.0  -0.7074
  O  O325  1  0.545500  0.847760  0.793640  1.0  -0.7123
  O  O326  1  0.584900  0.904700  0.704900  1.0  -0.7059
  O  O327  1  0.045500  0.347760  0.293640  1.0  -0.7123
  O  O328  1  0.084900  0.404700  0.204900  1.0  -0.7059
  O  O329  1  0.954500  0.152240  0.293640  1.0  -0.7129
  O  O330  1  0.915100  0.095300  0.204900  1.0  -0.7084
  O  O331  1  0.454500  0.652240  0.793640  1.0  -0.7129
  O  O332  1  0.415100  0.595300  0.704900  1.0  -0.7084
  O  O333  1  0.045500  0.652240  0.206360  1.0  -0.7124
  O  O334  1  0.084900  0.595300  0.295100  1.0  -0.7071
  O  O335  1  0.545500  0.152240  0.706360  1.0  -0.7124
  O  O336  1  0.584900  0.095300  0.795100  1.0  -0.7071
  O  O337  1  0.293640  0.545500  0.652240  1.0  -0.7104
  O  O338  1  0.204900  0.584900  0.595300  1.0  -0.7111
  O  O339  1  0.793640  0.045500  0.152240  1.0  -0.7104
  O  O340  1  0.704900  0.084900  0.095300  1.0  -0.7111
  O  O341  1  0.206360  0.454500  0.152240  1.0  -0.7104
  O  O342  1  0.295100  0.415100  0.095300  1.0  -0.7103
  O  O343  1  0.706360  0.954500  0.652240  1.0  -0.7104
  O  O344  1  0.795100  0.915100  0.595300  1.0  -0.7103
  O  O345  1  0.706360  0.045500  0.847760  1.0  -0.7105
  O  O346  1  0.795100  0.084900  0.904700  1.0  -0.7118
  O  O347  1  0.206360  0.545500  0.347760  1.0  -0.7105
  O  O348  1  0.295100  0.584900  0.404700  1.0  -0.7118
  O  O349  1  0.793640  0.954500  0.347760  1.0  -0.7101
  O  O350  1  0.704900  0.915100  0.404700  1.0  -0.7131
  O  O351  1  0.293640  0.454500  0.847760  1.0  -0.7101
  O  O352  1  0.204900  0.415100  0.904700  1.0  -0.7131
  O  O353  1  0.652240  0.293640  0.545500  1.0  -0.7107
  O  O354  1  0.595300  0.204900  0.584900  1.0  -0.7099
  O  O355  1  0.152240  0.793640  0.045500  1.0  -0.7107
  O  O356  1  0.095300  0.704900  0.084900  1.0  -0.7099
  O  O357  1  0.152240  0.206360  0.454500  1.0  -0.709
  O  O358  1  0.095300  0.295100  0.415100  1.0  -0.7098
  O  O359  1  0.652240  0.706360  0.954500  1.0  -0.709
  O  O360  1  0.595300  0.795100  0.915100  1.0  -0.7098
  O  O361  1  0.847760  0.706360  0.045500  1.0  -0.7084
  O  O362  1  0.904700  0.795100  0.084900  1.0  -0.7106
  O  O363  1  0.347760  0.206360  0.545500  1.0  -0.7084
  O  O364  1  0.404700  0.295100  0.584900  1.0  -0.7106
  O  O365  1  0.347760  0.793640  0.954500  1.0  -0.7094
  O  O366  1  0.404700  0.704900  0.915100  1.0  -0.7099
  O  O367  1  0.847760  0.293640  0.454500  1.0  -0.7094
  O  O368  1  0.904700  0.204900  0.415100  1.0  -0.7099
  O  O369  1  0.545500  0.652240  0.293640  1.0  -0.7126
  O  O370  1  0.584900  0.595300  0.204900  1.0  -0.7089
  O  O371  1  0.045500  0.152240  0.793640  1.0  -0.7126
  O  O372  1  0.084900  0.095300  0.704900  1.0  -0.7089
  O  O373  1  0.454500  0.152240  0.206360  1.0  -0.7126
  O  O374  1  0.415100  0.095300  0.295100  1.0  -0.7096
  O  O375  1  0.954500  0.652240  0.706360  1.0  -0.7126
  O  O376  1  0.915100  0.595300  0.795100  1.0  -0.7096
  O  O377  1  0.045500  0.847760  0.706360  1.0  -0.7122
  O  O378  1  0.084900  0.904700  0.795100  1.0  -0.7071
  O  O379  1  0.545500  0.347760  0.206360  1.0  -0.7122
  O  O380  1  0.584900  0.404700  0.295100  1.0  -0.7071
  O  O381  1  0.954500  0.347760  0.793640  1.0  -0.7125
  O  O382  1  0.915100  0.404700  0.704900  1.0  -0.7088
  O  O383  1  0.454500  0.847760  0.293640  1.0  -0.7125
  O  O384  1  0.415100  0.904700  0.204900  1.0  -0.7088
