# generated using pymatgen
data_SmH3C7NO4
_symmetry_space_group_name_H-M   'P 1'
_cell_length_a   19.83460000
_cell_length_b   19.83460000
_cell_length_c   19.83460000
_cell_angle_alpha   90.00000000
_cell_angle_beta   90.00000000
_cell_angle_gamma   90.00000000
_symmetry_Int_Tables_number   1
_chemical_formula_structural   SmH3C7NO4
_chemical_formula_sum   'Sm24 H72 C168 N24 O96'
_cell_volume   7803.15690473
_cell_formula_units_Z   24
loop_
 _symmetry_equiv_pos_site_id
 _symmetry_equiv_pos_as_xyz
  1  'x, y, z'
loop_
 _atom_site_type_symbol
 _atom_site_label
 _atom_site_symmetry_multiplicity
 _atom_site_fract_x
 _atom_site_fract_y
 _atom_site_fract_z
 _atom_site_occupancy
 _atom_site_charge
  Sm  Sm1  1  0.500000  0.750000  0.847960  1.0  2.1493
  Sm  Sm2  1  0.000000  0.250000  0.347960  1.0  2.1493
  Sm  Sm3  1  0.500000  0.250000  0.652040  1.0  2.1488
  Sm  Sm4  1  0.000000  0.750000  0.152040  1.0  2.1488
  Sm  Sm5  1  0.847960  0.500000  0.750000  1.0  2.1485
  Sm  Sm6  1  0.347960  0.000000  0.250000  1.0  2.1485
  Sm  Sm7  1  0.652040  0.500000  0.250000  1.0  2.1497
  Sm  Sm8  1  0.152040  0.000000  0.750000  1.0  2.1497
  Sm  Sm9  1  0.750000  0.847960  0.500000  1.0  2.1492
  Sm  Sm10  1  0.250000  0.347960  0.000000  1.0  2.1492
  Sm  Sm11  1  0.250000  0.652040  0.500000  1.0  2.1492
  Sm  Sm12  1  0.750000  0.152040  0.000000  1.0  2.1492
  Sm  Sm13  1  0.500000  0.250000  0.152040  1.0  2.1488
  Sm  Sm14  1  0.000000  0.750000  0.652040  1.0  2.1488
  Sm  Sm15  1  0.500000  0.750000  0.347960  1.0  2.1493
  Sm  Sm16  1  0.000000  0.250000  0.847960  1.0  2.1493
  Sm  Sm17  1  0.152040  0.500000  0.250000  1.0  2.1497
  Sm  Sm18  1  0.652040  0.000000  0.750000  1.0  2.1497
  Sm  Sm19  1  0.347960  0.500000  0.750000  1.0  2.1485
  Sm  Sm20  1  0.847960  0.000000  0.250000  1.0  2.1485
  Sm  Sm21  1  0.250000  0.152040  0.500000  1.0  2.1492
  Sm  Sm22  1  0.750000  0.652040  0.000000  1.0  2.1492
  Sm  Sm23  1  0.750000  0.347960  0.500000  1.0  2.1492
  Sm  Sm24  1  0.250000  0.847960  0.000000  1.0  2.1492
  H  H25  1  0.453000  0.660500  0.593200  1.0  0.1021
  H  H26  1  0.953000  0.160500  0.093200  1.0  0.1021
  H  H27  1  0.047000  0.339500  0.093200  1.0  0.1025
  H  H28  1  0.547000  0.839500  0.593200  1.0  0.1025
  H  H29  1  0.547000  0.160500  0.906800  1.0  0.1021
  H  H30  1  0.047000  0.660500  0.406800  1.0  0.1021
  H  H31  1  0.953000  0.839500  0.406800  1.0  0.1028
  H  H32  1  0.453000  0.339500  0.906800  1.0  0.1028
  H  H33  1  0.593200  0.453000  0.660500  1.0  0.1028
  H  H34  1  0.093200  0.953000  0.160500  1.0  0.1028
  H  H35  1  0.093200  0.047000  0.339500  1.0  0.1038
  H  H36  1  0.593200  0.547000  0.839500  1.0  0.1038
  H  H37  1  0.906800  0.547000  0.160500  1.0  0.1027
  H  H38  1  0.406800  0.047000  0.660500  1.0  0.1027
  H  H39  1  0.406800  0.953000  0.839500  1.0  0.1035
  H  H40  1  0.906800  0.453000  0.339500  1.0  0.1035
  H  H41  1  0.660500  0.593200  0.453000  1.0  0.1014
  H  H42  1  0.160500  0.093200  0.953000  1.0  0.1014
  H  H43  1  0.339500  0.093200  0.047000  1.0  0.1007
  H  H44  1  0.839500  0.593200  0.547000  1.0  0.1007
  H  H45  1  0.160500  0.906800  0.547000  1.0  0.1015
  H  H46  1  0.660500  0.406800  0.047000  1.0  0.1015
  H  H47  1  0.839500  0.406800  0.953000  1.0  0.1014
  H  H48  1  0.339500  0.906800  0.453000  1.0  0.1014
  H  H49  1  0.547000  0.339500  0.406800  1.0  0.1025
  H  H50  1  0.047000  0.839500  0.906800  1.0  0.1025
  H  H51  1  0.953000  0.660500  0.906800  1.0  0.1023
  H  H52  1  0.453000  0.160500  0.406800  1.0  0.1023
  H  H53  1  0.453000  0.839500  0.093200  1.0  0.1027
  H  H54  1  0.953000  0.339500  0.593200  1.0  0.1027
  H  H55  1  0.047000  0.160500  0.593200  1.0  0.1018
  H  H56  1  0.547000  0.660500  0.093200  1.0  0.1018
  H  H57  1  0.406800  0.547000  0.339500  1.0  0.1035
  H  H58  1  0.906800  0.047000  0.839500  1.0  0.1035
  H  H59  1  0.906800  0.953000  0.660500  1.0  0.1028
  H  H60  1  0.406800  0.453000  0.160500  1.0  0.1028
  H  H61  1  0.093200  0.453000  0.839500  1.0  0.1039
  H  H62  1  0.593200  0.953000  0.339500  1.0  0.1039
  H  H63  1  0.593200  0.047000  0.160500  1.0  0.1027
  H  H64  1  0.093200  0.547000  0.660500  1.0  0.1027
  H  H65  1  0.339500  0.406800  0.547000  1.0  0.1011
  H  H66  1  0.839500  0.906800  0.047000  1.0  0.1011
  H  H67  1  0.660500  0.906800  0.953000  1.0  0.1017
  H  H68  1  0.160500  0.406800  0.453000  1.0  0.1017
  H  H69  1  0.839500  0.093200  0.453000  1.0  0.1008
  H  H70  1  0.339500  0.593200  0.953000  1.0  0.1008
  H  H71  1  0.160500  0.593200  0.047000  1.0  0.1014
  H  H72  1  0.660500  0.093200  0.547000  1.0  0.1014
  H  H73  1  0.500000  0.750000  0.535500  1.0  0.068
  H  H74  1  0.000000  0.250000  0.035500  1.0  0.068
  H  H75  1  0.500000  0.250000  0.964500  1.0  0.0677
  H  H76  1  0.000000  0.750000  0.464500  1.0  0.0677
  H  H77  1  0.535500  0.500000  0.750000  1.0  0.0667
  H  H78  1  0.035500  0.000000  0.250000  1.0  0.0667
  H  H79  1  0.964500  0.500000  0.250000  1.0  0.0677
  H  H80  1  0.464500  0.000000  0.750000  1.0  0.0677
  H  H81  1  0.750000  0.535500  0.500000  1.0  0.0667
  H  H82  1  0.250000  0.035500  0.000000  1.0  0.0667
  H  H83  1  0.250000  0.964500  0.500000  1.0  0.0672
  H  H84  1  0.750000  0.464500  0.000000  1.0  0.0672
  H  H85  1  0.500000  0.250000  0.464500  1.0  0.0677
  H  H86  1  0.000000  0.750000  0.964500  1.0  0.0677
  H  H87  1  0.500000  0.750000  0.035500  1.0  0.068
  H  H88  1  0.000000  0.250000  0.535500  1.0  0.068
  H  H89  1  0.464500  0.500000  0.250000  1.0  0.0677
  H  H90  1  0.964500  0.000000  0.750000  1.0  0.0677
  H  H91  1  0.035500  0.500000  0.750000  1.0  0.0667
  H  H92  1  0.535500  0.000000  0.250000  1.0  0.0667
  H  H93  1  0.250000  0.464500  0.500000  1.0  0.0672
  H  H94  1  0.750000  0.964500  0.000000  1.0  0.0672
  H  H95  1  0.750000  0.035500  0.500000  1.0  0.0667
  H  H96  1  0.250000  0.535500  0.000000  1.0  0.0667
  C  C97  1  0.445900  0.643900  0.730300  1.0  0.6738
  C  C98  1  0.473600  0.698400  0.685800  1.0  0.0607
  C  C99  1  0.472200  0.696600  0.616200  1.0  -0.1729
  C  C100  1  0.945900  0.143900  0.230300  1.0  0.6738
  C  C101  1  0.973600  0.198400  0.185800  1.0  0.0607
  C  C102  1  0.972200  0.196600  0.116200  1.0  -0.1729
  C  C103  1  0.054100  0.356100  0.230300  1.0  0.6741
  C  C104  1  0.026400  0.301600  0.185800  1.0  0.061
  C  C105  1  0.027800  0.303400  0.116200  1.0  -0.1754
  C  C106  1  0.554100  0.856100  0.730300  1.0  0.6741
  C  C107  1  0.526400  0.801600  0.685800  1.0  0.061
  C  C108  1  0.527800  0.803400  0.616200  1.0  -0.1754
  C  C109  1  0.554100  0.143900  0.769700  1.0  0.6732
  C  C110  1  0.526400  0.198400  0.814200  1.0  0.062
  C  C111  1  0.527800  0.196600  0.883800  1.0  -0.1757
  C  C112  1  0.054100  0.643900  0.269700  1.0  0.6732
  C  C113  1  0.026400  0.698400  0.314200  1.0  0.062
  C  C114  1  0.027800  0.696600  0.383800  1.0  -0.1756
  C  C115  1  0.945900  0.856100  0.269700  1.0  0.6732
  C  C116  1  0.973600  0.801600  0.314200  1.0  0.0615
  C  C117  1  0.972200  0.803400  0.383800  1.0  -0.1753
  C  C118  1  0.445900  0.356100  0.769700  1.0  0.6732
  C  C119  1  0.473600  0.301600  0.814200  1.0  0.0615
  C  C120  1  0.472200  0.303400  0.883800  1.0  -0.1751
  C  C121  1  0.730300  0.445900  0.643900  1.0  0.6722
  C  C122  1  0.685800  0.473600  0.698400  1.0  0.059
  C  C123  1  0.616200  0.472200  0.696600  1.0  -0.173
  C  C124  1  0.230300  0.945900  0.143900  1.0  0.6722
  C  C125  1  0.185800  0.973600  0.198400  1.0  0.059
  C  C126  1  0.116200  0.972200  0.196600  1.0  -0.173
  C  C127  1  0.230300  0.054100  0.356100  1.0  0.6728
  C  C128  1  0.185800  0.026400  0.301600  1.0  0.0607
  C  C129  1  0.116200  0.027800  0.303400  1.0  -0.1755
  C  C130  1  0.730300  0.554100  0.856100  1.0  0.6728
  C  C131  1  0.685800  0.526400  0.801600  1.0  0.0607
  C  C132  1  0.616200  0.527800  0.803400  1.0  -0.1755
  C  C133  1  0.769700  0.554100  0.143900  1.0  0.6726
  C  C134  1  0.814200  0.526400  0.198400  1.0  0.0596
  C  C135  1  0.883800  0.527800  0.196600  1.0  -0.1759
  C  C136  1  0.269700  0.054100  0.643900  1.0  0.6726
  C  C137  1  0.314200  0.026400  0.698400  1.0  0.0596
  C  C138  1  0.383800  0.027800  0.696600  1.0  -0.176
  C  C139  1  0.269700  0.945900  0.856100  1.0  0.6733
  C  C140  1  0.314200  0.973600  0.801600  1.0  0.061
  C  C141  1  0.383800  0.972200  0.803400  1.0  -0.1745
  C  C142  1  0.769700  0.445900  0.356100  1.0  0.6733
  C  C143  1  0.814200  0.473600  0.301600  1.0  0.061
  C  C144  1  0.883800  0.472200  0.303400  1.0  -0.1756
  C  C145  1  0.643900  0.730300  0.445900  1.0  0.6712
  C  C146  1  0.698400  0.685800  0.473600  1.0  0.0593
  C  C147  1  0.696600  0.616200  0.472200  1.0  -0.1731
  C  C148  1  0.143900  0.230300  0.945900  1.0  0.6712
  C  C149  1  0.198400  0.185800  0.973600  1.0  0.0593
  C  C150  1  0.196600  0.116200  0.972200  1.0  -0.1731
  C  C151  1  0.356100  0.230300  0.054100  1.0  0.6719
  C  C152  1  0.301600  0.185800  0.026400  1.0  0.0596
  C  C153  1  0.303400  0.116200  0.027800  1.0  -0.1755
  C  C154  1  0.856100  0.730300  0.554100  1.0  0.6719
  C  C155  1  0.801600  0.685800  0.526400  1.0  0.0596
  C  C156  1  0.803400  0.616200  0.527800  1.0  -0.1755
  C  C157  1  0.143900  0.769700  0.554100  1.0  0.6716
  C  C158  1  0.198400  0.814200  0.526400  1.0  0.0593
  C  C159  1  0.196600  0.883800  0.527800  1.0  -0.1738
  C  C160  1  0.643900  0.269700  0.054100  1.0  0.6716
  C  C161  1  0.698400  0.314200  0.026400  1.0  0.0593
  C  C162  1  0.696600  0.383800  0.027800  1.0  -0.1736
  C  C163  1  0.856100  0.269700  0.945900  1.0  0.6714
  C  C164  1  0.801600  0.314200  0.973600  1.0  0.0601
  C  C165  1  0.803400  0.383800  0.972200  1.0  -0.1743
  C  C166  1  0.356100  0.769700  0.445900  1.0  0.6714
  C  C167  1  0.301600  0.814200  0.473600  1.0  0.0601
  C  C168  1  0.303400  0.883800  0.472200  1.0  -0.1748
  C  C169  1  0.554100  0.356100  0.269700  1.0  0.6733
  C  C170  1  0.526400  0.301600  0.314200  1.0  0.0619
  C  C171  1  0.527800  0.303400  0.383800  1.0  -0.1758
  C  C172  1  0.054100  0.856100  0.769700  1.0  0.6733
  C  C173  1  0.026400  0.801600  0.814200  1.0  0.0619
  C  C174  1  0.027800  0.803400  0.883800  1.0  -0.1758
  C  C175  1  0.945900  0.643900  0.769700  1.0  0.6728
  C  C176  1  0.973600  0.698400  0.814200  1.0  0.0611
  C  C177  1  0.972200  0.696600  0.883800  1.0  -0.1744
  C  C178  1  0.445900  0.143900  0.269700  1.0  0.6728
  C  C179  1  0.473600  0.198400  0.314200  1.0  0.0611
  C  C180  1  0.472200  0.196600  0.383800  1.0  -0.1741
  C  C181  1  0.445900  0.856100  0.230300  1.0  0.6732
  C  C182  1  0.473600  0.801600  0.185800  1.0  0.0602
  C  C183  1  0.472200  0.803400  0.116200  1.0  -0.1736
  C  C184  1  0.945900  0.356100  0.730300  1.0  0.6732
  C  C185  1  0.973600  0.301600  0.685800  1.0  0.0602
  C  C186  1  0.972200  0.303400  0.616200  1.0  -0.1736
  C  C187  1  0.054100  0.143900  0.730300  1.0  0.6748
  C  C188  1  0.026400  0.198400  0.685800  1.0  0.0617
  C  C189  1  0.027800  0.196600  0.616200  1.0  -0.1753
  C  C190  1  0.554100  0.643900  0.230300  1.0  0.6748
  C  C191  1  0.526400  0.698400  0.185800  1.0  0.0617
  C  C192  1  0.527800  0.696600  0.116200  1.0  -0.1753
  C  C193  1  0.269700  0.554100  0.356100  1.0  0.6725
  C  C194  1  0.314200  0.526400  0.301600  1.0  0.0601
  C  C195  1  0.383800  0.527800  0.303400  1.0  -0.1754
  C  C196  1  0.769700  0.054100  0.856100  1.0  0.6725
  C  C197  1  0.814200  0.026400  0.801600  1.0  0.0601
  C  C198  1  0.883800  0.027800  0.803400  1.0  -0.1757
  C  C199  1  0.769700  0.945900  0.643900  1.0  0.6725
  C  C200  1  0.814200  0.973600  0.698400  1.0  0.0601
  C  C201  1  0.883800  0.972200  0.696600  1.0  -0.1749
  C  C202  1  0.269700  0.445900  0.143900  1.0  0.6725
  C  C203  1  0.314200  0.473600  0.198400  1.0  0.0601
  C  C204  1  0.383800  0.472200  0.196600  1.0  -0.1759
  C  C205  1  0.230300  0.445900  0.856100  1.0  0.6736
  C  C206  1  0.185800  0.473600  0.801600  1.0  0.0596
  C  C207  1  0.116200  0.472200  0.803400  1.0  -0.1729
  C  C208  1  0.730300  0.945900  0.356100  1.0  0.6736
  C  C209  1  0.685800  0.973600  0.301600  1.0  0.0596
  C  C210  1  0.616200  0.972200  0.303400  1.0  -0.1729
  C  C211  1  0.730300  0.054100  0.143900  1.0  0.6725
  C  C212  1  0.685800  0.026400  0.198400  1.0  0.0603
  C  C213  1  0.616200  0.027800  0.196600  1.0  -0.1753
  C  C214  1  0.230300  0.554100  0.643900  1.0  0.6725
  C  C215  1  0.185800  0.526400  0.698400  1.0  0.0603
  C  C216  1  0.116200  0.527800  0.696600  1.0  -0.1753
  C  C217  1  0.356100  0.269700  0.554100  1.0  0.6721
  C  C218  1  0.301600  0.314200  0.526400  1.0  0.06
  C  C219  1  0.303400  0.383800  0.527800  1.0  -0.1746
  C  C220  1  0.856100  0.769700  0.054100  1.0  0.6721
  C  C221  1  0.801600  0.814200  0.026400  1.0  0.06
  C  C222  1  0.803400  0.883800  0.027800  1.0  -0.1747
  C  C223  1  0.643900  0.769700  0.945900  1.0  0.6711
  C  C224  1  0.698400  0.814200  0.973600  1.0  0.0593
  C  C225  1  0.696600  0.883800  0.972200  1.0  -0.1739
  C  C226  1  0.143900  0.269700  0.445900  1.0  0.6711
  C  C227  1  0.198400  0.314200  0.473600  1.0  0.0593
  C  C228  1  0.196600  0.383800  0.472200  1.0  -0.1736
  C  C229  1  0.856100  0.230300  0.445900  1.0  0.6717
  C  C230  1  0.801600  0.185800  0.473600  1.0  0.0598
  C  C231  1  0.803400  0.116200  0.472200  1.0  -0.1745
  C  C232  1  0.356100  0.730300  0.945900  1.0  0.6717
  C  C233  1  0.301600  0.685800  0.973600  1.0  0.0598
  C  C234  1  0.303400  0.616200  0.972200  1.0  -0.1745
  C  C235  1  0.143900  0.730300  0.054100  1.0  0.6708
  C  C236  1  0.198400  0.685800  0.026400  1.0  0.0592
  C  C237  1  0.196600  0.616200  0.027800  1.0  -0.1743
  C  C238  1  0.643900  0.230300  0.554100  1.0  0.6708
  C  C239  1  0.698400  0.185800  0.526400  1.0  0.0592
  C  C240  1  0.696600  0.116200  0.527800  1.0  -0.1743
  C  C241  1  0.500000  0.750000  0.582400  1.0  -0.1424
  C  C242  1  0.000000  0.250000  0.082400  1.0  -0.1424
  C  C243  1  0.500000  0.250000  0.917600  1.0  -0.1417
  C  C244  1  0.000000  0.750000  0.417600  1.0  -0.1417
  C  C245  1  0.582400  0.500000  0.750000  1.0  -0.1534
  C  C246  1  0.082400  0.000000  0.250000  1.0  -0.1534
  C  C247  1  0.917600  0.500000  0.250000  1.0  -0.1435
  C  C248  1  0.417600  0.000000  0.750000  1.0  -0.1435
  C  C249  1  0.750000  0.582400  0.500000  1.0  -0.1434
  C  C250  1  0.250000  0.082400  0.000000  1.0  -0.1434
  C  C251  1  0.250000  0.917600  0.500000  1.0  -0.1414
  C  C252  1  0.750000  0.417600  0.000000  1.0  -0.1414
  C  C253  1  0.500000  0.250000  0.417600  1.0  -0.1425
  C  C254  1  0.000000  0.750000  0.917600  1.0  -0.1425
  C  C255  1  0.500000  0.750000  0.082400  1.0  -0.1411
  C  C256  1  0.000000  0.250000  0.582400  1.0  -0.1411
  C  C257  1  0.417600  0.500000  0.250000  1.0  -0.1442
  C  C258  1  0.917600  0.000000  0.750000  1.0  -0.1442
  C  C259  1  0.082400  0.500000  0.750000  1.0  -0.152
  C  C260  1  0.582400  0.000000  0.250000  1.0  -0.152
  C  C261  1  0.250000  0.417600  0.500000  1.0  -0.1422
  C  C262  1  0.750000  0.917600  0.000000  1.0  -0.1422
  C  C263  1  0.750000  0.082400  0.500000  1.0  -0.1436
  C  C264  1  0.250000  0.582400  0.000000  1.0  -0.1436
  N  N265  1  0.500000  0.750000  0.721000  1.0  -0.5246
  N  N266  1  0.000000  0.250000  0.221000  1.0  -0.5246
  N  N267  1  0.500000  0.250000  0.779000  1.0  -0.5229
  N  N268  1  0.000000  0.750000  0.279000  1.0  -0.5229
  N  N269  1  0.721000  0.500000  0.750000  1.0  -0.5193
  N  N270  1  0.221000  0.000000  0.250000  1.0  -0.5193
  N  N271  1  0.779000  0.500000  0.250000  1.0  -0.5216
  N  N272  1  0.279000  0.000000  0.750000  1.0  -0.5216
  N  N273  1  0.750000  0.721000  0.500000  1.0  -0.52
  N  N274  1  0.250000  0.221000  0.000000  1.0  -0.52
  N  N275  1  0.250000  0.779000  0.500000  1.0  -0.5191
  N  N276  1  0.750000  0.279000  0.000000  1.0  -0.5191
  N  N277  1  0.500000  0.250000  0.279000  1.0  -0.5229
  N  N278  1  0.000000  0.750000  0.779000  1.0  -0.5229
  N  N279  1  0.500000  0.750000  0.221000  1.0  -0.5246
  N  N280  1  0.000000  0.250000  0.721000  1.0  -0.5246
  N  N281  1  0.279000  0.500000  0.250000  1.0  -0.5216
  N  N282  1  0.779000  0.000000  0.750000  1.0  -0.5216
  N  N283  1  0.221000  0.500000  0.750000  1.0  -0.5193
  N  N284  1  0.721000  0.000000  0.250000  1.0  -0.5193
  N  N285  1  0.250000  0.279000  0.500000  1.0  -0.5191
  N  N286  1  0.750000  0.779000  0.000000  1.0  -0.5191
  N  N287  1  0.750000  0.221000  0.500000  1.0  -0.52
  N  N288  1  0.250000  0.721000  0.000000  1.0  -0.52
  O  O289  1  0.454400  0.651800  0.793230  1.0  -0.7192
  O  O290  1  0.415300  0.595500  0.704400  1.0  -0.7187
  O  O291  1  0.954400  0.151800  0.293230  1.0  -0.7192
  O  O292  1  0.915300  0.095500  0.204400  1.0  -0.7187
  O  O293  1  0.045600  0.348200  0.293230  1.0  -0.7186
  O  O294  1  0.084700  0.404500  0.204400  1.0  -0.7161
  O  O295  1  0.545600  0.848200  0.793230  1.0  -0.7186
  O  O296  1  0.584700  0.904500  0.704400  1.0  -0.7161
  O  O297  1  0.545600  0.151800  0.706770  1.0  -0.719
  O  O298  1  0.584700  0.095500  0.795600  1.0  -0.7165
  O  O299  1  0.045600  0.651800  0.206770  1.0  -0.719
  O  O300  1  0.084700  0.595500  0.295600  1.0  -0.7165
  O  O301  1  0.954400  0.848200  0.206770  1.0  -0.7195
  O  O302  1  0.915300  0.904500  0.295600  1.0  -0.7177
  O  O303  1  0.454400  0.348200  0.706770  1.0  -0.7195
  O  O304  1  0.415300  0.404500  0.795600  1.0  -0.7177
  O  O305  1  0.793230  0.454400  0.651800  1.0  -0.7172
  O  O306  1  0.704400  0.415300  0.595500  1.0  -0.7206
  O  O307  1  0.293230  0.954400  0.151800  1.0  -0.7172
  O  O308  1  0.204400  0.915300  0.095500  1.0  -0.7206
  O  O309  1  0.293230  0.045600  0.348200  1.0  -0.7168
  O  O310  1  0.204400  0.084700  0.404500  1.0  -0.7222
  O  O311  1  0.793230  0.545600  0.848200  1.0  -0.7168
  O  O312  1  0.704400  0.584700  0.904500  1.0  -0.7222
  O  O313  1  0.706770  0.545600  0.151800  1.0  -0.7176
  O  O314  1  0.795600  0.584700  0.095500  1.0  -0.7181
  O  O315  1  0.206770  0.045600  0.651800  1.0  -0.7176
  O  O316  1  0.295600  0.084700  0.595500  1.0  -0.7181
  O  O317  1  0.206770  0.954400  0.848200  1.0  -0.7172
  O  O318  1  0.295600  0.915300  0.904500  1.0  -0.7199
  O  O319  1  0.706770  0.454400  0.348200  1.0  -0.7172
  O  O320  1  0.795600  0.415300  0.404500  1.0  -0.7199
  O  O321  1  0.651800  0.793230  0.454400  1.0  -0.7166
  O  O322  1  0.595500  0.704400  0.415300  1.0  -0.719
  O  O323  1  0.151800  0.293230  0.954400  1.0  -0.7166
  O  O324  1  0.095500  0.204400  0.915300  1.0  -0.719
  O  O325  1  0.348200  0.293230  0.045600  1.0  -0.7155
  O  O326  1  0.404500  0.204400  0.084700  1.0  -0.7185
  O  O327  1  0.848200  0.793230  0.545600  1.0  -0.7155
  O  O328  1  0.904500  0.704400  0.584700  1.0  -0.7185
  O  O329  1  0.151800  0.706770  0.545600  1.0  -0.7158
  O  O330  1  0.095500  0.795600  0.584700  1.0  -0.7192
  O  O331  1  0.651800  0.206770  0.045600  1.0  -0.7158
  O  O332  1  0.595500  0.295600  0.084700  1.0  -0.7192
  O  O333  1  0.848200  0.206770  0.954400  1.0  -0.7149
  O  O334  1  0.904500  0.295600  0.915300  1.0  -0.7182
  O  O335  1  0.348200  0.706770  0.454400  1.0  -0.7149
  O  O336  1  0.404500  0.795600  0.415300  1.0  -0.7182
  O  O337  1  0.545600  0.348200  0.206770  1.0  -0.7192
  O  O338  1  0.584700  0.404500  0.295600  1.0  -0.716
  O  O339  1  0.045600  0.848200  0.706770  1.0  -0.7192
  O  O340  1  0.084700  0.904500  0.795600  1.0  -0.716
  O  O341  1  0.954400  0.651800  0.706770  1.0  -0.7193
  O  O342  1  0.915300  0.595500  0.795600  1.0  -0.7182
  O  O343  1  0.454400  0.151800  0.206770  1.0  -0.7193
  O  O344  1  0.415300  0.095500  0.295600  1.0  -0.7182
  O  O345  1  0.454400  0.848200  0.293230  1.0  -0.7191
  O  O346  1  0.415300  0.904500  0.204400  1.0  -0.7177
  O  O347  1  0.954400  0.348200  0.793230  1.0  -0.7191
  O  O348  1  0.915300  0.404500  0.704400  1.0  -0.7177
  O  O349  1  0.045600  0.151800  0.793230  1.0  -0.7187
  O  O350  1  0.084700  0.095500  0.704400  1.0  -0.7169
  O  O351  1  0.545600  0.651800  0.293230  1.0  -0.7187
  O  O352  1  0.584700  0.595500  0.204400  1.0  -0.7169
  O  O353  1  0.206770  0.545600  0.348200  1.0  -0.7175
  O  O354  1  0.295600  0.584700  0.404500  1.0  -0.72
  O  O355  1  0.706770  0.045600  0.848200  1.0  -0.7175
  O  O356  1  0.795600  0.084700  0.904500  1.0  -0.72
  O  O357  1  0.706770  0.954400  0.651800  1.0  -0.7175
  O  O358  1  0.795600  0.915300  0.595500  1.0  -0.7195
  O  O359  1  0.206770  0.454400  0.151800  1.0  -0.7175
  O  O360  1  0.295600  0.415300  0.095500  1.0  -0.7195
  O  O361  1  0.293230  0.454400  0.848200  1.0  -0.7167
  O  O362  1  0.204400  0.415300  0.904500  1.0  -0.7211
  O  O363  1  0.793230  0.954400  0.348200  1.0  -0.7167
  O  O364  1  0.704400  0.915300  0.404500  1.0  -0.7211
  O  O365  1  0.793230  0.045600  0.151800  1.0  -0.717
  O  O366  1  0.704400  0.084700  0.095500  1.0  -0.7203
  O  O367  1  0.293230  0.545600  0.651800  1.0  -0.717
  O  O368  1  0.204400  0.584700  0.595500  1.0  -0.7203
  O  O369  1  0.348200  0.206770  0.545600  1.0  -0.7151
  O  O370  1  0.404500  0.295600  0.584700  1.0  -0.7185
  O  O371  1  0.848200  0.706770  0.045600  1.0  -0.7151
  O  O372  1  0.904500  0.795600  0.084700  1.0  -0.7185
  O  O373  1  0.651800  0.706770  0.954400  1.0  -0.7156
  O  O374  1  0.595500  0.795600  0.915300  1.0  -0.7187
  O  O375  1  0.151800  0.206770  0.454400  1.0  -0.7156
  O  O376  1  0.095500  0.295600  0.415300  1.0  -0.7187
  O  O377  1  0.848200  0.293230  0.454400  1.0  -0.7154
  O  O378  1  0.904500  0.204400  0.415300  1.0  -0.7184
  O  O379  1  0.348200  0.793230  0.954400  1.0  -0.7154
  O  O380  1  0.404500  0.704400  0.915300  1.0  -0.7184
  O  O381  1  0.151800  0.793230  0.045600  1.0  -0.7168
  O  O382  1  0.095500  0.704400  0.084700  1.0  -0.7185
  O  O383  1  0.651800  0.293230  0.545600  1.0  -0.7168
  O  O384  1  0.595500  0.204400  0.584700  1.0  -0.7185
