# generated using pymatgen
data_Zn2H8C11O7
_symmetry_space_group_name_H-M   'P 1'
_cell_length_a   10.33400000
_cell_length_b   11.67200000
_cell_length_c   20.34100000
_cell_angle_alpha   90.00000000
_cell_angle_beta   90.00000000
_cell_angle_gamma   90.00000000
_symmetry_Int_Tables_number   1
_chemical_formula_structural   Zn2H8C11O7
_chemical_formula_sum   'Zn8 H32 C44 O28'
_cell_volume   2453.49985077
_cell_formula_units_Z   4
loop_
 _symmetry_equiv_pos_site_id
 _symmetry_equiv_pos_as_xyz
  1  'x, y, z'
loop_
 _atom_site_type_symbol
 _atom_site_label
 _atom_site_symmetry_multiplicity
 _atom_site_fract_x
 _atom_site_fract_y
 _atom_site_fract_z
 _atom_site_occupancy
 _atom_site_charge
  Zn  Zn1  1  0.152690  0.674870  0.011470  1.0  1.0722
  Zn  Zn2  1  0.465620  0.580530  0.007170  1.0  1.0825
  Zn  Zn3  1  0.347310  0.325130  0.511470  1.0  1.0724
  Zn  Zn4  1  0.034380  0.419470  0.507170  1.0  1.083
  Zn  Zn5  1  0.847310  0.174870  0.488540  1.0  1.0714
  Zn  Zn6  1  0.534380  0.080530  0.492830  1.0  1.0843
  Zn  Zn7  1  0.652690  0.825130  0.988540  1.0  1.0715
  Zn  Zn8  1  0.965620  0.919470  0.992830  1.0  1.0849
  H  H9  1  0.064100  0.560700  0.821900  1.0  0.11
  H  H10  1  0.440000  0.471900  0.808000  1.0  0.1091
  H  H11  1  0.034800  0.514600  0.711400  1.0  0.1092
  H  H12  1  0.411900  0.432000  0.697600  1.0  0.1094
  H  H13  1  0.244100  0.972300  0.987200  1.0  0.0746
  H  H14  1  0.156700  0.946700  0.881600  1.0  0.1206
  H  H15  1  0.308200  0.946700  0.878200  1.0  0.1251
  H  H16  1  0.231900  0.830800  0.874400  1.0  0.1258
  H  H17  1  0.435900  0.439300  0.321900  1.0  0.1101
  H  H18  1  0.060000  0.528100  0.308000  1.0  0.1086
  H  H19  1  0.465200  0.485400  0.211400  1.0  0.109
  H  H20  1  0.088100  0.568000  0.197600  1.0  0.1094
  H  H21  1  0.255900  0.027700  0.487200  1.0  0.0766
  H  H22  1  0.343300  0.053300  0.381600  1.0  0.1202
  H  H23  1  0.191800  0.053300  0.378200  1.0  0.1259
  H  H24  1  0.268100  0.169200  0.374400  1.0  0.1271
  H  H25  1  0.935900  0.060700  0.678100  1.0  0.1102
  H  H26  1  0.560000  0.971900  0.692000  1.0  0.1088
  H  H27  1  0.965200  0.014600  0.788600  1.0  0.1093
  H  H28  1  0.588100  0.932000  0.802400  1.0  0.1089
  H  H29  1  0.755900  0.472300  0.512800  1.0  0.0729
  H  H30  1  0.843300  0.446700  0.618400  1.0  0.1188
  H  H31  1  0.691800  0.446700  0.621800  1.0  0.1261
  H  H32  1  0.768100  0.330800  0.625600  1.0  0.1262
  H  H33  1  0.564100  0.939300  0.178100  1.0  0.1101
  H  H34  1  0.940000  0.028100  0.192000  1.0  0.1091
  H  H35  1  0.534800  0.985400  0.288600  1.0  0.1094
  H  H36  1  0.911900  0.068000  0.302400  1.0  0.1093
  H  H37  1  0.744100  0.527700  0.012800  1.0  0.0753
  H  H38  1  0.656700  0.553300  0.118400  1.0  0.1212
  H  H39  1  0.808200  0.553300  0.121800  1.0  0.126
  H  H40  1  0.731900  0.669200  0.125600  1.0  0.1271
  C  C41  1  0.276300  0.556400  0.896130  1.0  0.7138
  C  C42  1  0.256100  0.524200  0.825490  1.0  -0.1315
  C  C43  1  0.133700  0.535200  0.796880  1.0  -0.0555
  C  C44  1  0.359500  0.482700  0.788400  1.0  -0.0552
  C  C45  1  0.116100  0.507900  0.730600  1.0  -0.0519
  C  C46  1  0.342400  0.457600  0.722640  1.0  -0.0549
  C  C47  1  0.221000  0.470700  0.693640  1.0  -0.1267
  C  C48  1  0.205200  0.445900  0.620830  1.0  0.7186
  C  C49  1  0.362500  0.831200  0.987430  1.0  0.6707
  C  C50  1  0.240000  0.895100  0.968350  1.0  0.1492
  C  C51  1  0.233600  0.905800  0.893720  1.0  -0.3721
  C  C52  1  0.223700  0.443600  0.396130  1.0  0.7145
  C  C53  1  0.243900  0.475800  0.325490  1.0  -0.1315
  C  C54  1  0.366300  0.464800  0.296880  1.0  -0.0541
  C  C55  1  0.140500  0.517300  0.288400  1.0  -0.0558
  C  C56  1  0.383900  0.492100  0.230600  1.0  -0.0516
  C  C57  1  0.157600  0.542400  0.222640  1.0  -0.0558
  C  C58  1  0.279000  0.529300  0.193640  1.0  -0.1268
  C  C59  1  0.294800  0.554100  0.120830  1.0  0.7182
  C  C60  1  0.137500  0.168800  0.487430  1.0  0.669
  C  C61  1  0.260000  0.104900  0.468350  1.0  0.1538
  C  C62  1  0.266400  0.094200  0.393720  1.0  -0.3713
  C  C63  1  0.723700  0.056400  0.603870  1.0  0.7127
  C  C64  1  0.743900  0.024200  0.674510  1.0  -0.1327
  C  C65  1  0.866300  0.035200  0.703120  1.0  -0.0545
  C  C66  1  0.640500  0.982700  0.711600  1.0  -0.0555
  C  C67  1  0.883900  0.007900  0.769400  1.0  -0.0512
  C  C68  1  0.657600  0.957600  0.777360  1.0  -0.0555
  C  C69  1  0.779000  0.970700  0.806360  1.0  -0.1262
  C  C70  1  0.794800  0.945900  0.879170  1.0  0.7188
  C  C71  1  0.637500  0.331200  0.512570  1.0  0.6706
  C  C72  1  0.760000  0.395100  0.531650  1.0  0.1521
  C  C73  1  0.766400  0.405800  0.606280  1.0  -0.3715
  C  C74  1  0.776300  0.943600  0.103870  1.0  0.7141
  C  C75  1  0.756100  0.975800  0.174510  1.0  -0.1326
  C  C76  1  0.633700  0.964800  0.203120  1.0  -0.0552
  C  C77  1  0.859500  0.017300  0.211600  1.0  -0.055
  C  C78  1  0.616100  0.992100  0.269400  1.0  -0.0522
  C  C79  1  0.842400  0.042400  0.277360  1.0  -0.0548
  C  C80  1  0.721000  0.029300  0.306360  1.0  -0.1255
  C  C81  1  0.705200  0.054100  0.379170  1.0  0.7187
  C  C82  1  0.862500  0.668800  0.012570  1.0  0.6688
  C  C83  1  0.740000  0.604900  0.031650  1.0  0.1558
  C  C84  1  0.733600  0.594200  0.106280  1.0  -0.3717
  O  O85  1  0.176600  0.582900  0.928990  1.0  -0.6147
  O  O86  1  0.390900  0.553800  0.917030  1.0  -0.6373
  O  O87  1  0.094800  0.460100  0.596660  1.0  -0.6166
  O  O88  1  0.305600  0.416200  0.590970  1.0  -0.6141
  O  O89  1  0.350400  0.731240  0.009840  1.0  -0.6402
  O  O90  1  0.468700  0.880300  0.975860  1.0  -0.5881
  O  O91  1  0.129300  0.838660  0.994210  1.0  -0.735
  O  O92  1  0.323400  0.417100  0.428990  1.0  -0.6145
  O  O93  1  0.109100  0.446200  0.417030  1.0  -0.6404
  O  O94  1  0.405200  0.539900  0.096660  1.0  -0.616
  O  O95  1  0.194400  0.583800  0.090970  1.0  -0.6185
  O  O96  1  0.149600  0.268760  0.509840  1.0  -0.641
  O  O97  1  0.031300  0.119700  0.475860  1.0  -0.5858
  O  O98  1  0.370700  0.161340  0.494210  1.0  -0.7336
  O  O99  1  0.823400  0.082900  0.571010  1.0  -0.6143
  O  O100  1  0.609100  0.053800  0.582970  1.0  -0.6384
  O  O101  1  0.905200  0.960100  0.903340  1.0  -0.6163
  O  O102  1  0.694400  0.916200  0.909030  1.0  -0.6192
  O  O103  1  0.649600  0.231240  0.490160  1.0  -0.641
  O  O104  1  0.531300  0.380300  0.524140  1.0  -0.5858
  O  O105  1  0.870700  0.338660  0.505790  1.0  -0.734
  O  O106  1  0.676600  0.917100  0.071010  1.0  -0.6151
  O  O107  1  0.890900  0.946200  0.082970  1.0  -0.64
  O  O108  1  0.594800  0.039900  0.403340  1.0  -0.616
  O  O109  1  0.805600  0.083800  0.409030  1.0  -0.6139
  O  O110  1  0.850400  0.768760  0.990160  1.0  -0.6406
  O  O111  1  0.968700  0.619700  0.024140  1.0  -0.5871
  O  O112  1  0.629300  0.661340  0.005790  1.0  -0.7343
