# generated using pymatgen
data_Zn2H8C11O7
_symmetry_space_group_name_H-M   'P 1'
_cell_length_a   10.33700000
_cell_length_b   11.64900000
_cell_length_c   20.46400000
_cell_angle_alpha   90.00000000
_cell_angle_beta   90.00000000
_cell_angle_gamma   90.00000000
_symmetry_Int_Tables_number   1
_chemical_formula_structural   Zn2H8C11O7
_chemical_formula_sum   'Zn8 H32 C44 O28'
_cell_volume   2464.18715083
_cell_formula_units_Z   4
loop_
 _symmetry_equiv_pos_site_id
 _symmetry_equiv_pos_as_xyz
  1  'x, y, z'
loop_
 _atom_site_type_symbol
 _atom_site_label
 _atom_site_symmetry_multiplicity
 _atom_site_fract_x
 _atom_site_fract_y
 _atom_site_fract_z
 _atom_site_occupancy
 _atom_site_charge
  Zn  Zn1  1  0.956460  0.577660  0.006780  1.0  1.1032
  Zn  Zn2  1  0.643000  0.675210  0.007280  1.0  1.0727
  Zn  Zn3  1  0.543540  0.422340  0.506780  1.0  1.1043
  Zn  Zn4  1  0.857000  0.324790  0.507280  1.0  1.0742
  Zn  Zn5  1  0.043540  0.077660  0.493220  1.0  1.1045
  Zn  Zn6  1  0.357000  0.175210  0.492720  1.0  1.0706
  Zn  Zn7  1  0.456460  0.922340  0.993220  1.0  1.1043
  Zn  Zn8  1  0.143000  0.824790  0.992720  1.0  1.0746
  H  H9  1  0.940400  0.472600  0.811600  1.0  0.1107
  H  H10  1  0.565400  0.561500  0.815000  1.0  0.1079
  H  H11  1  0.922700  0.425700  0.701400  1.0  0.1084
  H  H12  1  0.546900  0.515600  0.705300  1.0  0.1053
  H  H13  1  0.736400  0.974600  0.992700  1.0  0.074
  H  H14  1  0.649900  0.960800  0.886400  1.0  0.1191
  H  H15  1  0.801400  0.961500  0.883500  1.0  0.1255
  H  H16  1  0.725700  0.845900  0.875300  1.0  0.1262
  H  H17  1  0.559600  0.527400  0.311600  1.0  0.11
  H  H18  1  0.934600  0.438500  0.315000  1.0  0.108
  H  H19  1  0.577300  0.574300  0.201400  1.0  0.1087
  H  H20  1  0.953100  0.484400  0.205300  1.0  0.105
  H  H21  1  0.763600  0.025400  0.492700  1.0  0.0763
  H  H22  1  0.850100  0.039200  0.386400  1.0  0.1186
  H  H23  1  0.698600  0.038500  0.383500  1.0  0.1255
  H  H24  1  0.774300  0.154100  0.375300  1.0  0.1274
  H  H25  1  0.059600  0.972600  0.688400  1.0  0.1105
  H  H26  1  0.434600  0.061500  0.685000  1.0  0.1082
  H  H27  1  0.077300  0.925700  0.798600  1.0  0.1084
  H  H28  1  0.453100  0.015600  0.794700  1.0  0.105
  H  H29  1  0.263600  0.474600  0.507300  1.0  0.0725
  H  H30  1  0.350100  0.460800  0.613600  1.0  0.119
  H  H31  1  0.198600  0.461500  0.616500  1.0  0.1261
  H  H32  1  0.274300  0.345900  0.624700  1.0  0.1261
  H  H33  1  0.440400  0.027400  0.188400  1.0  0.111
  H  H34  1  0.065400  0.938500  0.185000  1.0  0.1079
  H  H35  1  0.422700  0.074300  0.298600  1.0  0.1088
  H  H36  1  0.046900  0.984400  0.294700  1.0  0.1056
  H  H37  1  0.236400  0.525400  0.007300  1.0  0.0749
  H  H38  1  0.149900  0.539200  0.113600  1.0  0.1191
  H  H39  1  0.301400  0.538500  0.116500  1.0  0.1262
  H  H40  1  0.225700  0.654100  0.124700  1.0  0.1269
  C  C41  1  0.767100  0.553300  0.895320  1.0  0.7226
  C  C42  1  0.754600  0.522200  0.824250  1.0  -0.129
  C  C43  1  0.861600  0.481300  0.790250  1.0  -0.0583
  C  C44  1  0.637100  0.534600  0.792270  1.0  -0.0559
  C  C45  1  0.851100  0.453300  0.723950  1.0  -0.0541
  C  C46  1  0.626000  0.507100  0.726440  1.0  -0.0539
  C  C47  1  0.733400  0.466800  0.691910  1.0  -0.1307
  C  C48  1  0.722800  0.438000  0.620610  1.0  0.726
  C  C49  1  0.854000  0.833000  0.987900  1.0  0.6663
  C  C50  1  0.732400  0.899600  0.971040  1.0  0.1649
  C  C51  1  0.726800  0.918700  0.897200  1.0  -0.3721
  C  C52  1  0.732900  0.446700  0.395320  1.0  0.7233
  C  C53  1  0.745400  0.477800  0.324250  1.0  -0.1285
  C  C54  1  0.638400  0.518700  0.290250  1.0  -0.06
  C  C55  1  0.862900  0.465400  0.292270  1.0  -0.054
  C  C56  1  0.648900  0.546700  0.223950  1.0  -0.0549
  C  C57  1  0.874000  0.492900  0.226440  1.0  -0.0548
  C  C58  1  0.766600  0.533200  0.191910  1.0  -0.1306
  C  C59  1  0.777200  0.562000  0.120610  1.0  0.7254
  C  C60  1  0.646000  0.167000  0.487900  1.0  0.666
  C  C61  1  0.767600  0.100400  0.471040  1.0  0.1676
  C  C62  1  0.773200  0.081300  0.397200  1.0  -0.3715
  C  C63  1  0.232900  0.053300  0.604680  1.0  0.721
  C  C64  1  0.245400  0.022200  0.675750  1.0  -0.129
  C  C65  1  0.138400  0.981300  0.709750  1.0  -0.0591
  C  C66  1  0.362900  0.034600  0.707730  1.0  -0.0546
  C  C67  1  0.148900  0.953300  0.776050  1.0  -0.0544
  C  C68  1  0.374000  0.007100  0.773560  1.0  -0.0544
  C  C69  1  0.266600  0.966800  0.808090  1.0  -0.1305
  C  C70  1  0.277200  0.938000  0.879390  1.0  0.7268
  C  C71  1  0.146000  0.333000  0.512100  1.0  0.6667
  C  C72  1  0.267600  0.399600  0.528960  1.0  0.1666
  C  C73  1  0.273200  0.418700  0.602800  1.0  -0.3728
  C  C74  1  0.267100  0.946700  0.104680  1.0  0.7228
  C  C75  1  0.254600  0.977800  0.175750  1.0  -0.1285
  C  C76  1  0.361600  0.018700  0.209750  1.0  -0.0581
  C  C77  1  0.137100  0.965400  0.207730  1.0  -0.0551
  C  C78  1  0.351100  0.046700  0.276050  1.0  -0.0539
  C  C79  1  0.126000  0.992900  0.273560  1.0  -0.0534
  C  C80  1  0.233400  0.033200  0.308090  1.0  -0.1298
  C  C81  1  0.222800  0.062000  0.379390  1.0  0.7276
  C  C82  1  0.354000  0.667000  0.012100  1.0  0.6656
  C  C83  1  0.232400  0.600400  0.028960  1.0  0.1682
  C  C84  1  0.226800  0.581300  0.102800  1.0  -0.3716
  O  O85  1  0.667100  0.585900  0.924470  1.0  -0.616
  O  O86  1  0.878100  0.542100  0.920100  1.0  -0.6525
  O  O87  1  0.618200  0.464700  0.592750  1.0  -0.6394
  O  O88  1  0.820000  0.391200  0.595090  1.0  -0.6086
  O  O89  1  0.841400  0.729200  0.005350  1.0  -0.6457
  O  O90  1  0.959700  0.884400  0.981520  1.0  -0.5862
  O  O91  1  0.619900  0.841200  0.992940  1.0  -0.7368
  O  O92  1  0.832900  0.414100  0.424470  1.0  -0.6154
  O  O93  1  0.621900  0.457900  0.420100  1.0  -0.6527
  O  O94  1  0.881800  0.535300  0.092750  1.0  -0.6372
  O  O95  1  0.680000  0.608800  0.095090  1.0  -0.609
  O  O96  1  0.658600  0.270800  0.505350  1.0  -0.6474
  O  O97  1  0.540300  0.115600  0.481520  1.0  -0.5856
  O  O98  1  0.880100  0.158800  0.492940  1.0  -0.7362
  O  O99  1  0.332900  0.085900  0.575530  1.0  -0.616
  O  O100  1  0.121900  0.042100  0.579900  1.0  -0.6519
  O  O101  1  0.381800  0.964700  0.907250  1.0  -0.6373
  O  O102  1  0.180000  0.891200  0.904910  1.0  -0.6093
  O  O103  1  0.158600  0.229200  0.494650  1.0  -0.6461
  O  O104  1  0.040300  0.384400  0.518480  1.0  -0.585
  O  O105  1  0.380100  0.341200  0.507060  1.0  -0.7367
  O  O106  1  0.167100  0.914100  0.075530  1.0  -0.616
  O  O107  1  0.378100  0.957900  0.079900  1.0  -0.6522
  O  O108  1  0.118200  0.035300  0.407250  1.0  -0.6385
  O  O109  1  0.320000  0.108800  0.404910  1.0  -0.6081
  O  O110  1  0.341400  0.770800  0.994650  1.0  -0.6457
  O  O111  1  0.459700  0.615600  0.018480  1.0  -0.5863
  O  O112  1  0.119900  0.658800  0.007060  1.0  -0.7371
