# generated using pymatgen
data_CdH4C8(N3O)2
_symmetry_space_group_name_H-M   'P 1'
_cell_length_a   8.16500000
_cell_length_b   8.84190000
_cell_length_c   12.22590000
_cell_angle_alpha   75.11310000
_cell_angle_beta   70.49310000
_cell_angle_gamma   62.50180000
_symmetry_Int_Tables_number   1
_chemical_formula_structural   CdH4C8(N3O)2
_chemical_formula_sum   'Cd2 H8 C16 N12 O4'
_cell_volume   732.39158435
_cell_formula_units_Z   2
loop_
 _symmetry_equiv_pos_site_id
 _symmetry_equiv_pos_as_xyz
  1  'x, y, z'
loop_
 _atom_site_type_symbol
 _atom_site_label
 _atom_site_symmetry_multiplicity
 _atom_site_fract_x
 _atom_site_fract_y
 _atom_site_fract_z
 _atom_site_occupancy
 _atom_site_charge
  Cd  Cd1  1  0.425410  0.250000  0.750000  1.0  1.0633
  Cd  Cd2  1  0.574590  0.750000  0.250000  1.0  1.0621
  H  H3  1  0.490700  0.524900  0.104900  1.0  0.3361
  H  H4  1  0.555800  0.335200  0.118200  1.0  0.3592
  H  H5  1  0.120500  0.975100  0.395100  1.0  0.3359
  H  H6  1  0.009200  0.164800  0.381800  1.0  0.3598
  H  H7  1  0.509300  0.475100  0.895100  1.0  0.3362
  H  H8  1  0.444200  0.664800  0.881800  1.0  0.3597
  H  H9  1  0.879500  0.024900  0.604900  1.0  0.3365
  H  H10  1  0.990800  0.835200  0.618200  1.0  0.3606
  C  C11  1  0.500300  0.419300  0.260900  1.0  0.5286
  C  C12  1  0.543700  0.256000  0.332000  1.0  -0.1685
  C  C13  1  0.530500  0.248800  0.450600  1.0  0.3494
  C  C14  1  0.592800  0.104400  0.288600  1.0  0.3562
  C  C15  1  0.180500  0.080700  0.239100  1.0  0.5297
  C  C16  1  0.131700  0.244000  0.168000  1.0  -0.1679
  C  C17  1  0.229900  0.251200  0.049400  1.0  0.3475
  C  C18  1  0.985800  0.395600  0.211400  1.0  0.3544
  C  C19  1  0.499700  0.580700  0.739100  1.0  0.5294
  C  C20  1  0.456300  0.744000  0.668000  1.0  -0.1683
  C  C21  1  0.469500  0.751200  0.549400  1.0  0.3499
  C  C22  1  0.407200  0.895600  0.711400  1.0  0.3552
  C  C23  1  0.819500  0.919300  0.760900  1.0  0.5267
  C  C24  1  0.868300  0.756000  0.832000  1.0  -0.1682
  C  C25  1  0.770100  0.748800  0.950600  1.0  0.3476
  C  C26  1  0.014200  0.604400  0.788600  1.0  0.3567
  N  N27  1  0.517600  0.427400  0.148200  1.0  -0.6756
  N  N28  1  0.518900  0.241700  0.547700  1.0  -0.4793
  N  N29  1  0.634300  0.980100  0.252700  1.0  -0.4872
  N  N30  1  0.093200  0.072600  0.351800  1.0  -0.6755
  N  N31  1  0.308300  0.258300  0.952300  1.0  -0.4774
  N  N32  1  0.867100  0.519900  0.247300  1.0  -0.4905
  N  N33  1  0.482400  0.572600  0.851800  1.0  -0.6762
  N  N34  1  0.481100  0.758300  0.452300  1.0  -0.4763
  N  N35  1  0.365700  0.019900  0.747300  1.0  -0.4904
  N  N36  1  0.906800  0.927400  0.648200  1.0  -0.6749
  N  N37  1  0.691700  0.741700  0.047700  1.0  -0.4779
  N  N38  1  0.132900  0.480100  0.752700  1.0  -0.4889
  O  O39  1  0.444460  0.553290  0.305990  1.0  -0.6482
  O  O40  1  0.303740  0.946710  0.194010  1.0  -0.6503
  O  O41  1  0.555540  0.446710  0.694010  1.0  -0.6513
  O  O42  1  0.696260  0.053290  0.805990  1.0  -0.6486
