# generated using pymatgen
data_MnH4C8(N3O)2
_symmetry_space_group_name_H-M   'P 1'
_cell_length_a   8.19700000
_cell_length_b   8.71360000
_cell_length_c   12.13560000
_cell_angle_alpha   74.69230000
_cell_angle_beta   70.26160000
_cell_angle_gamma   61.94240000
_symmetry_Int_Tables_number   1
_chemical_formula_structural   MnH4C8(N3O)2
_chemical_formula_sum   'Mn2 H8 C16 N12 O4'
_cell_volume   714.18488388
_cell_formula_units_Z   2
loop_
 _symmetry_equiv_pos_site_id
 _symmetry_equiv_pos_as_xyz
  1  'x, y, z'
loop_
 _atom_site_type_symbol
 _atom_site_label
 _atom_site_symmetry_multiplicity
 _atom_site_fract_x
 _atom_site_fract_y
 _atom_site_fract_z
 _atom_site_occupancy
 _atom_site_charge
  Mn  Mn1  1  0.077560  0.750000  0.250000  1.0  1.0396
  Mn  Mn2  1  0.922440  0.250000  0.750000  1.0  1.0423
  H  H3  1  0.494000  0.831000  0.617000  1.0  0.337
  H  H4  1  0.370000  0.025000  0.605000  1.0  0.3124
  H  H5  1  0.942000  0.669000  0.883000  1.0  0.3365
  H  H6  1  0.000000  0.475000  0.895000  1.0  0.3115
  H  H7  1  0.506000  0.169000  0.383000  1.0  0.3369
  H  H8  1  0.630000  0.975000  0.395000  1.0  0.3137
  H  H9  1  0.058000  0.331000  0.117000  1.0  0.3357
  H  H10  1  0.000000  0.525000  0.105000  1.0  0.312
  C  C11  1  0.309560  0.918380  0.757900  1.0  0.6007
  C  C12  1  0.363400  0.755400  0.833400  1.0  -0.199
  C  C13  1  0.267890  0.751420  0.953400  1.0  0.3316
  C  C14  1  0.513310  0.599980  0.791400  1.0  0.3605
  C  C15  1  0.985840  0.581620  0.742100  1.0  0.6
  C  C16  1  0.952200  0.744600  0.666667  1.0  -0.19
  C  C17  1  0.972710  0.748580  0.546600  1.0  0.3339
  C  C18  1  0.904690  0.900020  0.708600  1.0  0.3614
  C  C19  1  0.690440  0.081620  0.242100  1.0  0.6027
  C  C20  1  0.636600  0.244600  0.166600  1.0  -0.1986
  C  C21  1  0.732110  0.248580  0.046600  1.0  0.3315
  C  C22  1  0.486690  0.400020  0.208600  1.0  0.3592
  C  C23  1  0.014160  0.418380  0.257900  1.0  0.5999
  C  C24  1  0.047800  0.255400  0.333400  1.0  -0.1982
  C  C25  1  0.027290  0.251420  0.453400  1.0  0.3338
  C  C26  1  0.095310  0.099980  0.291400  1.0  0.361
  N  N27  1  0.397100  0.924200  0.645000  1.0  -0.6486
  N  N28  1  0.191490  0.746820  0.051800  1.0  -0.4535
  N  N29  1  0.635710  0.473310  0.756070  1.0  -0.526
  N  N30  1  0.966300  0.575800  0.855000  1.0  -0.6491
  N  N31  1  0.990110  0.753180  0.448200  1.0  -0.4543
  N  N32  1  0.865090  0.026690  0.743930  1.0  -0.5271
  N  N33  1  0.602900  0.075800  0.355000  1.0  -0.6474
  N  N34  1  0.808510  0.253180  0.948200  1.0  -0.4518
  N  N35  1  0.364290  0.526690  0.243930  1.0  -0.5265
  N  N36  1  0.033700  0.424200  0.145000  1.0  -0.6484
  N  N37  1  0.009890  0.246820  0.551800  1.0  -0.4552
  N  N38  1  0.134910  0.973310  0.256070  1.0  -0.5238
  O  O39  1  0.179690  0.057030  0.800190  1.0  -0.6383
  O  O40  1  0.036910  0.442970  0.699810  1.0  -0.6394
  O  O41  1  0.820310  0.942970  0.199810  1.0  -0.6395
  O  O42  1  0.963090  0.557030  0.300190  1.0  -0.6391
