# generated using pymatgen
data_Zr3(C6O7)2
_symmetry_space_group_name_H-M   'P 1'
_cell_length_a   24.99190000
_cell_length_b   24.99190000
_cell_length_c   24.76880000
_cell_angle_alpha   90.00000000
_cell_angle_beta   90.00000000
_cell_angle_gamma   120.00000000
_symmetry_Int_Tables_number   1
_chemical_formula_structural   Zr3(C6O7)2
_chemical_formula_sum   'Zr36 C144 O168'
_cell_volume   13397.82025459
_cell_formula_units_Z   12
loop_
 _symmetry_equiv_pos_site_id
 _symmetry_equiv_pos_as_xyz
  1  'x, y, z'
loop_
 _atom_site_type_symbol
 _atom_site_label
 _atom_site_symmetry_multiplicity
 _atom_site_fract_x
 _atom_site_fract_y
 _atom_site_fract_z
 _atom_site_occupancy
 _atom_site_charge
  Zr  Zr1  1  0.388930  0.469090  0.474780  1.0  2.0708
  Zr  Zr2  1  0.530910  0.919840  0.474780  1.0  2.0638
  Zr  Zr3  1  0.080160  0.611070  0.474780  1.0  2.0732
  Zr  Zr4  1  0.611070  0.530910  0.974780  1.0  2.051
  Zr  Zr5  1  0.469090  0.080160  0.974780  1.0  2.0702
  Zr  Zr6  1  0.919840  0.388930  0.974780  1.0  2.0577
  Zr  Zr7  1  0.469090  0.388930  0.525220  1.0  2.0578
  Zr  Zr8  1  0.919840  0.530910  0.525220  1.0  2.072
  Zr  Zr9  1  0.611070  0.080160  0.525220  1.0  2.0658
  Zr  Zr10  1  0.530910  0.611070  0.025220  1.0  2.076
  Zr  Zr11  1  0.080160  0.469090  0.025220  1.0  2.0508
  Zr  Zr12  1  0.388930  0.919840  0.025220  1.0  2.0728
  Zr  Zr13  1  0.611070  0.530910  0.525220  1.0  2.0517
  Zr  Zr14  1  0.469090  0.080160  0.525220  1.0  2.0708
  Zr  Zr15  1  0.919840  0.388930  0.525220  1.0  2.0586
  Zr  Zr16  1  0.388930  0.469090  0.025220  1.0  2.0716
  Zr  Zr17  1  0.530910  0.919840  0.025220  1.0  2.065
  Zr  Zr18  1  0.080160  0.611070  0.025220  1.0  2.0745
  Zr  Zr19  1  0.530910  0.611070  0.474780  1.0  2.0747
  Zr  Zr20  1  0.080160  0.469090  0.474780  1.0  2.0498
  Zr  Zr21  1  0.388930  0.919840  0.474780  1.0  2.0717
  Zr  Zr22  1  0.469090  0.388930  0.974780  1.0  2.0569
  Zr  Zr23  1  0.919840  0.530910  0.974780  1.0  2.0714
  Zr  Zr24  1  0.611070  0.080160  0.974780  1.0  2.065
  Zr  Zr25  1  0.481440  0.518560  0.592740  1.0  2.0645
  Zr  Zr26  1  0.481440  0.962890  0.592740  1.0  2.0671
  Zr  Zr27  1  0.037110  0.518560  0.592740  1.0  2.0638
  Zr  Zr28  1  0.518560  0.481440  0.092740  1.0  2.0644
  Zr  Zr29  1  0.518560  0.037110  0.092740  1.0  2.0663
  Zr  Zr30  1  0.962890  0.481440  0.092740  1.0  2.0647
  Zr  Zr31  1  0.518560  0.481440  0.407260  1.0  2.0639
  Zr  Zr32  1  0.962890  0.481440  0.407260  1.0  2.0648
  Zr  Zr33  1  0.518560  0.037110  0.407260  1.0  2.0669
  Zr  Zr34  1  0.481440  0.518560  0.907260  1.0  2.065
  Zr  Zr35  1  0.037110  0.518560  0.907260  1.0  2.0636
  Zr  Zr36  1  0.481440  0.962890  0.907260  1.0  2.0669
  C  C37  1  0.338200  0.482400  0.588900  1.0  0.5704
  C  C38  1  0.290700  0.494300  0.618400  1.0  0.0696
  C  C39  1  0.292600  0.523500  0.669300  1.0  0.059
  C  C40  1  0.393000  0.439000  0.344900  1.0  0.6119
  C  C41  1  0.349600  0.418600  0.296600  1.0  0.0606
  C  C42  1  0.291300  0.411600  0.279100  1.0  -0.0097
  C  C43  1  0.517600  0.855800  0.588900  1.0  0.5722
  C  C44  1  0.505700  0.796400  0.618400  1.0  0.0685
  C  C45  1  0.476500  0.769100  0.669300  1.0  0.0576
  C  C46  1  0.561000  0.954000  0.344900  1.0  0.6137
  C  C47  1  0.581400  0.931000  0.296600  1.0  0.0605
  C  C48  1  0.588400  0.879700  0.279100  1.0  -0.0101
  C  C49  1  0.144200  0.661800  0.588900  1.0  0.5709
  C  C50  1  0.203600  0.709300  0.618400  1.0  0.069
  C  C51  1  0.230900  0.707400  0.669300  1.0  0.0569
  C  C52  1  0.046000  0.607000  0.344900  1.0  0.6131
  C  C53  1  0.069000  0.650400  0.296600  1.0  0.0615
  C  C54  1  0.120300  0.708700  0.279100  1.0  -0.0081
  C  C55  1  0.661800  0.517600  0.088900  1.0  0.5713
  C  C56  1  0.709300  0.505700  0.118400  1.0  0.0691
  C  C57  1  0.707400  0.476500  0.169300  1.0  0.0578
  C  C58  1  0.607000  0.561000  0.844900  1.0  0.6132
  C  C59  1  0.650400  0.581400  0.796600  1.0  0.0604
  C  C60  1  0.708700  0.588400  0.779100  1.0  -0.0069
  C  C61  1  0.482400  0.144200  0.088900  1.0  0.5707
  C  C62  1  0.494300  0.203600  0.118400  1.0  0.068
  C  C63  1  0.523500  0.230900  0.169300  1.0  0.0591
  C  C64  1  0.439000  0.046000  0.844900  1.0  0.6118
  C  C65  1  0.418600  0.069000  0.796600  1.0  0.0606
  C  C66  1  0.411600  0.120300  0.779100  1.0  -0.0152
  C  C67  1  0.855800  0.338200  0.088900  1.0  0.5699
  C  C68  1  0.796400  0.290700  0.118400  1.0  0.0703
  C  C69  1  0.769100  0.292600  0.169300  1.0  0.0571
  C  C70  1  0.954000  0.393000  0.844900  1.0  0.6127
  C  C71  1  0.931000  0.349600  0.796600  1.0  0.0618
  C  C72  1  0.879700  0.291300  0.779100  1.0  -0.0126
  C  C73  1  0.482400  0.338200  0.411100  1.0  0.5701
  C  C74  1  0.494300  0.290700  0.381600  1.0  0.0704
  C  C75  1  0.523500  0.292600  0.330700  1.0  0.0606
  C  C76  1  0.439000  0.393000  0.655100  1.0  0.6137
  C  C77  1  0.418600  0.349600  0.703400  1.0  0.062
  C  C78  1  0.411600  0.291300  0.720900  1.0  -0.0078
  C  C79  1  0.855800  0.517600  0.411100  1.0  0.5699
  C  C80  1  0.796400  0.505700  0.381600  1.0  0.069
  C  C81  1  0.769100  0.476500  0.330700  1.0  0.0632
  C  C82  1  0.954000  0.561000  0.655100  1.0  0.6118
  C  C83  1  0.931000  0.581400  0.703400  1.0  0.061
  C  C84  1  0.879700  0.588400  0.720900  1.0  -0.0095
  C  C85  1  0.661800  0.144200  0.411100  1.0  0.571
  C  C86  1  0.709300  0.203600  0.381600  1.0  0.0675
  C  C87  1  0.707400  0.230900  0.330700  1.0  0.0627
  C  C88  1  0.607000  0.046000  0.655100  1.0  0.6138
  C  C89  1  0.650400  0.069000  0.703400  1.0  0.0613
  C  C90  1  0.708700  0.120300  0.720900  1.0  -0.0086
  C  C91  1  0.517600  0.661800  0.911100  1.0  0.5699
  C  C92  1  0.505700  0.709300  0.881600  1.0  0.0687
  C  C93  1  0.476500  0.707400  0.830700  1.0  0.0627
  C  C94  1  0.561000  0.607000  0.155100  1.0  0.6131
  C  C95  1  0.581400  0.650400  0.203400  1.0  0.0628
  C  C96  1  0.588400  0.708700  0.220900  1.0  -0.0085
  C  C97  1  0.144200  0.482400  0.911100  1.0  0.5716
  C  C98  1  0.203600  0.494300  0.881600  1.0  0.0694
  C  C99  1  0.230900  0.523500  0.830700  1.0  0.0623
  C  C100  1  0.046000  0.439000  0.155100  1.0  0.6144
  C  C101  1  0.069000  0.418600  0.203400  1.0  0.0618
  C  C102  1  0.120300  0.411600  0.220900  1.0  -0.0074
  C  C103  1  0.338200  0.855800  0.911100  1.0  0.5709
  C  C104  1  0.290700  0.796400  0.881600  1.0  0.0684
  C  C105  1  0.292600  0.769100  0.830700  1.0  0.0636
  C  C106  1  0.393000  0.954000  0.155100  1.0  0.6128
  C  C107  1  0.349600  0.931000  0.203400  1.0  0.061
  C  C108  1  0.291300  0.879700  0.220900  1.0  -0.0104
  C  C109  1  0.661800  0.517600  0.411100  1.0  0.571
  C  C110  1  0.709300  0.505700  0.381600  1.0  0.0681
  C  C111  1  0.707400  0.476500  0.330700  1.0  0.0631
  C  C112  1  0.607000  0.561000  0.655100  1.0  0.6132
  C  C113  1  0.650400  0.581400  0.703400  1.0  0.059
  C  C114  1  0.708700  0.588400  0.720900  1.0  -0.0057
  C  C115  1  0.482400  0.144200  0.411100  1.0  0.5701
  C  C116  1  0.494300  0.203600  0.381600  1.0  0.0669
  C  C117  1  0.523500  0.230900  0.330700  1.0  0.0632
  C  C118  1  0.439000  0.046000  0.655100  1.0  0.6121
  C  C119  1  0.418600  0.069000  0.703400  1.0  0.059
  C  C120  1  0.411600  0.120300  0.720900  1.0  -0.0137
  C  C121  1  0.855800  0.338200  0.411100  1.0  0.5696
  C  C122  1  0.796400  0.290700  0.381600  1.0  0.0692
  C  C123  1  0.769100  0.292600  0.330700  1.0  0.0615
  C  C124  1  0.954000  0.393000  0.655100  1.0  0.6128
  C  C125  1  0.931000  0.349600  0.703400  1.0  0.0602
  C  C126  1  0.879700  0.291300  0.720900  1.0  -0.0096
  C  C127  1  0.338200  0.482400  0.911100  1.0  0.5699
  C  C128  1  0.290700  0.494300  0.881600  1.0  0.0686
  C  C129  1  0.292600  0.523500  0.830700  1.0  0.0626
  C  C130  1  0.393000  0.439000  0.155100  1.0  0.6122
  C  C131  1  0.349600  0.418600  0.203400  1.0  0.0589
  C  C132  1  0.291300  0.411600  0.220900  1.0  -0.0072
  C  C133  1  0.517600  0.855800  0.911100  1.0  0.572
  C  C134  1  0.505700  0.796400  0.881600  1.0  0.0672
  C  C135  1  0.476500  0.769100  0.830700  1.0  0.0633
  C  C136  1  0.561000  0.954000  0.155100  1.0  0.6139
  C  C137  1  0.581400  0.931000  0.203400  1.0  0.0589
  C  C138  1  0.588400  0.879700  0.220900  1.0  -0.0091
  C  C139  1  0.144200  0.661800  0.911100  1.0  0.5704
  C  C140  1  0.203600  0.709300  0.881600  1.0  0.0679
  C  C141  1  0.230900  0.707400  0.830700  1.0  0.0618
  C  C142  1  0.046000  0.607000  0.155100  1.0  0.6134
  C  C143  1  0.069000  0.650400  0.203400  1.0  0.06
  C  C144  1  0.120300  0.708700  0.220900  1.0  -0.0078
  C  C145  1  0.517600  0.661800  0.588900  1.0  0.5703
  C  C146  1  0.505700  0.709300  0.618400  1.0  0.0677
  C  C147  1  0.476500  0.707400  0.669300  1.0  0.0573
  C  C148  1  0.561000  0.607000  0.344900  1.0  0.6128
  C  C149  1  0.581400  0.650400  0.296600  1.0  0.0596
  C  C150  1  0.588400  0.708700  0.279100  1.0  -0.0096
  C  C151  1  0.144200  0.482400  0.588900  1.0  0.5719
  C  C152  1  0.203600  0.494300  0.618400  1.0  0.0686
  C  C153  1  0.230900  0.523500  0.669300  1.0  0.0573
  C  C154  1  0.046000  0.439000  0.344900  1.0  0.6144
  C  C155  1  0.069000  0.418600  0.296600  1.0  0.0587
  C  C156  1  0.120300  0.411600  0.279100  1.0  -0.0081
  C  C157  1  0.338200  0.855800  0.588900  1.0  0.5714
  C  C158  1  0.290700  0.796400  0.618400  1.0  0.0677
  C  C159  1  0.292600  0.769100  0.669300  1.0  0.0594
  C  C160  1  0.393000  0.954000  0.344900  1.0  0.6124
  C  C161  1  0.349600  0.931000  0.296600  1.0  0.0581
  C  C162  1  0.291300  0.879700  0.279100  1.0  -0.0125
  C  C163  1  0.482400  0.338200  0.088900  1.0  0.5704
  C  C164  1  0.494300  0.290700  0.118400  1.0  0.0697
  C  C165  1  0.523500  0.292600  0.169300  1.0  0.0568
  C  C166  1  0.439000  0.393000  0.844900  1.0  0.6136
  C  C167  1  0.418600  0.349600  0.796600  1.0  0.0589
  C  C168  1  0.411600  0.291300  0.779100  1.0  -0.0095
  C  C169  1  0.855800  0.517600  0.088900  1.0  0.5704
  C  C170  1  0.796400  0.505700  0.118400  1.0  0.068
  C  C171  1  0.769100  0.476500  0.169300  1.0  0.059
  C  C172  1  0.954000  0.561000  0.844900  1.0  0.6114
  C  C173  1  0.931000  0.581400  0.796600  1.0  0.0577
  C  C174  1  0.879700  0.588400  0.779100  1.0  -0.0123
  C  C175  1  0.661800  0.144200  0.088900  1.0  0.5713
  C  C176  1  0.709300  0.203600  0.118400  1.0  0.0669
  C  C177  1  0.707400  0.230900  0.169300  1.0  0.0575
  C  C178  1  0.607000  0.046000  0.844900  1.0  0.6136
  C  C179  1  0.650400  0.069000  0.796600  1.0  0.0582
  C  C180  1  0.708700  0.120300  0.779100  1.0  -0.009
  O  O181  1  0.430400  0.443800  0.542000  1.0  -0.893
  O  O182  1  0.331600  0.463500  0.538600  1.0  -0.5892
  O  O183  1  0.393300  0.504400  0.608200  1.0  -0.6111
  O  O184  1  0.369100  0.438300  0.390950  1.0  -0.6374
  O  O185  1  0.447400  0.448700  0.351100  1.0  -0.5798
  O  O186  1  0.556200  0.986600  0.542000  1.0  -0.8937
  O  O187  1  0.536500  0.868100  0.538600  1.0  -0.5856
  O  O188  1  0.495600  0.888900  0.608200  1.0  -0.6085
  O  O189  1  0.561700  0.930800  0.390950  1.0  -0.64
  O  O190  1  0.551300  0.998700  0.351100  1.0  -0.5801
  O  O191  1  0.013400  0.569600  0.542000  1.0  -0.8933
  O  O192  1  0.131900  0.668400  0.538600  1.0  -0.5874
  O  O193  1  0.111100  0.606700  0.608200  1.0  -0.6109
  O  O194  1  0.069200  0.630900  0.390950  1.0  -0.6355
  O  O195  1  0.001300  0.552600  0.351100  1.0  -0.5796
  O  O196  1  0.569600  0.556200  0.042000  1.0  -0.8945
  O  O197  1  0.668400  0.536500  0.038600  1.0  -0.5889
  O  O198  1  0.606700  0.495600  0.108200  1.0  -0.61
  O  O199  1  0.630900  0.561700  0.890950  1.0  -0.6378
  O  O200  1  0.552600  0.551300  0.851100  1.0  -0.5781
  O  O201  1  0.443800  0.013400  0.042000  1.0  -0.8933
  O  O202  1  0.463500  0.131900  0.038600  1.0  -0.5858
  O  O203  1  0.504400  0.111100  0.108200  1.0  -0.6099
  O  O204  1  0.438300  0.069200  0.890950  1.0  -0.6382
  O  O205  1  0.448700  0.001300  0.851100  1.0  -0.5793
  O  O206  1  0.986600  0.430400  0.042000  1.0  -0.8942
  O  O207  1  0.868100  0.331600  0.038600  1.0  -0.5858
  O  O208  1  0.888900  0.393300  0.108200  1.0  -0.6106
  O  O209  1  0.930800  0.369100  0.890950  1.0  -0.6377
  O  O210  1  0.998700  0.447400  0.851100  1.0  -0.5784
  O  O211  1  0.443800  0.430400  0.458000  1.0  -0.8924
  O  O212  1  0.463500  0.331600  0.461400  1.0  -0.5919
  O  O213  1  0.504400  0.393300  0.391800  1.0  -0.6072
  O  O214  1  0.438300  0.369100  0.609050  1.0  -0.6359
  O  O215  1  0.448700  0.447400  0.648900  1.0  -0.5797
  O  O216  1  0.986600  0.556200  0.458000  1.0  -0.8938
  O  O217  1  0.868100  0.536500  0.461400  1.0  -0.5878
  O  O218  1  0.888900  0.495600  0.391800  1.0  -0.6084
  O  O219  1  0.930800  0.561700  0.609050  1.0  -0.6388
  O  O220  1  0.998700  0.551300  0.648900  1.0  -0.5816
  O  O221  1  0.569600  0.013400  0.458000  1.0  -0.893
  O  O222  1  0.668400  0.131900  0.461400  1.0  -0.5825
  O  O223  1  0.606700  0.111100  0.391800  1.0  -0.6066
  O  O224  1  0.630900  0.069200  0.609050  1.0  -0.6399
  O  O225  1  0.552600  0.001300  0.648900  1.0  -0.5811
  O  O226  1  0.556200  0.569600  0.958000  1.0  -0.8941
  O  O227  1  0.536500  0.668400  0.961400  1.0  -0.5879
  O  O228  1  0.495600  0.606700  0.891800  1.0  -0.6082
  O  O229  1  0.561700  0.630900  0.109050  1.0  -0.6382
  O  O230  1  0.551300  0.552600  0.148900  1.0  -0.5815
  O  O231  1  0.013400  0.443800  0.958000  1.0  -0.8942
  O  O232  1  0.131900  0.463500  0.961400  1.0  -0.5866
  O  O233  1  0.111100  0.504400  0.891800  1.0  -0.6076
  O  O234  1  0.069200  0.438300  0.109050  1.0  -0.6382
  O  O235  1  0.001300  0.448700  0.148900  1.0  -0.5799
  O  O236  1  0.430400  0.986600  0.958000  1.0  -0.8932
  O  O237  1  0.331600  0.868100  0.961400  1.0  -0.5831
  O  O238  1  0.393300  0.888900  0.891800  1.0  -0.6069
  O  O239  1  0.369100  0.930800  0.109050  1.0  -0.6385
  O  O240  1  0.447400  0.998700  0.148900  1.0  -0.5817
  O  O241  1  0.569600  0.556200  0.458000  1.0  -0.8944
  O  O242  1  0.668400  0.536500  0.461400  1.0  -0.5888
  O  O243  1  0.606700  0.495600  0.391800  1.0  -0.6074
  O  O244  1  0.630900  0.561700  0.609050  1.0  -0.6382
  O  O245  1  0.552600  0.551300  0.648900  1.0  -0.5802
  O  O246  1  0.443800  0.013400  0.458000  1.0  -0.8933
  O  O247  1  0.463500  0.131900  0.461400  1.0  -0.5852
  O  O248  1  0.504400  0.111100  0.391800  1.0  -0.607
  O  O249  1  0.438300  0.069200  0.609050  1.0  -0.6402
  O  O250  1  0.448700  0.001300  0.648900  1.0  -0.5812
  O  O251  1  0.986600  0.430400  0.458000  1.0  -0.8938
  O  O252  1  0.868100  0.331600  0.461400  1.0  -0.5874
  O  O253  1  0.888900  0.393300  0.391800  1.0  -0.6081
  O  O254  1  0.930800  0.369100  0.609050  1.0  -0.6378
  O  O255  1  0.998700  0.447400  0.648900  1.0  -0.5796
  O  O256  1  0.430400  0.443800  0.958000  1.0  -0.8927
  O  O257  1  0.331600  0.463500  0.961400  1.0  -0.5893
  O  O258  1  0.393300  0.504400  0.891800  1.0  -0.6085
  O  O259  1  0.369100  0.438300  0.109050  1.0  -0.6384
  O  O260  1  0.447400  0.448700  0.148900  1.0  -0.5812
  O  O261  1  0.556200  0.986600  0.958000  1.0  -0.8938
  O  O262  1  0.536500  0.868100  0.961400  1.0  -0.5851
  O  O263  1  0.495600  0.888900  0.891800  1.0  -0.6069
  O  O264  1  0.561700  0.930800  0.109050  1.0  -0.6398
  O  O265  1  0.551300  0.998700  0.148900  1.0  -0.5814
  O  O266  1  0.013400  0.569600  0.958000  1.0  -0.8931
  O  O267  1  0.131900  0.668400  0.961400  1.0  -0.5845
  O  O268  1  0.111100  0.606700  0.891800  1.0  -0.608
  O  O269  1  0.069200  0.630900  0.109050  1.0  -0.6374
  O  O270  1  0.001300  0.552600  0.148900  1.0  -0.5816
  O  O271  1  0.556200  0.569600  0.542000  1.0  -0.8942
  O  O272  1  0.536500  0.668400  0.538600  1.0  -0.5909
  O  O273  1  0.495600  0.606700  0.608200  1.0  -0.6114
  O  O274  1  0.561700  0.630900  0.390950  1.0  -0.6364
  O  O275  1  0.551300  0.552600  0.351100  1.0  -0.5795
  O  O276  1  0.013400  0.443800  0.542000  1.0  -0.8946
  O  O277  1  0.131900  0.463500  0.538600  1.0  -0.5862
  O  O278  1  0.111100  0.504400  0.608200  1.0  -0.61
  O  O279  1  0.069200  0.438300  0.390950  1.0  -0.6381
  O  O280  1  0.001300  0.448700  0.351100  1.0  -0.5779
  O  O281  1  0.430400  0.986600  0.542000  1.0  -0.8931
  O  O282  1  0.331600  0.868100  0.538600  1.0  -0.5837
  O  O283  1  0.393300  0.888900  0.608200  1.0  -0.609
  O  O284  1  0.369100  0.930800  0.390950  1.0  -0.6373
  O  O285  1  0.447400  0.998700  0.351100  1.0  -0.5804
  O  O286  1  0.443800  0.430400  0.042000  1.0  -0.8926
  O  O287  1  0.463500  0.331600  0.038600  1.0  -0.5899
  O  O288  1  0.504400  0.393300  0.108200  1.0  -0.6099
  O  O289  1  0.438300  0.369100  0.890950  1.0  -0.6358
  O  O290  1  0.448700  0.447400  0.851100  1.0  -0.578
  O  O291  1  0.986600  0.556200  0.042000  1.0  -0.8939
  O  O292  1  0.868100  0.536500  0.038600  1.0  -0.5886
  O  O293  1  0.888900  0.495600  0.108200  1.0  -0.611
  O  O294  1  0.930800  0.561700  0.890950  1.0  -0.6373
  O  O295  1  0.998700  0.551300  0.851100  1.0  -0.5806
  O  O296  1  0.569600  0.013400  0.042000  1.0  -0.8929
  O  O297  1  0.668400  0.131900  0.038600  1.0  -0.5822
  O  O298  1  0.606700  0.111100  0.108200  1.0  -0.6094
  O  O299  1  0.630900  0.069200  0.890950  1.0  -0.6391
  O  O300  1  0.552600  0.001300  0.851100  1.0  -0.5793
  O  O301  1  0.469700  0.530300  0.434200  1.0  -0.9656
  O  O302  1  0.455200  0.544800  0.517600  1.0  -0.9614
  O  O303  1  0.469700  0.939400  0.434200  1.0  -0.9635
  O  O304  1  0.455200  0.910400  0.517600  1.0  -0.9646
  O  O305  1  0.060600  0.530300  0.434200  1.0  -0.9672
  O  O306  1  0.089600  0.544800  0.517600  1.0  -0.9621
  O  O307  1  0.530300  0.469700  0.934200  1.0  -0.9672
  O  O308  1  0.544800  0.455200  0.017600  1.0  -0.9661
  O  O309  1  0.530300  0.060600  0.934200  1.0  -0.9663
  O  O310  1  0.544800  0.089600  0.017600  1.0  -0.9624
  O  O311  1  0.939400  0.469700  0.934200  1.0  -0.966
  O  O312  1  0.910400  0.455200  0.017600  1.0  -0.9633
  O  O313  1  0.530300  0.469700  0.565800  1.0  -0.9671
  O  O314  1  0.544800  0.455200  0.482400  1.0  -0.9665
  O  O315  1  0.939400  0.469700  0.565800  1.0  -0.9666
  O  O316  1  0.910400  0.455200  0.482400  1.0  -0.9636
  O  O317  1  0.530300  0.060600  0.565800  1.0  -0.9657
  O  O318  1  0.544800  0.089600  0.482400  1.0  -0.9626
  O  O319  1  0.469700  0.530300  0.065800  1.0  -0.9668
  O  O320  1  0.455200  0.544800  0.982400  1.0  -0.9624
  O  O321  1  0.060600  0.530300  0.065800  1.0  -0.9675
  O  O322  1  0.089600  0.544800  0.982400  1.0  -0.963
  O  O323  1  0.469700  0.939400  0.065800  1.0  -0.9646
  O  O324  1  0.455200  0.910400  0.982400  1.0  -0.9652
  O  O325  1  0.239650  0.479300  0.585300  1.0  -0.2262
  O  O326  1  0.520700  0.760350  0.585300  1.0  -0.2278
  O  O327  1  0.239650  0.760350  0.585300  1.0  -0.2282
  O  O328  1  0.760350  0.520700  0.085300  1.0  -0.2263
  O  O329  1  0.479300  0.239650  0.085300  1.0  -0.2289
  O  O330  1  0.760350  0.239650  0.085300  1.0  -0.2287
  O  O331  1  0.479300  0.239650  0.414700  1.0  -0.2311
  O  O332  1  0.760350  0.520700  0.414700  1.0  -0.2284
  O  O333  1  0.760350  0.239650  0.414700  1.0  -0.2298
  O  O334  1  0.520700  0.760350  0.914700  1.0  -0.2289
  O  O335  1  0.239650  0.479300  0.914700  1.0  -0.229
  O  O336  1  0.239650  0.760350  0.914700  1.0  -0.2305
  O  O337  1  0.376000  0.410500  0.250000  1.0  -0.1482
  O  O338  1  0.589500  0.965500  0.250000  1.0  -0.1485
  O  O339  1  0.034500  0.624000  0.250000  1.0  -0.1487
  O  O340  1  0.624000  0.589500  0.750000  1.0  -0.1465
  O  O341  1  0.410500  0.034500  0.750000  1.0  -0.1494
  O  O342  1  0.965500  0.376000  0.750000  1.0  -0.1485
  O  O343  1  0.410500  0.376000  0.750000  1.0  -0.1472
  O  O344  1  0.965500  0.589500  0.750000  1.0  -0.148
  O  O345  1  0.624000  0.034500  0.750000  1.0  -0.1485
  O  O346  1  0.589500  0.624000  0.250000  1.0  -0.1521
  O  O347  1  0.034500  0.410500  0.250000  1.0  -0.1464
  O  O348  1  0.376000  0.965500  0.250000  1.0  -0.1498
