# generated using pymatgen
data_Ce3(C6O7)2
_symmetry_space_group_name_H-M   'P 1'
_cell_length_a   25.86270000
_cell_length_b   25.86270000
_cell_length_c   25.45910000
_cell_angle_alpha   90.00000000
_cell_angle_beta   90.00000000
_cell_angle_gamma   120.00000000
_symmetry_Int_Tables_number   1
_chemical_formula_structural   Ce3(C6O7)2
_chemical_formula_sum   'Ce36 C144 O168'
_cell_volume   14747.60180715
_cell_formula_units_Z   12
loop_
 _symmetry_equiv_pos_site_id
 _symmetry_equiv_pos_as_xyz
  1  'x, y, z'
loop_
 _atom_site_type_symbol
 _atom_site_label
 _atom_site_symmetry_multiplicity
 _atom_site_fract_x
 _atom_site_fract_y
 _atom_site_fract_z
 _atom_site_occupancy
 _atom_site_charge
  Ce  Ce1  1  0.383480  0.467050  0.475700  1.0  2.188
  Ce  Ce2  1  0.532950  0.916430  0.475700  1.0  2.1894
  Ce  Ce3  1  0.083570  0.616520  0.475700  1.0  2.1868
  Ce  Ce4  1  0.616520  0.532950  0.975700  1.0  2.1906
  Ce  Ce5  1  0.467050  0.083570  0.975700  1.0  2.1875
  Ce  Ce6  1  0.916430  0.383480  0.975700  1.0  2.1882
  Ce  Ce7  1  0.467050  0.383480  0.524300  1.0  2.1883
  Ce  Ce8  1  0.916430  0.532950  0.524300  1.0  2.1878
  Ce  Ce9  1  0.616520  0.083570  0.524300  1.0  2.1897
  Ce  Ce10  1  0.532950  0.616520  0.024300  1.0  2.1866
  Ce  Ce11  1  0.083570  0.467050  0.024300  1.0  2.1901
  Ce  Ce12  1  0.383480  0.916430  0.024300  1.0  2.188
  Ce  Ce13  1  0.616520  0.532950  0.524300  1.0  2.1903
  Ce  Ce14  1  0.467050  0.083570  0.524300  1.0  2.1874
  Ce  Ce15  1  0.916430  0.383480  0.524300  1.0  2.1882
  Ce  Ce16  1  0.383480  0.467050  0.024300  1.0  2.188
  Ce  Ce17  1  0.532950  0.916430  0.024300  1.0  2.1894
  Ce  Ce18  1  0.083570  0.616520  0.024300  1.0  2.1867
  Ce  Ce19  1  0.532950  0.616520  0.475700  1.0  2.1868
  Ce  Ce20  1  0.083570  0.467050  0.475700  1.0  2.1903
  Ce  Ce21  1  0.383480  0.916430  0.475700  1.0  2.1879
  Ce  Ce22  1  0.467050  0.383480  0.975700  1.0  2.1883
  Ce  Ce23  1  0.916430  0.532950  0.975700  1.0  2.188
  Ce  Ce24  1  0.616520  0.083570  0.975700  1.0  2.19
  Ce  Ce25  1  0.480030  0.519970  0.599570  1.0  2.3745
  Ce  Ce26  1  0.480030  0.960060  0.599570  1.0  2.3743
  Ce  Ce27  1  0.039940  0.519970  0.599570  1.0  2.3727
  Ce  Ce28  1  0.519970  0.480030  0.099570  1.0  2.3732
  Ce  Ce29  1  0.519970  0.039940  0.099570  1.0  2.3732
  Ce  Ce30  1  0.960060  0.480030  0.099570  1.0  2.3753
  Ce  Ce31  1  0.519970  0.480030  0.400430  1.0  2.3735
  Ce  Ce32  1  0.960060  0.480030  0.400430  1.0  2.3757
  Ce  Ce33  1  0.519970  0.039940  0.400430  1.0  2.3736
  Ce  Ce34  1  0.480030  0.519970  0.900430  1.0  2.3749
  Ce  Ce35  1  0.039940  0.519970  0.900430  1.0  2.373
  Ce  Ce36  1  0.480030  0.960060  0.900430  1.0  2.3749
  C  C37  1  0.331400  0.488900  0.584850  1.0  0.5259
  C  C38  1  0.296900  0.500400  0.626350  1.0  0.0612
  C  C39  1  0.277900  0.503400  0.677400  1.0  0.0115
  C  C40  1  0.392100  0.441500  0.345000  1.0  0.6864
  C  C41  1  0.355100  0.432200  0.295700  1.0  0.0551
  C  C42  1  0.303600  0.428400  0.277400  1.0  -0.0414
  C  C43  1  0.511100  0.842500  0.584850  1.0  0.5268
  C  C44  1  0.499600  0.796500  0.626350  1.0  0.0605
  C  C45  1  0.496600  0.774500  0.677400  1.0  0.0126
  C  C46  1  0.558500  0.950600  0.345000  1.0  0.6867
  C  C47  1  0.567800  0.922900  0.295700  1.0  0.0557
  C  C48  1  0.571600  0.875200  0.277400  1.0  -0.0397
  C  C49  1  0.157500  0.668600  0.584850  1.0  0.5269
  C  C50  1  0.203500  0.703100  0.626350  1.0  0.0606
  C  C51  1  0.225500  0.722100  0.677400  1.0  0.0102
  C  C52  1  0.049400  0.607900  0.345000  1.0  0.6864
  C  C53  1  0.077100  0.644900  0.295700  1.0  0.0552
  C  C54  1  0.124800  0.696400  0.277400  1.0  -0.0357
  C  C55  1  0.668600  0.511100  0.084850  1.0  0.5246
  C  C56  1  0.703100  0.499600  0.126350  1.0  0.0588
  C  C57  1  0.722100  0.496600  0.177400  1.0  0.0133
  C  C58  1  0.607900  0.558500  0.845000  1.0  0.6871
  C  C59  1  0.644900  0.567800  0.795700  1.0  0.055
  C  C60  1  0.696400  0.571600  0.777400  1.0  -0.0363
  C  C61  1  0.488900  0.157500  0.084850  1.0  0.526
  C  C62  1  0.500400  0.203500  0.126350  1.0  0.0611
  C  C63  1  0.503400  0.225500  0.177400  1.0  0.0116
  C  C64  1  0.441500  0.049400  0.845000  1.0  0.687
  C  C65  1  0.432200  0.077100  0.795700  1.0  0.0551
  C  C66  1  0.428400  0.124800  0.777400  1.0  -0.0413
  C  C67  1  0.842500  0.331400  0.084850  1.0  0.527
  C  C68  1  0.796500  0.296900  0.126350  1.0  0.0606
  C  C69  1  0.774500  0.277900  0.177400  1.0  0.0116
  C  C70  1  0.950600  0.392100  0.845000  1.0  0.687
  C  C71  1  0.922900  0.355100  0.795700  1.0  0.0555
  C  C72  1  0.875200  0.303600  0.777400  1.0  -0.0397
  C  C73  1  0.488900  0.331400  0.415150  1.0  0.527
  C  C74  1  0.500400  0.296900  0.373650  1.0  0.0622
  C  C75  1  0.503400  0.277900  0.322600  1.0  0.0112
  C  C76  1  0.441500  0.392100  0.655000  1.0  0.6861
  C  C77  1  0.432200  0.355100  0.704300  1.0  0.0554
  C  C78  1  0.428400  0.303600  0.722600  1.0  -0.0415
  C  C79  1  0.842500  0.511100  0.415150  1.0  0.5254
  C  C80  1  0.796500  0.499600  0.373650  1.0  0.0619
  C  C81  1  0.774500  0.496600  0.322600  1.0  0.0106
  C  C82  1  0.950600  0.558500  0.655000  1.0  0.6869
  C  C83  1  0.922900  0.567800  0.704300  1.0  0.0551
  C  C84  1  0.875200  0.571600  0.722600  1.0  -0.0401
  C  C85  1  0.668600  0.157500  0.415150  1.0  0.5268
  C  C86  1  0.703100  0.203500  0.373650  1.0  0.0596
  C  C87  1  0.722100  0.225500  0.322600  1.0  0.0118
  C  C88  1  0.607900  0.049400  0.655000  1.0  0.6862
  C  C89  1  0.644900  0.077100  0.704300  1.0  0.0556
  C  C90  1  0.696400  0.124800  0.722600  1.0  -0.0342
  C  C91  1  0.511100  0.668600  0.915150  1.0  0.5264
  C  C92  1  0.499600  0.703100  0.873650  1.0  0.0605
  C  C93  1  0.496600  0.722100  0.822600  1.0  0.0115
  C  C94  1  0.558500  0.607900  0.155000  1.0  0.6863
  C  C95  1  0.567800  0.644900  0.204300  1.0  0.055
  C  C96  1  0.571600  0.696400  0.222600  1.0  -0.0392
  C  C97  1  0.157500  0.488900  0.915150  1.0  0.525
  C  C98  1  0.203500  0.500400  0.873650  1.0  0.059
  C  C99  1  0.225500  0.503400  0.822600  1.0  0.0127
  C  C100  1  0.049400  0.441500  0.155000  1.0  0.6863
  C  C101  1  0.077100  0.432200  0.204300  1.0  0.0556
  C  C102  1  0.124800  0.428400  0.222600  1.0  -0.0354
  C  C103  1  0.331400  0.842500  0.915150  1.0  0.5256
  C  C104  1  0.296900  0.796500  0.873650  1.0  0.0626
  C  C105  1  0.277900  0.774500  0.822600  1.0  0.0126
  C  C106  1  0.392100  0.950600  0.155000  1.0  0.6866
  C  C107  1  0.355100  0.922900  0.204300  1.0  0.0553
  C  C108  1  0.303600  0.875200  0.222600  1.0  -0.0393
  C  C109  1  0.668600  0.511100  0.415150  1.0  0.5246
  C  C110  1  0.703100  0.499600  0.373650  1.0  0.0578
  C  C111  1  0.722100  0.496600  0.322600  1.0  0.0129
  C  C112  1  0.607900  0.558500  0.655000  1.0  0.6871
  C  C113  1  0.644900  0.567800  0.704300  1.0  0.0551
  C  C114  1  0.696400  0.571600  0.722600  1.0  -0.0355
  C  C115  1  0.488900  0.157500  0.415150  1.0  0.5258
  C  C116  1  0.500400  0.203500  0.373650  1.0  0.0594
  C  C117  1  0.503400  0.225500  0.322600  1.0  0.0121
  C  C118  1  0.441500  0.049400  0.655000  1.0  0.6867
  C  C119  1  0.432200  0.077100  0.704300  1.0  0.0553
  C  C120  1  0.428400  0.124800  0.722600  1.0  -0.04
  C  C121  1  0.842500  0.331400  0.415150  1.0  0.5266
  C  C122  1  0.796500  0.296900  0.373650  1.0  0.0602
  C  C123  1  0.774500  0.277900  0.322600  1.0  0.0111
  C  C124  1  0.950600  0.392100  0.655000  1.0  0.6863
  C  C125  1  0.922900  0.355100  0.704300  1.0  0.0555
  C  C126  1  0.875200  0.303600  0.722600  1.0  -0.0396
  C  C127  1  0.331400  0.488900  0.915150  1.0  0.5258
  C  C128  1  0.296900  0.500400  0.873650  1.0  0.0602
  C  C129  1  0.277900  0.503400  0.822600  1.0  0.0107
  C  C130  1  0.392100  0.441500  0.155000  1.0  0.6859
  C  C131  1  0.355100  0.432200  0.204300  1.0  0.0555
  C  C132  1  0.303600  0.428400  0.222600  1.0  -0.0407
  C  C133  1  0.511100  0.842500  0.915150  1.0  0.5266
  C  C134  1  0.499600  0.796500  0.873650  1.0  0.0597
  C  C135  1  0.496600  0.774500  0.822600  1.0  0.0125
  C  C136  1  0.558500  0.950600  0.155000  1.0  0.6862
  C  C137  1  0.567800  0.922900  0.204300  1.0  0.0559
  C  C138  1  0.571600  0.875200  0.222600  1.0  -0.04
  C  C139  1  0.157500  0.668600  0.915150  1.0  0.5267
  C  C140  1  0.203500  0.703100  0.873650  1.0  0.0591
  C  C141  1  0.225500  0.722100  0.822600  1.0  0.0112
  C  C142  1  0.049400  0.607900  0.155000  1.0  0.6861
  C  C143  1  0.077100  0.644900  0.204300  1.0  0.0551
  C  C144  1  0.124800  0.696400  0.222600  1.0  -0.0349
  C  C145  1  0.511100  0.668600  0.584850  1.0  0.5266
  C  C146  1  0.499600  0.703100  0.626350  1.0  0.0586
  C  C147  1  0.496600  0.722100  0.677400  1.0  0.01
  C  C148  1  0.558500  0.607900  0.345000  1.0  0.6866
  C  C149  1  0.567800  0.644900  0.295700  1.0  0.0551
  C  C150  1  0.571600  0.696400  0.277400  1.0  -0.0399
  C  C151  1  0.157500  0.488900  0.584850  1.0  0.525
  C  C152  1  0.203500  0.500400  0.626350  1.0  0.0566
  C  C153  1  0.225500  0.503400  0.677400  1.0  0.0125
  C  C154  1  0.049400  0.441500  0.345000  1.0  0.6868
  C  C155  1  0.077100  0.432200  0.295700  1.0  0.0554
  C  C156  1  0.124800  0.428400  0.277400  1.0  -0.0361
  C  C157  1  0.331400  0.842500  0.584850  1.0  0.5258
  C  C158  1  0.296900  0.796500  0.626350  1.0  0.0603
  C  C159  1  0.277900  0.774500  0.677400  1.0  0.0132
  C  C160  1  0.392100  0.950600  0.345000  1.0  0.6868
  C  C161  1  0.355100  0.922900  0.295700  1.0  0.0553
  C  C162  1  0.303600  0.875200  0.277400  1.0  -0.0395
  C  C163  1  0.488900  0.331400  0.084850  1.0  0.5273
  C  C164  1  0.500400  0.296900  0.126350  1.0  0.0594
  C  C165  1  0.503400  0.277900  0.177400  1.0  0.0119
  C  C166  1  0.441500  0.392100  0.845000  1.0  0.6867
  C  C167  1  0.432200  0.355100  0.795700  1.0  0.0554
  C  C168  1  0.428400  0.303600  0.777400  1.0  -0.0409
  C  C169  1  0.842500  0.511100  0.084850  1.0  0.5256
  C  C170  1  0.796500  0.499600  0.126350  1.0  0.0599
  C  C171  1  0.774500  0.496600  0.177400  1.0  0.0119
  C  C172  1  0.950600  0.558500  0.845000  1.0  0.687
  C  C173  1  0.922900  0.567800  0.795700  1.0  0.0549
  C  C174  1  0.875200  0.571600  0.777400  1.0  -0.0412
  C  C175  1  0.668600  0.157500  0.084850  1.0  0.5269
  C  C176  1  0.703100  0.203500  0.126350  1.0  0.0579
  C  C177  1  0.722100  0.225500  0.177400  1.0  0.0109
  C  C178  1  0.607900  0.049400  0.845000  1.0  0.6867
  C  C179  1  0.644900  0.077100  0.795700  1.0  0.0556
  C  C180  1  0.696400  0.124800  0.777400  1.0  -0.0349
  O  O181  1  0.418200  0.436500  0.547400  1.0  -0.955
  O  O182  1  0.324100  0.474800  0.536670  1.0  -0.6405
  O  O183  1  0.378970  0.496800  0.609170  1.0  -0.7053
  O  O184  1  0.371200  0.452700  0.387340  1.0  -0.702
  O  O185  1  0.441300  0.440600  0.345780  1.0  -0.5901
  O  O186  1  0.563500  0.981700  0.547400  1.0  -0.9539
  O  O187  1  0.525200  0.849300  0.536670  1.0  -0.6294
  O  O188  1  0.503200  0.882170  0.609170  1.0  -0.7065
  O  O189  1  0.547300  0.918500  0.387340  1.0  -0.7067
  O  O190  1  0.559400  0.000700  0.345780  1.0  -0.5897
  O  O191  1  0.018300  0.581800  0.547400  1.0  -0.9559
  O  O192  1  0.150700  0.675900  0.536670  1.0  -0.6341
  O  O193  1  0.117830  0.621030  0.609170  1.0  -0.7074
  O  O194  1  0.081500  0.628800  0.387340  1.0  -0.7066
  O  O195  1  0.999300  0.558700  0.345780  1.0  -0.5907
  O  O196  1  0.581800  0.563500  0.047400  1.0  -0.9545
  O  O197  1  0.675900  0.525200  0.036670  1.0  -0.6402
  O  O198  1  0.621030  0.503200  0.109170  1.0  -0.7055
  O  O199  1  0.628800  0.547300  0.887340  1.0  -0.7034
  O  O200  1  0.558700  0.559400  0.845780  1.0  -0.59
  O  O201  1  0.436500  0.018300  0.047400  1.0  -0.9566
  O  O202  1  0.474800  0.150700  0.036670  1.0  -0.6306
  O  O203  1  0.496800  0.117830  0.109170  1.0  -0.7085
  O  O204  1  0.452700  0.081500  0.887340  1.0  -0.7083
  O  O205  1  0.440600  0.999300  0.845780  1.0  -0.5895
  O  O206  1  0.981700  0.418200  0.047400  1.0  -0.9538
  O  O207  1  0.849300  0.324100  0.036670  1.0  -0.6331
  O  O208  1  0.882170  0.378970  0.109170  1.0  -0.7064
  O  O209  1  0.918500  0.371200  0.887340  1.0  -0.7045
  O  O210  1  0.000700  0.441300  0.845780  1.0  -0.5907
  O  O211  1  0.436500  0.418200  0.452600  1.0  -0.9548
  O  O212  1  0.474800  0.324100  0.463330  1.0  -0.6369
  O  O213  1  0.496800  0.378970  0.390830  1.0  -0.7077
  O  O214  1  0.452700  0.371200  0.612660  1.0  -0.705
  O  O215  1  0.440600  0.441300  0.654220  1.0  -0.5909
  O  O216  1  0.981700  0.563500  0.452600  1.0  -0.9562
  O  O217  1  0.849300  0.525200  0.463330  1.0  -0.6282
  O  O218  1  0.882170  0.503200  0.390830  1.0  -0.707
  O  O219  1  0.918500  0.547300  0.612660  1.0  -0.7033
  O  O220  1  0.000700  0.559400  0.654220  1.0  -0.5902
  O  O221  1  0.581800  0.018300  0.452600  1.0  -0.9544
  O  O222  1  0.675900  0.150700  0.463330  1.0  -0.6285
  O  O223  1  0.621030  0.117830  0.390830  1.0  -0.7095
  O  O224  1  0.628800  0.081500  0.612660  1.0  -0.7084
  O  O225  1  0.558700  0.999300  0.654220  1.0  -0.5907
  O  O226  1  0.563500  0.581800  0.952600  1.0  -0.9548
  O  O227  1  0.525200  0.675900  0.963330  1.0  -0.6359
  O  O228  1  0.503200  0.621030  0.890830  1.0  -0.708
  O  O229  1  0.547300  0.628800  0.112660  1.0  -0.7085
  O  O230  1  0.559400  0.558700  0.154220  1.0  -0.5902
  O  O231  1  0.018300  0.436500  0.952600  1.0  -0.9538
  O  O232  1  0.150700  0.474800  0.963330  1.0  -0.6278
  O  O233  1  0.117830  0.496800  0.890830  1.0  -0.7068
  O  O234  1  0.081500  0.452700  0.112660  1.0  -0.7034
  O  O235  1  0.999300  0.440600  0.154220  1.0  -0.5888
  O  O236  1  0.418200  0.981700  0.952600  1.0  -0.9566
  O  O237  1  0.324100  0.849300  0.963330  1.0  -0.6286
  O  O238  1  0.378970  0.882170  0.890830  1.0  -0.709
  O  O239  1  0.371200  0.918500  0.112660  1.0  -0.7076
  O  O240  1  0.441300  0.000700  0.154220  1.0  -0.588
  O  O241  1  0.581800  0.563500  0.452600  1.0  -0.9548
  O  O242  1  0.675900  0.525200  0.463330  1.0  -0.6363
  O  O243  1  0.621030  0.503200  0.390830  1.0  -0.7069
  O  O244  1  0.628800  0.547300  0.612660  1.0  -0.7033
  O  O245  1  0.558700  0.559400  0.654220  1.0  -0.5898
  O  O246  1  0.436500  0.018300  0.452600  1.0  -0.9568
  O  O247  1  0.474800  0.150700  0.463330  1.0  -0.6269
  O  O248  1  0.496800  0.117830  0.390830  1.0  -0.7101
  O  O249  1  0.452700  0.081500  0.612660  1.0  -0.7098
  O  O250  1  0.440600  0.999300  0.654220  1.0  -0.5892
  O  O251  1  0.981700  0.418200  0.452600  1.0  -0.9539
  O  O252  1  0.849300  0.324100  0.463330  1.0  -0.6297
  O  O253  1  0.882170  0.378970  0.390830  1.0  -0.7075
  O  O254  1  0.918500  0.371200  0.612660  1.0  -0.7051
  O  O255  1  0.000700  0.441300  0.654220  1.0  -0.59
  O  O256  1  0.418200  0.436500  0.952600  1.0  -0.955
  O  O257  1  0.324100  0.474800  0.963330  1.0  -0.6365
  O  O258  1  0.378970  0.496800  0.890830  1.0  -0.7068
  O  O259  1  0.371200  0.452700  0.112660  1.0  -0.7032
  O  O260  1  0.441300  0.440600  0.154220  1.0  -0.5894
  O  O261  1  0.563500  0.981700  0.952600  1.0  -0.9541
  O  O262  1  0.525200  0.849300  0.963330  1.0  -0.6261
  O  O263  1  0.503200  0.882170  0.890830  1.0  -0.7084
  O  O264  1  0.547300  0.918500  0.112660  1.0  -0.7074
  O  O265  1  0.559400  0.000700  0.154220  1.0  -0.5893
  O  O266  1  0.018300  0.581800  0.952600  1.0  -0.9559
  O  O267  1  0.150700  0.675900  0.963330  1.0  -0.6298
  O  O268  1  0.117830  0.621030  0.890830  1.0  -0.7083
  O  O269  1  0.081500  0.628800  0.112660  1.0  -0.708
  O  O270  1  0.999300  0.558700  0.154220  1.0  -0.5904
  O  O271  1  0.563500  0.581800  0.547400  1.0  -0.9545
  O  O272  1  0.525200  0.675900  0.536670  1.0  -0.6405
  O  O273  1  0.503200  0.621030  0.609170  1.0  -0.7073
  O  O274  1  0.547300  0.628800  0.387340  1.0  -0.7071
  O  O275  1  0.559400  0.558700  0.345780  1.0  -0.5903
  O  O276  1  0.018300  0.436500  0.547400  1.0  -0.9536
  O  O277  1  0.150700  0.474800  0.536670  1.0  -0.6315
  O  O278  1  0.117830  0.496800  0.609170  1.0  -0.7051
  O  O279  1  0.081500  0.452700  0.387340  1.0  -0.7037
  O  O280  1  0.999300  0.440600  0.345780  1.0  -0.5898
  O  O281  1  0.418200  0.981700  0.547400  1.0  -0.9565
  O  O282  1  0.324100  0.849300  0.536670  1.0  -0.6325
  O  O283  1  0.378970  0.882170  0.609170  1.0  -0.7074
  O  O284  1  0.371200  0.918500  0.387340  1.0  -0.7055
  O  O285  1  0.441300  0.000700  0.345780  1.0  -0.5883
  O  O286  1  0.436500  0.418200  0.047400  1.0  -0.9547
  O  O287  1  0.474800  0.324100  0.036670  1.0  -0.6397
  O  O288  1  0.496800  0.378970  0.109170  1.0  -0.7066
  O  O289  1  0.452700  0.371200  0.887340  1.0  -0.7042
  O  O290  1  0.440600  0.441300  0.845780  1.0  -0.5917
  O  O291  1  0.981700  0.563500  0.047400  1.0  -0.9562
  O  O292  1  0.849300  0.525200  0.036670  1.0  -0.6318
  O  O293  1  0.882170  0.503200  0.109170  1.0  -0.7057
  O  O294  1  0.918500  0.547300  0.887340  1.0  -0.7023
  O  O295  1  0.000700  0.559400  0.845780  1.0  -0.5905
  O  O296  1  0.581800  0.018300  0.047400  1.0  -0.9541
  O  O297  1  0.675900  0.150700  0.036670  1.0  -0.6319
  O  O298  1  0.621030  0.117830  0.109170  1.0  -0.7079
  O  O299  1  0.628800  0.081500  0.887340  1.0  -0.7084
  O  O300  1  0.558700  0.999300  0.845780  1.0  -0.5909
  O  O301  1  0.467500  0.532500  0.424400  1.0  -0.9368
  O  O302  1  0.449700  0.550300  0.525500  1.0  -0.9237
  O  O303  1  0.467500  0.935000  0.424400  1.0  -0.9321
  O  O304  1  0.449700  0.899400  0.525500  1.0  -0.9235
  O  O305  1  0.065000  0.532500  0.424400  1.0  -0.9357
  O  O306  1  0.100600  0.550300  0.525500  1.0  -0.9233
  O  O307  1  0.532500  0.467500  0.924400  1.0  -0.9355
  O  O308  1  0.550300  0.449700  0.025500  1.0  -0.9233
  O  O309  1  0.532500  0.065000  0.924400  1.0  -0.9356
  O  O310  1  0.550300  0.100600  0.025500  1.0  -0.925
  O  O311  1  0.935000  0.467500  0.924400  1.0  -0.9362
  O  O312  1  0.899400  0.449700  0.025500  1.0  -0.9239
  O  O313  1  0.532500  0.467500  0.575600  1.0  -0.9354
  O  O314  1  0.550300  0.449700  0.474500  1.0  -0.9227
  O  O315  1  0.935000  0.467500  0.575600  1.0  -0.936
  O  O316  1  0.899400  0.449700  0.474500  1.0  -0.9233
  O  O317  1  0.532500  0.065000  0.575600  1.0  -0.9354
  O  O318  1  0.550300  0.100600  0.474500  1.0  -0.9247
  O  O319  1  0.467500  0.532500  0.075600  1.0  -0.9366
  O  O320  1  0.449700  0.550300  0.974500  1.0  -0.9233
  O  O321  1  0.065000  0.532500  0.075600  1.0  -0.9357
  O  O322  1  0.100600  0.550300  0.974500  1.0  -0.9227
  O  O323  1  0.467500  0.935000  0.075600  1.0  -0.9321
  O  O324  1  0.449700  0.899400  0.974500  1.0  -0.9232
  O  O325  1  0.246200  0.492400  0.598100  1.0  -0.1538
  O  O326  1  0.507600  0.753800  0.598100  1.0  -0.1539
  O  O327  1  0.246200  0.753800  0.598100  1.0  -0.1553
  O  O328  1  0.753800  0.507600  0.098100  1.0  -0.1541
  O  O329  1  0.492400  0.246200  0.098100  1.0  -0.1554
  O  O330  1  0.753800  0.246200  0.098100  1.0  -0.154
  O  O331  1  0.492400  0.246200  0.401900  1.0  -0.1539
  O  O332  1  0.753800  0.507600  0.401900  1.0  -0.1528
  O  O333  1  0.753800  0.246200  0.401900  1.0  -0.1532
  O  O334  1  0.507600  0.753800  0.901900  1.0  -0.1529
  O  O335  1  0.246200  0.492400  0.901900  1.0  -0.1528
  O  O336  1  0.246200  0.753800  0.901900  1.0  -0.1536
  O  O337  1  0.385800  0.433200  0.250000  1.0  -0.1575
  O  O338  1  0.566800  0.952600  0.250000  1.0  -0.1583
  O  O339  1  0.047400  0.614200  0.250000  1.0  -0.162
  O  O340  1  0.614200  0.566800  0.750000  1.0  -0.1571
  O  O341  1  0.433200  0.047400  0.750000  1.0  -0.1603
  O  O342  1  0.952600  0.385800  0.750000  1.0  -0.158
  O  O343  1  0.433200  0.385800  0.750000  1.0  -0.1591
  O  O344  1  0.952600  0.566800  0.750000  1.0  -0.1581
  O  O345  1  0.614200  0.047400  0.750000  1.0  -0.1609
  O  O346  1  0.566800  0.614200  0.250000  1.0  -0.1617
  O  O347  1  0.047400  0.433200  0.250000  1.0  -0.157
  O  O348  1  0.385800  0.952600  0.250000  1.0  -0.1579
