# generated using pymatgen
data_Cd3H28C20(NO)8
_symmetry_space_group_name_H-M   'P 1'
_cell_length_a   22.62400000
_cell_length_b   12.64500000
_cell_length_c   14.73500000
_cell_angle_alpha   90.00000000
_cell_angle_beta   94.92000000
_cell_angle_gamma   90.00000000
_symmetry_Int_Tables_number   1
_chemical_formula_structural   Cd3H28C20(NO)8
_chemical_formula_sum   'Cd12 H112 C80 N32 O32'
_cell_volume   4199.86390678
_cell_formula_units_Z   4
loop_
 _symmetry_equiv_pos_site_id
 _symmetry_equiv_pos_as_xyz
  1  'x, y, z'
loop_
 _atom_site_type_symbol
 _atom_site_label
 _atom_site_symmetry_multiplicity
 _atom_site_fract_x
 _atom_site_fract_y
 _atom_site_fract_z
 _atom_site_occupancy
 _atom_site_charge
  Cd  Cd1  1  0.254390  0.915560  0.753410  1.0  0.8314
  Cd  Cd2  1  0.745610  0.915560  0.746590  1.0  0.8329
  Cd  Cd3  1  0.745610  0.084440  0.246590  1.0  0.8332
  Cd  Cd4  1  0.254390  0.084440  0.253410  1.0  0.8319
  Cd  Cd5  1  0.000000  0.167910  0.750000  1.0  0.6061
  Cd  Cd6  1  0.000000  0.832090  0.250000  1.0  0.6063
  Cd  Cd7  1  0.754390  0.415560  0.753410  1.0  0.8314
  Cd  Cd8  1  0.245610  0.415560  0.746590  1.0  0.8329
  Cd  Cd9  1  0.245610  0.584440  0.246590  1.0  0.8332
  Cd  Cd10  1  0.754390  0.584440  0.253410  1.0  0.8319
  Cd  Cd11  1  0.500000  0.667910  0.750000  1.0  0.6061
  Cd  Cd12  1  0.500000  0.332090  0.250000  1.0  0.6063
  H  H13  1  0.130400  0.063500  0.703000  1.0  0.0649
  H  H14  1  0.115000  0.001100  0.789900  1.0  0.0642
  H  H15  1  0.267300  0.163100  0.792400  1.0  0.069
  H  H16  1  0.222500  0.163500  0.705300  1.0  0.0743
  H  H17  1  0.184800  0.001000  0.927600  1.0  0.0696
  H  H18  1  0.244000  0.065800  0.928300  1.0  0.0579
  H  H19  1  0.091800  0.216700  0.925300  1.0  0.0563
  H  H20  1  0.094200  0.092900  0.924500  1.0  0.0557
  H  H21  1  0.130500  0.256900  0.703700  1.0  0.0664
  H  H22  1  0.114700  0.316700  0.791900  1.0  0.0676
  H  H23  1  0.243600  0.250300  0.926400  1.0  0.0717
  H  H24  1  0.185400  0.315900  0.928000  1.0  0.0669
  H  H25  1  0.417400  0.129000  0.488400  1.0  0.0838
  H  H26  1  0.406500  0.120700  0.634900  1.0  0.0864
  H  H27  1  0.869600  0.063500  0.797000  1.0  0.0637
  H  H28  1  0.885000  0.001100  0.710100  1.0  0.0653
  H  H29  1  0.732700  0.163100  0.707600  1.0  0.0717
  H  H30  1  0.777500  0.163500  0.794700  1.0  0.0769
  H  H31  1  0.815200  0.001000  0.572400  1.0  0.0688
  H  H32  1  0.756000  0.065800  0.571700  1.0  0.0557
  H  H33  1  0.908200  0.216700  0.574700  1.0  0.0559
  H  H34  1  0.905800  0.092900  0.575500  1.0  0.0536
  H  H35  1  0.869500  0.256900  0.796300  1.0  0.0651
  H  H36  1  0.885300  0.316700  0.708100  1.0  0.0667
  H  H37  1  0.756400  0.250300  0.573600  1.0  0.0705
  H  H38  1  0.814600  0.315900  0.572000  1.0  0.0672
  H  H39  1  0.582600  0.129000  0.011600  1.0  0.0837
  H  H40  1  0.593500  0.120700  0.865100  1.0  0.0856
  H  H41  1  0.869600  0.936500  0.297000  1.0  0.0632
  H  H42  1  0.885000  0.998900  0.210100  1.0  0.066
  H  H43  1  0.732700  0.836900  0.207600  1.0  0.0719
  H  H44  1  0.777500  0.836500  0.294700  1.0  0.0769
  H  H45  1  0.815200  0.999000  0.072400  1.0  0.0685
  H  H46  1  0.756000  0.934200  0.071700  1.0  0.0563
  H  H47  1  0.908200  0.783300  0.074700  1.0  0.0552
  H  H48  1  0.905800  0.907100  0.075500  1.0  0.0542
  H  H49  1  0.869500  0.743100  0.296300  1.0  0.0649
  H  H50  1  0.885300  0.683300  0.208100  1.0  0.0678
  H  H51  1  0.756400  0.749700  0.073600  1.0  0.0696
  H  H52  1  0.814600  0.684100  0.072000  1.0  0.0676
  H  H53  1  0.582600  0.871000  0.511600  1.0  0.0837
  H  H54  1  0.593500  0.879300  0.365100  1.0  0.0851
  H  H55  1  0.130400  0.936500  0.203000  1.0  0.0648
  H  H56  1  0.115000  0.998900  0.289900  1.0  0.066
  H  H57  1  0.267300  0.836900  0.292400  1.0  0.0692
  H  H58  1  0.222500  0.836500  0.205300  1.0  0.0744
  H  H59  1  0.184800  0.999000  0.427600  1.0  0.0685
  H  H60  1  0.244000  0.934200  0.428300  1.0  0.0578
  H  H61  1  0.091800  0.783300  0.425300  1.0  0.0569
  H  H62  1  0.094200  0.907100  0.424500  1.0  0.0547
  H  H63  1  0.130500  0.743100  0.203700  1.0  0.0656
  H  H64  1  0.114700  0.683300  0.291900  1.0  0.0683
  H  H65  1  0.243600  0.749700  0.426400  1.0  0.072
  H  H66  1  0.185400  0.684100  0.428000  1.0  0.0687
  H  H67  1  0.417400  0.871000  0.988400  1.0  0.0832
  H  H68  1  0.406500  0.879300  0.134900  1.0  0.0863
  H  H69  1  0.630400  0.563500  0.703000  1.0  0.0649
  H  H70  1  0.615000  0.501100  0.789900  1.0  0.0642
  H  H71  1  0.767300  0.663100  0.792400  1.0  0.069
  H  H72  1  0.722500  0.663500  0.705300  1.0  0.0743
  H  H73  1  0.684800  0.501000  0.927600  1.0  0.0696
  H  H74  1  0.744000  0.565800  0.928300  1.0  0.0579
  H  H75  1  0.591800  0.716700  0.925300  1.0  0.0563
  H  H76  1  0.594200  0.592900  0.924500  1.0  0.0557
  H  H77  1  0.630500  0.756900  0.703700  1.0  0.0664
  H  H78  1  0.614700  0.816700  0.791900  1.0  0.0676
  H  H79  1  0.743600  0.750300  0.926400  1.0  0.0717
  H  H80  1  0.685400  0.815900  0.928000  1.0  0.0669
  H  H81  1  0.917400  0.629000  0.488400  1.0  0.0838
  H  H82  1  0.906500  0.620700  0.634900  1.0  0.0864
  H  H83  1  0.369600  0.563500  0.797000  1.0  0.0637
  H  H84  1  0.385000  0.501100  0.710100  1.0  0.0653
  H  H85  1  0.232700  0.663100  0.707600  1.0  0.0717
  H  H86  1  0.277500  0.663500  0.794700  1.0  0.0769
  H  H87  1  0.315200  0.501000  0.572400  1.0  0.0688
  H  H88  1  0.256000  0.565800  0.571700  1.0  0.0557
  H  H89  1  0.408200  0.716700  0.574700  1.0  0.0559
  H  H90  1  0.405800  0.592900  0.575500  1.0  0.0536
  H  H91  1  0.369500  0.756900  0.796300  1.0  0.0651
  H  H92  1  0.385300  0.816700  0.708100  1.0  0.0667
  H  H93  1  0.256400  0.750300  0.573600  1.0  0.0705
  H  H94  1  0.314600  0.815900  0.572000  1.0  0.0672
  H  H95  1  0.082600  0.629000  0.011600  1.0  0.0837
  H  H96  1  0.093500  0.620700  0.865100  1.0  0.0856
  H  H97  1  0.369600  0.436500  0.297000  1.0  0.0632
  H  H98  1  0.385000  0.498900  0.210100  1.0  0.066
  H  H99  1  0.232700  0.336900  0.207600  1.0  0.0719
  H  H100  1  0.277500  0.336500  0.294700  1.0  0.0769
  H  H101  1  0.315200  0.499000  0.072400  1.0  0.0685
  H  H102  1  0.256000  0.434200  0.071700  1.0  0.0563
  H  H103  1  0.408200  0.283300  0.074700  1.0  0.0552
  H  H104  1  0.405800  0.407100  0.075500  1.0  0.0542
  H  H105  1  0.369500  0.243100  0.296300  1.0  0.0649
  H  H106  1  0.385300  0.183300  0.208100  1.0  0.0678
  H  H107  1  0.256400  0.249700  0.073600  1.0  0.0696
  H  H108  1  0.314600  0.184100  0.072000  1.0  0.0676
  H  H109  1  0.082600  0.371000  0.511600  1.0  0.0837
  H  H110  1  0.093500  0.379300  0.365100  1.0  0.0851
  H  H111  1  0.630400  0.436500  0.203000  1.0  0.0648
  H  H112  1  0.615000  0.498900  0.289900  1.0  0.066
  H  H113  1  0.767300  0.336900  0.292400  1.0  0.0692
  H  H114  1  0.722500  0.336500  0.205300  1.0  0.0744
  H  H115  1  0.684800  0.499000  0.427600  1.0  0.0685
  H  H116  1  0.744000  0.434200  0.428300  1.0  0.0578
  H  H117  1  0.591800  0.283300  0.425300  1.0  0.0569
  H  H118  1  0.594200  0.407100  0.424500  1.0  0.0547
  H  H119  1  0.630500  0.243100  0.203700  1.0  0.0656
  H  H120  1  0.614700  0.183300  0.291900  1.0  0.0683
  H  H121  1  0.743600  0.249700  0.426400  1.0  0.072
  H  H122  1  0.685400  0.184100  0.428000  1.0  0.0687
  H  H123  1  0.917400  0.371000  0.988400  1.0  0.0832
  H  H124  1  0.906500  0.379300  0.134900  1.0  0.0863
  C  C125  1  0.134400  0.064000  0.769100  1.0  0.0836
  C  C126  1  0.225500  0.162200  0.771300  1.0  0.0876
  C  C127  1  0.202600  0.064400  0.904800  1.0  0.062
  C  C128  1  0.112500  0.156300  0.902600  1.0  0.0907
  C  C129  1  0.134300  0.254700  0.769800  1.0  0.0596
  C  C130  1  0.202500  0.252100  0.904700  1.0  0.059
  C  C131  1  0.340900  0.049000  0.433300  1.0  0.6535
  C  C132  1  0.383900  0.095200  0.506500  1.0  -0.1206
  C  C133  1  0.377300  0.091000  0.594500  1.0  -0.1054
  C  C134  1  0.324000  0.039600  0.632700  1.0  0.6445
  C  C135  1  0.865600  0.064000  0.730900  1.0  0.0822
  C  C136  1  0.774500  0.162200  0.728700  1.0  0.0889
  C  C137  1  0.797400  0.064400  0.595200  1.0  0.0621
  C  C138  1  0.887500  0.156300  0.597400  1.0  0.0897
  C  C139  1  0.865700  0.254700  0.730200  1.0  0.0589
  C  C140  1  0.797500  0.252100  0.595300  1.0  0.0605
  C  C141  1  0.659100  0.049000  0.066700  1.0  0.6545
  C  C142  1  0.616100  0.095200  0.993500  1.0  -0.1225
  C  C143  1  0.622700  0.091000  0.905500  1.0  -0.1064
  C  C144  1  0.676000  0.039600  0.867300  1.0  0.6456
  C  C145  1  0.865600  0.936000  0.230900  1.0  0.0804
  C  C146  1  0.774500  0.837800  0.228700  1.0  0.0886
  C  C147  1  0.797400  0.935600  0.095200  1.0  0.0622
  C  C148  1  0.887500  0.843700  0.097400  1.0  0.0899
  C  C149  1  0.865700  0.745300  0.230200  1.0  0.0594
  C  C150  1  0.797500  0.747900  0.095300  1.0  0.0598
  C  C151  1  0.659100  0.951000  0.566700  1.0  0.6548
  C  C152  1  0.616100  0.904800  0.493500  1.0  -0.1215
  C  C153  1  0.622700  0.909000  0.405500  1.0  -0.106
  C  C154  1  0.676000  0.960400  0.367300  1.0  0.646
  C  C155  1  0.134400  0.936000  0.269100  1.0  0.0826
  C  C156  1  0.225500  0.837800  0.271300  1.0  0.0874
  C  C157  1  0.202600  0.935600  0.404800  1.0  0.0617
  C  C158  1  0.112500  0.843700  0.402600  1.0  0.091
  C  C159  1  0.134300  0.745300  0.269800  1.0  0.0596
  C  C160  1  0.202500  0.747900  0.404700  1.0  0.0583
  C  C161  1  0.340900  0.951000  0.933300  1.0  0.6537
  C  C162  1  0.383900  0.904800  0.006500  1.0  -0.1212
  C  C163  1  0.377300  0.909000  0.094500  1.0  -0.1057
  C  C164  1  0.324000  0.960400  0.132700  1.0  0.6456
  C  C165  1  0.634400  0.564000  0.769100  1.0  0.0836
  C  C166  1  0.725500  0.662200  0.771300  1.0  0.0876
  C  C167  1  0.702600  0.564400  0.904800  1.0  0.062
  C  C168  1  0.612500  0.656300  0.902600  1.0  0.0907
  C  C169  1  0.634300  0.754700  0.769800  1.0  0.0596
  C  C170  1  0.702500  0.752100  0.904700  1.0  0.059
  C  C171  1  0.840900  0.549000  0.433300  1.0  0.6535
  C  C172  1  0.883900  0.595200  0.506500  1.0  -0.1206
  C  C173  1  0.877300  0.591000  0.594500  1.0  -0.1054
  C  C174  1  0.824000  0.539600  0.632700  1.0  0.6445
  C  C175  1  0.365600  0.564000  0.730900  1.0  0.0822
  C  C176  1  0.274500  0.662200  0.728700  1.0  0.0889
  C  C177  1  0.297400  0.564400  0.595200  1.0  0.0621
  C  C178  1  0.387500  0.656300  0.597400  1.0  0.0897
  C  C179  1  0.365700  0.754700  0.730200  1.0  0.0589
  C  C180  1  0.297500  0.752100  0.595300  1.0  0.0605
  C  C181  1  0.159100  0.549000  0.066700  1.0  0.6545
  C  C182  1  0.116100  0.595200  0.993500  1.0  -0.1225
  C  C183  1  0.122700  0.591000  0.905500  1.0  -0.1064
  C  C184  1  0.176000  0.539600  0.867300  1.0  0.6456
  C  C185  1  0.365600  0.436000  0.230900  1.0  0.0804
  C  C186  1  0.274500  0.337800  0.228700  1.0  0.0886
  C  C187  1  0.297400  0.435600  0.095200  1.0  0.0622
  C  C188  1  0.387500  0.343700  0.097400  1.0  0.0899
  C  C189  1  0.365700  0.245300  0.230200  1.0  0.0594
  C  C190  1  0.297500  0.247900  0.095300  1.0  0.0598
  C  C191  1  0.159100  0.451000  0.566700  1.0  0.6548
  C  C192  1  0.116100  0.404800  0.493500  1.0  -0.1215
  C  C193  1  0.122700  0.409000  0.405500  1.0  -0.106
  C  C194  1  0.176000  0.460400  0.367300  1.0  0.646
  C  C195  1  0.634400  0.436000  0.269100  1.0  0.0826
  C  C196  1  0.725500  0.337800  0.271300  1.0  0.0874
  C  C197  1  0.702600  0.435600  0.404800  1.0  0.0617
  C  C198  1  0.612500  0.343700  0.402600  1.0  0.091
  C  C199  1  0.634300  0.245300  0.269800  1.0  0.0596
  C  C200  1  0.702500  0.247900  0.404700  1.0  0.0583
  C  C201  1  0.840900  0.451000  0.933300  1.0  0.6537
  C  C202  1  0.883900  0.404800  0.006500  1.0  -0.1212
  C  C203  1  0.877300  0.409000  0.094500  1.0  -0.1057
  C  C204  1  0.824000  0.460400  0.132700  1.0  0.6456
  N  N205  1  0.104700  0.157100  0.801300  1.0  -0.2482
  N  N206  1  0.198750  0.060500  0.801900  1.0  -0.2742
  N  N207  1  0.171800  0.159500  0.938500  1.0  -0.3755
  N  N208  1  0.198060  0.256400  0.803300  1.0  -0.3012
  N  N209  1  0.895300  0.157100  0.698700  1.0  -0.247
  N  N210  1  0.801250  0.060500  0.698100  1.0  -0.2716
  N  N211  1  0.828200  0.159500  0.561500  1.0  -0.3737
  N  N212  1  0.801940  0.256400  0.696700  1.0  -0.3023
  N  N213  1  0.895300  0.842900  0.198700  1.0  -0.247
  N  N214  1  0.801250  0.939500  0.198100  1.0  -0.2736
  N  N215  1  0.828200  0.840500  0.061500  1.0  -0.3726
  N  N216  1  0.801940  0.743600  0.196700  1.0  -0.3019
  N  N217  1  0.104700  0.842900  0.301300  1.0  -0.2474
  N  N218  1  0.198750  0.939500  0.301900  1.0  -0.2749
  N  N219  1  0.171800  0.840500  0.438500  1.0  -0.3752
  N  N220  1  0.198060  0.743600  0.303300  1.0  -0.3024
  N  N221  1  0.604700  0.657100  0.801300  1.0  -0.2482
  N  N222  1  0.698750  0.560500  0.801900  1.0  -0.2742
  N  N223  1  0.671800  0.659500  0.938500  1.0  -0.3755
  N  N224  1  0.698060  0.756400  0.803300  1.0  -0.3012
  N  N225  1  0.395300  0.657100  0.698700  1.0  -0.247
  N  N226  1  0.301250  0.560500  0.698100  1.0  -0.2716
  N  N227  1  0.328200  0.659500  0.561500  1.0  -0.3737
  N  N228  1  0.301940  0.756400  0.696700  1.0  -0.3023
  N  N229  1  0.395300  0.342900  0.198700  1.0  -0.247
  N  N230  1  0.301250  0.439500  0.198100  1.0  -0.2736
  N  N231  1  0.328200  0.340500  0.061500  1.0  -0.3726
  N  N232  1  0.301940  0.243600  0.196700  1.0  -0.3019
  N  N233  1  0.604700  0.342900  0.301300  1.0  -0.2474
  N  N234  1  0.698750  0.439500  0.301900  1.0  -0.2749
  N  N235  1  0.671800  0.340500  0.438500  1.0  -0.3752
  N  N236  1  0.698060  0.243600  0.303300  1.0  -0.3024
  O  O237  1  0.335010  0.998200  0.712400  1.0  -0.646
  O  O238  1  0.275720  0.036900  0.591700  1.0  -0.5378
  O  O239  1  0.341630  0.952400  0.417900  1.0  -0.5778
  O  O240  1  0.307330  0.117600  0.389300  1.0  -0.6439
  O  O241  1  0.664990  0.998200  0.787600  1.0  -0.6453
  O  O242  1  0.724280  0.036900  0.908300  1.0  -0.5374
  O  O243  1  0.658370  0.952400  0.082100  1.0  -0.5766
  O  O244  1  0.692670  0.117600  0.110700  1.0  -0.6451
  O  O245  1  0.664990  0.001800  0.287600  1.0  -0.6464
  O  O246  1  0.724280  0.963100  0.408300  1.0  -0.5373
  O  O247  1  0.658370  0.047600  0.582100  1.0  -0.5769
  O  O248  1  0.692670  0.882400  0.610700  1.0  -0.6451
  O  O249  1  0.335010  0.001800  0.212400  1.0  -0.6459
  O  O250  1  0.275720  0.963100  0.091700  1.0  -0.537
  O  O251  1  0.341630  0.047600  0.917900  1.0  -0.5771
  O  O252  1  0.307330  0.882400  0.889300  1.0  -0.6448
  O  O253  1  0.835010  0.498200  0.712400  1.0  -0.646
  O  O254  1  0.775720  0.536900  0.591700  1.0  -0.5378
  O  O255  1  0.841630  0.452400  0.417900  1.0  -0.5778
  O  O256  1  0.807330  0.617600  0.389300  1.0  -0.6439
  O  O257  1  0.164990  0.498200  0.787600  1.0  -0.6453
  O  O258  1  0.224280  0.536900  0.908300  1.0  -0.5374
  O  O259  1  0.158370  0.452400  0.082100  1.0  -0.5766
  O  O260  1  0.192670  0.617600  0.110700  1.0  -0.6451
  O  O261  1  0.164990  0.501800  0.287600  1.0  -0.6464
  O  O262  1  0.224280  0.463100  0.408300  1.0  -0.5373
  O  O263  1  0.158370  0.547600  0.582100  1.0  -0.5769
  O  O264  1  0.192670  0.382400  0.610700  1.0  -0.6451
  O  O265  1  0.835010  0.501800  0.212400  1.0  -0.6459
  O  O266  1  0.775720  0.463100  0.091700  1.0  -0.537
  O  O267  1  0.841630  0.547600  0.917900  1.0  -0.5771
  O  O268  1  0.807330  0.382400  0.889300  1.0  -0.6448
