# generated using pymatgen
data_CdH7C12(NO2)3
_symmetry_space_group_name_H-M   'P 1'
_cell_length_a   7.44660000
_cell_length_b   14.38210000
_cell_length_c   20.91400000
_cell_angle_alpha   90.00000000
_cell_angle_beta   90.00000000
_cell_angle_gamma   90.00000000
_symmetry_Int_Tables_number   1
_chemical_formula_structural   CdH7C12(NO2)3
_chemical_formula_sum   'Cd4 H28 C48 N12 O24'
_cell_volume   2239.84225692
_cell_formula_units_Z   4
loop_
 _symmetry_equiv_pos_site_id
 _symmetry_equiv_pos_as_xyz
  1  'x, y, z'
loop_
 _atom_site_type_symbol
 _atom_site_label
 _atom_site_symmetry_multiplicity
 _atom_site_fract_x
 _atom_site_fract_y
 _atom_site_fract_z
 _atom_site_occupancy
 _atom_site_charge
  Cd  Cd1  1  0.490010  0.110070  0.075580  1.0  1.0811
  Cd  Cd2  1  0.486970  0.890340  0.924460  1.0  1.0843
  Cd  Cd3  1  0.492690  0.609960  0.424820  1.0  1.0866
  Cd  Cd4  1  0.498480  0.389370  0.575750  1.0  1.0875
  H  H5  1  0.823250  0.237310  0.019310  1.0  0.1282
  H  H6  1  0.822700  0.978780  0.115330  1.0  0.12
  H  H7  1  0.820350  0.761490  0.969000  1.0  0.1222
  H  H8  1  0.820540  0.033160  0.891960  1.0  0.1147
  H  H9  1  0.160040  0.737960  0.479690  1.0  0.1291
  H  H10  1  0.157210  0.477360  0.386380  1.0  0.1054
  H  H11  1  0.165180  0.260680  0.521250  1.0  0.1273
  H  H12  1  0.165170  0.521480  0.614340  1.0  0.1129
  H  H13  1  0.153940  0.761730  0.969020  1.0  0.1281
  H  H14  1  0.152010  0.033990  0.893050  1.0  0.1072
  H  H15  1  0.157100  0.237270  0.019790  1.0  0.1269
  H  H16  1  0.154500  0.978190  0.115080  1.0  0.1051
  H  H17  1  0.831220  0.261000  0.521240  1.0  0.1265
  H  H18  1  0.833550  0.522460  0.613380  1.0  0.1037
  H  H19  1  0.826100  0.738160  0.480090  1.0  0.1293
  H  H20  1  0.825510  0.478230  0.385860  1.0  0.1184
  H  H21  1  0.597490  0.200670  0.404410  1.0  0.1307
  H  H22  1  0.393480  0.445790  0.312740  1.0  0.1127
  H  H23  1  0.402200  0.368020  0.209310  1.0  0.1242
  H  H24  1  0.380330  0.796460  0.596170  1.0  0.1283
  H  H25  1  0.601150  0.555220  0.687610  1.0  0.1137
  H  H26  1  0.590080  0.633420  0.791060  1.0  0.124
  H  H27  1  0.589590  0.700120  0.095270  1.0  0.1277
  H  H28  1  0.392860  0.946000  0.187940  1.0  0.1139
  H  H29  1  0.404700  0.868250  0.291330  1.0  0.1252
  H  H30  1  0.605580  0.296530  0.904240  1.0  0.1263
  H  H31  1  0.380820  0.055750  0.813460  1.0  0.1101
  H  H32  1  0.392620  0.133550  0.709790  1.0  0.1219
  C  C33  1  0.893840  0.178670  0.039710  1.0  0.0738
  C  C34  1  0.893400  0.035640  0.092750  1.0  0.0875
  C  C35  1  0.891080  0.822890  0.952940  1.0  0.0851
  C  C36  1  0.890710  0.973240  0.910570  1.0  0.102
  C  C37  1  0.088850  0.679100  0.459850  1.0  0.0616
  C  C38  1  0.087660  0.535120  0.408090  1.0  0.0791
  C  C39  1  0.094490  0.319810  0.540920  1.0  0.0651
  C  C40  1  0.094710  0.464100  0.592320  1.0  0.0848
  C  C41  1  0.082920  0.823060  0.953010  1.0  0.1015
  C  C42  1  0.082460  0.973560  0.910940  1.0  0.0957
  C  C43  1  0.086000  0.178690  0.040050  1.0  0.0682
  C  C44  1  0.084920  0.035530  0.092880  1.0  0.0796
  C  C45  1  0.902310  0.320030  0.540880  1.0  0.0656
  C  C46  1  0.903220  0.464500  0.591990  1.0  0.076
  C  C47  1  0.896670  0.679200  0.460110  1.0  0.0607
  C  C48  1  0.896160  0.535390  0.408090  1.0  0.0884
  C  C49  1  0.504210  0.237200  0.245150  1.0  -0.1067
  C  C50  1  0.560080  0.190800  0.302030  1.0  0.0474
  C  C51  1  0.552970  0.237170  0.361970  1.0  -0.095
  C  C52  1  0.496710  0.330380  0.367490  1.0  -0.0927
  C  C53  1  0.443350  0.375650  0.310910  1.0  -0.0656
  C  C54  1  0.447350  0.330270  0.251130  1.0  -0.0752
  C  C55  1  0.497620  0.189760  0.180370  1.0  0.6345
  C  C56  1  0.495210  0.379170  0.431810  1.0  0.6695
  C  C57  1  0.478750  0.762090  0.755270  1.0  -0.1067
  C  C58  1  0.418470  0.807240  0.698510  1.0  0.0499
  C  C59  1  0.428200  0.760990  0.638570  1.0  -0.1118
  C  C60  1  0.490650  0.668880  0.633010  1.0  -0.0964
  C  C61  1  0.547400  0.624590  0.689530  1.0  -0.0648
  C  C62  1  0.541600  0.670070  0.749280  1.0  -0.0692
  C  C63  1  0.483440  0.809930  0.819920  1.0  0.63
  C  C64  1  0.494350  0.620130  0.568720  1.0  0.6666
  C  C65  1  0.503420  0.737030  0.255040  1.0  -0.0833
  C  C66  1  0.556280  0.690420  0.197870  1.0  0.0527
  C  C67  1  0.547340  0.736790  0.137930  1.0  -0.0973
  C  C68  1  0.492180  0.830220  0.132650  1.0  -0.0959
  C  C69  1  0.441810  0.875670  0.189520  1.0  -0.0683
  C  C70  1  0.447610  0.830310  0.249300  1.0  -0.0773
  C  C71  1  0.498620  0.689620  0.319910  1.0  0.6351
  C  C72  1  0.488910  0.879140  0.068340  1.0  0.6707
  C  C73  1  0.505940  0.261940  0.745280  1.0  -0.1006
  C  C74  1  0.567060  0.307100  0.801920  1.0  0.052
  C  C75  1  0.557020  0.261100  0.861930  1.0  -0.1137
  C  C76  1  0.493410  0.169230  0.867680  1.0  -0.0944
  C  C77  1  0.435700  0.124910  0.811310  1.0  -0.0699
  C  C78  1  0.441840  0.170170  0.751470  1.0  -0.0668
  C  C79  1  0.501690  0.309550  0.680540  1.0  0.6348
  C  C80  1  0.489480  0.120780  0.932050  1.0  0.6662
  N  N81  1  0.797320  0.107300  0.066420  1.0  -0.242
  N  N82  1  0.794560  0.897770  0.931400  1.0  -0.2349
  N  N83  1  0.184680  0.607260  0.433420  1.0  -0.2461
  N  N84  1  0.190920  0.391680  0.567030  1.0  -0.2465
  N  N85  1  0.179120  0.898180  0.931700  1.0  -0.2419
  N  N86  1  0.181900  0.107330  0.067040  1.0  -0.2518
  N  N87  1  0.806350  0.392190  0.566820  1.0  -0.2381
  N  N88  1  0.800100  0.607500  0.433870  1.0  -0.2313
  N  N89  1  0.631410  0.098120  0.299940  1.0  0.5324
  N  N90  1  0.338850  0.898080  0.700810  1.0  0.5314
  N  N91  1  0.626350  0.597460  0.199590  1.0  0.5294
  N  N92  1  0.647810  0.397670  0.799410  1.0  0.5333
  O  O93  1  0.497320  0.102360  0.173370  1.0  -0.601
  O  O94  1  0.490070  0.233050  0.127450  1.0  -0.599
  O  O95  1  0.760320  0.077980  0.260280  1.0  -0.3564
  O  O96  1  0.367130  0.956750  0.654530  1.0  -0.3668
  O  O97  1  0.584550  0.538820  0.154610  1.0  -0.3732
  O  O98  1  0.620760  0.456530  0.845660  1.0  -0.3749
  O  O99  1  0.487440  0.897420  0.826540  1.0  -0.6016
  O  O100  1  0.485310  0.766960  0.873050  1.0  -0.6002
  O  O101  1  0.212230  0.915670  0.741960  1.0  -0.4048
  O  O102  1  0.592300  0.039320  0.345130  1.0  -0.3813
  O  O103  1  0.498300  0.397020  0.673700  1.0  -0.6057
  O  O104  1  0.499580  0.266340  0.627520  1.0  -0.5965
  O  O105  1  0.774190  0.414750  0.758070  1.0  -0.3781
  O  O106  1  0.498290  0.602220  0.326970  1.0  -0.6061
  O  O107  1  0.492560  0.732940  0.372850  1.0  -0.5945
  O  O108  1  0.756660  0.576850  0.238550  1.0  -0.3649
  O  O109  1  0.494060  0.468040  0.436200  1.0  -0.6416
  O  O110  1  0.498240  0.331880  0.484050  1.0  -0.6115
  O  O111  1  0.496280  0.531270  0.564320  1.0  -0.6424
  O  O112  1  0.492150  0.667460  0.516500  1.0  -0.6123
  O  O113  1  0.488960  0.968040  0.064070  1.0  -0.6514
  O  O114  1  0.488590  0.831980  0.015990  1.0  -0.6092
  O  O115  1  0.488110  0.031970  0.936740  1.0  -0.6431
  O  O116  1  0.491180  0.168250  0.984180  1.0  -0.6133
