# generated using pymatgen
data_Mn2H11(C9O5)2
_symmetry_space_group_name_H-M   'P 1'
_cell_length_a   12.73000000
_cell_length_b   15.81000000
_cell_length_c   16.73000000
_cell_angle_alpha   90.00000000
_cell_angle_beta   90.00000000
_cell_angle_gamma   90.00000000
_symmetry_Int_Tables_number   1
_chemical_formula_structural   Mn2H11(C9O5)2
_chemical_formula_sum   'Mn8 H44 C72 O40'
_cell_volume   3367.10154900
_cell_formula_units_Z   4
loop_
 _symmetry_equiv_pos_site_id
 _symmetry_equiv_pos_as_xyz
  1  'x, y, z'
loop_
 _atom_site_type_symbol
 _atom_site_label
 _atom_site_symmetry_multiplicity
 _atom_site_fract_x
 _atom_site_fract_y
 _atom_site_fract_z
 _atom_site_occupancy
 _atom_site_charge
  Mn  Mn1  1  0.731200  0.757360  0.110870  1.0  1.1939
  Mn  Mn2  1  0.479180  0.735530  0.000160  1.0  1.1419
  Mn  Mn3  1  0.768800  0.242640  0.610870  1.0  1.1939
  Mn  Mn4  1  0.020820  0.264470  0.500160  1.0  1.141
  Mn  Mn5  1  0.268800  0.257360  0.389130  1.0  1.1936
  Mn  Mn6  1  0.520820  0.235530  0.499840  1.0  1.1414
  Mn  Mn7  1  0.231200  0.742640  0.889130  1.0  1.1935
  Mn  Mn8  1  0.979180  0.764470  0.999840  1.0  1.1411
  H  H9  1  0.620200  0.493300  0.382500  1.0  0.1214
  H  H10  1  0.646100  0.606700  0.295700  1.0  0.1161
  H  H11  1  0.379700  0.550200  0.180500  1.0  0.1243
  H  H12  1  0.347600  0.444100  0.272200  1.0  0.1109
  H  H13  1  0.826600  0.544800  0.250600  1.0  0.1104
  H  H14  1  0.892800  0.442300  0.335600  1.0  0.1208
  H  H15  1  0.162200  0.441700  0.211400  1.0  0.116
  H  H16  1  0.097500  0.548100  0.128900  1.0  0.1201
  H  H17  1  0.796100  0.766600  0.843300  1.0  0.1555
  H  H18  1  0.673400  0.774300  0.841100  1.0  0.1526
  H  H19  1  0.726400  0.684900  0.844000  1.0  0.1623
  H  H20  1  0.879800  0.506700  0.882500  1.0  0.1211
  H  H21  1  0.853900  0.393300  0.795700  1.0  0.1159
  H  H22  1  0.120300  0.449800  0.680500  1.0  0.1246
  H  H23  1  0.152400  0.555900  0.772200  1.0  0.1108
  H  H24  1  0.673400  0.455200  0.750600  1.0  0.111
  H  H25  1  0.607200  0.557700  0.835600  1.0  0.121
  H  H26  1  0.337800  0.558300  0.711400  1.0  0.116
  H  H27  1  0.402500  0.451900  0.628900  1.0  0.12
  H  H28  1  0.703900  0.233400  0.343300  1.0  0.1555
  H  H29  1  0.826600  0.225700  0.341100  1.0  0.1522
  H  H30  1  0.773600  0.315100  0.344000  1.0  0.1627
  H  H31  1  0.379800  0.993300  0.117500  1.0  0.1214
  H  H32  1  0.353900  0.106700  0.204300  1.0  0.1162
  H  H33  1  0.620300  0.050200  0.319500  1.0  0.1253
  H  H34  1  0.652400  0.944100  0.227800  1.0  0.1113
  H  H35  1  0.173400  0.044800  0.249400  1.0  0.1111
  H  H36  1  0.107200  0.942300  0.164400  1.0  0.1199
  H  H37  1  0.837800  0.941700  0.288600  1.0  0.1162
  H  H38  1  0.902500  0.048100  0.371100  1.0  0.1207
  H  H39  1  0.203900  0.266600  0.656700  1.0  0.1561
  H  H40  1  0.326600  0.274300  0.658900  1.0  0.1518
  H  H41  1  0.273600  0.184900  0.656000  1.0  0.1631
  H  H42  1  0.120200  0.006700  0.617500  1.0  0.1221
  H  H43  1  0.146100  0.893300  0.704300  1.0  0.1157
  H  H44  1  0.879700  0.949800  0.819500  1.0  0.1247
  H  H45  1  0.847600  0.055900  0.727800  1.0  0.1112
  H  H46  1  0.326600  0.955200  0.749400  1.0  0.1101
  H  H47  1  0.392800  0.057700  0.664400  1.0  0.12
  H  H48  1  0.662200  0.058300  0.788600  1.0  0.1162
  H  H49  1  0.597500  0.951900  0.871100  1.0  0.1205
  H  H50  1  0.296100  0.733400  0.156700  1.0  0.1558
  H  H51  1  0.173400  0.725700  0.158900  1.0  0.1532
  H  H52  1  0.226400  0.815100  0.156000  1.0  0.1621
  C  C53  1  0.728900  0.744700  0.952500  1.0  0.8072
  C  C54  1  0.540100  0.655300  0.165600  1.0  0.7159
  C  C55  1  0.517800  0.588100  0.228500  1.0  -0.1322
  C  C56  1  0.458700  0.385000  0.392200  1.0  0.7056
  C  C57  1  0.479500  0.457800  0.336200  1.0  -0.1033
  C  C58  1  0.570900  0.505600  0.343100  1.0  -0.0634
  C  C59  1  0.587300  0.572300  0.289800  1.0  -0.0168
  C  C60  1  0.427400  0.539700  0.221500  1.0  -0.0581
  C  C61  1  0.409000  0.475700  0.276100  1.0  -0.0445
  C  C62  1  0.914700  0.630300  0.131500  1.0  0.7503
  C  C63  1  0.956100  0.558300  0.182600  1.0  -0.1264
  C  C64  1  0.894900  0.525300  0.243600  1.0  -0.039
  C  C65  1  0.934200  0.463400  0.294400  1.0  -0.0561
  C  C66  1  0.036000  0.433100  0.283400  1.0  -0.117
  C  C67  1  0.095500  0.463600  0.220500  1.0  -0.0272
  C  C68  1  0.056300  0.527000  0.170300  1.0  -0.0361
  C  C69  1  0.082300  0.370100  0.342400  1.0  0.7368
  C  C70  1  0.731400  0.742400  0.861900  1.0  -0.4801
  C  C71  1  0.771100  0.255300  0.452500  1.0  0.8074
  C  C72  1  0.959900  0.344700  0.665600  1.0  0.7158
  C  C73  1  0.982200  0.411900  0.728500  1.0  -0.1321
  C  C74  1  0.041300  0.615000  0.892200  1.0  0.7057
  C  C75  1  0.020500  0.542200  0.836200  1.0  -0.1028
  C  C76  1  0.929100  0.494400  0.843100  1.0  -0.063
  C  C77  1  0.912700  0.427700  0.789800  1.0  -0.0158
  C  C78  1  0.072600  0.460300  0.721500  1.0  -0.0583
  C  C79  1  0.091000  0.524300  0.776100  1.0  -0.0451
  C  C80  1  0.585300  0.369700  0.631500  1.0  0.7508
  C  C81  1  0.543900  0.441700  0.682600  1.0  -0.1274
  C  C82  1  0.605100  0.474700  0.743600  1.0  -0.0394
  C  C83  1  0.565800  0.536600  0.794400  1.0  -0.0572
  C  C84  1  0.464000  0.566900  0.783400  1.0  -0.1172
  C  C85  1  0.404500  0.536400  0.720500  1.0  -0.0272
  C  C86  1  0.443700  0.473000  0.670300  1.0  -0.035
  C  C87  1  0.417700  0.629900  0.842400  1.0  0.7368
  C  C88  1  0.768600  0.257600  0.361900  1.0  -0.4792
  C  C89  1  0.271100  0.244700  0.547500  1.0  0.8073
  C  C90  1  0.459900  0.155300  0.334400  1.0  0.7166
  C  C91  1  0.482200  0.088100  0.271500  1.0  -0.1324
  C  C92  1  0.541300  0.885000  0.107800  1.0  0.7036
  C  C93  1  0.520500  0.957800  0.163800  1.0  -0.1031
  C  C94  1  0.429100  0.005600  0.156900  1.0  -0.0621
  C  C95  1  0.412700  0.072300  0.210200  1.0  -0.017
  C  C96  1  0.572600  0.039700  0.278500  1.0  -0.0588
  C  C97  1  0.591000  0.975700  0.223900  1.0  -0.0454
  C  C98  1  0.085300  0.130300  0.368500  1.0  0.7514
  C  C99  1  0.043900  0.058300  0.317400  1.0  -0.1275
  C  C100  1  0.105100  0.025300  0.256400  1.0  -0.0395
  C  C101  1  0.065800  0.963400  0.205600  1.0  -0.0552
  C  C102  1  0.964000  0.933100  0.216600  1.0  -0.1176
  C  C103  1  0.904500  0.963600  0.279500  1.0  -0.0261
  C  C104  1  0.943700  0.027000  0.329700  1.0  -0.0356
  C  C105  1  0.917700  0.870100  0.157600  1.0  0.737
  C  C106  1  0.268600  0.242400  0.638100  1.0  -0.4806
  C  C107  1  0.228900  0.755300  0.047500  1.0  0.807
  C  C108  1  0.040100  0.844700  0.834400  1.0  0.7157
  C  C109  1  0.017800  0.911900  0.771500  1.0  -0.1318
  C  C110  1  0.958700  0.115000  0.607800  1.0  0.7037
  C  C111  1  0.979500  0.042200  0.663800  1.0  -0.1034
  C  C112  1  0.070900  0.994400  0.656900  1.0  -0.0646
  C  C113  1  0.087300  0.927700  0.710200  1.0  -0.0176
  C  C114  1  0.927400  0.960300  0.778500  1.0  -0.058
  C  C115  1  0.909000  0.024300  0.723900  1.0  -0.0442
  C  C116  1  0.414700  0.869700  0.868500  1.0  0.7512
  C  C117  1  0.456100  0.941700  0.817400  1.0  -0.1259
  C  C118  1  0.394900  0.974700  0.756400  1.0  -0.039
  C  C119  1  0.434200  0.036600  0.705600  1.0  -0.0549
  C  C120  1  0.536000  0.066900  0.716600  1.0  -0.1171
  C  C121  1  0.595500  0.036400  0.779500  1.0  -0.0275
  C  C122  1  0.556300  0.973000  0.829700  1.0  -0.0358
  C  C123  1  0.582300  0.129900  0.657600  1.0  0.7372
  C  C124  1  0.231400  0.757600  0.138100  1.0  -0.4802
  O  O125  1  0.651000  0.716140  0.990140  1.0  -0.6389
  O  O126  1  0.612100  0.707900  0.183120  1.0  -0.6213
  O  O127  1  0.488900  0.653070  0.102800  1.0  -0.6101
  O  O128  1  0.361700  0.372460  0.409670  1.0  -0.653
  O  O129  1  0.532600  0.343180  0.418310  1.0  -0.5634
  O  O130  1  0.981200  0.670220  0.091400  1.0  -0.5845
  O  O131  1  0.819200  0.645400  0.135100  1.0  -0.5914
  O  O132  1  0.035000  0.359790  0.406210  1.0  -0.6395
  O  O133  1  0.806100  0.774780  0.990450  1.0  -0.6551
  O  O134  1  0.167400  0.334900  0.321050  1.0  -0.6012
  O  O135  1  0.849000  0.283860  0.490140  1.0  -0.6405
  O  O136  1  0.887900  0.292100  0.683120  1.0  -0.6212
  O  O137  1  0.011100  0.346930  0.602800  1.0  -0.6102
  O  O138  1  0.138300  0.627540  0.909670  1.0  -0.6535
  O  O139  1  0.967400  0.656820  0.918310  1.0  -0.5637
  O  O140  1  0.518800  0.329780  0.591400  1.0  -0.5842
  O  O141  1  0.680800  0.354600  0.635100  1.0  -0.5946
  O  O142  1  0.465000  0.640210  0.906210  1.0  -0.6405
  O  O143  1  0.693900  0.225220  0.490450  1.0  -0.6553
  O  O144  1  0.332600  0.665100  0.821050  1.0  -0.6011
  O  O145  1  0.349000  0.216140  0.509860  1.0  -0.6403
  O  O146  1  0.387900  0.207900  0.316880  1.0  -0.6221
  O  O147  1  0.511100  0.153070  0.397200  1.0  -0.6103
  O  O148  1  0.638300  0.872460  0.090330  1.0  -0.6533
  O  O149  1  0.467400  0.843180  0.081690  1.0  -0.5644
  O  O150  1  0.018800  0.170220  0.408600  1.0  -0.5844
  O  O151  1  0.180800  0.145400  0.364900  1.0  -0.5941
  O  O152  1  0.965000  0.859790  0.093790  1.0  -0.6397
  O  O153  1  0.193900  0.274780  0.509550  1.0  -0.6554
  O  O154  1  0.832600  0.834900  0.178950  1.0  -0.602
  O  O155  1  0.151000  0.783860  0.009860  1.0  -0.639
  O  O156  1  0.112100  0.792100  0.816880  1.0  -0.6214
  O  O157  1  0.988900  0.846930  0.897200  1.0  -0.61
  O  O158  1  0.861700  0.127540  0.590330  1.0  -0.6531
  O  O159  1  0.032600  0.156820  0.581690  1.0  -0.5628
  O  O160  1  0.481200  0.829780  0.908600  1.0  -0.5847
  O  O161  1  0.319200  0.854600  0.864900  1.0  -0.5913
  O  O162  1  0.535000  0.140210  0.593790  1.0  -0.6397
  O  O163  1  0.306100  0.725220  0.009550  1.0  -0.6552
  O  O164  1  0.667400  0.165100  0.678950  1.0  -0.6022
