# generated using pymatgen
data_SmH4C12(NO3)2
_symmetry_space_group_name_H-M   'P 1'
_cell_length_a   18.32230000
_cell_length_b   11.40050000
_cell_length_c   18.85360000
_cell_angle_alpha   90.00000000
_cell_angle_beta   108.68100000
_cell_angle_gamma   90.00000000
_symmetry_Int_Tables_number   1
_chemical_formula_structural   SmH4C12(NO3)2
_chemical_formula_sum   'Sm8 H32 C96 N16 O48'
_cell_volume   3730.72553649
_cell_formula_units_Z   8
loop_
 _symmetry_equiv_pos_site_id
 _symmetry_equiv_pos_as_xyz
  1  'x, y, z'
loop_
 _atom_site_type_symbol
 _atom_site_label
 _atom_site_symmetry_multiplicity
 _atom_site_fract_x
 _atom_site_fract_y
 _atom_site_fract_z
 _atom_site_occupancy
 _atom_site_charge
  Sm  Sm1  1  0.500820  0.433200  0.896500  1.0  2.32
  Sm  Sm2  1  0.000820  0.933200  0.896500  1.0  2.3209
  Sm  Sm3  1  0.499180  0.433200  0.603500  1.0  2.3208
  Sm  Sm4  1  0.999180  0.933200  0.603500  1.0  2.3234
  Sm  Sm5  1  0.499180  0.566800  0.103500  1.0  2.3199
  Sm  Sm6  1  0.999180  0.066800  0.103500  1.0  2.3209
  Sm  Sm7  1  0.500820  0.566800  0.396500  1.0  2.3202
  Sm  Sm8  1  0.000820  0.066800  0.396500  1.0  2.321
  H  H9  1  0.788000  0.176600  0.271800  1.0  0.1213
  H  H10  1  0.684400  0.206300  0.012000  1.0  0.1169
  H  H11  1  0.315600  0.402600  0.076700  1.0  0.1063
  H  H12  1  0.798400  0.103600  0.065900  1.0  0.1094
  H  H13  1  0.288000  0.676600  0.271800  1.0  0.1213
  H  H14  1  0.184400  0.706300  0.012000  1.0  0.1169
  H  H15  1  0.815600  0.902600  0.076700  1.0  0.1063
  H  H16  1  0.298400  0.603600  0.065900  1.0  0.1094
  H  H17  1  0.212000  0.176600  0.228200  1.0  0.1209
  H  H18  1  0.315600  0.206300  0.488000  1.0  0.1171
  H  H19  1  0.684400  0.402600  0.423300  1.0  0.1064
  H  H20  1  0.201600  0.103600  0.434100  1.0  0.1097
  H  H21  1  0.712000  0.676600  0.228200  1.0  0.1209
  H  H22  1  0.815600  0.706300  0.488000  1.0  0.1171
  H  H23  1  0.184400  0.902600  0.423300  1.0  0.1064
  H  H24  1  0.701600  0.603600  0.434100  1.0  0.1097
  H  H25  1  0.212000  0.823400  0.728200  1.0  0.1196
  H  H26  1  0.315600  0.793700  0.988000  1.0  0.1167
  H  H27  1  0.684400  0.597400  0.923300  1.0  0.1068
  H  H28  1  0.201600  0.896400  0.934100  1.0  0.1097
  H  H29  1  0.712000  0.323400  0.728200  1.0  0.1196
  H  H30  1  0.815600  0.293700  0.988000  1.0  0.1167
  H  H31  1  0.184400  0.097400  0.923300  1.0  0.1068
  H  H32  1  0.701600  0.396400  0.934100  1.0  0.1097
  H  H33  1  0.788000  0.823400  0.771800  1.0  0.1201
  H  H34  1  0.684400  0.793700  0.512000  1.0  0.1166
  H  H35  1  0.315600  0.597400  0.576700  1.0  0.1063
  H  H36  1  0.798400  0.896400  0.565900  1.0  0.1094
  H  H37  1  0.288000  0.323400  0.771800  1.0  0.1201
  H  H38  1  0.184400  0.293700  0.512000  1.0  0.1166
  H  H39  1  0.815600  0.097400  0.576700  1.0  0.1063
  H  H40  1  0.298400  0.396400  0.565900  1.0  0.1094
  C  C41  1  0.602900  0.339600  0.071000  1.0  0.732
  C  C42  1  0.669700  0.262000  0.109100  1.0  -0.1414
  C  C43  1  0.699600  0.250300  0.188500  1.0  0.199
  C  C44  1  0.767600  0.185500  0.219000  1.0  -0.069
  C  C45  1  0.706200  0.203500  0.065000  1.0  -0.0232
  C  C46  1  0.387100  0.353800  0.980200  1.0  0.7368
  C  C47  1  0.316300  0.297600  0.989400  1.0  -0.207
  C  C48  1  0.277300  0.203000  0.944400  1.0  0.2756
  C  C49  1  0.288400  0.341100  0.045200  1.0  -0.0981
  C  C50  1  0.882500  0.076600  0.209400  1.0  0.7463
  C  C51  1  0.805600  0.134400  0.174400  1.0  -0.1311
  C  C52  1  0.773800  0.141500  0.096900  1.0  -0.0617
  C  C53  1  0.102900  0.839600  0.071000  1.0  0.732
  C  C54  1  0.169700  0.762000  0.109100  1.0  -0.1414
  C  C55  1  0.199600  0.750300  0.188500  1.0  0.199
  C  C56  1  0.267600  0.685500  0.219000  1.0  -0.069
  C  C57  1  0.206200  0.703500  0.065000  1.0  -0.0232
  C  C58  1  0.887100  0.853800  0.980200  1.0  0.7368
  C  C59  1  0.816300  0.797600  0.989400  1.0  -0.207
  C  C60  1  0.777300  0.703000  0.944400  1.0  0.2756
  C  C61  1  0.788400  0.841100  0.045200  1.0  -0.0981
  C  C62  1  0.382500  0.576600  0.209400  1.0  0.7471
  C  C63  1  0.305600  0.634400  0.174400  1.0  -0.1311
  C  C64  1  0.273800  0.641500  0.096900  1.0  -0.0617
  C  C65  1  0.397100  0.339600  0.429000  1.0  0.7314
  C  C66  1  0.330300  0.262000  0.390900  1.0  -0.1407
  C  C67  1  0.300400  0.250300  0.311500  1.0  0.2009
  C  C68  1  0.232400  0.185500  0.281000  1.0  -0.068
  C  C69  1  0.293800  0.203500  0.435000  1.0  -0.0234
  C  C70  1  0.612900  0.353800  0.519800  1.0  0.7373
  C  C71  1  0.683700  0.297600  0.510600  1.0  -0.2061
  C  C72  1  0.722700  0.203000  0.555600  1.0  0.2725
  C  C73  1  0.711600  0.341100  0.454800  1.0  -0.0993
  C  C74  1  0.117500  0.076600  0.290600  1.0  0.745
  C  C75  1  0.194400  0.134400  0.325600  1.0  -0.1313
  C  C76  1  0.226200  0.141500  0.403100  1.0  -0.0613
  C  C77  1  0.897100  0.839600  0.429000  1.0  0.7314
  C  C78  1  0.830300  0.762000  0.390900  1.0  -0.1407
  C  C79  1  0.800400  0.750300  0.311500  1.0  0.2009
  C  C80  1  0.732400  0.685500  0.281000  1.0  -0.068
  C  C81  1  0.793800  0.703500  0.435000  1.0  -0.0234
  C  C82  1  0.112900  0.853800  0.519800  1.0  0.7373
  C  C83  1  0.183700  0.797600  0.510600  1.0  -0.2061
  C  C84  1  0.222700  0.703000  0.555600  1.0  0.2725
  C  C85  1  0.211600  0.841100  0.454800  1.0  -0.0993
  C  C86  1  0.617500  0.576600  0.290600  1.0  0.7456
  C  C87  1  0.694400  0.634400  0.325600  1.0  -0.1313
  C  C88  1  0.726200  0.641500  0.403100  1.0  -0.0613
  C  C89  1  0.397100  0.660400  0.929000  1.0  0.7254
  C  C90  1  0.330300  0.738000  0.890900  1.0  -0.1407
  C  C91  1  0.300400  0.749700  0.811500  1.0  0.2009
  C  C92  1  0.232400  0.814500  0.781000  1.0  -0.0682
  C  C93  1  0.293800  0.796500  0.935000  1.0  -0.0235
  C  C94  1  0.612900  0.646200  0.019800  1.0  0.736
  C  C95  1  0.683700  0.702400  0.010600  1.0  -0.2039
  C  C96  1  0.722700  0.797000  0.055600  1.0  0.2726
  C  C97  1  0.711600  0.658900  0.954800  1.0  -0.0985
  C  C98  1  0.117500  0.923400  0.790600  1.0  0.7453
  C  C99  1  0.194400  0.865600  0.825600  1.0  -0.1314
  C  C100  1  0.226200  0.858500  0.903100  1.0  -0.0619
  C  C101  1  0.897100  0.160400  0.929000  1.0  0.7254
  C  C102  1  0.830300  0.238000  0.890900  1.0  -0.1407
  C  C103  1  0.800400  0.249700  0.811500  1.0  0.2009
  C  C104  1  0.732400  0.314500  0.781000  1.0  -0.0682
  C  C105  1  0.793800  0.296500  0.935000  1.0  -0.0235
  C  C106  1  0.112900  0.146200  0.019800  1.0  0.736
  C  C107  1  0.183700  0.202400  0.010600  1.0  -0.2039
  C  C108  1  0.222700  0.297000  0.055600  1.0  0.2726
  C  C109  1  0.211600  0.158900  0.954800  1.0  -0.0985
  C  C110  1  0.617500  0.423400  0.790600  1.0  0.746
  C  C111  1  0.694400  0.365600  0.825600  1.0  -0.1314
  C  C112  1  0.726200  0.358500  0.903100  1.0  -0.0619
  C  C113  1  0.602900  0.660400  0.571000  1.0  0.7265
  C  C114  1  0.669700  0.738000  0.609100  1.0  -0.1415
  C  C115  1  0.699600  0.749700  0.688500  1.0  0.1999
  C  C116  1  0.767600  0.814500  0.719000  1.0  -0.0687
  C  C117  1  0.706200  0.796500  0.565000  1.0  -0.0235
  C  C118  1  0.387100  0.646200  0.480200  1.0  0.7367
  C  C119  1  0.316300  0.702400  0.489400  1.0  -0.2051
  C  C120  1  0.277300  0.797000  0.444400  1.0  0.2749
  C  C121  1  0.288400  0.658900  0.545200  1.0  -0.0975
  C  C122  1  0.882500  0.923400  0.709400  1.0  0.7469
  C  C123  1  0.805600  0.865600  0.674400  1.0  -0.1313
  C  C124  1  0.773800  0.858500  0.596900  1.0  -0.0619
  C  C125  1  0.102900  0.160400  0.571000  1.0  0.7265
  C  C126  1  0.169700  0.238000  0.609100  1.0  -0.1415
  C  C127  1  0.199600  0.249700  0.688500  1.0  0.1999
  C  C128  1  0.267600  0.314500  0.719000  1.0  -0.0687
  C  C129  1  0.206200  0.296500  0.565000  1.0  -0.0235
  C  C130  1  0.887100  0.146200  0.480200  1.0  0.7367
  C  C131  1  0.816300  0.202400  0.489400  1.0  -0.2051
  C  C132  1  0.777300  0.297000  0.444400  1.0  0.2749
  C  C133  1  0.788400  0.158900  0.545200  1.0  -0.0975
  C  C134  1  0.382500  0.423400  0.709400  1.0  0.7476
  C  C135  1  0.305600  0.365600  0.674400  1.0  -0.1313
  C  C136  1  0.273800  0.358500  0.596900  1.0  -0.0619
  N  N137  1  0.668000  0.300100  0.239000  1.0  -0.2505
  N  N138  1  0.301800  0.150100  0.889700  1.0  -0.2705
  N  N139  1  0.168000  0.800100  0.239000  1.0  -0.2505
  N  N140  1  0.801800  0.650100  0.889700  1.0  -0.2705
  N  N141  1  0.332000  0.300100  0.261000  1.0  -0.251
  N  N142  1  0.698200  0.150100  0.610300  1.0  -0.2699
  N  N143  1  0.832000  0.800100  0.261000  1.0  -0.251
  N  N144  1  0.198200  0.650100  0.610300  1.0  -0.2699
  N  N145  1  0.332000  0.699900  0.761000  1.0  -0.2511
  N  N146  1  0.698200  0.849900  0.110300  1.0  -0.2709
  N  N147  1  0.832000  0.199900  0.761000  1.0  -0.2511
  N  N148  1  0.198200  0.349900  0.110300  1.0  -0.2709
  N  N149  1  0.668000  0.699900  0.739000  1.0  -0.2507
  N  N150  1  0.301800  0.849900  0.389700  1.0  -0.2708
  N  N151  1  0.168000  0.199900  0.739000  1.0  -0.2507
  N  N152  1  0.801800  0.349900  0.389700  1.0  -0.2708
  O  O153  1  0.575300  0.332400  0.000100  1.0  -0.7009
  O  O154  1  0.405000  0.324600  0.922700  1.0  -0.6239
  O  O155  1  0.911100  0.074900  0.279400  1.0  -0.7548
  O  O156  1  0.914600  0.031500  0.165600  1.0  -0.6873
  O  O157  1  0.579000  0.409000  0.111400  1.0  -0.6698
  O  O158  1  0.422500  0.429600  0.024800  1.0  -0.7687
  O  O159  1  0.075300  0.832400  0.000100  1.0  -0.7009
  O  O160  1  0.905000  0.824600  0.922700  1.0  -0.6239
  O  O161  1  0.411100  0.574900  0.279400  1.0  -0.7548
  O  O162  1  0.414600  0.531500  0.165600  1.0  -0.6907
  O  O163  1  0.079000  0.909000  0.111400  1.0  -0.6698
  O  O164  1  0.922500  0.929600  0.024800  1.0  -0.7687
  O  O165  1  0.424700  0.332400  0.499900  1.0  -0.702
  O  O166  1  0.595000  0.324600  0.577300  1.0  -0.6246
  O  O167  1  0.088900  0.074900  0.220600  1.0  -0.756
  O  O168  1  0.085400  0.031500  0.334400  1.0  -0.6877
  O  O169  1  0.421000  0.409000  0.388600  1.0  -0.67
  O  O170  1  0.577500  0.429600  0.475200  1.0  -0.7686
  O  O171  1  0.924700  0.832400  0.499900  1.0  -0.702
  O  O172  1  0.095000  0.824600  0.577300  1.0  -0.6246
  O  O173  1  0.588900  0.574900  0.220600  1.0  -0.756
  O  O174  1  0.585400  0.531500  0.334400  1.0  -0.6912
  O  O175  1  0.921000  0.909000  0.388600  1.0  -0.67
  O  O176  1  0.077500  0.929600  0.475200  1.0  -0.7686
  O  O177  1  0.424700  0.667600  0.999900  1.0  -0.7022
  O  O178  1  0.595000  0.675400  0.077300  1.0  -0.6254
  O  O179  1  0.088900  0.925100  0.720600  1.0  -0.756
  O  O180  1  0.085400  0.968500  0.834400  1.0  -0.6873
  O  O181  1  0.421000  0.591000  0.888600  1.0  -0.6702
  O  O182  1  0.577500  0.570400  0.975200  1.0  -0.7685
  O  O183  1  0.924700  0.167600  0.999900  1.0  -0.7022
  O  O184  1  0.095000  0.175400  0.077300  1.0  -0.6254
  O  O185  1  0.588900  0.425100  0.720600  1.0  -0.756
  O  O186  1  0.585400  0.468500  0.834400  1.0  -0.6908
  O  O187  1  0.921000  0.091000  0.888600  1.0  -0.6702
  O  O188  1  0.077500  0.070400  0.975200  1.0  -0.7685
  O  O189  1  0.575300  0.667600  0.500100  1.0  -0.701
  O  O190  1  0.405000  0.675400  0.422700  1.0  -0.6239
  O  O191  1  0.911100  0.925100  0.779400  1.0  -0.7545
  O  O192  1  0.914600  0.968500  0.665600  1.0  -0.6866
  O  O193  1  0.579000  0.591000  0.611400  1.0  -0.6705
  O  O194  1  0.422500  0.570400  0.524800  1.0  -0.7685
  O  O195  1  0.075300  0.167600  0.500100  1.0  -0.701
  O  O196  1  0.905000  0.175400  0.422700  1.0  -0.6239
  O  O197  1  0.411100  0.425100  0.779400  1.0  -0.7545
  O  O198  1  0.414600  0.468500  0.665600  1.0  -0.6902
  O  O199  1  0.079000  0.091000  0.611400  1.0  -0.6705
  O  O200  1  0.922500  0.070400  0.524800  1.0  -0.7685
