# generated using pymatgen
data_CeH9C12(NO3)2
_symmetry_space_group_name_H-M   'P 1'
_cell_length_a   18.50680000
_cell_length_b   11.42600000
_cell_length_c   19.03210000
_cell_angle_alpha   90.00000000
_cell_angle_beta   108.34100000
_cell_angle_gamma   90.00000000
_symmetry_Int_Tables_number   1
_chemical_formula_structural   CeH9C12(NO3)2
_chemical_formula_sum   'Ce8 H72 C96 N16 O48'
_cell_volume   3820.06050629
_cell_formula_units_Z   8
loop_
 _symmetry_equiv_pos_site_id
 _symmetry_equiv_pos_as_xyz
  1  'x, y, z'
loop_
 _atom_site_type_symbol
 _atom_site_label
 _atom_site_symmetry_multiplicity
 _atom_site_fract_x
 _atom_site_fract_y
 _atom_site_fract_z
 _atom_site_occupancy
 _atom_site_charge
  Ce  Ce1  1  0.000450  0.065490  0.898500  1.0  2.2528
  Ce  Ce2  1  0.500450  0.565490  0.898500  1.0  2.2539
  Ce  Ce3  1  0.999550  0.065490  0.601500  1.0  2.2528
  Ce  Ce4  1  0.499550  0.565490  0.601500  1.0  2.2528
  Ce  Ce5  1  0.999550  0.934510  0.101500  1.0  2.2483
  Ce  Ce6  1  0.499550  0.434510  0.101500  1.0  2.2511
  Ce  Ce7  1  0.000450  0.934510  0.398500  1.0  2.2477
  Ce  Ce8  1  0.500450  0.434510  0.398500  1.0  2.2477
  H  H9  1  0.813900  0.701700  0.984600  1.0  0.0818
  H  H10  1  0.701300  0.602800  0.933800  1.0  0.0912
  H  H11  1  0.712800  0.670500  0.731000  1.0  0.0772
  H  H12  1  0.819100  0.099400  0.070300  1.0  0.0754
  H  H13  1  0.815000  0.793000  0.715600  1.0  0.3274
  H  H14  1  0.867000  0.843000  0.779000  1.0  0.2993
  H  H15  1  0.679000  0.170000  0.135000  1.0  0.2074
  H  H16  1  0.718000  0.072000  0.125000  1.0  0.1933
  H  H17  1  0.720000  0.177000  0.100000  1.0  0.2868
  H  H18  1  0.313900  0.201700  0.984600  1.0  0.0818
  H  H19  1  0.201300  0.102800  0.933800  1.0  0.0912
  H  H20  1  0.212800  0.170500  0.731000  1.0  0.0772
  H  H21  1  0.319100  0.599400  0.070300  1.0  0.0754
  H  H22  1  0.315000  0.293000  0.715600  1.0  0.3274
  H  H23  1  0.367000  0.343000  0.779000  1.0  0.2993
  H  H24  1  0.179000  0.670000  0.135000  1.0  0.2074
  H  H25  1  0.218000  0.572000  0.125000  1.0  0.1933
  H  H26  1  0.220000  0.677000  0.100000  1.0  0.2868
  H  H27  1  0.186100  0.701700  0.515400  1.0  0.082
  H  H28  1  0.298700  0.602800  0.566200  1.0  0.0922
  H  H29  1  0.287200  0.670500  0.769000  1.0  0.0765
  H  H30  1  0.180900  0.099400  0.429700  1.0  0.0753
  H  H31  1  0.185000  0.793000  0.784400  1.0  0.3272
  H  H32  1  0.133000  0.843000  0.721000  1.0  0.2996
  H  H33  1  0.321000  0.170000  0.365000  1.0  0.2087
  H  H34  1  0.282000  0.072000  0.375000  1.0  0.1955
  H  H35  1  0.280000  0.177000  0.400000  1.0  0.2879
  H  H36  1  0.686100  0.201700  0.515400  1.0  0.082
  H  H37  1  0.798700  0.102800  0.566200  1.0  0.0922
  H  H38  1  0.787200  0.170500  0.769000  1.0  0.0765
  H  H39  1  0.680900  0.599400  0.429700  1.0  0.0753
  H  H40  1  0.685000  0.293000  0.784400  1.0  0.3272
  H  H41  1  0.633000  0.343000  0.721000  1.0  0.2996
  H  H42  1  0.821000  0.670000  0.365000  1.0  0.2087
  H  H43  1  0.782000  0.572000  0.375000  1.0  0.1955
  H  H44  1  0.780000  0.677000  0.400000  1.0  0.2879
  H  H45  1  0.186100  0.298300  0.015400  1.0  0.082
  H  H46  1  0.298700  0.397200  0.066200  1.0  0.0922
  H  H47  1  0.287200  0.329500  0.269000  1.0  0.0748
  H  H48  1  0.180900  0.900600  0.929700  1.0  0.0754
  H  H49  1  0.185000  0.207000  0.284400  1.0  0.3265
  H  H50  1  0.133000  0.157000  0.221000  1.0  0.3007
  H  H51  1  0.321000  0.830000  0.865000  1.0  0.2082
  H  H52  1  0.282000  0.928000  0.875000  1.0  0.1983
  H  H53  1  0.280000  0.823000  0.900000  1.0  0.2879
  H  H54  1  0.686100  0.798300  0.015400  1.0  0.082
  H  H55  1  0.798700  0.897200  0.066200  1.0  0.0922
  H  H56  1  0.787200  0.829500  0.269000  1.0  0.0748
  H  H57  1  0.680900  0.400600  0.929700  1.0  0.0754
  H  H58  1  0.685000  0.707000  0.284400  1.0  0.3265
  H  H59  1  0.633000  0.657000  0.221000  1.0  0.3007
  H  H60  1  0.821000  0.330000  0.865000  1.0  0.2082
  H  H61  1  0.782000  0.428000  0.875000  1.0  0.1983
  H  H62  1  0.780000  0.323000  0.900000  1.0  0.2879
  H  H63  1  0.813900  0.298300  0.484600  1.0  0.0816
  H  H64  1  0.701300  0.397200  0.433800  1.0  0.0914
  H  H65  1  0.712800  0.329500  0.231000  1.0  0.076
  H  H66  1  0.819100  0.900600  0.570300  1.0  0.0751
  H  H67  1  0.815000  0.207000  0.215600  1.0  0.3272
  H  H68  1  0.867000  0.157000  0.279000  1.0  0.2997
  H  H69  1  0.679000  0.830000  0.635000  1.0  0.2076
  H  H70  1  0.718000  0.928000  0.625000  1.0  0.1967
  H  H71  1  0.720000  0.823000  0.600000  1.0  0.288
  H  H72  1  0.313900  0.798300  0.484600  1.0  0.0816
  H  H73  1  0.201300  0.897200  0.433800  1.0  0.0914
  H  H74  1  0.212800  0.829500  0.231000  1.0  0.076
  H  H75  1  0.319100  0.400600  0.570300  1.0  0.0751
  H  H76  1  0.315000  0.707000  0.215600  1.0  0.3272
  H  H77  1  0.367000  0.657000  0.279000  1.0  0.2997
  H  H78  1  0.179000  0.330000  0.635000  1.0  0.2076
  H  H79  1  0.218000  0.428000  0.625000  1.0  0.1967
  H  H80  1  0.220000  0.323000  0.600000  1.0  0.288
  C  C81  1  0.897770  0.827100  0.926950  1.0  0.7365
  C  C82  1  0.830190  0.752700  0.889410  1.0  -0.197
  C  C83  1  0.792890  0.697700  0.933360  1.0  -0.0595
  C  C84  1  0.725760  0.637500  0.903250  1.0  -0.1318
  C  C85  1  0.694830  0.629200  0.826470  1.0  -0.1518
  C  C86  1  0.732700  0.679000  0.782040  1.0  -0.1521
  C  C87  1  0.800200  0.741900  0.811880  1.0  0.2045
  C  C88  1  0.619840  0.568900  0.792370  1.0  0.7311
  C  C89  1  0.882630  0.156000  0.969310  1.0  0.6752
  C  C90  1  0.814520  0.206300  0.985210  1.0  -0.111
  C  C91  1  0.791060  0.159800  0.041680  1.0  -0.158
  C  C92  1  0.726830  0.200900  0.056840  1.0  -0.1304
  C  C93  1  0.397770  0.327100  0.926950  1.0  0.7365
  C  C94  1  0.330190  0.252700  0.889410  1.0  -0.197
  C  C95  1  0.292890  0.197700  0.933360  1.0  -0.0595
  C  C96  1  0.225760  0.137500  0.903250  1.0  -0.1318
  C  C97  1  0.194830  0.129200  0.826470  1.0  -0.1518
  C  C98  1  0.232700  0.179000  0.782040  1.0  -0.1521
  C  C99  1  0.300200  0.241900  0.811880  1.0  0.2045
  C  C100  1  0.119840  0.068900  0.792370  1.0  0.7311
  C  C101  1  0.382630  0.656000  0.969310  1.0  0.6752
  C  C102  1  0.314520  0.706300  0.985210  1.0  -0.111
  C  C103  1  0.291060  0.659800  0.041680  1.0  -0.158
  C  C104  1  0.226830  0.700900  0.056840  1.0  -0.1304
  C  C105  1  0.102230  0.827100  0.573050  1.0  0.7382
  C  C106  1  0.169810  0.752700  0.610590  1.0  -0.1971
  C  C107  1  0.207110  0.697700  0.566640  1.0  -0.0606
  C  C108  1  0.274240  0.637500  0.596750  1.0  -0.1326
  C  C109  1  0.305170  0.629200  0.673530  1.0  -0.1497
  C  C110  1  0.267300  0.679000  0.717960  1.0  -0.1511
  C  C111  1  0.199800  0.741900  0.688120  1.0  0.2037
  C  C112  1  0.380160  0.568900  0.707630  1.0  0.7294
  C  C113  1  0.117370  0.156000  0.530690  1.0  0.6768
  C  C114  1  0.185480  0.206300  0.514790  1.0  -0.1116
  C  C115  1  0.208940  0.159800  0.458320  1.0  -0.1607
  C  C116  1  0.273170  0.200900  0.443160  1.0  -0.1387
  C  C117  1  0.602230  0.327100  0.573050  1.0  0.7382
  C  C118  1  0.669810  0.252700  0.610590  1.0  -0.1971
  C  C119  1  0.707110  0.197700  0.566640  1.0  -0.0606
  C  C120  1  0.774240  0.137500  0.596750  1.0  -0.1326
  C  C121  1  0.805170  0.129200  0.673530  1.0  -0.1497
  C  C122  1  0.767300  0.179000  0.717960  1.0  -0.1511
  C  C123  1  0.699800  0.241900  0.688120  1.0  0.2037
  C  C124  1  0.880160  0.068900  0.707630  1.0  0.7294
  C  C125  1  0.617370  0.656000  0.530690  1.0  0.6768
  C  C126  1  0.685480  0.706300  0.514790  1.0  -0.1116
  C  C127  1  0.708940  0.659800  0.458320  1.0  -0.1607
  C  C128  1  0.773170  0.700900  0.443160  1.0  -0.1387
  C  C129  1  0.102230  0.172900  0.073050  1.0  0.7375
  C  C130  1  0.169810  0.247300  0.110590  1.0  -0.1966
  C  C131  1  0.207110  0.302300  0.066640  1.0  -0.0607
  C  C132  1  0.274240  0.362500  0.096750  1.0  -0.1329
  C  C133  1  0.305170  0.370800  0.173530  1.0  -0.1493
  C  C134  1  0.267300  0.321000  0.217960  1.0  -0.1513
  C  C135  1  0.199800  0.258100  0.188120  1.0  0.2037
  C  C136  1  0.380160  0.431100  0.207630  1.0  0.7302
  C  C137  1  0.117370  0.844000  0.030690  1.0  0.6767
  C  C138  1  0.185480  0.793700  0.014790  1.0  -0.1119
  C  C139  1  0.208940  0.840200  0.958320  1.0  -0.1621
  C  C140  1  0.273170  0.799100  0.943160  1.0  -0.1339
  C  C141  1  0.602230  0.672900  0.073050  1.0  0.7375
  C  C142  1  0.669810  0.747300  0.110590  1.0  -0.1966
  C  C143  1  0.707110  0.802300  0.066640  1.0  -0.0607
  C  C144  1  0.774240  0.862500  0.096750  1.0  -0.1329
  C  C145  1  0.805170  0.870800  0.173530  1.0  -0.1493
  C  C146  1  0.767300  0.821000  0.217960  1.0  -0.1513
  C  C147  1  0.699800  0.758100  0.188120  1.0  0.2037
  C  C148  1  0.880160  0.931100  0.207630  1.0  0.7302
  C  C149  1  0.617370  0.344000  0.030690  1.0  0.6767
  C  C150  1  0.685480  0.293700  0.014790  1.0  -0.1119
  C  C151  1  0.708940  0.340200  0.958320  1.0  -0.1621
  C  C152  1  0.773170  0.299100  0.943160  1.0  -0.1339
  C  C153  1  0.897770  0.172900  0.426950  1.0  0.7361
  C  C154  1  0.830190  0.247300  0.389410  1.0  -0.1965
  C  C155  1  0.792890  0.302300  0.433360  1.0  -0.0594
  C  C156  1  0.725760  0.362500  0.403250  1.0  -0.1318
  C  C157  1  0.694830  0.370800  0.326470  1.0  -0.1521
  C  C158  1  0.732700  0.321000  0.282040  1.0  -0.152
  C  C159  1  0.800200  0.258100  0.311880  1.0  0.2043
  C  C160  1  0.619840  0.431100  0.292370  1.0  0.7315
  C  C161  1  0.882630  0.844000  0.469310  1.0  0.6756
  C  C162  1  0.814520  0.793700  0.485210  1.0  -0.1112
  C  C163  1  0.791060  0.840200  0.541680  1.0  -0.1596
  C  C164  1  0.726830  0.799100  0.556840  1.0  -0.1266
  C  C165  1  0.397770  0.672900  0.426950  1.0  0.7361
  C  C166  1  0.330190  0.747300  0.389410  1.0  -0.1965
  C  C167  1  0.292890  0.802300  0.433360  1.0  -0.0594
  C  C168  1  0.225760  0.862500  0.403250  1.0  -0.1318
  C  C169  1  0.194830  0.870800  0.326470  1.0  -0.1521
  C  C170  1  0.232700  0.821000  0.282040  1.0  -0.152
  C  C171  1  0.300200  0.758100  0.311880  1.0  0.2043
  C  C172  1  0.119840  0.931100  0.292370  1.0  0.7315
  C  C173  1  0.382630  0.344000  0.469310  1.0  0.6756
  C  C174  1  0.314520  0.293700  0.485210  1.0  -0.1112
  C  C175  1  0.291060  0.340200  0.541680  1.0  -0.1596
  C  C176  1  0.226830  0.299100  0.556840  1.0  -0.1266
  N  N177  1  0.833500  0.789300  0.763190  1.0  -0.6754
  N  N178  1  0.706700  0.143000  0.111900  1.0  -0.1826
  N  N179  1  0.333500  0.289300  0.763190  1.0  -0.6754
  N  N180  1  0.206700  0.643000  0.111900  1.0  -0.1826
  N  N181  1  0.166500  0.789300  0.736810  1.0  -0.6755
  N  N182  1  0.293300  0.143000  0.388100  1.0  -0.1837
  N  N183  1  0.666500  0.289300  0.736810  1.0  -0.6755
  N  N184  1  0.793300  0.643000  0.388100  1.0  -0.1837
  N  N185  1  0.166500  0.210700  0.236810  1.0  -0.677
  N  N186  1  0.293300  0.857000  0.888100  1.0  -0.182
  N  N187  1  0.666500  0.710700  0.236810  1.0  -0.677
  N  N188  1  0.793300  0.357000  0.888100  1.0  -0.182
  N  N189  1  0.833500  0.210700  0.263190  1.0  -0.6755
  N  N190  1  0.706700  0.857000  0.611900  1.0  -0.183
  N  N191  1  0.333500  0.710700  0.263190  1.0  -0.6755
  N  N192  1  0.206700  0.357000  0.611900  1.0  -0.183
  O  O193  1  0.924630  0.891600  0.887820  1.0  -0.6364
  O  O194  1  0.923230  0.822500  0.996350  1.0  -0.747
  O  O195  1  0.589270  0.520550  0.835960  1.0  -0.7333
  O  O196  1  0.591840  0.568100  0.723950  1.0  -0.7445
  O  O197  1  0.919490  0.073550  0.007970  1.0  -0.7926
  O  O198  1  0.900510  0.196500  0.915950  1.0  -0.6332
  O  O199  1  0.424630  0.391600  0.887820  1.0  -0.6364
  O  O200  1  0.423230  0.322500  0.996350  1.0  -0.747
  O  O201  1  0.089270  0.020550  0.835960  1.0  -0.7333
  O  O202  1  0.091840  0.068100  0.723950  1.0  -0.7445
  O  O203  1  0.419490  0.573550  0.007970  1.0  -0.7926
  O  O204  1  0.400510  0.696500  0.915950  1.0  -0.6332
  O  O205  1  0.075370  0.891600  0.612180  1.0  -0.6365
  O  O206  1  0.076770  0.822500  0.503650  1.0  -0.7477
  O  O207  1  0.410730  0.520550  0.664040  1.0  -0.7344
  O  O208  1  0.408160  0.568100  0.776050  1.0  -0.7444
  O  O209  1  0.080510  0.073550  0.492030  1.0  -0.7938
  O  O210  1  0.099490  0.196500  0.584050  1.0  -0.6314
  O  O211  1  0.575370  0.391600  0.612180  1.0  -0.6365
  O  O212  1  0.576770  0.322500  0.503650  1.0  -0.7477
  O  O213  1  0.910730  0.020550  0.664040  1.0  -0.7344
  O  O214  1  0.908160  0.068100  0.776050  1.0  -0.7444
  O  O215  1  0.580510  0.573550  0.492030  1.0  -0.7938
  O  O216  1  0.599490  0.696500  0.584050  1.0  -0.6314
  O  O217  1  0.075370  0.108400  0.112180  1.0  -0.6369
  O  O218  1  0.076770  0.177500  0.003650  1.0  -0.7477
  O  O219  1  0.410730  0.479450  0.164040  1.0  -0.7345
  O  O220  1  0.408160  0.431900  0.276050  1.0  -0.7446
  O  O221  1  0.080510  0.926450  0.992030  1.0  -0.7948
  O  O222  1  0.099490  0.803500  0.084050  1.0  -0.6301
  O  O223  1  0.575370  0.608400  0.112180  1.0  -0.6369
  O  O224  1  0.576770  0.677500  0.003650  1.0  -0.7477
  O  O225  1  0.910730  0.979450  0.164040  1.0  -0.7345
  O  O226  1  0.908160  0.931900  0.276050  1.0  -0.7446
  O  O227  1  0.580510  0.426450  0.992030  1.0  -0.7948
  O  O228  1  0.599490  0.303500  0.084050  1.0  -0.6301
  O  O229  1  0.924630  0.108400  0.387820  1.0  -0.6369
  O  O230  1  0.923230  0.177500  0.496350  1.0  -0.7476
  O  O231  1  0.589270  0.479450  0.335960  1.0  -0.7329
  O  O232  1  0.591840  0.431900  0.223950  1.0  -0.7443
  O  O233  1  0.919490  0.926450  0.507970  1.0  -0.7936
  O  O234  1  0.900510  0.803500  0.415950  1.0  -0.6333
  O  O235  1  0.424630  0.608400  0.387820  1.0  -0.6369
  O  O236  1  0.423230  0.677500  0.496350  1.0  -0.7476
  O  O237  1  0.089270  0.979450  0.335960  1.0  -0.7329
  O  O238  1  0.091840  0.931900  0.223950  1.0  -0.7443
  O  O239  1  0.419490  0.426450  0.507970  1.0  -0.7936
  O  O240  1  0.400510  0.303500  0.415950  1.0  -0.6333
