# generated using pymatgen
data_TbH8C12(NO3)2
_symmetry_space_group_name_H-M   'P 1'
_cell_length_a   18.17410000
_cell_length_b   11.30880000
_cell_length_c   18.60050000
_cell_angle_alpha   90.00000000
_cell_angle_beta   108.16600000
_cell_angle_gamma   90.00000000
_symmetry_Int_Tables_number   1
_chemical_formula_structural   TbH8C12(NO3)2
_chemical_formula_sum   'Tb8 H64 C96 N16 O48'
_cell_volume   3632.36541306
_cell_formula_units_Z   8
loop_
 _symmetry_equiv_pos_site_id
 _symmetry_equiv_pos_as_xyz
  1  'x, y, z'
loop_
 _atom_site_type_symbol
 _atom_site_label
 _atom_site_symmetry_multiplicity
 _atom_site_fract_x
 _atom_site_fract_y
 _atom_site_fract_z
 _atom_site_occupancy
 _atom_site_charge
  Tb  Tb1  1  0.501250  0.064930  0.397800  1.0  2.271
  Tb  Tb2  1  0.001250  0.564930  0.397800  1.0  2.2708
  Tb  Tb3  1  0.498750  0.064930  0.102200  1.0  2.2703
  Tb  Tb4  1  0.998750  0.564930  0.102200  1.0  2.2702
  Tb  Tb5  1  0.498750  0.935070  0.602200  1.0  2.2696
  Tb  Tb6  1  0.998750  0.435070  0.602200  1.0  2.268
  Tb  Tb7  1  0.501250  0.935070  0.897800  1.0  2.2687
  Tb  Tb8  1  0.001250  0.435070  0.897800  1.0  2.2678
  H  H9  1  0.815900  0.201500  0.487100  1.0  0.0912
  H  H10  1  0.182900  0.403100  0.426700  1.0  0.0838
  H  H11  1  0.700900  0.104100  0.435900  1.0  0.1004
  H  H12  1  0.713900  0.167200  0.228300  1.0  0.0917
  H  H13  1  0.877500  0.253100  0.263800  1.0  0.3847
  H  H14  1  0.804200  0.284900  0.215300  1.0  0.2589
  H  H15  1  0.268500  0.335500  0.343800  1.0  0.2615
  H  H16  1  0.295100  0.431800  0.393200  1.0  0.3405
  H  H17  1  0.315900  0.701500  0.487100  1.0  0.0912
  H  H18  1  0.682900  0.903100  0.426700  1.0  0.0836
  H  H19  1  0.200900  0.604100  0.435900  1.0  0.1004
  H  H20  1  0.213900  0.667200  0.228300  1.0  0.0917
  H  H21  1  0.377500  0.753100  0.263800  1.0  0.3847
  H  H22  1  0.304200  0.784900  0.215300  1.0  0.2589
  H  H23  1  0.768500  0.835500  0.343800  1.0  0.2615
  H  H24  1  0.795100  0.931800  0.393200  1.0  0.3405
  H  H25  1  0.184100  0.201500  0.012900  1.0  0.0915
  H  H26  1  0.817100  0.403100  0.073300  1.0  0.0844
  H  H27  1  0.299100  0.104100  0.064100  1.0  0.101
  H  H28  1  0.286100  0.167200  0.271700  1.0  0.0922
  H  H29  1  0.122500  0.253100  0.236200  1.0  0.3801
  H  H30  1  0.195800  0.284900  0.284700  1.0  0.2616
  H  H31  1  0.731500  0.335500  0.156200  1.0  0.2618
  H  H32  1  0.704900  0.431800  0.106800  1.0  0.3386
  H  H33  1  0.684100  0.701500  0.012900  1.0  0.0915
  H  H34  1  0.317100  0.903100  0.073300  1.0  0.0841
  H  H35  1  0.799100  0.604100  0.064100  1.0  0.101
  H  H36  1  0.786100  0.667200  0.271700  1.0  0.0922
  H  H37  1  0.622500  0.753100  0.236200  1.0  0.3801
  H  H38  1  0.695800  0.784900  0.284700  1.0  0.2616
  H  H39  1  0.231500  0.835500  0.156200  1.0  0.2618
  H  H40  1  0.204900  0.931800  0.106800  1.0  0.3386
  H  H41  1  0.184100  0.798500  0.512900  1.0  0.0912
  H  H42  1  0.817100  0.596900  0.573300  1.0  0.0842
  H  H43  1  0.299100  0.895900  0.564100  1.0  0.1007
  H  H44  1  0.286100  0.832800  0.771700  1.0  0.0926
  H  H45  1  0.122500  0.746900  0.736200  1.0  0.3799
  H  H46  1  0.195800  0.715100  0.784700  1.0  0.2589
  H  H47  1  0.731500  0.664500  0.656200  1.0  0.2612
  H  H48  1  0.704900  0.568200  0.606800  1.0  0.3388
  H  H49  1  0.684100  0.298500  0.512900  1.0  0.0912
  H  H50  1  0.317100  0.096900  0.573300  1.0  0.0841
  H  H51  1  0.799100  0.395900  0.564100  1.0  0.1007
  H  H52  1  0.786100  0.332800  0.771700  1.0  0.0926
  H  H53  1  0.622500  0.246900  0.736200  1.0  0.3799
  H  H54  1  0.695800  0.215100  0.784700  1.0  0.2589
  H  H55  1  0.231500  0.164500  0.656200  1.0  0.2612
  H  H56  1  0.204900  0.068200  0.606800  1.0  0.3388
  H  H57  1  0.815900  0.798500  0.987100  1.0  0.0905
  H  H58  1  0.182900  0.596900  0.926700  1.0  0.0836
  H  H59  1  0.700900  0.895900  0.935900  1.0  0.1006
  H  H60  1  0.713900  0.832800  0.728300  1.0  0.0915
  H  H61  1  0.877500  0.746900  0.763800  1.0  0.386
  H  H62  1  0.804200  0.715100  0.715300  1.0  0.2583
  H  H63  1  0.268500  0.664500  0.843800  1.0  0.2618
  H  H64  1  0.295100  0.568200  0.893200  1.0  0.3407
  H  H65  1  0.315900  0.298500  0.987100  1.0  0.0905
  H  H66  1  0.682900  0.096900  0.926700  1.0  0.0835
  H  H67  1  0.200900  0.395900  0.935900  1.0  0.1006
  H  H68  1  0.213900  0.332800  0.728300  1.0  0.0915
  H  H69  1  0.377500  0.246900  0.763800  1.0  0.386
  H  H70  1  0.304200  0.215100  0.715300  1.0  0.2583
  H  H71  1  0.768500  0.164500  0.843800  1.0  0.2618
  H  H72  1  0.795100  0.068200  0.893200  1.0  0.3407
  C  C73  1  0.618200  0.070400  0.291900  1.0  0.7059
  C  C74  1  0.794400  0.197900  0.434800  1.0  -0.0755
  C  C75  1  0.316200  0.204600  0.486800  1.0  -0.1668
  C  C76  1  0.275500  0.298600  0.443100  1.0  0.2808
  C  C77  1  0.210100  0.341500  0.456500  1.0  -0.2307
  C  C78  1  0.726100  0.138100  0.404600  1.0  -0.1512
  C  C79  1  0.899300  0.331500  0.427700  1.0  0.7064
  C  C80  1  0.695000  0.129000  0.325900  1.0  -0.1491
  C  C81  1  0.733500  0.177300  0.280400  1.0  -0.1803
  C  C82  1  0.385200  0.151100  0.472700  1.0  0.7102
  C  C83  1  0.832400  0.253000  0.390300  1.0  -0.1102
  C  C84  1  0.802500  0.242200  0.311400  1.0  0.2192
  C  C85  1  0.118200  0.570400  0.291900  1.0  0.7072
  C  C86  1  0.294400  0.697900  0.434800  1.0  -0.0755
  C  C87  1  0.816200  0.704600  0.486800  1.0  -0.1668
  C  C88  1  0.775500  0.798600  0.443100  1.0  0.2808
  C  C89  1  0.710100  0.841500  0.456500  1.0  -0.2307
  C  C90  1  0.226100  0.638100  0.404600  1.0  -0.1512
  C  C91  1  0.399300  0.831500  0.427700  1.0  0.7064
  C  C92  1  0.195000  0.629000  0.325900  1.0  -0.1491
  C  C93  1  0.233500  0.677300  0.280400  1.0  -0.1803
  C  C94  1  0.885200  0.651100  0.472700  1.0  0.7102
  C  C95  1  0.332400  0.753000  0.390300  1.0  -0.1102
  C  C96  1  0.302500  0.742200  0.311400  1.0  0.2192
  C  C97  1  0.381800  0.070400  0.208100  1.0  0.7035
  C  C98  1  0.205600  0.197900  0.065200  1.0  -0.0743
  C  C99  1  0.683800  0.204600  0.013200  1.0  -0.1674
  C  C100  1  0.724500  0.298600  0.056900  1.0  0.2813
  C  C101  1  0.789900  0.341500  0.043500  1.0  -0.2291
  C  C102  1  0.273900  0.138100  0.095400  1.0  -0.1519
  C  C103  1  0.100700  0.331500  0.072300  1.0  0.707
  C  C104  1  0.305000  0.129000  0.174100  1.0  -0.1484
  C  C105  1  0.266500  0.177300  0.219600  1.0  -0.1791
  C  C106  1  0.614800  0.151100  0.027300  1.0  0.7094
  C  C107  1  0.167600  0.253000  0.109700  1.0  -0.1093
  C  C108  1  0.197500  0.242200  0.188600  1.0  0.221
  C  C109  1  0.881800  0.570400  0.208100  1.0  0.7048
  C  C110  1  0.705600  0.697900  0.065200  1.0  -0.0743
  C  C111  1  0.183800  0.704600  0.013200  1.0  -0.1674
  C  C112  1  0.224500  0.798600  0.056900  1.0  0.2813
  C  C113  1  0.289900  0.841500  0.043500  1.0  -0.2291
  C  C114  1  0.773900  0.638100  0.095400  1.0  -0.1519
  C  C115  1  0.600700  0.831500  0.072300  1.0  0.707
  C  C116  1  0.805000  0.629000  0.174100  1.0  -0.1484
  C  C117  1  0.766500  0.677300  0.219600  1.0  -0.1791
  C  C118  1  0.114800  0.651100  0.027300  1.0  0.7094
  C  C119  1  0.667600  0.753000  0.109700  1.0  -0.1093
  C  C120  1  0.697500  0.742200  0.188600  1.0  0.221
  C  C121  1  0.381800  0.929600  0.708100  1.0  0.7039
  C  C122  1  0.205600  0.802100  0.565200  1.0  -0.0742
  C  C123  1  0.683800  0.795400  0.513200  1.0  -0.1675
  C  C124  1  0.724500  0.701400  0.556900  1.0  0.2822
  C  C125  1  0.789900  0.658500  0.543500  1.0  -0.2285
  C  C126  1  0.273900  0.861900  0.595400  1.0  -0.1522
  C  C127  1  0.100700  0.668500  0.572300  1.0  0.7073
  C  C128  1  0.305000  0.871000  0.674100  1.0  -0.1483
  C  C129  1  0.266500  0.822700  0.719600  1.0  -0.1795
  C  C130  1  0.614800  0.848900  0.527300  1.0  0.7097
  C  C131  1  0.167600  0.747000  0.609700  1.0  -0.1085
  C  C132  1  0.197500  0.757800  0.688600  1.0  0.2213
  C  C133  1  0.881800  0.429600  0.708100  1.0  0.7052
  C  C134  1  0.705600  0.302100  0.565200  1.0  -0.0742
  C  C135  1  0.183800  0.295400  0.513200  1.0  -0.1675
  C  C136  1  0.224500  0.201400  0.556900  1.0  0.2822
  C  C137  1  0.289900  0.158500  0.543500  1.0  -0.2285
  C  C138  1  0.773900  0.361900  0.595400  1.0  -0.1522
  C  C139  1  0.600700  0.168500  0.572300  1.0  0.7073
  C  C140  1  0.805000  0.371000  0.674100  1.0  -0.1483
  C  C141  1  0.766500  0.322700  0.719600  1.0  -0.1795
  C  C142  1  0.114800  0.348900  0.527300  1.0  0.7097
  C  C143  1  0.667600  0.247000  0.609700  1.0  -0.1085
  C  C144  1  0.697500  0.257800  0.688600  1.0  0.2213
  C  C145  1  0.618200  0.929600  0.791900  1.0  0.7061
  C  C146  1  0.794400  0.802100  0.934800  1.0  -0.0754
  C  C147  1  0.316200  0.795400  0.986800  1.0  -0.1666
  C  C148  1  0.275500  0.701400  0.943100  1.0  0.2804
  C  C149  1  0.210100  0.658500  0.956500  1.0  -0.2308
  C  C150  1  0.726100  0.861900  0.904600  1.0  -0.151
  C  C151  1  0.899300  0.668500  0.927700  1.0  0.7063
  C  C152  1  0.695000  0.871000  0.825900  1.0  -0.1496
  C  C153  1  0.733500  0.822700  0.780400  1.0  -0.1807
  C  C154  1  0.385200  0.848900  0.972700  1.0  0.7104
  C  C155  1  0.832400  0.747000  0.890300  1.0  -0.1099
  C  C156  1  0.802500  0.757800  0.811400  1.0  0.2195
  C  C157  1  0.118200  0.429600  0.791900  1.0  0.7075
  C  C158  1  0.294400  0.302100  0.934800  1.0  -0.0754
  C  C159  1  0.816200  0.295400  0.986800  1.0  -0.1666
  C  C160  1  0.775500  0.201400  0.943100  1.0  0.2804
  C  C161  1  0.710100  0.158500  0.956500  1.0  -0.2308
  C  C162  1  0.226100  0.361900  0.904600  1.0  -0.151
  C  C163  1  0.399300  0.168500  0.927700  1.0  0.7063
  C  C164  1  0.195000  0.371000  0.825900  1.0  -0.1496
  C  C165  1  0.233500  0.322700  0.780400  1.0  -0.1807
  C  C166  1  0.885200  0.348900  0.972700  1.0  0.7104
  C  C167  1  0.332400  0.247000  0.890300  1.0  -0.1099
  C  C168  1  0.302500  0.257800  0.811400  1.0  0.2195
  N  N169  1  0.835600  0.291000  0.260600  1.0  -0.6193
  N  N170  1  0.298300  0.355800  0.388400  1.0  -0.5566
  N  N171  1  0.335600  0.791000  0.260600  1.0  -0.6193
  N  N172  1  0.798300  0.855800  0.388400  1.0  -0.5566
  N  N173  1  0.164400  0.291000  0.239400  1.0  -0.6226
  N  N174  1  0.701700  0.355800  0.111600  1.0  -0.5568
  N  N175  1  0.664400  0.791000  0.239400  1.0  -0.6226
  N  N176  1  0.201700  0.855800  0.111600  1.0  -0.5568
  N  N177  1  0.164400  0.709000  0.739400  1.0  -0.6212
  N  N178  1  0.701700  0.644200  0.611600  1.0  -0.5575
  N  N179  1  0.664400  0.209000  0.739400  1.0  -0.6212
  N  N180  1  0.201700  0.144200  0.611600  1.0  -0.5575
  N  N181  1  0.835600  0.709000  0.760600  1.0  -0.6193
  N  N182  1  0.298300  0.644200  0.888400  1.0  -0.5571
  N  N183  1  0.335600  0.209000  0.760600  1.0  -0.6193
  N  N184  1  0.798300  0.144200  0.888400  1.0  -0.5571
  O  O185  1  0.421900  0.069900  0.514800  1.0  -0.7837
  O  O186  1  0.588890  0.071200  0.221840  1.0  -0.7639
  O  O187  1  0.587440  0.020800  0.336710  1.0  -0.6879
  O  O188  1  0.926320  0.326200  0.498850  1.0  -0.7016
  O  O189  1  0.404200  0.187200  0.416910  1.0  -0.6508
  O  O190  1  0.923700  0.400500  0.387000  1.0  -0.6765
  O  O191  1  0.921900  0.569900  0.514800  1.0  -0.7837
  O  O192  1  0.088890  0.571200  0.221840  1.0  -0.7639
  O  O193  1  0.087440  0.520800  0.336710  1.0  -0.6902
  O  O194  1  0.426320  0.826200  0.498850  1.0  -0.7016
  O  O195  1  0.904200  0.687200  0.416910  1.0  -0.6508
  O  O196  1  0.423700  0.900500  0.387000  1.0  -0.6765
  O  O197  1  0.578100  0.069900  0.985200  1.0  -0.7832
  O  O198  1  0.411110  0.071200  0.278160  1.0  -0.7633
  O  O199  1  0.412560  0.020800  0.163290  1.0  -0.689
  O  O200  1  0.073680  0.326200  0.001150  1.0  -0.7013
  O  O201  1  0.595800  0.187200  0.083090  1.0  -0.6512
  O  O202  1  0.076300  0.400500  0.113000  1.0  -0.6759
  O  O203  1  0.078100  0.569900  0.985200  1.0  -0.7832
  O  O204  1  0.911110  0.571200  0.278160  1.0  -0.7629
  O  O205  1  0.912560  0.520800  0.163290  1.0  -0.6912
  O  O206  1  0.573680  0.826200  0.001150  1.0  -0.7013
  O  O207  1  0.095800  0.687200  0.083090  1.0  -0.6512
  O  O208  1  0.576300  0.900500  0.113000  1.0  -0.6759
  O  O209  1  0.578100  0.930100  0.485200  1.0  -0.7837
  O  O210  1  0.411110  0.928800  0.778160  1.0  -0.7629
  O  O211  1  0.412560  0.979200  0.663290  1.0  -0.6889
  O  O212  1  0.073680  0.673800  0.501150  1.0  -0.7012
  O  O213  1  0.595800  0.812800  0.583090  1.0  -0.6498
  O  O214  1  0.076300  0.599500  0.613000  1.0  -0.6763
  O  O215  1  0.078100  0.430100  0.485200  1.0  -0.7837
  O  O216  1  0.911110  0.428800  0.778160  1.0  -0.7629
  O  O217  1  0.912560  0.479200  0.663290  1.0  -0.6911
  O  O218  1  0.573680  0.173800  0.501150  1.0  -0.7012
  O  O219  1  0.095800  0.312800  0.583090  1.0  -0.6498
  O  O220  1  0.576300  0.099500  0.613000  1.0  -0.6763
  O  O221  1  0.421900  0.930100  0.014800  1.0  -0.7839
  O  O222  1  0.588890  0.928800  0.721840  1.0  -0.7633
  O  O223  1  0.587440  0.979200  0.836710  1.0  -0.688
  O  O224  1  0.926320  0.673800  0.998850  1.0  -0.7013
  O  O225  1  0.404200  0.812800  0.916910  1.0  -0.6513
  O  O226  1  0.923700  0.599500  0.887000  1.0  -0.677
  O  O227  1  0.921900  0.430100  0.014800  1.0  -0.7839
  O  O228  1  0.088890  0.428800  0.721840  1.0  -0.763
  O  O229  1  0.087440  0.479200  0.836710  1.0  -0.6903
  O  O230  1  0.426320  0.173800  0.998850  1.0  -0.7013
  O  O231  1  0.904200  0.312800  0.916910  1.0  -0.6513
  O  O232  1  0.423700  0.099500  0.887000  1.0  -0.677
