# generated using pymatgen
data_DyH4C12(NO3)2
_symmetry_space_group_name_H-M   'P 1'
_cell_length_a   18.37800000
_cell_length_b   11.41460000
_cell_length_c   18.87360000
_cell_angle_alpha   90.00000000
_cell_angle_beta   108.42600000
_cell_angle_gamma   90.00000000
_symmetry_Int_Tables_number   1
_chemical_formula_structural   DyH4C12(NO3)2
_chemical_formula_sum   'Dy8 H32 C96 N16 O48'
_cell_volume   3756.27647230
_cell_formula_units_Z   8
loop_
 _symmetry_equiv_pos_site_id
 _symmetry_equiv_pos_as_xyz
  1  'x, y, z'
loop_
 _atom_site_type_symbol
 _atom_site_label
 _atom_site_symmetry_multiplicity
 _atom_site_fract_x
 _atom_site_fract_y
 _atom_site_fract_z
 _atom_site_occupancy
 _atom_site_charge
  Dy  Dy1  1  0.000900  0.934490  0.397950  1.0  2.2881
  Dy  Dy2  1  0.500900  0.434490  0.397950  1.0  2.2882
  Dy  Dy3  1  0.999100  0.934490  0.102050  1.0  2.289
  Dy  Dy4  1  0.499100  0.434490  0.102050  1.0  2.2889
  Dy  Dy5  1  0.999100  0.065510  0.602050  1.0  2.2868
  Dy  Dy6  1  0.499100  0.565510  0.602050  1.0  2.2884
  Dy  Dy7  1  0.000900  0.065510  0.897950  1.0  2.2846
  Dy  Dy8  1  0.500900  0.565510  0.897950  1.0  2.2872
  H  H9  1  0.711700  0.327300  0.228300  1.0  0.1318
  H  H10  1  0.814600  0.295300  0.487200  1.0  0.1224
  H  H11  1  0.702300  0.399000  0.434800  1.0  0.1244
  H  H12  1  0.818300  0.902800  0.573600  1.0  0.1096
  H  H13  1  0.211700  0.827300  0.228300  1.0  0.1318
  H  H14  1  0.314600  0.795300  0.487200  1.0  0.1224
  H  H15  1  0.202300  0.899000  0.434800  1.0  0.1244
  H  H16  1  0.318300  0.402800  0.573600  1.0  0.1096
  H  H17  1  0.288300  0.327300  0.271700  1.0  0.1317
  H  H18  1  0.185400  0.295300  0.012800  1.0  0.1215
  H  H19  1  0.297700  0.399000  0.065200  1.0  0.1239
  H  H20  1  0.181700  0.902800  0.926400  1.0  0.1102
  H  H21  1  0.788300  0.827300  0.271700  1.0  0.1317
  H  H22  1  0.685400  0.795300  0.012800  1.0  0.1215
  H  H23  1  0.797700  0.899000  0.065200  1.0  0.1239
  H  H24  1  0.681700  0.402800  0.926400  1.0  0.1102
  H  H25  1  0.288300  0.672700  0.771700  1.0  0.1318
  H  H26  1  0.185400  0.704700  0.512800  1.0  0.1217
  H  H27  1  0.297700  0.601000  0.565200  1.0  0.1238
  H  H28  1  0.181700  0.097200  0.426400  1.0  0.1108
  H  H29  1  0.788300  0.172700  0.771700  1.0  0.1318
  H  H30  1  0.685400  0.204700  0.512800  1.0  0.1217
  H  H31  1  0.797700  0.101000  0.565200  1.0  0.1238
  H  H32  1  0.681700  0.597200  0.426400  1.0  0.1108
  H  H33  1  0.711700  0.672700  0.728300  1.0  0.1319
  H  H34  1  0.814600  0.704700  0.987200  1.0  0.1226
  H  H35  1  0.702300  0.601000  0.934800  1.0  0.1243
  H  H36  1  0.818300  0.097200  0.073600  1.0  0.1101
  H  H37  1  0.211700  0.172700  0.728300  1.0  0.1319
  H  H38  1  0.314600  0.204700  0.987200  1.0  0.1226
  H  H39  1  0.202300  0.101000  0.934800  1.0  0.1243
  H  H40  1  0.318300  0.597200  0.073600  1.0  0.1101
  C  C41  1  0.897600  0.167100  0.427900  1.0  0.7831
  C  C42  1  0.830600  0.244600  0.390200  1.0  -0.1446
  C  C43  1  0.800700  0.255600  0.310900  1.0  0.1836
  C  C44  1  0.732500  0.318800  0.280900  1.0  -0.0591
  C  C45  1  0.793400  0.300000  0.434400  1.0  -0.0197
  C  C46  1  0.726700  0.361600  0.403400  1.0  -0.0572
  C  C47  1  0.884300  0.848300  0.473000  1.0  0.7268
  C  C48  1  0.815000  0.795400  0.486900  1.0  -0.1678
  C  C49  1  0.775600  0.701100  0.443400  1.0  0.2822
  C  C50  1  0.790000  0.841200  0.543400  1.0  -0.1053
  C  C51  1  0.618800  0.429100  0.291800  1.0  0.7396
  C  C52  1  0.694800  0.369200  0.326100  1.0  -0.1232
  C  C53  1  0.397600  0.667100  0.427900  1.0  0.7831
  C  C54  1  0.330600  0.744600  0.390200  1.0  -0.1446
  C  C55  1  0.300700  0.755600  0.310900  1.0  0.1836
  C  C56  1  0.232500  0.818800  0.280900  1.0  -0.0591
  C  C57  1  0.293400  0.800000  0.434400  1.0  -0.0197
  C  C58  1  0.226700  0.861600  0.403400  1.0  -0.0572
  C  C59  1  0.384300  0.348300  0.473000  1.0  0.7268
  C  C60  1  0.315000  0.295400  0.486900  1.0  -0.1678
  C  C61  1  0.275600  0.201100  0.443400  1.0  0.2822
  C  C62  1  0.290000  0.341200  0.543400  1.0  -0.1053
  C  C63  1  0.118800  0.929100  0.291800  1.0  0.7396
  C  C64  1  0.194800  0.869200  0.326100  1.0  -0.1232
  C  C65  1  0.102400  0.167100  0.072100  1.0  0.7817
  C  C66  1  0.169400  0.244600  0.109800  1.0  -0.1455
  C  C67  1  0.199300  0.255600  0.189100  1.0  0.1816
  C  C68  1  0.267500  0.318800  0.219100  1.0  -0.0592
  C  C69  1  0.206600  0.300000  0.065600  1.0  -0.0209
  C  C70  1  0.273300  0.361600  0.096600  1.0  -0.0575
  C  C71  1  0.115700  0.848300  0.027000  1.0  0.7263
  C  C72  1  0.185000  0.795400  0.013100  1.0  -0.1676
  C  C73  1  0.224400  0.701100  0.056600  1.0  0.2788
  C  C74  1  0.210000  0.841200  0.956600  1.0  -0.106
  C  C75  1  0.381200  0.429100  0.208200  1.0  0.7402
  C  C76  1  0.305200  0.369200  0.173900  1.0  -0.1233
  C  C77  1  0.602400  0.667100  0.072100  1.0  0.7817
  C  C78  1  0.669400  0.744600  0.109800  1.0  -0.1455
  C  C79  1  0.699300  0.755600  0.189100  1.0  0.1816
  C  C80  1  0.767500  0.818800  0.219100  1.0  -0.0592
  C  C81  1  0.706600  0.800000  0.065600  1.0  -0.0209
  C  C82  1  0.773300  0.861600  0.096600  1.0  -0.0575
  C  C83  1  0.615700  0.348300  0.027000  1.0  0.7263
  C  C84  1  0.685000  0.295400  0.013100  1.0  -0.1676
  C  C85  1  0.724400  0.201100  0.056600  1.0  0.2788
  C  C86  1  0.710000  0.341200  0.956600  1.0  -0.106
  C  C87  1  0.881200  0.929100  0.208200  1.0  0.7402
  C  C88  1  0.805200  0.869200  0.173900  1.0  -0.1233
  C  C89  1  0.102400  0.832900  0.572100  1.0  0.7828
  C  C90  1  0.169400  0.755400  0.609800  1.0  -0.1458
  C  C91  1  0.199300  0.744400  0.689100  1.0  0.1816
  C  C92  1  0.267500  0.681200  0.719100  1.0  -0.0589
  C  C93  1  0.206600  0.700000  0.565600  1.0  -0.0205
  C  C94  1  0.273300  0.638400  0.596600  1.0  -0.0573
  C  C95  1  0.115700  0.151700  0.527000  1.0  0.7257
  C  C96  1  0.185000  0.204600  0.513100  1.0  -0.1664
  C  C97  1  0.224400  0.298900  0.556600  1.0  0.2794
  C  C98  1  0.210000  0.158800  0.456600  1.0  -0.1058
  C  C99  1  0.381200  0.570900  0.708200  1.0  0.7408
  C  C100  1  0.305200  0.630800  0.673900  1.0  -0.1228
  C  C101  1  0.602400  0.332900  0.572100  1.0  0.7828
  C  C102  1  0.669400  0.255400  0.609800  1.0  -0.1458
  C  C103  1  0.699300  0.244400  0.689100  1.0  0.1816
  C  C104  1  0.767500  0.181200  0.719100  1.0  -0.0589
  C  C105  1  0.706600  0.200000  0.565600  1.0  -0.0205
  C  C106  1  0.773300  0.138400  0.596600  1.0  -0.0573
  C  C107  1  0.615700  0.651700  0.527000  1.0  0.7257
  C  C108  1  0.685000  0.704600  0.513100  1.0  -0.1664
  C  C109  1  0.724400  0.798900  0.556600  1.0  0.2794
  C  C110  1  0.710000  0.658800  0.456600  1.0  -0.1058
  C  C111  1  0.881200  0.070900  0.708200  1.0  0.7408
  C  C112  1  0.805200  0.130800  0.673900  1.0  -0.1228
  C  C113  1  0.897600  0.832900  0.927900  1.0  0.7838
  C  C114  1  0.830600  0.755400  0.890200  1.0  -0.1445
  C  C115  1  0.800700  0.744400  0.810900  1.0  0.1842
  C  C116  1  0.732500  0.681200  0.780900  1.0  -0.0586
  C  C117  1  0.793400  0.700000  0.934400  1.0  -0.0194
  C  C118  1  0.726700  0.638400  0.903400  1.0  -0.0566
  C  C119  1  0.884300  0.151700  0.973000  1.0  0.7268
  C  C120  1  0.815000  0.204600  0.986900  1.0  -0.1668
  C  C121  1  0.775600  0.298900  0.943400  1.0  0.2818
  C  C122  1  0.790000  0.158800  0.043400  1.0  -0.105
  C  C123  1  0.618800  0.570900  0.791800  1.0  0.7407
  C  C124  1  0.694800  0.630800  0.826100  1.0  -0.1227
  C  C125  1  0.397600  0.332900  0.927900  1.0  0.7838
  C  C126  1  0.330600  0.255400  0.890200  1.0  -0.1445
  C  C127  1  0.300700  0.244400  0.810900  1.0  0.1842
  C  C128  1  0.232500  0.181200  0.780900  1.0  -0.0586
  C  C129  1  0.293400  0.200000  0.934400  1.0  -0.0194
  C  C130  1  0.226700  0.138400  0.903400  1.0  -0.0566
  C  C131  1  0.384300  0.651700  0.973000  1.0  0.7268
  C  C132  1  0.315000  0.704600  0.986900  1.0  -0.1668
  C  C133  1  0.275600  0.798900  0.943400  1.0  0.2818
  C  C134  1  0.290000  0.658800  0.043400  1.0  -0.105
  C  C135  1  0.118800  0.070900  0.791800  1.0  0.7407
  C  C136  1  0.194800  0.130800  0.826100  1.0  -0.1227
  N  N137  1  0.833000  0.208800  0.261300  1.0  -0.2574
  N  N138  1  0.797000  0.647700  0.388500  1.0  -0.2606
  N  N139  1  0.333000  0.708800  0.261300  1.0  -0.2574
  N  N140  1  0.297000  0.147700  0.388500  1.0  -0.2606
  N  N141  1  0.167000  0.208800  0.238700  1.0  -0.2564
  N  N142  1  0.203000  0.647700  0.111500  1.0  -0.2601
  N  N143  1  0.667000  0.708800  0.238700  1.0  -0.2564
  N  N144  1  0.703000  0.147700  0.111500  1.0  -0.2601
  N  N145  1  0.167000  0.791200  0.738700  1.0  -0.2563
  N  N146  1  0.203000  0.352300  0.611500  1.0  -0.261
  N  N147  1  0.667000  0.291200  0.738700  1.0  -0.2563
  N  N148  1  0.703000  0.852300  0.611500  1.0  -0.261
  N  N149  1  0.833000  0.791200  0.761300  1.0  -0.2574
  N  N150  1  0.797000  0.352300  0.888500  1.0  -0.2606
  N  N151  1  0.333000  0.291200  0.761300  1.0  -0.2574
  N  N152  1  0.297000  0.852300  0.888500  1.0  -0.2606
  O  O153  1  0.923300  0.100400  0.388200  1.0  -0.7
  O  O154  1  0.903400  0.811400  0.418200  1.0  -0.631
  O  O155  1  0.587300  0.476400  0.335800  1.0  -0.7035
  O  O156  1  0.921000  0.928500  0.514100  1.0  -0.783
  O  O157  1  0.924500  0.173400  0.498100  1.0  -0.7186
  O  O158  1  0.589100  0.428800  0.221900  1.0  -0.7579
  O  O159  1  0.423300  0.600400  0.388200  1.0  -0.7
  O  O160  1  0.403400  0.311400  0.418200  1.0  -0.631
  O  O161  1  0.087300  0.976400  0.335800  1.0  -0.7035
  O  O162  1  0.421000  0.428500  0.514100  1.0  -0.783
  O  O163  1  0.424500  0.673400  0.498100  1.0  -0.7186
  O  O164  1  0.089100  0.928800  0.221900  1.0  -0.7579
  O  O165  1  0.076700  0.100400  0.111800  1.0  -0.6992
  O  O166  1  0.096600  0.811400  0.081800  1.0  -0.6311
  O  O167  1  0.412700  0.476400  0.164200  1.0  -0.7048
  O  O168  1  0.079000  0.928500  0.985900  1.0  -0.7847
  O  O169  1  0.075500  0.173400  0.001900  1.0  -0.7177
  O  O170  1  0.410900  0.428800  0.278100  1.0  -0.7572
  O  O171  1  0.576700  0.600400  0.111800  1.0  -0.6992
  O  O172  1  0.596600  0.311400  0.081800  1.0  -0.6311
  O  O173  1  0.912700  0.976400  0.164200  1.0  -0.7048
  O  O174  1  0.579000  0.428500  0.985900  1.0  -0.7847
  O  O175  1  0.575500  0.673400  0.001900  1.0  -0.7177
  O  O176  1  0.910900  0.928800  0.278100  1.0  -0.7572
  O  O177  1  0.076700  0.899600  0.611800  1.0  -0.6988
  O  O178  1  0.096600  0.188600  0.581800  1.0  -0.6321
  O  O179  1  0.412700  0.523600  0.664200  1.0  -0.7043
  O  O180  1  0.079000  0.071500  0.485900  1.0  -0.7847
  O  O181  1  0.075500  0.826600  0.501900  1.0  -0.7175
  O  O182  1  0.410900  0.571200  0.778100  1.0  -0.7571
  O  O183  1  0.576700  0.399600  0.611800  1.0  -0.6988
  O  O184  1  0.596600  0.688600  0.581800  1.0  -0.6321
  O  O185  1  0.912700  0.023600  0.664200  1.0  -0.7043
  O  O186  1  0.579000  0.571500  0.485900  1.0  -0.7847
  O  O187  1  0.575500  0.326600  0.501900  1.0  -0.7175
  O  O188  1  0.910900  0.071200  0.778100  1.0  -0.7571
  O  O189  1  0.923300  0.899600  0.888200  1.0  -0.7
  O  O190  1  0.903400  0.188600  0.918200  1.0  -0.6315
  O  O191  1  0.587300  0.523600  0.835800  1.0  -0.7032
  O  O192  1  0.921000  0.071500  0.014100  1.0  -0.7829
  O  O193  1  0.924500  0.826600  0.998100  1.0  -0.7178
  O  O194  1  0.589100  0.571200  0.721900  1.0  -0.7583
  O  O195  1  0.423300  0.399600  0.888200  1.0  -0.7
  O  O196  1  0.403400  0.688600  0.918200  1.0  -0.6315
  O  O197  1  0.087300  0.023600  0.835800  1.0  -0.7032
  O  O198  1  0.421000  0.571500  0.014100  1.0  -0.7829
  O  O199  1  0.424500  0.326600  0.998100  1.0  -0.7178
  O  O200  1  0.089100  0.071200  0.721900  1.0  -0.7583
