# generated using pymatgen
data_HoH8C12(NO3)2
_symmetry_space_group_name_H-M   'P 1'
_cell_length_a   18.23370000
_cell_length_b   11.32280000
_cell_length_c   18.70670000
_cell_angle_alpha   90.00000000
_cell_angle_beta   108.39000000
_cell_angle_gamma   90.00000000
_symmetry_Int_Tables_number   1
_chemical_formula_structural   HoH8C12(NO3)2
_chemical_formula_sum   'Ho8 H64 C96 N16 O48'
_cell_volume   3664.88623418
_cell_formula_units_Z   8
loop_
 _symmetry_equiv_pos_site_id
 _symmetry_equiv_pos_as_xyz
  1  'x, y, z'
loop_
 _atom_site_type_symbol
 _atom_site_label
 _atom_site_symmetry_multiplicity
 _atom_site_fract_x
 _atom_site_fract_y
 _atom_site_fract_z
 _atom_site_occupancy
 _atom_site_charge
  Ho  Ho1  1  0.501290  0.934060  0.396930  1.0  2.2082
  Ho  Ho2  1  0.001290  0.434060  0.396930  1.0  2.2065
  Ho  Ho3  1  0.498710  0.934060  0.103070  1.0  2.2088
  Ho  Ho4  1  0.998710  0.434060  0.103070  1.0  2.2058
  Ho  Ho5  1  0.498710  0.065940  0.603070  1.0  2.2088
  Ho  Ho6  1  0.998710  0.565940  0.603070  1.0  2.2062
  Ho  Ho7  1  0.501290  0.065940  0.896930  1.0  2.2114
  Ho  Ho8  1  0.001290  0.565940  0.896930  1.0  2.2073
  H  H9  1  0.816400  0.797000  0.487400  1.0  0.1033
  H  H10  1  0.701400  0.895200  0.435100  1.0  0.1049
  H  H11  1  0.713300  0.826500  0.228400  1.0  0.1006
  H  H12  1  0.804700  0.714800  0.215800  1.0  0.1955
  H  H13  1  0.683400  0.098000  0.424900  1.0  0.119
  H  H14  1  0.694400  0.306400  0.643700  1.0  0.2836
  H  H15  1  0.735600  0.406100  0.632900  1.0  0.2327
  H  H16  1  0.873000  0.635000  0.275000  1.0  0.2014
  H  H17  1  0.316400  0.297000  0.487400  1.0  0.1033
  H  H18  1  0.201400  0.395200  0.435100  1.0  0.1049
  H  H19  1  0.213300  0.326500  0.228400  1.0  0.1006
  H  H20  1  0.304700  0.214800  0.215800  1.0  0.1955
  H  H21  1  0.183400  0.598000  0.424900  1.0  0.119
  H  H22  1  0.194400  0.806400  0.643700  1.0  0.2836
  H  H23  1  0.235600  0.906100  0.632900  1.0  0.2327
  H  H24  1  0.373000  0.135000  0.275000  1.0  0.2014
  H  H25  1  0.183600  0.797000  0.012600  1.0  0.1037
  H  H26  1  0.298600  0.895200  0.064900  1.0  0.1046
  H  H27  1  0.286700  0.826500  0.271600  1.0  0.1004
  H  H28  1  0.195300  0.714800  0.284200  1.0  0.1938
  H  H29  1  0.316600  0.098000  0.075100  1.0  0.1197
  H  H30  1  0.305600  0.306400  0.856300  1.0  0.2833
  H  H31  1  0.264400  0.406100  0.867100  1.0  0.2318
  H  H32  1  0.127000  0.635000  0.225000  1.0  0.2022
  H  H33  1  0.683600  0.297000  0.012600  1.0  0.1037
  H  H34  1  0.798600  0.395200  0.064900  1.0  0.1046
  H  H35  1  0.786700  0.326500  0.271600  1.0  0.1004
  H  H36  1  0.695300  0.214800  0.284200  1.0  0.1938
  H  H37  1  0.816600  0.598000  0.075100  1.0  0.1197
  H  H38  1  0.805600  0.806400  0.856300  1.0  0.2833
  H  H39  1  0.764400  0.906100  0.867100  1.0  0.2318
  H  H40  1  0.627000  0.135000  0.225000  1.0  0.2022
  H  H41  1  0.183600  0.203000  0.512600  1.0  0.1039
  H  H42  1  0.298600  0.104800  0.564900  1.0  0.1047
  H  H43  1  0.286700  0.173500  0.771600  1.0  0.0996
  H  H44  1  0.195300  0.285200  0.784200  1.0  0.195
  H  H45  1  0.316600  0.902000  0.575100  1.0  0.1194
  H  H46  1  0.305600  0.693600  0.356300  1.0  0.2842
  H  H47  1  0.264400  0.593900  0.367100  1.0  0.2304
  H  H48  1  0.127000  0.365000  0.725000  1.0  0.2024
  H  H49  1  0.683600  0.703000  0.512600  1.0  0.1039
  H  H50  1  0.798600  0.604800  0.564900  1.0  0.1047
  H  H51  1  0.786700  0.673500  0.771600  1.0  0.0996
  H  H52  1  0.695300  0.785200  0.784200  1.0  0.195
  H  H53  1  0.816600  0.402000  0.575100  1.0  0.1194
  H  H54  1  0.805600  0.193600  0.356300  1.0  0.2842
  H  H55  1  0.764400  0.093900  0.367100  1.0  0.2304
  H  H56  1  0.627000  0.865000  0.725000  1.0  0.2024
  H  H57  1  0.816400  0.203000  0.987400  1.0  0.1035
  H  H58  1  0.701400  0.104800  0.935100  1.0  0.1047
  H  H59  1  0.713300  0.173500  0.728400  1.0  0.0998
  H  H60  1  0.804700  0.285200  0.715800  1.0  0.1953
  H  H61  1  0.683400  0.902000  0.924900  1.0  0.1192
  H  H62  1  0.694400  0.693600  0.143700  1.0  0.2844
  H  H63  1  0.735600  0.593900  0.132900  1.0  0.2326
  H  H64  1  0.873000  0.365000  0.775000  1.0  0.2012
  H  H65  1  0.316400  0.703000  0.987400  1.0  0.1035
  H  H66  1  0.201400  0.604800  0.935100  1.0  0.1047
  H  H67  1  0.213300  0.673500  0.728400  1.0  0.0998
  H  H68  1  0.304700  0.785200  0.715800  1.0  0.1953
  H  H69  1  0.183400  0.402000  0.924900  1.0  0.1192
  H  H70  1  0.194400  0.193600  0.143700  1.0  0.2844
  H  H71  1  0.235600  0.093900  0.132900  1.0  0.2326
  H  H72  1  0.373000  0.865000  0.775000  1.0  0.2012
  C  C73  1  0.617300  0.926900  0.291000  1.0  0.6986
  C  C74  1  0.794600  0.799600  0.435200  1.0  -0.0334
  C  C75  1  0.898700  0.664100  0.429000  1.0  0.7386
  C  C76  1  0.726200  0.860100  0.404100  1.0  -0.105
  C  C77  1  0.694600  0.868500  0.326100  1.0  -0.14
  C  C78  1  0.831500  0.742700  0.390600  1.0  -0.1037
  C  C79  1  0.733100  0.818200  0.280400  1.0  -0.1639
  C  C80  1  0.801800  0.754800  0.312300  1.0  0.2033
  C  C81  1  0.683400  0.203400  0.511600  1.0  -0.1634
  C  C82  1  0.723200  0.297100  0.556600  1.0  0.2494
  C  C83  1  0.710500  0.158900  0.455300  1.0  -0.1831
  C  C84  1  0.614200  0.149100  0.524300  1.0  0.7345
  C  C85  1  0.117300  0.426900  0.291000  1.0  0.6986
  C  C86  1  0.294600  0.299600  0.435200  1.0  -0.0334
  C  C87  1  0.398700  0.164100  0.429000  1.0  0.7386
  C  C88  1  0.226200  0.360100  0.404100  1.0  -0.105
  C  C89  1  0.194600  0.368500  0.326100  1.0  -0.14
  C  C90  1  0.331500  0.242700  0.390600  1.0  -0.1037
  C  C91  1  0.233100  0.318200  0.280400  1.0  -0.1639
  C  C92  1  0.301800  0.254800  0.312300  1.0  0.2033
  C  C93  1  0.183400  0.703400  0.511600  1.0  -0.1634
  C  C94  1  0.223200  0.797100  0.556600  1.0  0.2494
  C  C95  1  0.210500  0.658900  0.455300  1.0  -0.1831
  C  C96  1  0.114200  0.649100  0.524300  1.0  0.7345
  C  C97  1  0.382700  0.926900  0.209000  1.0  0.6984
  C  C98  1  0.205400  0.799600  0.064800  1.0  -0.0331
  C  C99  1  0.101300  0.664100  0.071000  1.0  0.7375
  C  C100  1  0.273800  0.860100  0.095900  1.0  -0.1058
  C  C101  1  0.305400  0.868500  0.173900  1.0  -0.1403
  C  C102  1  0.168500  0.742700  0.109400  1.0  -0.1036
  C  C103  1  0.266900  0.818200  0.219600  1.0  -0.1641
  C  C104  1  0.198200  0.754800  0.187700  1.0  0.2024
  C  C105  1  0.316600  0.203400  0.988400  1.0  -0.1637
  C  C106  1  0.276800  0.297100  0.943400  1.0  0.2501
  C  C107  1  0.289500  0.158900  0.044700  1.0  -0.1845
  C  C108  1  0.385800  0.149100  0.975700  1.0  0.7339
  C  C109  1  0.882700  0.426900  0.209000  1.0  0.6984
  C  C110  1  0.705400  0.299600  0.064800  1.0  -0.0331
  C  C111  1  0.601300  0.164100  0.071000  1.0  0.7375
  C  C112  1  0.773800  0.360100  0.095900  1.0  -0.1058
  C  C113  1  0.805400  0.368500  0.173900  1.0  -0.1403
  C  C114  1  0.668500  0.242700  0.109400  1.0  -0.1036
  C  C115  1  0.766900  0.318200  0.219600  1.0  -0.1641
  C  C116  1  0.698200  0.254800  0.187700  1.0  0.2024
  C  C117  1  0.816600  0.703400  0.988400  1.0  -0.1637
  C  C118  1  0.776800  0.797100  0.943400  1.0  0.2501
  C  C119  1  0.789500  0.658900  0.044700  1.0  -0.1845
  C  C120  1  0.885800  0.649100  0.975700  1.0  0.7339
  C  C121  1  0.382700  0.073100  0.709000  1.0  0.6977
  C  C122  1  0.205400  0.200400  0.564800  1.0  -0.0332
  C  C123  1  0.101300  0.335900  0.571000  1.0  0.7384
  C  C124  1  0.273800  0.139900  0.595900  1.0  -0.1055
  C  C125  1  0.305400  0.131500  0.673900  1.0  -0.1397
  C  C126  1  0.168500  0.257300  0.609400  1.0  -0.1044
  C  C127  1  0.266900  0.181800  0.719600  1.0  -0.1632
  C  C128  1  0.198200  0.245200  0.687700  1.0  0.2017
  C  C129  1  0.316600  0.796600  0.488400  1.0  -0.164
  C  C130  1  0.276800  0.702900  0.443400  1.0  0.2497
  C  C131  1  0.289500  0.841100  0.544700  1.0  -0.1845
  C  C132  1  0.385800  0.850900  0.475700  1.0  0.7343
  C  C133  1  0.882700  0.573100  0.709000  1.0  0.6977
  C  C134  1  0.705400  0.700400  0.564800  1.0  -0.0332
  C  C135  1  0.601300  0.835900  0.571000  1.0  0.7384
  C  C136  1  0.773800  0.639900  0.595900  1.0  -0.1055
  C  C137  1  0.805400  0.631500  0.673900  1.0  -0.1397
  C  C138  1  0.668500  0.757300  0.609400  1.0  -0.1044
  C  C139  1  0.766900  0.681800  0.719600  1.0  -0.1632
  C  C140  1  0.698200  0.745200  0.687700  1.0  0.2017
  C  C141  1  0.816600  0.296600  0.488400  1.0  -0.164
  C  C142  1  0.776800  0.202900  0.443400  1.0  0.2497
  C  C143  1  0.789500  0.341100  0.544700  1.0  -0.1845
  C  C144  1  0.885800  0.350900  0.475700  1.0  0.7343
  C  C145  1  0.617300  0.073100  0.791000  1.0  0.6989
  C  C146  1  0.794600  0.200400  0.935200  1.0  -0.0335
  C  C147  1  0.898700  0.335900  0.929000  1.0  0.7389
  C  C148  1  0.726200  0.139900  0.904100  1.0  -0.1049
  C  C149  1  0.694600  0.131500  0.826100  1.0  -0.1393
  C  C150  1  0.831500  0.257300  0.890600  1.0  -0.1041
  C  C151  1  0.733100  0.181800  0.780400  1.0  -0.1634
  C  C152  1  0.801800  0.245200  0.812300  1.0  0.2035
  C  C153  1  0.683400  0.796600  0.011600  1.0  -0.1636
  C  C154  1  0.723200  0.702900  0.056600  1.0  0.2493
  C  C155  1  0.710500  0.841100  0.955300  1.0  -0.1828
  C  C156  1  0.614200  0.850900  0.024300  1.0  0.7352
  C  C157  1  0.117300  0.573100  0.791000  1.0  0.6989
  C  C158  1  0.294600  0.700400  0.935200  1.0  -0.0335
  C  C159  1  0.398700  0.835900  0.929000  1.0  0.7389
  C  C160  1  0.226200  0.639900  0.904100  1.0  -0.1049
  C  C161  1  0.194600  0.631500  0.826100  1.0  -0.1393
  C  C162  1  0.331500  0.757300  0.890600  1.0  -0.1041
  C  C163  1  0.233100  0.681800  0.780400  1.0  -0.1634
  C  C164  1  0.301800  0.745200  0.812300  1.0  0.2035
  C  C165  1  0.183400  0.296600  0.011600  1.0  -0.1636
  C  C166  1  0.223200  0.202900  0.056600  1.0  0.2493
  C  C167  1  0.210500  0.341100  0.955300  1.0  -0.1828
  C  C168  1  0.114200  0.350900  0.024300  1.0  0.7352
  N  N169  1  0.834800  0.705300  0.261400  1.0  -0.5366
  N  N170  1  0.700200  0.355600  0.610300  1.0  -0.6402
  N  N171  1  0.334800  0.205300  0.261400  1.0  -0.5366
  N  N172  1  0.200200  0.855600  0.610300  1.0  -0.6402
  N  N173  1  0.165200  0.705300  0.238600  1.0  -0.5363
  N  N174  1  0.299800  0.355600  0.889700  1.0  -0.6434
  N  N175  1  0.665200  0.205300  0.238600  1.0  -0.5363
  N  N176  1  0.799800  0.855600  0.889700  1.0  -0.6434
  N  N177  1  0.165200  0.294700  0.738600  1.0  -0.5374
  N  N178  1  0.299800  0.644400  0.389700  1.0  -0.6427
  N  N179  1  0.665200  0.794700  0.738600  1.0  -0.5374
  N  N180  1  0.799800  0.144400  0.389700  1.0  -0.6427
  N  N181  1  0.834800  0.294700  0.761400  1.0  -0.5369
  N  N182  1  0.700200  0.644400  0.110300  1.0  -0.6452
  N  N183  1  0.334800  0.794700  0.761400  1.0  -0.5369
  N  N184  1  0.200200  0.144400  0.110300  1.0  -0.6452
  O  O185  1  0.588600  0.926700  0.221400  1.0  -0.7182
  O  O186  1  0.577600  0.069900  0.479800  1.0  -0.7857
  O  O187  1  0.586500  0.975300  0.336100  1.0  -0.6735
  O  O188  1  0.921900  0.593900  0.388400  1.0  -0.5808
  O  O189  1  0.926100  0.671200  0.499200  1.0  -0.6757
  O  O190  1  0.594900  0.180900  0.580100  1.0  -0.6649
  O  O191  1  0.088600  0.426700  0.221400  1.0  -0.7182
  O  O192  1  0.077600  0.569900  0.479800  1.0  -0.7857
  O  O193  1  0.086500  0.475300  0.336100  1.0  -0.6735
  O  O194  1  0.421900  0.093900  0.388400  1.0  -0.5807
  O  O195  1  0.426100  0.171200  0.499200  1.0  -0.6757
  O  O196  1  0.094900  0.680900  0.580100  1.0  -0.6649
  O  O197  1  0.411400  0.926700  0.278600  1.0  -0.7186
  O  O198  1  0.422400  0.069900  0.020200  1.0  -0.7849
  O  O199  1  0.413500  0.975300  0.163900  1.0  -0.6758
  O  O200  1  0.078100  0.593900  0.111600  1.0  -0.5811
  O  O201  1  0.073900  0.671200  0.000800  1.0  -0.6748
  O  O202  1  0.405100  0.180900  0.919900  1.0  -0.6635
  O  O203  1  0.911400  0.426700  0.278600  1.0  -0.7186
  O  O204  1  0.922400  0.569900  0.020200  1.0  -0.7849
  O  O205  1  0.913500  0.475300  0.163900  1.0  -0.6758
  O  O206  1  0.578100  0.093900  0.111600  1.0  -0.581
  O  O207  1  0.573900  0.171200  0.000800  1.0  -0.6748
  O  O208  1  0.905100  0.680900  0.919900  1.0  -0.6635
  O  O209  1  0.411400  0.073300  0.778600  1.0  -0.7188
  O  O210  1  0.422400  0.930100  0.520200  1.0  -0.785
  O  O211  1  0.413500  0.024700  0.663900  1.0  -0.6759
  O  O212  1  0.078100  0.406100  0.611600  1.0  -0.5807
  O  O213  1  0.073900  0.328800  0.500800  1.0  -0.6753
  O  O214  1  0.405100  0.819100  0.419900  1.0  -0.6639
  O  O215  1  0.911400  0.573300  0.778600  1.0  -0.7188
  O  O216  1  0.922400  0.430100  0.520200  1.0  -0.785
  O  O217  1  0.913500  0.524700  0.663900  1.0  -0.6759
  O  O218  1  0.578100  0.906100  0.611600  1.0  -0.5807
  O  O219  1  0.573900  0.828800  0.500800  1.0  -0.6753
  O  O220  1  0.905100  0.319100  0.419900  1.0  -0.6639
  O  O221  1  0.588600  0.073300  0.721400  1.0  -0.7182
  O  O222  1  0.577600  0.930100  0.979800  1.0  -0.7857
  O  O223  1  0.586500  0.024700  0.836100  1.0  -0.6736
  O  O224  1  0.921900  0.406100  0.888400  1.0  -0.5804
  O  O225  1  0.926100  0.328800  0.999200  1.0  -0.6758
  O  O226  1  0.594900  0.819100  0.080100  1.0  -0.6637
  O  O227  1  0.088600  0.573300  0.721400  1.0  -0.7182
  O  O228  1  0.077600  0.430100  0.979800  1.0  -0.7857
  O  O229  1  0.086500  0.524700  0.836100  1.0  -0.6736
  O  O230  1  0.421900  0.906100  0.888400  1.0  -0.5803
  O  O231  1  0.426100  0.828800  0.999200  1.0  -0.6758
  O  O232  1  0.094900  0.319100  0.080100  1.0  -0.6637
