# generated using pymatgen
data_YH8C12(NO3)2
_symmetry_space_group_name_H-M   'P 1'
_cell_length_a   18.18870000
_cell_length_b   11.34160000
_cell_length_c   18.68350000
_cell_angle_alpha   90.00000000
_cell_angle_beta   108.66300000
_cell_angle_gamma   90.00000000
_symmetry_Int_Tables_number   1
_chemical_formula_structural   YH8C12(NO3)2
_chemical_formula_sum   'Y8 H64 C96 N16 O48'
_cell_volume   3651.53486981
_cell_formula_units_Z   8
loop_
 _symmetry_equiv_pos_site_id
 _symmetry_equiv_pos_as_xyz
  1  'x, y, z'
loop_
 _atom_site_type_symbol
 _atom_site_label
 _atom_site_symmetry_multiplicity
 _atom_site_fract_x
 _atom_site_fract_y
 _atom_site_fract_z
 _atom_site_occupancy
 _atom_site_charge
  Y  Y1  1  0.501240  0.067070  0.396110  1.0  2.0728
  Y  Y2  1  0.001240  0.567070  0.396110  1.0  2.0728
  Y  Y3  1  0.498760  0.067070  0.103890  1.0  2.0724
  Y  Y4  1  0.998760  0.567070  0.103890  1.0  2.0724
  Y  Y5  1  0.498760  0.932930  0.603890  1.0  2.0723
  Y  Y6  1  0.998760  0.432930  0.603890  1.0  2.0723
  Y  Y7  1  0.501240  0.932930  0.896110  1.0  2.0723
  Y  Y8  1  0.001240  0.432930  0.896110  1.0  2.0723
  H  H9  1  0.685000  0.294900  0.511700  1.0  0.1054
  H  H10  1  0.797900  0.398100  0.565800  1.0  0.1102
  H  H11  1  0.315000  0.100200  0.575900  1.0  0.089
  H  H12  1  0.788200  0.328300  0.771400  1.0  0.0819
  H  H13  1  0.685800  0.133000  0.753100  1.0  0.2735
  H  H14  1  0.673600  0.246400  0.777800  1.0  0.3258
  H  H15  1  0.235400  0.144600  0.654000  1.0  0.2806
  H  H16  1  0.167100  0.215600  0.629200  1.0  0.1811
  H  H17  1  0.185000  0.794900  0.511700  1.0  0.1054
  H  H18  1  0.297900  0.898100  0.565800  1.0  0.1102
  H  H19  1  0.815000  0.600200  0.575900  1.0  0.089
  H  H20  1  0.288200  0.828300  0.771400  1.0  0.0819
  H  H21  1  0.185800  0.633000  0.753100  1.0  0.2735
  H  H22  1  0.173600  0.746400  0.777800  1.0  0.3258
  H  H23  1  0.735400  0.644600  0.654000  1.0  0.2806
  H  H24  1  0.667100  0.715600  0.629200  1.0  0.1811
  H  H25  1  0.315000  0.294900  0.988300  1.0  0.1048
  H  H26  1  0.202100  0.398100  0.934200  1.0  0.1107
  H  H27  1  0.685000  0.100200  0.924100  1.0  0.0898
  H  H28  1  0.211800  0.328300  0.728600  1.0  0.0827
  H  H29  1  0.314200  0.133000  0.746900  1.0  0.274
  H  H30  1  0.326400  0.246400  0.722200  1.0  0.3277
  H  H31  1  0.764600  0.144600  0.846000  1.0  0.2796
  H  H32  1  0.832900  0.215600  0.870800  1.0  0.1803
  H  H33  1  0.815000  0.794900  0.988300  1.0  0.1048
  H  H34  1  0.702100  0.898100  0.934200  1.0  0.1107
  H  H35  1  0.185000  0.600200  0.924100  1.0  0.0898
  H  H36  1  0.711800  0.828300  0.728600  1.0  0.0827
  H  H37  1  0.814200  0.633000  0.746900  1.0  0.274
  H  H38  1  0.826400  0.746400  0.722200  1.0  0.3277
  H  H39  1  0.264600  0.644600  0.846000  1.0  0.2796
  H  H40  1  0.332900  0.715600  0.870800  1.0  0.1803
  H  H41  1  0.315000  0.705100  0.488300  1.0  0.1049
  H  H42  1  0.202100  0.601900  0.434200  1.0  0.1107
  H  H43  1  0.685000  0.899800  0.424100  1.0  0.0895
  H  H44  1  0.211800  0.671700  0.228600  1.0  0.0826
  H  H45  1  0.314200  0.867000  0.246900  1.0  0.2751
  H  H46  1  0.326400  0.753600  0.222200  1.0  0.3288
  H  H47  1  0.764600  0.855400  0.346000  1.0  0.2801
  H  H48  1  0.832900  0.784400  0.370800  1.0  0.1803
  H  H49  1  0.815000  0.205100  0.488300  1.0  0.1049
  H  H50  1  0.702100  0.101900  0.434200  1.0  0.1107
  H  H51  1  0.185000  0.399800  0.424100  1.0  0.0895
  H  H52  1  0.711800  0.171700  0.228600  1.0  0.0826
  H  H53  1  0.814200  0.367000  0.246900  1.0  0.2751
  H  H54  1  0.826400  0.253600  0.222200  1.0  0.3288
  H  H55  1  0.264600  0.355400  0.346000  1.0  0.2801
  H  H56  1  0.332900  0.284400  0.370800  1.0  0.1803
  H  H57  1  0.685000  0.705100  0.011700  1.0  0.1055
  H  H58  1  0.797900  0.601900  0.065800  1.0  0.1103
  H  H59  1  0.315000  0.899800  0.075900  1.0  0.0887
  H  H60  1  0.788200  0.671700  0.271400  1.0  0.0818
  H  H61  1  0.685800  0.867000  0.253100  1.0  0.2741
  H  H62  1  0.673600  0.753600  0.277800  1.0  0.326
  H  H63  1  0.235400  0.855400  0.154000  1.0  0.2805
  H  H64  1  0.167100  0.784400  0.129200  1.0  0.1799
  H  H65  1  0.185000  0.205100  0.011700  1.0  0.1055
  H  H66  1  0.297900  0.101900  0.065800  1.0  0.1103
  H  H67  1  0.815000  0.399800  0.075900  1.0  0.0887
  H  H68  1  0.288200  0.171700  0.271400  1.0  0.0818
  H  H69  1  0.185800  0.367000  0.253100  1.0  0.2741
  H  H70  1  0.173600  0.253600  0.277800  1.0  0.326
  H  H71  1  0.735400  0.355400  0.154000  1.0  0.2805
  H  H72  1  0.667100  0.284400  0.129200  1.0  0.1799
  C  C73  1  0.698000  0.247900  0.689200  1.0  0.2275
  C  C74  1  0.316600  0.201700  0.489800  1.0  -0.1911
  C  C75  1  0.706300  0.297600  0.564000  1.0  -0.0709
  C  C76  1  0.773800  0.358900  0.596000  1.0  -0.1192
  C  C77  1  0.806300  0.361700  0.675500  1.0  -0.1654
  C  C78  1  0.288400  0.160800  0.544800  1.0  -0.1487
  C  C79  1  0.667800  0.237300  0.609700  1.0  -0.1159
  C  C80  1  0.222300  0.205100  0.556500  1.0  0.2661
  C  C81  1  0.385300  0.143700  0.478400  1.0  0.6727
  C  C82  1  0.602300  0.158600  0.571000  1.0  0.7264
  C  C83  1  0.768600  0.316000  0.719600  1.0  -0.1691
  C  C84  1  0.885400  0.425000  0.709200  1.0  0.7327
  C  C85  1  0.198000  0.747900  0.689200  1.0  0.2275
  C  C86  1  0.816600  0.701700  0.489800  1.0  -0.1911
  C  C87  1  0.206300  0.797600  0.564000  1.0  -0.0709
  C  C88  1  0.273800  0.858900  0.596000  1.0  -0.1192
  C  C89  1  0.306300  0.861700  0.675500  1.0  -0.1654
  C  C90  1  0.788400  0.660800  0.544800  1.0  -0.1487
  C  C91  1  0.167800  0.737300  0.609700  1.0  -0.1159
  C  C92  1  0.722300  0.705100  0.556500  1.0  0.2661
  C  C93  1  0.885300  0.643700  0.478400  1.0  0.6727
  C  C94  1  0.102300  0.658600  0.571000  1.0  0.7264
  C  C95  1  0.268600  0.816000  0.719600  1.0  -0.1691
  C  C96  1  0.385400  0.925000  0.709200  1.0  0.7327
  C  C97  1  0.302000  0.247900  0.810800  1.0  0.2264
  C  C98  1  0.683400  0.201700  0.010200  1.0  -0.1902
  C  C99  1  0.293700  0.297600  0.936000  1.0  -0.0707
  C  C100  1  0.226200  0.358900  0.904000  1.0  -0.1192
  C  C101  1  0.193700  0.361700  0.824500  1.0  -0.1655
  C  C102  1  0.711600  0.160800  0.955200  1.0  -0.1492
  C  C103  1  0.332200  0.237300  0.890300  1.0  -0.1167
  C  C104  1  0.777700  0.205100  0.943500  1.0  0.2673
  C  C105  1  0.614700  0.143700  0.021600  1.0  0.6734
  C  C106  1  0.397700  0.158600  0.929000  1.0  0.7269
  C  C107  1  0.231400  0.316000  0.780400  1.0  -0.1708
  C  C108  1  0.114600  0.425000  0.790800  1.0  0.733
  C  C109  1  0.802000  0.747900  0.810800  1.0  0.2264
  C  C110  1  0.183400  0.701700  0.010200  1.0  -0.1902
  C  C111  1  0.793700  0.797600  0.936000  1.0  -0.0707
  C  C112  1  0.726200  0.858900  0.904000  1.0  -0.1192
  C  C113  1  0.693700  0.861700  0.824500  1.0  -0.1655
  C  C114  1  0.211600  0.660800  0.955200  1.0  -0.1492
  C  C115  1  0.832200  0.737300  0.890300  1.0  -0.1167
  C  C116  1  0.277700  0.705100  0.943500  1.0  0.2673
  C  C117  1  0.114700  0.643700  0.021600  1.0  0.6734
  C  C118  1  0.897700  0.658600  0.929000  1.0  0.7269
  C  C119  1  0.731400  0.816000  0.780400  1.0  -0.1708
  C  C120  1  0.614600  0.925000  0.790800  1.0  0.733
  C  C121  1  0.302000  0.752100  0.310800  1.0  0.2264
  C  C122  1  0.683400  0.798300  0.510200  1.0  -0.1904
  C  C123  1  0.293700  0.702400  0.436000  1.0  -0.0708
  C  C124  1  0.226200  0.641100  0.404000  1.0  -0.1193
  C  C125  1  0.193700  0.638300  0.324500  1.0  -0.1648
  C  C126  1  0.711600  0.839200  0.455200  1.0  -0.1518
  C  C127  1  0.332200  0.762700  0.390300  1.0  -0.117
  C  C128  1  0.777700  0.794900  0.443500  1.0  0.267
  C  C129  1  0.614700  0.856300  0.521600  1.0  0.6738
  C  C130  1  0.397700  0.841400  0.429000  1.0  0.7268
  C  C131  1  0.231400  0.684000  0.280400  1.0  -0.1705
  C  C132  1  0.114600  0.575000  0.290800  1.0  0.733
  C  C133  1  0.802000  0.252100  0.310800  1.0  0.2264
  C  C134  1  0.183400  0.298300  0.510200  1.0  -0.1904
  C  C135  1  0.793700  0.202400  0.436000  1.0  -0.0708
  C  C136  1  0.726200  0.141100  0.404000  1.0  -0.1193
  C  C137  1  0.693700  0.138300  0.324500  1.0  -0.1648
  C  C138  1  0.211600  0.339200  0.455200  1.0  -0.1518
  C  C139  1  0.832200  0.262700  0.390300  1.0  -0.117
  C  C140  1  0.277700  0.294900  0.443500  1.0  0.267
  C  C141  1  0.114700  0.356300  0.521600  1.0  0.6738
  C  C142  1  0.897700  0.341400  0.429000  1.0  0.7268
  C  C143  1  0.731400  0.184000  0.280400  1.0  -0.1705
  C  C144  1  0.614600  0.075000  0.290800  1.0  0.733
  C  C145  1  0.698000  0.752100  0.189200  1.0  0.2271
  C  C146  1  0.316600  0.798300  0.989800  1.0  -0.1911
  C  C147  1  0.706300  0.702400  0.064000  1.0  -0.0713
  C  C148  1  0.773800  0.641100  0.096000  1.0  -0.1191
  C  C149  1  0.806300  0.638300  0.175500  1.0  -0.1655
  C  C150  1  0.288400  0.839200  0.044800  1.0  -0.1514
  C  C151  1  0.667800  0.762700  0.109700  1.0  -0.1164
  C  C152  1  0.222300  0.794900  0.056500  1.0  0.2661
  C  C153  1  0.385300  0.856300  0.978400  1.0  0.6735
  C  C154  1  0.602300  0.841400  0.071000  1.0  0.7266
  C  C155  1  0.768600  0.684000  0.219600  1.0  -0.169
  C  C156  1  0.885400  0.575000  0.209200  1.0  0.7329
  C  C157  1  0.198000  0.252100  0.189200  1.0  0.2271
  C  C158  1  0.816600  0.298300  0.989800  1.0  -0.1911
  C  C159  1  0.206300  0.202400  0.064000  1.0  -0.0713
  C  C160  1  0.273800  0.141100  0.096000  1.0  -0.1191
  C  C161  1  0.306300  0.138300  0.175500  1.0  -0.1655
  C  C162  1  0.788400  0.339200  0.044800  1.0  -0.1514
  C  C163  1  0.167800  0.262700  0.109700  1.0  -0.1164
  C  C164  1  0.722300  0.294900  0.056500  1.0  0.2661
  C  C165  1  0.885300  0.356300  0.978400  1.0  0.6735
  C  C166  1  0.102300  0.341400  0.071000  1.0  0.7266
  C  C167  1  0.268600  0.184000  0.219600  1.0  -0.169
  C  C168  1  0.385400  0.075000  0.209200  1.0  0.7329
  N  N169  1  0.665500  0.202000  0.738400  1.0  -0.521
  N  N170  1  0.197000  0.165000  0.613000  1.0  -0.5967
  N  N171  1  0.165500  0.702000  0.738400  1.0  -0.521
  N  N172  1  0.697000  0.665000  0.613000  1.0  -0.5967
  N  N173  1  0.334500  0.202000  0.761600  1.0  -0.522
  N  N174  1  0.803000  0.165000  0.887000  1.0  -0.5951
  N  N175  1  0.834500  0.702000  0.761600  1.0  -0.522
  N  N176  1  0.303000  0.665000  0.887000  1.0  -0.5951
  N  N177  1  0.334500  0.798000  0.261600  1.0  -0.5202
  N  N178  1  0.803000  0.835000  0.387000  1.0  -0.5934
  N  N179  1  0.834500  0.298000  0.261600  1.0  -0.5202
  N  N180  1  0.303000  0.335000  0.387000  1.0  -0.5934
  N  N181  1  0.665500  0.798000  0.238400  1.0  -0.5209
  N  N182  1  0.197000  0.835000  0.113000  1.0  -0.5958
  N  N183  1  0.165500  0.298000  0.238400  1.0  -0.5209
  N  N184  1  0.697000  0.335000  0.113000  1.0  -0.5958
  O  O185  1  0.911400  0.425700  0.778500  1.0  -0.6922
  O  O186  1  0.422000  0.067400  0.526700  1.0  -0.6951
  O  O187  1  0.579100  0.085100  0.612300  1.0  -0.6707
  O  O188  1  0.914600  0.470200  0.665300  1.0  -0.6561
  O  O189  1  0.574800  0.165900  0.499600  1.0  -0.6742
  O  O190  1  0.405800  0.171600  0.421500  1.0  -0.66
  O  O191  1  0.411400  0.925700  0.778500  1.0  -0.6922
  O  O192  1  0.922000  0.567400  0.526700  1.0  -0.6951
  O  O193  1  0.079100  0.585100  0.612300  1.0  -0.6707
  O  O194  1  0.414600  0.970200  0.665300  1.0  -0.6583
  O  O195  1  0.074800  0.665900  0.499600  1.0  -0.6742
  O  O196  1  0.905800  0.671600  0.421500  1.0  -0.66
  O  O197  1  0.088600  0.425700  0.721500  1.0  -0.6933
  O  O198  1  0.578000  0.067400  0.973300  1.0  -0.6945
  O  O199  1  0.420900  0.085100  0.887700  1.0  -0.6683
  O  O200  1  0.085400  0.470200  0.834700  1.0  -0.6562
  O  O201  1  0.425200  0.165900  0.000400  1.0  -0.6735
  O  O202  1  0.594200  0.171600  0.078500  1.0  -0.6621
  O  O203  1  0.588600  0.925700  0.721500  1.0  -0.6933
  O  O204  1  0.078000  0.567400  0.973300  1.0  -0.6945
  O  O205  1  0.920900  0.585100  0.887700  1.0  -0.6683
  O  O206  1  0.585400  0.970200  0.834700  1.0  -0.6585
  O  O207  1  0.925200  0.665900  0.000400  1.0  -0.6735
  O  O208  1  0.094200  0.671600  0.078500  1.0  -0.6621
  O  O209  1  0.088600  0.574300  0.221500  1.0  -0.6935
  O  O210  1  0.578000  0.932600  0.473300  1.0  -0.6953
  O  O211  1  0.420900  0.914900  0.387700  1.0  -0.6684
  O  O212  1  0.085400  0.529800  0.334700  1.0  -0.6565
  O  O213  1  0.425200  0.834100  0.500400  1.0  -0.6729
  O  O214  1  0.594200  0.828400  0.578500  1.0  -0.6613
  O  O215  1  0.588600  0.074300  0.221500  1.0  -0.6935
  O  O216  1  0.078000  0.432600  0.473300  1.0  -0.6953
  O  O217  1  0.920900  0.414900  0.387700  1.0  -0.6684
  O  O218  1  0.585400  0.029800  0.334700  1.0  -0.6588
  O  O219  1  0.925200  0.334100  0.500400  1.0  -0.6729
  O  O220  1  0.094200  0.328400  0.578500  1.0  -0.6613
  O  O221  1  0.911400  0.574300  0.278500  1.0  -0.6923
  O  O222  1  0.422000  0.932600  0.026700  1.0  -0.6954
  O  O223  1  0.579100  0.914900  0.112300  1.0  -0.67
  O  O224  1  0.914600  0.529800  0.165300  1.0  -0.6557
  O  O225  1  0.574800  0.834100  0.999600  1.0  -0.6737
  O  O226  1  0.405800  0.828400  0.921500  1.0  -0.6599
  O  O227  1  0.411400  0.074300  0.278500  1.0  -0.6923
  O  O228  1  0.922000  0.432600  0.026700  1.0  -0.6954
  O  O229  1  0.079100  0.414900  0.112300  1.0  -0.67
  O  O230  1  0.414600  0.029800  0.165300  1.0  -0.6579
  O  O231  1  0.074800  0.334100  0.999600  1.0  -0.6737
  O  O232  1  0.905800  0.328400  0.921500  1.0  -0.6599
