# generated using pymatgen
data_AlPO4
_symmetry_space_group_name_H-M   'P 1'
_cell_length_a   13.80900000
_cell_length_b   13.80900000
_cell_length_c   14.83600000
_cell_angle_alpha   90.00000000
_cell_angle_beta   90.00000000
_cell_angle_gamma   120.00000000
_symmetry_Int_Tables_number   1
_chemical_formula_structural   AlPO4
_chemical_formula_sum   'Al18 P18 O72'
_cell_volume   2450.03289605
_cell_formula_units_Z   18
loop_
 _symmetry_equiv_pos_site_id
 _symmetry_equiv_pos_as_xyz
  1  'x, y, z'
loop_
 _atom_site_type_symbol
 _atom_site_label
 _atom_site_symmetry_multiplicity
 _atom_site_fract_x
 _atom_site_fract_y
 _atom_site_fract_z
 _atom_site_occupancy
 _atom_site_charge
  Al  Al1  1  0.996900  0.225600  0.103400  1.0  2.0317
  Al  Al2  1  0.663570  0.558930  0.436730  1.0  2.0324
  Al  Al3  1  0.330230  0.892270  0.770070  1.0  2.0317
  Al  Al4  1  0.774400  0.771300  0.103400  1.0  2.0304
  Al  Al5  1  0.441070  0.104630  0.436730  1.0  2.031
  Al  Al6  1  0.107730  0.437970  0.770070  1.0  2.0304
  Al  Al7  1  0.228700  0.003100  0.103400  1.0  2.0303
  Al  Al8  1  0.895370  0.336430  0.436730  1.0  2.0309
  Al  Al9  1  0.562030  0.669770  0.770070  1.0  2.0303
  Al  Al10  1  0.003100  0.774400  0.896600  1.0  2.0311
  Al  Al11  1  0.669770  0.107730  0.229930  1.0  2.0311
  Al  Al12  1  0.336430  0.441070  0.563270  1.0  2.0318
  Al  Al13  1  0.225600  0.228700  0.896600  1.0  2.0302
  Al  Al14  1  0.892270  0.562030  0.229930  1.0  2.0302
  Al  Al15  1  0.558930  0.895370  0.563270  1.0  2.0308
  Al  Al16  1  0.771300  0.996900  0.896600  1.0  2.0298
  Al  Al17  1  0.437970  0.330230  0.229930  1.0  2.0297
  Al  Al18  1  0.104630  0.663570  0.563270  1.0  2.0304
  P  P19  1  0.996500  0.224500  0.891200  1.0  1.9015
  P  P20  1  0.663170  0.557830  0.224530  1.0  1.9015
  P  P21  1  0.329830  0.891170  0.557870  1.0  1.9015
  P  P22  1  0.775500  0.772000  0.891200  1.0  1.9036
  P  P23  1  0.442170  0.105330  0.224530  1.0  1.9036
  P  P24  1  0.108830  0.438670  0.557870  1.0  1.9036
  P  P25  1  0.228000  0.003500  0.891200  1.0  1.9027
  P  P26  1  0.894670  0.336830  0.224530  1.0  1.9027
  P  P27  1  0.561330  0.670170  0.557870  1.0  1.9027
  P  P28  1  0.003500  0.775500  0.108800  1.0  1.903
  P  P29  1  0.670170  0.108830  0.442130  1.0  1.9029
  P  P30  1  0.336830  0.442170  0.775470  1.0  1.903
  P  P31  1  0.224500  0.228000  0.108800  1.0  1.9033
  P  P32  1  0.891170  0.561330  0.442130  1.0  1.9033
  P  P33  1  0.557830  0.894670  0.775470  1.0  1.9033
  P  P34  1  0.772000  0.996500  0.108800  1.0  1.9017
  P  P35  1  0.438670  0.329830  0.442130  1.0  1.9017
  P  P36  1  0.105330  0.663170  0.775470  1.0  1.9017
  O  O37  1  0.996000  0.255100  0.990900  1.0  -1.002
  O  O38  1  0.883800  0.122700  0.864600  1.0  -0.9455
  O  O39  1  0.089200  0.195600  0.872900  1.0  -1.0406
  O  O40  1  0.014000  0.323800  0.832200  1.0  -0.9465
  O  O41  1  0.662670  0.588430  0.324230  1.0  -1.0019
  O  O42  1  0.550470  0.456030  0.197930  1.0  -0.9455
  O  O43  1  0.755870  0.528930  0.206230  1.0  -1.0352
  O  O44  1  0.680670  0.657130  0.165530  1.0  -0.9513
  O  O45  1  0.329330  0.921770  0.657570  1.0  -1.002
  O  O46  1  0.217130  0.789370  0.531270  1.0  -0.9455
  O  O47  1  0.422530  0.862270  0.539570  1.0  -1.0406
  O  O48  1  0.347330  0.990470  0.498870  1.0  -0.9498
  O  O49  1  0.744900  0.740900  0.990900  1.0  -1.0029
  O  O50  1  0.877300  0.761100  0.864600  1.0  -0.9453
  O  O51  1  0.804400  0.893600  0.872900  1.0  -1.0385
  O  O52  1  0.676200  0.690200  0.832200  1.0  -0.9505
  O  O53  1  0.411570  0.074230  0.324230  1.0  -1.0029
  O  O54  1  0.543970  0.094430  0.197930  1.0  -0.9453
  O  O55  1  0.471070  0.226930  0.206230  1.0  -1.0393
  O  O56  1  0.342870  0.023530  0.165530  1.0  -0.9544
  O  O57  1  0.078230  0.407570  0.657570  1.0  -1.0029
  O  O58  1  0.210630  0.427770  0.531270  1.0  -0.9453
  O  O59  1  0.137730  0.560270  0.539570  1.0  -1.0385
  O  O60  1  0.009530  0.356870  0.498870  1.0  -0.9481
  O  O61  1  0.259100  0.004000  0.990900  1.0  -1.0015
  O  O62  1  0.238900  0.116200  0.864600  1.0  -0.9474
  O  O63  1  0.106400  0.910800  0.872900  1.0  -1.0278
  O  O64  1  0.309800  0.986000  0.832200  1.0  -0.9431
  O  O65  1  0.925770  0.337330  0.324230  1.0  -1.0015
  O  O66  1  0.905570  0.449530  0.197930  1.0  -0.9474
  O  O67  1  0.773070  0.244130  0.206230  1.0  -1.0361
  O  O68  1  0.976470  0.319330  0.165530  1.0  -0.9464
  O  O69  1  0.592430  0.670670  0.657570  1.0  -1.0014
  O  O70  1  0.572230  0.782870  0.531270  1.0  -0.9474
  O  O71  1  0.439730  0.577470  0.539570  1.0  -1.0278
  O  O72  1  0.643130  0.652670  0.498870  1.0  -0.9495
  O  O73  1  0.004000  0.744900  0.009100  1.0  -1.0007
  O  O74  1  0.116200  0.877300  0.135400  1.0  -0.9438
  O  O75  1  0.910800  0.804400  0.127100  1.0  -1.042
  O  O76  1  0.986000  0.676200  0.167800  1.0  -0.9446
  O  O77  1  0.670670  0.078230  0.342430  1.0  -1.0007
  O  O78  1  0.782870  0.210630  0.468730  1.0  -0.9438
  O  O79  1  0.577470  0.137730  0.460430  1.0  -1.042
  O  O80  1  0.652670  0.009530  0.501130  1.0  -0.9473
  O  O81  1  0.337330  0.411570  0.675770  1.0  -1.0007
  O  O82  1  0.449530  0.543970  0.802070  1.0  -0.9438
  O  O83  1  0.244130  0.471070  0.793770  1.0  -1.0378
  O  O84  1  0.319330  0.342870  0.834470  1.0  -0.9499
  O  O85  1  0.255100  0.259100  0.009100  1.0  -1.0012
  O  O86  1  0.122700  0.238900  0.135400  1.0  -0.9459
  O  O87  1  0.195600  0.106400  0.127100  1.0  -1.0408
  O  O88  1  0.323800  0.309800  0.167800  1.0  -0.9515
  O  O89  1  0.921770  0.592430  0.342430  1.0  -1.0012
  O  O90  1  0.789370  0.572230  0.468730  1.0  -0.9459
  O  O91  1  0.862270  0.439730  0.460430  1.0  -1.0407
  O  O92  1  0.990470  0.643130  0.501130  1.0  -0.9497
  O  O93  1  0.588430  0.925770  0.675770  1.0  -1.0012
  O  O94  1  0.456030  0.905570  0.802070  1.0  -0.9459
  O  O95  1  0.528930  0.773070  0.793770  1.0  -1.0412
  O  O96  1  0.657130  0.976470  0.834470  1.0  -0.9551
  O  O97  1  0.740900  0.996000  0.009100  1.0  -1.0013
  O  O98  1  0.761100  0.883800  0.135400  1.0  -0.9469
  O  O99  1  0.893600  0.089200  0.127100  1.0  -1.0311
  O  O100  1  0.690200  0.014000  0.167800  1.0  -0.9439
  O  O101  1  0.407570  0.329330  0.342430  1.0  -1.0013
  O  O102  1  0.427770  0.217130  0.468730  1.0  -0.9469
  O  O103  1  0.560270  0.422530  0.460430  1.0  -1.0311
  O  O104  1  0.356870  0.347330  0.501130  1.0  -0.9501
  O  O105  1  0.074230  0.662670  0.675770  1.0  -1.0013
  O  O106  1  0.094430  0.550470  0.802070  1.0  -0.9469
  O  O107  1  0.226930  0.755870  0.793770  1.0  -1.0385
  O  O108  1  0.023530  0.680670  0.834470  1.0  -0.947
