# generated using pymatgen
data_HoH12(C7O2)3
_symmetry_space_group_name_H-M   'P 1'
_cell_length_a   15.22990000
_cell_length_b   15.22990000
_cell_length_c   18.51410000
_cell_angle_alpha   76.08200000
_cell_angle_beta   76.08200000
_cell_angle_gamma   68.20430000
_symmetry_Int_Tables_number   1
_chemical_formula_structural   HoH12(C7O2)3
_chemical_formula_sum   'Ho4 H48 C84 O24'
_cell_volume   3815.41949433
_cell_formula_units_Z   4
loop_
 _symmetry_equiv_pos_site_id
 _symmetry_equiv_pos_as_xyz
  1  'x, y, z'
loop_
 _atom_site_type_symbol
 _atom_site_label
 _atom_site_symmetry_multiplicity
 _atom_site_fract_x
 _atom_site_fract_y
 _atom_site_fract_z
 _atom_site_occupancy
 _atom_site_charge
  Ho  Ho1  1  0.961840  0.043660  0.104340  1.0  2.2391
  Ho  Ho2  1  0.956340  0.038160  0.395660  1.0  2.2374
  Ho  Ho3  1  0.038160  0.956340  0.895660  1.0  2.2372
  Ho  Ho4  1  0.043660  0.961840  0.604340  1.0  2.2389
  H  H5  1  0.986900  0.285500  0.786800  1.0  0.1038
  H  H6  1  0.979200  0.439600  0.756300  1.0  0.0961
  H  H7  1  0.959500  0.449300  0.971700  1.0  0.096
  H  H8  1  0.966900  0.294500  0.003500  1.0  0.0876
  H  H9  1  0.653100  0.076700  0.093400  1.0  0.0916
  H  H10  1  0.506700  0.067700  0.091000  1.0  0.1007
  H  H11  1  0.616900  0.958900  0.902400  1.0  0.0992
  H  H12  1  0.762800  0.967000  0.903900  1.0  0.1078
  H  H13  1  0.895100  0.762500  0.906700  1.0  0.0915
  H  H14  1  0.884000  0.612000  0.935300  1.0  0.111
  H  H15  1  0.048400  0.556400  0.735700  1.0  0.1002
  H  H16  1  0.051000  0.707600  0.706300  1.0  0.0908
  H  H17  1  0.714500  0.013100  0.713200  1.0  0.1038
  H  H18  1  0.560400  0.020800  0.743700  1.0  0.0964
  H  H19  1  0.550700  0.040500  0.528300  1.0  0.0971
  H  H20  1  0.705500  0.033100  0.496500  1.0  0.0878
  H  H21  1  0.923300  0.346900  0.406600  1.0  0.091
  H  H22  1  0.932300  0.493300  0.409000  1.0  0.1004
  H  H23  1  0.041100  0.383100  0.597600  1.0  0.0966
  H  H24  1  0.033000  0.237200  0.596100  1.0  0.1081
  H  H25  1  0.237500  0.104900  0.593300  1.0  0.0922
  H  H26  1  0.388000  0.116000  0.564700  1.0  0.1114
  H  H27  1  0.443600  0.951600  0.764300  1.0  0.101
  H  H28  1  0.292400  0.949000  0.793700  1.0  0.0917
  H  H29  1  0.013100  0.714500  0.213200  1.0  0.1037
  H  H30  1  0.020800  0.560400  0.243700  1.0  0.0961
  H  H31  1  0.040500  0.550700  0.028300  1.0  0.0956
  H  H32  1  0.033100  0.705500  0.996500  1.0  0.0877
  H  H33  1  0.346900  0.923300  0.906600  1.0  0.0914
  H  H34  1  0.493300  0.932300  0.909000  1.0  0.102
  H  H35  1  0.383100  0.041100  0.097600  1.0  0.0994
  H  H36  1  0.237200  0.033000  0.096100  1.0  0.108
  H  H37  1  0.104900  0.237500  0.093300  1.0  0.0917
  H  H38  1  0.116000  0.388000  0.064700  1.0  0.1117
  H  H39  1  0.951600  0.443600  0.264300  1.0  0.1001
  H  H40  1  0.949000  0.292400  0.293700  1.0  0.0906
  H  H41  1  0.285500  0.986900  0.286800  1.0  0.1039
  H  H42  1  0.439600  0.979200  0.256300  1.0  0.0967
  H  H43  1  0.449300  0.959500  0.471700  1.0  0.0956
  H  H44  1  0.294500  0.966900  0.503500  1.0  0.0873
  H  H45  1  0.076700  0.653100  0.593400  1.0  0.0903
  H  H46  1  0.067700  0.506700  0.591000  1.0  0.0995
  H  H47  1  0.958900  0.616900  0.402400  1.0  0.0991
  H  H48  1  0.967000  0.762800  0.403900  1.0  0.1079
  H  H49  1  0.762500  0.895100  0.406700  1.0  0.0924
  H  H50  1  0.612000  0.884000  0.435300  1.0  0.1117
  H  H51  1  0.556400  0.048400  0.235700  1.0  0.1016
  H  H52  1  0.707600  0.051000  0.206300  1.0  0.0916
  C  C53  1  0.992300  0.166300  0.919600  1.0  0.8002
  C  C54  1  0.982500  0.269100  0.900300  1.0  -0.1697
  C  C55  1  0.982900  0.318100  0.824600  1.0  -0.0434
  C  C56  1  0.977800  0.410600  0.806600  1.0  -0.1305
  C  C57  1  0.970200  0.464800  0.859400  1.0  0.0564
  C  C58  1  0.966100  0.416100  0.933500  1.0  -0.1436
  C  C59  1  0.971200  0.322600  0.952900  1.0  -0.0115
  C  C60  1  0.819100  0.031700  0.999100  1.0  0.7941
  C  C61  1  0.724500  0.023500  0.997900  1.0  -0.1572
  C  C62  1  0.646100  0.052300  0.054400  1.0  -0.0385
  C  C63  1  0.558500  0.045300  0.053800  1.0  -0.1402
  C  C64  1  0.546900  0.005700  0.999000  1.0  0.0481
  C  C65  1  0.624300  0.981100  0.942500  1.0  -0.1392
  C  C66  1  0.711800  0.987400  0.942300  1.0  -0.0423
  C  C67  1  0.984100  0.850300  0.785800  1.0  0.8088
  C  C68  1  0.975800  0.752200  0.804600  1.0  -0.1784
  C  C69  1  0.925900  0.720900  0.872000  1.0  -0.0304
  C  C70  1  0.920200  0.629800  0.889800  1.0  -0.1477
  C  C71  1  0.967900  0.563900  0.840700  1.0  0.0671
  C  C72  1  0.017000  0.597600  0.770700  1.0  -0.1444
  C  C73  1  0.019500  0.687700  0.753400  1.0  -0.0098
  C  C74  1  0.833700  0.007700  0.580400  1.0  0.8
  C  C75  1  0.730900  0.017500  0.599700  1.0  -0.1694
  C  C76  1  0.681900  0.017100  0.675400  1.0  -0.0417
  C  C77  1  0.589400  0.022200  0.693400  1.0  -0.1299
  C  C78  1  0.535200  0.029800  0.640600  1.0  0.0566
  C  C79  1  0.583900  0.033900  0.566500  1.0  -0.1454
  C  C80  1  0.677400  0.028800  0.547100  1.0  -0.0119
  C  C81  1  0.968300  0.180900  0.500900  1.0  0.7976
  C  C82  1  0.976500  0.275500  0.502100  1.0  -0.1566
  C  C83  1  0.947700  0.353900  0.445600  1.0  -0.0363
  C  C84  1  0.954700  0.441500  0.446200  1.0  -0.1406
  C  C85  1  0.994300  0.453100  0.501000  1.0  0.0478
  C  C86  1  0.018900  0.375700  0.557500  1.0  -0.1378
  C  C87  1  0.012600  0.288200  0.557700  1.0  -0.0387
  C  C88  1  0.149700  0.015900  0.714200  1.0  0.8099
  C  C89  1  0.247800  0.024200  0.695400  1.0  -0.1756
  C  C90  1  0.279100  0.074100  0.628000  1.0  -0.0309
  C  C91  1  0.370200  0.079800  0.610200  1.0  -0.149
  C  C92  1  0.436100  0.032100  0.659300  1.0  0.0698
  C  C93  1  0.402400  0.983000  0.729300  1.0  -0.1438
  C  C94  1  0.312300  0.980500  0.746600  1.0  -0.0114
  C  C95  1  0.007700  0.833700  0.080400  1.0  0.8011
  C  C96  1  0.017500  0.730900  0.099700  1.0  -0.1695
  C  C97  1  0.017100  0.681900  0.175400  1.0  -0.0426
  C  C98  1  0.022200  0.589400  0.193400  1.0  -0.1295
  C  C99  1  0.029800  0.535200  0.140600  1.0  0.0557
  C  C100  1  0.033900  0.583900  0.066500  1.0  -0.1451
  C  C101  1  0.028800  0.677400  0.047100  1.0  -0.0146
  C  C102  1  0.180900  0.968300  0.000900  1.0  0.789
  C  C103  1  0.275500  0.976500  0.002100  1.0  -0.158
  C  C104  1  0.353900  0.947700  0.945600  1.0  -0.0381
  C  C105  1  0.441500  0.954700  0.946200  1.0  -0.1411
  C  C106  1  0.453100  0.994300  0.001000  1.0  0.0485
  C  C107  1  0.375700  0.018900  0.057500  1.0  -0.1349
  C  C108  1  0.288200  0.012600  0.057700  1.0  -0.0396
  C  C109  1  0.015900  0.149700  0.214200  1.0  0.808
  C  C110  1  0.024200  0.247800  0.195400  1.0  -0.1817
  C  C111  1  0.074100  0.279100  0.128000  1.0  -0.031
  C  C112  1  0.079800  0.370200  0.110200  1.0  -0.1471
  C  C113  1  0.032100  0.436100  0.159300  1.0  0.0675
  C  C114  1  0.983000  0.402400  0.229300  1.0  -0.1442
  C  C115  1  0.980500  0.312300  0.246600  1.0  -0.0096
  C  C116  1  0.166300  0.992300  0.419600  1.0  0.7984
  C  C117  1  0.269100  0.982500  0.400300  1.0  -0.17
  C  C118  1  0.318100  0.982900  0.324600  1.0  -0.0448
  C  C119  1  0.410600  0.977800  0.306600  1.0  -0.1304
  C  C120  1  0.464800  0.970200  0.359400  1.0  0.0567
  C  C121  1  0.416100  0.966100  0.433500  1.0  -0.1434
  C  C122  1  0.322600  0.971200  0.452900  1.0  -0.0095
  C  C123  1  0.031700  0.819100  0.499100  1.0  0.7922
  C  C124  1  0.023500  0.724500  0.497900  1.0  -0.1582
  C  C125  1  0.052300  0.646100  0.554400  1.0  -0.0377
  C  C126  1  0.045300  0.558500  0.553800  1.0  -0.1419
  C  C127  1  0.005700  0.546900  0.499000  1.0  0.0484
  C  C128  1  0.981100  0.624300  0.442500  1.0  -0.1352
  C  C129  1  0.987400  0.711800  0.442300  1.0  -0.0411
  C  C130  1  0.850300  0.984100  0.285800  1.0  0.8106
  C  C131  1  0.752200  0.975800  0.304600  1.0  -0.1785
  C  C132  1  0.720900  0.925900  0.372000  1.0  -0.0299
  C  C133  1  0.629800  0.920200  0.389800  1.0  -0.1488
  C  C134  1  0.563900  0.967900  0.340700  1.0  0.069
  C  C135  1  0.597600  0.017000  0.270700  1.0  -0.1444
  C  C136  1  0.687700  0.019500  0.253400  1.0  -0.011
  O  O137  1  0.986800  0.129000  0.987300  1.0  -0.8239
  O  O138  1  0.960760  0.896560  0.839000  1.0  -0.753
  O  O139  1  0.832600  0.044000  0.060300  1.0  -0.7641
  O  O140  1  0.019500  0.875900  0.720900  1.0  -0.7625
  O  O141  1  0.989500  0.880100  0.133400  1.0  -0.6683
  O  O142  1  0.877700  0.024500  0.940500  1.0  -0.6992
  O  O143  1  0.871000  0.013200  0.512700  1.0  -0.8195
  O  O144  1  0.103440  0.039240  0.661000  1.0  -0.7525
  O  O145  1  0.956000  0.167400  0.439700  1.0  -0.7583
  O  O146  1  0.124100  0.980500  0.779100  1.0  -0.7616
  O  O147  1  0.119900  0.010500  0.366600  1.0  -0.6689
  O  O148  1  0.975500  0.122300  0.559500  1.0  -0.7012
  O  O149  1  0.013200  0.871000  0.012700  1.0  -0.8214
  O  O150  1  0.039240  0.103440  0.161000  1.0  -0.7511
  O  O151  1  0.167400  0.956000  0.939700  1.0  -0.7628
  O  O152  1  0.980500  0.124100  0.279100  1.0  -0.7623
  O  O153  1  0.010500  0.119900  0.866600  1.0  -0.6695
  O  O154  1  0.122300  0.975500  0.059500  1.0  -0.6988
  O  O155  1  0.129000  0.986800  0.487300  1.0  -0.8231
  O  O156  1  0.896560  0.960760  0.339000  1.0  -0.7522
  O  O157  1  0.044000  0.832600  0.560300  1.0  -0.7616
  O  O158  1  0.875900  0.019500  0.220900  1.0  -0.7606
  O  O159  1  0.880100  0.989500  0.633400  1.0  -0.6693
  O  O160  1  0.024500  0.877700  0.440500  1.0  -0.7002
