# generated using pymatgen
data_ErH12(C7O2)3
_symmetry_space_group_name_H-M   'P 1'
_cell_length_a   15.20400000
_cell_length_b   15.20400000
_cell_length_c   18.53540000
_cell_angle_alpha   76.27240000
_cell_angle_beta   76.27240000
_cell_angle_gamma   68.39320000
_symmetry_Int_Tables_number   1
_chemical_formula_structural   ErH12(C7O2)3
_chemical_formula_sum   'Er4 H48 C84 O24'
_cell_volume   3816.12225152
_cell_formula_units_Z   4
loop_
 _symmetry_equiv_pos_site_id
 _symmetry_equiv_pos_as_xyz
  1  'x, y, z'
loop_
 _atom_site_type_symbol
 _atom_site_label
 _atom_site_symmetry_multiplicity
 _atom_site_fract_x
 _atom_site_fract_y
 _atom_site_fract_z
 _atom_site_occupancy
 _atom_site_charge
  Er  Er1  1  0.043430  0.962150  0.104550  1.0  1.5161
  Er  Er2  1  0.037850  0.956570  0.395450  1.0  1.5152
  Er  Er3  1  0.956570  0.037850  0.895450  1.0  1.5164
  Er  Er4  1  0.962150  0.043430  0.604550  1.0  1.5163
  H  H5  1  0.077500  0.654300  0.093300  1.0  0.0991
  H  H6  1  0.068600  0.507000  0.091300  1.0  0.1088
  H  H7  1  0.953300  0.617100  0.904100  1.0  0.1178
  H  H8  1  0.973600  0.760800  0.902200  1.0  0.1079
  H  H9  1  0.292900  0.970100  0.005000  1.0  0.1017
  H  H10  1  0.454100  0.956100  0.972400  1.0  0.104
  H  H11  1  0.440600  0.978800  0.757200  1.0  0.1064
  H  H12  1  0.282600  0.987400  0.788900  1.0  0.1123
  H  H13  1  0.765900  0.892100  0.906400  1.0  0.1093
  H  H14  1  0.613000  0.884400  0.936200  1.0  0.1179
  H  H15  1  0.555000  0.045200  0.735300  1.0  0.1154
  H  H16  1  0.711000  0.048600  0.705300  1.0  0.1013
  H  H17  1  0.345700  0.922500  0.406700  1.0  0.1003
  H  H18  1  0.493000  0.931400  0.408700  1.0  0.1113
  H  H19  1  0.382900  0.046700  0.595900  1.0  0.1171
  H  H20  1  0.239200  0.026400  0.597800  1.0  0.1082
  H  H21  1  0.029900  0.707100  0.495000  1.0  0.1025
  H  H22  1  0.043900  0.545900  0.527600  1.0  0.1036
  H  H23  1  0.021200  0.559400  0.742800  1.0  0.1056
  H  H24  1  0.012600  0.717400  0.711100  1.0  0.1123
  H  H25  1  0.107900  0.234100  0.593600  1.0  0.1088
  H  H26  1  0.115600  0.387000  0.563800  1.0  0.117
  H  H27  1  0.954800  0.445000  0.764700  1.0  0.114
  H  H28  1  0.951400  0.289000  0.794700  1.0  0.0997
  H  H29  1  0.922500  0.345700  0.906700  1.0  0.1
  H  H30  1  0.931400  0.493000  0.908700  1.0  0.1095
  H  H31  1  0.046700  0.382900  0.095900  1.0  0.1168
  H  H32  1  0.026400  0.239200  0.097800  1.0  0.1086
  H  H33  1  0.707100  0.029900  0.995000  1.0  0.1026
  H  H34  1  0.545900  0.043900  0.027600  1.0  0.1026
  H  H35  1  0.559400  0.021200  0.242800  1.0  0.1061
  H  H36  1  0.717400  0.012600  0.211100  1.0  0.1124
  H  H37  1  0.234100  0.107900  0.093600  1.0  0.1102
  H  H38  1  0.387000  0.115600  0.063800  1.0  0.1174
  H  H39  1  0.445000  0.954800  0.264700  1.0  0.1147
  H  H40  1  0.289000  0.951400  0.294700  1.0  0.1008
  H  H41  1  0.654300  0.077500  0.593300  1.0  0.1001
  H  H42  1  0.507000  0.068600  0.591300  1.0  0.1093
  H  H43  1  0.617100  0.953300  0.404100  1.0  0.117
  H  H44  1  0.760800  0.973600  0.402200  1.0  0.1079
  H  H45  1  0.970100  0.292900  0.505000  1.0  0.1022
  H  H46  1  0.956100  0.454100  0.472400  1.0  0.1009
  H  H47  1  0.978800  0.440600  0.257200  1.0  0.1054
  H  H48  1  0.987400  0.282600  0.288900  1.0  0.1121
  H  H49  1  0.892100  0.765900  0.406400  1.0  0.1092
  H  H50  1  0.884400  0.613000  0.436200  1.0  0.1171
  H  H51  1  0.045200  0.555000  0.235300  1.0  0.1141
  H  H52  1  0.048600  0.711000  0.205300  1.0  0.1004
  C  C53  1  0.031000  0.820000  0.999700  1.0  0.7387
  C  C54  1  0.025000  0.724000  0.998800  1.0  -0.1015
  C  C55  1  0.053100  0.647100  0.054400  1.0  -0.0343
  C  C56  1  0.046100  0.558500  0.054100  1.0  -0.1301
  C  C57  1  0.006000  0.546200  0.999300  1.0  0.0553
  C  C58  1  0.979100  0.623500  0.942500  1.0  -0.1318
  C  C59  1  0.990200  0.710800  0.941900  1.0  -0.0339
  C  C60  1  0.167000  0.992000  0.920800  1.0  0.7293
  C  C61  1  0.270300  0.981700  0.900300  1.0  -0.1254
  C  C62  1  0.322200  0.971800  0.954800  1.0  -0.0361
  C  C63  1  0.419400  0.964400  0.934800  1.0  -0.1311
  C  C64  1  0.464700  0.969100  0.860300  1.0  0.053
  C  C65  1  0.411600  0.977200  0.807500  1.0  -0.1246
  C  C66  1  0.316200  0.982800  0.826300  1.0  -0.0505
  C  C67  1  0.851400  0.983400  0.785100  1.0  0.7358
  C  C68  1  0.753700  0.974100  0.803200  1.0  -0.1392
  C  C69  1  0.723600  0.923200  0.872300  1.0  -0.0338
  C  C70  1  0.631500  0.919100  0.890200  1.0  -0.1324
  C  C71  1  0.566300  0.965500  0.841000  1.0  0.0494
  C  C72  1  0.596800  0.014800  0.769900  1.0  -0.1459
  C  C73  1  0.690600  0.017200  0.752300  1.0  -0.0113
  C  C74  1  0.180000  0.969000  0.500300  1.0  0.734
  C  C75  1  0.276000  0.975000  0.501200  1.0  -0.1013
  C  C76  1  0.352900  0.946900  0.445600  1.0  -0.0354
  C  C77  1  0.441500  0.953900  0.445900  1.0  -0.1289
  C  C78  1  0.453800  0.994000  0.500700  1.0  0.0549
  C  C79  1  0.376500  0.020900  0.557500  1.0  -0.1328
  C  C80  1  0.289200  0.009800  0.558100  1.0  -0.0335
  C  C81  1  0.008000  0.833000  0.579200  1.0  0.7297
  C  C82  1  0.018300  0.729700  0.599700  1.0  -0.1253
  C  C83  1  0.028200  0.677800  0.545200  1.0  -0.0368
  C  C84  1  0.035600  0.580600  0.565200  1.0  -0.1318
  C  C85  1  0.030900  0.535300  0.639700  1.0  0.0521
  C  C86  1  0.022800  0.588400  0.692500  1.0  -0.1258
  C  C87  1  0.017200  0.683800  0.673700  1.0  -0.0467
  C  C88  1  0.016600  0.148600  0.714900  1.0  0.735
  C  C89  1  0.025900  0.246300  0.696800  1.0  -0.1396
  C  C90  1  0.076800  0.276400  0.627700  1.0  -0.0351
  C  C91  1  0.080900  0.368500  0.609800  1.0  -0.1314
  C  C92  1  0.034500  0.433700  0.659000  1.0  0.0463
  C  C93  1  0.985200  0.403200  0.730100  1.0  -0.1483
  C  C94  1  0.982800  0.309400  0.747700  1.0  -0.0117
  C  C95  1  0.969000  0.180000  0.000300  1.0  0.7294
  C  C96  1  0.975000  0.276000  0.001200  1.0  -0.1007
  C  C97  1  0.946900  0.352900  0.945600  1.0  -0.0334
  C  C98  1  0.953900  0.441500  0.945900  1.0  -0.1302
  C  C99  1  0.994000  0.453800  0.000700  1.0  0.0544
  C  C100  1  0.020900  0.376500  0.057500  1.0  -0.1285
  C  C101  1  0.009800  0.289200  0.058100  1.0  -0.0335
  C  C102  1  0.833000  0.008000  0.079200  1.0  0.7281
  C  C103  1  0.729700  0.018300  0.099700  1.0  -0.1261
  C  C104  1  0.677800  0.028200  0.045200  1.0  -0.0356
  C  C105  1  0.580600  0.035600  0.065200  1.0  -0.1317
  C  C106  1  0.535300  0.030900  0.139700  1.0  0.0532
  C  C107  1  0.588400  0.022800  0.192500  1.0  -0.1258
  C  C108  1  0.683800  0.017200  0.173700  1.0  -0.046
  C  C109  1  0.148600  0.016600  0.214900  1.0  0.7371
  C  C110  1  0.246300  0.025900  0.196800  1.0  -0.1388
  C  C111  1  0.276400  0.076800  0.127700  1.0  -0.0348
  C  C112  1  0.368500  0.080900  0.109800  1.0  -0.1335
  C  C113  1  0.433700  0.034500  0.159000  1.0  0.0494
  C  C114  1  0.403200  0.985200  0.230100  1.0  -0.1466
  C  C115  1  0.309400  0.982800  0.247700  1.0  -0.0118
  C  C116  1  0.820000  0.031000  0.499700  1.0  0.721
  C  C117  1  0.724000  0.025000  0.498800  1.0  -0.1013
  C  C118  1  0.647100  0.053100  0.554400  1.0  -0.0352
  C  C119  1  0.558500  0.046100  0.554100  1.0  -0.1304
  C  C120  1  0.546200  0.006000  0.499300  1.0  0.0552
  C  C121  1  0.623500  0.979100  0.442500  1.0  -0.1298
  C  C122  1  0.710800  0.990200  0.441900  1.0  -0.034
  C  C123  1  0.992000  0.167000  0.420800  1.0  0.7284
  C  C124  1  0.981700  0.270300  0.400300  1.0  -0.126
  C  C125  1  0.971800  0.322200  0.454800  1.0  -0.0371
  C  C126  1  0.964400  0.419400  0.434800  1.0  -0.1319
  C  C127  1  0.969100  0.464700  0.360300  1.0  0.0527
  C  C128  1  0.977200  0.411600  0.307500  1.0  -0.1245
  C  C129  1  0.982800  0.316200  0.326300  1.0  -0.0507
  C  C130  1  0.983400  0.851400  0.285100  1.0  0.7354
  C  C131  1  0.974100  0.753700  0.303200  1.0  -0.139
  C  C132  1  0.923200  0.723600  0.372300  1.0  -0.034
  C  C133  1  0.919100  0.631500  0.390200  1.0  -0.1309
  C  C134  1  0.965500  0.566300  0.341000  1.0  0.0472
  C  C135  1  0.014800  0.596800  0.269900  1.0  -0.1487
  C  C136  1  0.017200  0.690600  0.252300  1.0  -0.0115
  O  O137  1  0.042800  0.833600  0.060400  1.0  -0.6496
  O  O138  1  0.975900  0.120900  0.059600  1.0  -0.5838
  O  O139  1  0.129100  0.987100  0.989200  1.0  -0.7004
  O  O140  1  0.121400  0.009800  0.868600  1.0  -0.5955
  O  O141  1  0.900320  0.957920  0.837900  1.0  -0.6479
  O  O142  1  0.878500  0.017300  0.719000  1.0  -0.6281
  O  O143  1  0.166400  0.957200  0.439600  1.0  -0.6544
  O  O144  1  0.879100  0.024100  0.440400  1.0  -0.5813
  O  O145  1  0.012900  0.870900  0.510800  1.0  -0.6979
  O  O146  1  0.990200  0.878600  0.631400  1.0  -0.5937
  O  O147  1  0.042080  0.099680  0.662100  1.0  -0.6469
  O  O148  1  0.982700  0.121500  0.781000  1.0  -0.6309
  O  O149  1  0.957200  0.166400  0.939600  1.0  -0.651
  O  O150  1  0.024100  0.879100  0.940400  1.0  -0.5822
  O  O151  1  0.870900  0.012900  0.010800  1.0  -0.6985
  O  O152  1  0.878600  0.990200  0.131400  1.0  -0.5961
  O  O153  1  0.099680  0.042080  0.162100  1.0  -0.6473
  O  O154  1  0.121500  0.982700  0.281000  1.0  -0.6275
  O  O155  1  0.833600  0.042800  0.560400  1.0  -0.651
  O  O156  1  0.120900  0.975900  0.559600  1.0  -0.5811
  O  O157  1  0.987100  0.129100  0.489200  1.0  -0.7005
  O  O158  1  0.009800  0.121400  0.368600  1.0  -0.5994
  O  O159  1  0.957920  0.900320  0.337900  1.0  -0.6452
  O  O160  1  0.017300  0.878500  0.219000  1.0  -0.6304
