# generated using pymatgen
data_TbH12(C7O2)3
_symmetry_space_group_name_H-M   'P 1'
_cell_length_a   15.29940000
_cell_length_b   15.29940000
_cell_length_c   18.49040000
_cell_angle_alpha   75.71840000
_cell_angle_beta   75.71840000
_cell_angle_gamma   68.13240000
_symmetry_Int_Tables_number   1
_chemical_formula_structural   TbH12(C7O2)3
_chemical_formula_sum   'Tb4 H48 C84 O24'
_cell_volume   3834.42798677
_cell_formula_units_Z   4
loop_
 _symmetry_equiv_pos_site_id
 _symmetry_equiv_pos_as_xyz
  1  'x, y, z'
loop_
 _atom_site_type_symbol
 _atom_site_label
 _atom_site_symmetry_multiplicity
 _atom_site_fract_x
 _atom_site_fract_y
 _atom_site_fract_z
 _atom_site_occupancy
 _atom_site_charge
  Tb  Tb1  1  0.961420  0.043540  0.104040  1.0  2.2818
  Tb  Tb2  1  0.956460  0.038580  0.395960  1.0  2.2815
  Tb  Tb3  1  0.038580  0.956460  0.895960  1.0  2.2816
  Tb  Tb4  1  0.043540  0.961420  0.604040  1.0  2.2836
  H  H5  1  0.015700  0.713100  0.215300  1.0  0.1045
  H  H6  1  0.019200  0.557800  0.245000  1.0  0.101
  H  H7  1  0.034900  0.555900  0.027300  1.0  0.0914
  H  H8  1  0.030700  0.710500  0.997600  1.0  0.0906
  H  H9  1  0.349500  0.920500  0.907100  1.0  0.0875
  H  H10  1  0.494800  0.929800  0.909100  1.0  0.1001
  H  H11  1  0.381400  0.047400  0.096000  1.0  0.106
  H  H12  1  0.238900  0.029700  0.096800  1.0  0.0927
  H  H13  1  0.106300  0.239300  0.091700  1.0  0.0895
  H  H14  1  0.114300  0.392900  0.062800  1.0  0.1049
  H  H15  1  0.953700  0.445300  0.264100  1.0  0.0939
  H  H16  1  0.942900  0.294300  0.292500  1.0  0.0925
  H  H17  1  0.286900  0.984300  0.284700  1.0  0.1047
  H  H18  1  0.442200  0.980800  0.255000  1.0  0.102
  H  H19  1  0.444100  0.965100  0.472700  1.0  0.0923
  H  H20  1  0.289500  0.969300  0.502400  1.0  0.0904
  H  H21  1  0.079500  0.650500  0.592900  1.0  0.0877
  H  H22  1  0.070200  0.505200  0.590900  1.0  0.0984
  H  H23  1  0.952600  0.618600  0.404000  1.0  0.106
  H  H24  1  0.970300  0.761100  0.403200  1.0  0.0926
  H  H25  1  0.760700  0.893700  0.408300  1.0  0.0902
  H  H26  1  0.607100  0.885700  0.437200  1.0  0.106
  H  H27  1  0.554700  0.046300  0.235900  1.0  0.0954
  H  H28  1  0.705700  0.057100  0.207500  1.0  0.0934
  H  H29  1  0.984300  0.286900  0.784700  1.0  0.1049
  H  H30  1  0.980800  0.442200  0.755000  1.0  0.1009
  H  H31  1  0.965100  0.444100  0.972700  1.0  0.0914
  H  H32  1  0.969300  0.289500  0.002400  1.0  0.0905
  H  H33  1  0.650500  0.079500  0.092900  1.0  0.088
  H  H34  1  0.505200  0.070200  0.090900  1.0  0.0991
  H  H35  1  0.618600  0.952600  0.904000  1.0  0.108
  H  H36  1  0.761100  0.970300  0.903200  1.0  0.0925
  H  H37  1  0.893700  0.760700  0.908300  1.0  0.0898
  H  H38  1  0.885700  0.607100  0.937200  1.0  0.1056
  H  H39  1  0.046300  0.554700  0.735900  1.0  0.0943
  H  H40  1  0.057100  0.705700  0.707500  1.0  0.0934
  H  H41  1  0.713100  0.015700  0.715300  1.0  0.1046
  H  H42  1  0.557800  0.019200  0.745000  1.0  0.1018
  H  H43  1  0.555900  0.034900  0.527300  1.0  0.092
  H  H44  1  0.710500  0.030700  0.497600  1.0  0.091
  H  H45  1  0.920500  0.349500  0.407100  1.0  0.0876
  H  H46  1  0.929800  0.494800  0.409100  1.0  0.0987
  H  H47  1  0.047400  0.381400  0.596000  1.0  0.1079
  H  H48  1  0.029700  0.238900  0.596800  1.0  0.0931
  H  H49  1  0.239300  0.106300  0.591700  1.0  0.0904
  H  H50  1  0.392900  0.114300  0.562800  1.0  0.1067
  H  H51  1  0.445300  0.953700  0.764100  1.0  0.0948
  H  H52  1  0.294300  0.942900  0.792500  1.0  0.0927
  C  C53  1  0.008300  0.833300  0.084500  1.0  0.7538
  C  C54  1  0.017200  0.730400  0.103100  1.0  -0.1458
  C  C55  1  0.017900  0.681900  0.177300  1.0  -0.0632
  C  C56  1  0.021600  0.588200  0.194700  1.0  -0.1477
  C  C57  1  0.028900  0.537500  0.140100  1.0  0.0273
  C  C58  1  0.030800  0.587200  0.065700  1.0  -0.1361
  C  C59  1  0.026800  0.680400  0.047900  1.0  -0.0506
  C  C60  1  0.182130  0.968530  0.000300  1.0  0.7777
  C  C61  1  0.276300  0.976500  0.001000  1.0  -0.1054
  C  C62  1  0.355600  0.946200  0.945600  1.0  -0.0584
  C  C63  1  0.442800  0.953000  0.945900  1.0  -0.1398
  C  C64  1  0.453800  0.994200  0.000300  1.0  0.0876
  C  C65  1  0.375500  0.021900  0.057400  1.0  -0.1525
  C  C66  1  0.289500  0.011900  0.057400  1.0  -0.0333
  C  C67  1  0.014660  0.152860  0.212800  1.0  0.7385
  C  C68  1  0.023900  0.249700  0.195400  1.0  -0.1618
  C  C69  1  0.074900  0.280700  0.126400  1.0  -0.0496
  C  C70  1  0.079500  0.373500  0.108800  1.0  -0.1202
  C  C71  1  0.032900  0.436300  0.158800  1.0  0.0032
  C  C72  1  0.983300  0.404500  0.228900  1.0  -0.1478
  C  C73  1  0.977800  0.313400  0.246400  1.0  -0.0417
  C  C74  1  0.166700  0.991700  0.415500  1.0  0.7517
  C  C75  1  0.269600  0.982800  0.396900  1.0  -0.1449
  C  C76  1  0.318100  0.982100  0.322700  1.0  -0.0657
  C  C77  1  0.411800  0.978400  0.305300  1.0  -0.1463
  C  C78  1  0.462500  0.971100  0.359900  1.0  0.0277
  C  C79  1  0.412800  0.969200  0.434300  1.0  -0.135
  C  C80  1  0.319600  0.973200  0.452100  1.0  -0.0478
  C  C81  1  0.031470  0.817870  0.499700  1.0  0.7801
  C  C82  1  0.023500  0.723700  0.499000  1.0  -0.1058
  C  C83  1  0.053800  0.644400  0.554400  1.0  -0.0549
  C  C84  1  0.047000  0.557200  0.554100  1.0  -0.1411
  C  C85  1  0.005800  0.546200  0.499700  1.0  0.0883
  C  C86  1  0.978100  0.624500  0.442600  1.0  -0.1521
  C  C87  1  0.988100  0.710500  0.442600  1.0  -0.0326
  C  C88  1  0.847140  0.985340  0.287200  1.0  0.7414
  C  C89  1  0.750300  0.976100  0.304600  1.0  -0.1643
  C  C90  1  0.719300  0.925100  0.373600  1.0  -0.0486
  C  C91  1  0.626500  0.920500  0.391200  1.0  -0.1223
  C  C92  1  0.563700  0.967100  0.341200  1.0  0.0062
  C  C93  1  0.595500  0.016700  0.271100  1.0  -0.1453
  C  C94  1  0.686600  0.022200  0.253600  1.0  -0.0415
  C  C95  1  0.991700  0.166700  0.915500  1.0  0.7529
  C  C96  1  0.982800  0.269600  0.896900  1.0  -0.1467
  C  C97  1  0.982100  0.318100  0.822700  1.0  -0.0647
  C  C98  1  0.978400  0.411800  0.805300  1.0  -0.1464
  C  C99  1  0.971100  0.462500  0.859900  1.0  0.027
  C  C100  1  0.969200  0.412800  0.934300  1.0  -0.1351
  C  C101  1  0.973200  0.319600  0.952100  1.0  -0.0502
  C  C102  1  0.817870  0.031470  0.999700  1.0  0.7599
  C  C103  1  0.723700  0.023500  0.999000  1.0  -0.1047
  C  C104  1  0.644400  0.053800  0.054400  1.0  -0.0567
  C  C105  1  0.557200  0.047000  0.054100  1.0  -0.1415
  C  C106  1  0.546200  0.005800  0.999700  1.0  0.0877
  C  C107  1  0.624500  0.978100  0.942600  1.0  -0.1495
  C  C108  1  0.710500  0.988100  0.942600  1.0  -0.0325
  C  C109  1  0.985340  0.847140  0.787200  1.0  0.7399
  C  C110  1  0.976100  0.750300  0.804600  1.0  -0.1621
  C  C111  1  0.925100  0.719300  0.873600  1.0  -0.0482
  C  C112  1  0.920500  0.626500  0.891200  1.0  -0.1219
  C  C113  1  0.967100  0.563700  0.841200  1.0  0.0041
  C  C114  1  0.016700  0.595500  0.771100  1.0  -0.1487
  C  C115  1  0.022200  0.686600  0.753600  1.0  -0.0418
  C  C116  1  0.833300  0.008300  0.584500  1.0  0.7516
  C  C117  1  0.730400  0.017200  0.603100  1.0  -0.1448
  C  C118  1  0.681900  0.017900  0.677300  1.0  -0.0635
  C  C119  1  0.588200  0.021600  0.694700  1.0  -0.1478
  C  C120  1  0.537500  0.028900  0.640100  1.0  0.0281
  C  C121  1  0.587200  0.030800  0.565700  1.0  -0.1358
  C  C122  1  0.680400  0.026800  0.547900  1.0  -0.0487
  C  C123  1  0.968530  0.182130  0.500300  1.0  0.7648
  C  C124  1  0.976500  0.276300  0.501000  1.0  -0.1049
  C  C125  1  0.946200  0.355600  0.445600  1.0  -0.0558
  C  C126  1  0.953000  0.442800  0.445900  1.0  -0.142
  C  C127  1  0.994200  0.453800  0.500300  1.0  0.0869
  C  C128  1  0.021900  0.375500  0.557400  1.0  -0.1477
  C  C129  1  0.011900  0.289500  0.557400  1.0  -0.0329
  C  C130  1  0.152860  0.014660  0.712800  1.0  0.7411
  C  C131  1  0.249700  0.023900  0.695400  1.0  -0.1633
  C  C132  1  0.280700  0.074900  0.626400  1.0  -0.049
  C  C133  1  0.373500  0.079500  0.608800  1.0  -0.1221
  C  C134  1  0.436300  0.032900  0.658800  1.0  0.0063
  C  C135  1  0.404500  0.983300  0.728900  1.0  -0.1456
  C  C136  1  0.313400  0.977800  0.746400  1.0  -0.042
  O  O137  1  0.990610  0.877010  0.137600  1.0  -0.6297
  O  O138  1  0.011140  0.875340  0.017000  1.0  -0.7776
  O  O139  1  0.122620  0.975220  0.059800  1.0  -0.7019
  O  O140  1  0.169430  0.956430  0.939300  1.0  -0.7113
  O  O141  1  0.040660  0.104460  0.159600  1.0  -0.6984
  O  O142  1  0.977210  0.127210  0.279100  1.0  -0.7517
  O  O143  1  0.122990  0.009390  0.362400  1.0  -0.6305
  O  O144  1  0.124660  0.988860  0.483000  1.0  -0.7807
  O  O145  1  0.024780  0.877380  0.440200  1.0  -0.705
  O  O146  1  0.043570  0.830570  0.560700  1.0  -0.7102
  O  O147  1  0.895540  0.959340  0.340400  1.0  -0.6997
  O  O148  1  0.872790  0.022790  0.220900  1.0  -0.7487
  O  O149  1  0.009390  0.122990  0.862400  1.0  -0.6311
  O  O150  1  0.988860  0.124660  0.983000  1.0  -0.7803
  O  O151  1  0.877380  0.024780  0.940200  1.0  -0.7026
  O  O152  1  0.830570  0.043570  0.060700  1.0  -0.7113
  O  O153  1  0.959340  0.895540  0.840400  1.0  -0.7001
  O  O154  1  0.022790  0.872790  0.720900  1.0  -0.7508
  O  O155  1  0.877010  0.990610  0.637600  1.0  -0.6315
  O  O156  1  0.875340  0.011140  0.517000  1.0  -0.7794
  O  O157  1  0.975220  0.122620  0.559800  1.0  -0.7042
  O  O158  1  0.956430  0.169430  0.439300  1.0  -0.7111
  O  O159  1  0.104460  0.040660  0.659600  1.0  -0.6994
  O  O160  1  0.127210  0.977210  0.779100  1.0  -0.7504
