# generated using pymatgen
data_YH12(C7O2)3
_symmetry_space_group_name_H-M   'P 1'
_cell_length_a   15.22650000
_cell_length_b   15.22650000
_cell_length_c   18.57990000
_cell_angle_alpha   76.17650000
_cell_angle_beta   76.17650000
_cell_angle_gamma   68.37770000
_symmetry_Int_Tables_number   1
_chemical_formula_structural   YH12(C7O2)3
_chemical_formula_sum   'Y4 H48 C84 O24'
_cell_volume   3833.86908562
_cell_formula_units_Z   4
loop_
 _symmetry_equiv_pos_site_id
 _symmetry_equiv_pos_as_xyz
  1  'x, y, z'
loop_
 _atom_site_type_symbol
 _atom_site_label
 _atom_site_symmetry_multiplicity
 _atom_site_fract_x
 _atom_site_fract_y
 _atom_site_fract_z
 _atom_site_occupancy
 _atom_site_charge
  Y  Y1  1  0.461930  0.543570  0.104600  1.0  2.0858
  Y  Y2  1  0.456430  0.538070  0.395400  1.0  2.0852
  Y  Y3  1  0.538070  0.456430  0.895400  1.0  2.085
  Y  Y4  1  0.543570  0.461930  0.604600  1.0  2.0851
  H  H5  1  0.478860  0.947530  0.745840  1.0  0.0975
  H  H6  1  0.554480  0.045650  0.728720  1.0  0.108
  H  H7  1  0.550410  0.217820  0.694340  1.0  0.0941
  H  H8  1  0.387890  0.272190  0.915460  1.0  0.1056
  H  H9  1  0.379640  0.106070  0.946760  1.0  0.1049
  H  H10  1  0.884240  0.546880  0.107720  1.0  0.0969
  H  H11  1  0.727510  0.530310  0.105900  1.0  0.1112
  H  H12  1  0.848400  0.410200  0.900310  1.0  0.0921
  H  H13  1  0.002580  0.434140  0.898070  1.0  0.0832
  H  H14  1  0.461180  0.958010  0.981230  1.0  0.0948
  H  H15  1  0.465720  0.788390  0.016560  1.0  0.0971
  H  H16  1  0.487000  0.775220  0.779610  1.0  0.114
  H  H17  1  0.052470  0.521140  0.754160  1.0  0.0992
  H  H18  1  0.954350  0.445520  0.771280  1.0  0.1096
  H  H19  1  0.782180  0.449590  0.805660  1.0  0.0951
  H  H20  1  0.727810  0.612110  0.584540  1.0  0.1087
  H  H21  1  0.891740  0.620920  0.552800  1.0  0.1098
  H  H22  1  0.453120  0.115760  0.392280  1.0  0.0961
  H  H23  1  0.469690  0.272490  0.394100  1.0  0.111
  H  H24  1  0.589800  0.151600  0.599690  1.0  0.0942
  H  H25  1  0.565860  0.997420  0.601930  1.0  0.0837
  H  H26  1  0.041990  0.538820  0.518770  1.0  0.0958
  H  H27  1  0.211610  0.534280  0.483440  1.0  0.0982
  H  H28  1  0.224030  0.513030  0.720880  1.0  0.1158
  H  H29  1  0.521140  0.052470  0.254160  1.0  0.0976
  H  H30  1  0.445520  0.954350  0.271280  1.0  0.1086
  H  H31  1  0.449590  0.782180  0.305660  1.0  0.0947
  H  H32  1  0.612110  0.727810  0.084540  1.0  0.106
  H  H33  1  0.620360  0.893930  0.053240  1.0  0.1057
  H  H34  1  0.115760  0.453120  0.892280  1.0  0.101
  H  H35  1  0.272490  0.469690  0.894100  1.0  0.1114
  H  H36  1  0.151600  0.589800  0.099690  1.0  0.0937
  H  H37  1  0.999690  0.567000  0.103150  1.0  0.0824
  H  H38  1  0.538820  0.041990  0.018770  1.0  0.094
  H  H39  1  0.534280  0.211610  0.983440  1.0  0.0965
  H  H40  1  0.513030  0.224030  0.220880  1.0  0.115
  H  H41  1  0.947530  0.478860  0.245840  1.0  0.0985
  H  H42  1  0.045650  0.554480  0.228720  1.0  0.1098
  H  H43  1  0.217820  0.550410  0.194340  1.0  0.0945
  H  H44  1  0.272190  0.387890  0.415460  1.0  0.1088
  H  H45  1  0.108260  0.379080  0.447200  1.0  0.1098
  H  H46  1  0.546880  0.884240  0.607720  1.0  0.1006
  H  H47  1  0.530310  0.727510  0.605900  1.0  0.1097
  H  H48  1  0.410200  0.848400  0.400310  1.0  0.0949
  H  H49  1  0.433000  0.000310  0.396850  1.0  0.0817
  H  H50  1  0.958010  0.461180  0.481230  1.0  0.0951
  H  H51  1  0.788390  0.465720  0.516560  1.0  0.0989
  H  H52  1  0.775970  0.486970  0.279120  1.0  0.1154
  C  C53  1  0.476600  0.912200  0.807400  1.0  -0.1325
  C  C54  1  0.468900  0.963900  0.861100  1.0  0.069
  C  C55  1  0.465000  0.066200  0.841700  1.0  0.0652
  C  C56  1  0.515200  0.097600  0.770200  1.0  -0.1535
  C  C57  1  0.515300  0.190500  0.752500  1.0  -0.041
  C  C58  1  0.473600  0.253200  0.803600  1.0  -0.1372
  C  C59  1  0.425000  0.221800  0.872600  1.0  -0.0658
  C  C60  1  0.420800  0.130200  0.890300  1.0  -0.1398
  C  C61  1  0.482510  0.351110  0.785000  1.0  0.7766
  C  C62  1  0.954300  0.495500  0.000300  1.0  0.0817
  C  C63  1  0.876800  0.519000  0.058500  1.0  -0.1392
  C  C64  1  0.789900  0.509300  0.058200  1.0  -0.0653
  C  C65  1  0.775800  0.475000  0.002100  1.0  -0.1107
  C  C66  1  0.854700  0.444900  0.946000  1.0  -0.0752
  C  C67  1  0.939800  0.456600  0.945200  1.0  -0.1368
  C  C68  1  0.680500  0.468700  0.000200  1.0  0.7718
  C  C69  1  0.466600  0.917800  0.935000  1.0  -0.1458
  C  C70  1  0.470700  0.823500  0.954900  1.0  -0.0478
  C  C71  1  0.480900  0.769700  0.900700  1.0  -0.1284
  C  C72  1  0.481900  0.816100  0.825300  1.0  -0.0424
  C  C73  1  0.508900  0.332300  0.079600  1.0  0.7979
  C  C74  1  0.087800  0.523400  0.692600  1.0  -0.1321
  C  C75  1  0.036100  0.531100  0.638900  1.0  0.0648
  C  C76  1  0.933800  0.535000  0.658300  1.0  0.0625
  C  C77  1  0.902400  0.484800  0.729800  1.0  -0.1527
  C  C78  1  0.809500  0.484700  0.747500  1.0  -0.0399
  C  C79  1  0.746800  0.526400  0.696400  1.0  -0.1372
  C  C80  1  0.778200  0.575000  0.627400  1.0  -0.0628
  C  C81  1  0.869800  0.579200  0.609700  1.0  -0.1434
  C  C82  1  0.648890  0.517490  0.715000  1.0  0.7765
  C  C83  1  0.504500  0.045700  0.499700  1.0  0.0818
  C  C84  1  0.481000  0.123200  0.441500  1.0  -0.1403
  C  C85  1  0.490700  0.210100  0.441800  1.0  -0.0678
  C  C86  1  0.525000  0.224200  0.497900  1.0  -0.1104
  C  C87  1  0.555100  0.145300  0.554000  1.0  -0.0727
  C  C88  1  0.543400  0.060200  0.554800  1.0  -0.1375
  C  C89  1  0.531300  0.319500  0.499800  1.0  0.7753
  C  C90  1  0.082200  0.533400  0.565000  1.0  -0.1338
  C  C91  1  0.176500  0.529300  0.545100  1.0  -0.0581
  C  C92  1  0.230300  0.519100  0.599300  1.0  -0.1365
  C  C93  1  0.183900  0.518100  0.674700  1.0  -0.0398
  C  C94  1  0.667700  0.491100  0.420400  1.0  0.7965
  C  C95  1  0.523400  0.087800  0.192600  1.0  -0.1299
  C  C96  1  0.531100  0.036100  0.138900  1.0  0.0646
  C  C97  1  0.535000  0.933800  0.158300  1.0  0.0664
  C  C98  1  0.484800  0.902400  0.229800  1.0  -0.1528
  C  C99  1  0.484700  0.809500  0.247500  1.0  -0.0405
  C  C100  1  0.526400  0.746800  0.196400  1.0  -0.1357
  C  C101  1  0.575000  0.778200  0.127400  1.0  -0.0636
  C  C102  1  0.579200  0.869800  0.109700  1.0  -0.1393
  C  C103  1  0.517490  0.648890  0.215000  1.0  0.7728
  C  C104  1  0.045700  0.504500  0.999700  1.0  0.0534
  C  C105  1  0.123200  0.481000  0.941500  1.0  -0.1257
  C  C106  1  0.210100  0.490700  0.941800  1.0  -0.0668
  C  C107  1  0.224200  0.525000  0.997900  1.0  -0.1115
  C  C108  1  0.145300  0.555100  0.054000  1.0  -0.0766
  C  C109  1  0.060200  0.543400  0.054800  1.0  -0.1395
  C  C110  1  0.319500  0.531300  0.999800  1.0  0.7709
  C  C111  1  0.533400  0.082200  0.065000  1.0  -0.1469
  C  C112  1  0.529300  0.176500  0.045100  1.0  -0.0489
  C  C113  1  0.519100  0.230300  0.099300  1.0  -0.1389
  C  C114  1  0.518100  0.183900  0.174700  1.0  -0.0388
  C  C115  1  0.491100  0.667700  0.920400  1.0  0.7968
  C  C116  1  0.912200  0.476600  0.307400  1.0  -0.1319
  C  C117  1  0.963900  0.468900  0.361100  1.0  0.069
  C  C118  1  0.066200  0.465000  0.341700  1.0  0.0623
  C  C119  1  0.097600  0.515200  0.270200  1.0  -0.1536
  C  C120  1  0.190500  0.515300  0.252500  1.0  -0.0408
  C  C121  1  0.253200  0.473600  0.303600  1.0  -0.136
  C  C122  1  0.221800  0.425000  0.372600  1.0  -0.0636
  C  C123  1  0.130200  0.420800  0.390300  1.0  -0.1435
  C  C124  1  0.351110  0.482510  0.285000  1.0  0.7755
  C  C125  1  0.495500  0.954300  0.500300  1.0  0.0523
  C  C126  1  0.519000  0.876800  0.558500  1.0  -0.1258
  C  C127  1  0.509300  0.789900  0.558200  1.0  -0.0657
  C  C128  1  0.475000  0.775800  0.502100  1.0  -0.1112
  C  C129  1  0.444900  0.854700  0.446000  1.0  -0.0741
  C  C130  1  0.456600  0.939800  0.445200  1.0  -0.139
  C  C131  1  0.468700  0.680500  0.500200  1.0  0.776
  C  C132  1  0.917800  0.466600  0.435000  1.0  -0.1293
  C  C133  1  0.823500  0.470700  0.454900  1.0  -0.0582
  C  C134  1  0.769700  0.480900  0.400700  1.0  -0.1368
  C  C135  1  0.816100  0.481900  0.325300  1.0  -0.0414
  C  C136  1  0.332300  0.508900  0.579600  1.0  0.7966
  O  O137  1  0.491070  0.379270  0.130700  1.0  -0.6449
  O  O138  1  0.517610  0.377610  0.719300  1.0  -0.7318
  O  O139  1  0.621450  0.476450  0.058800  1.0  -0.6788
  O  O140  1  0.460340  0.397540  0.837600  1.0  -0.7132
  O  O141  1  0.484550  0.630150  0.988700  1.0  -0.7914
  O  O142  1  0.668280  0.455680  0.939100  1.0  -0.7232
  O  O143  1  0.620730  0.508930  0.369300  1.0  -0.6448
  O  O144  1  0.622390  0.482390  0.780700  1.0  -0.7295
  O  O145  1  0.523550  0.378550  0.441200  1.0  -0.6807
  O  O146  1  0.602460  0.539660  0.662400  1.0  -0.714
  O  O147  1  0.369850  0.515450  0.511300  1.0  -0.7893
  O  O148  1  0.544320  0.331720  0.560900  1.0  -0.7218
  O  O149  1  0.508930  0.620730  0.869300  1.0  -0.646
  O  O150  1  0.482390  0.622390  0.280700  1.0  -0.7321
  O  O151  1  0.378550  0.523550  0.941200  1.0  -0.6787
  O  O152  1  0.539660  0.602460  0.162400  1.0  -0.713
  O  O153  1  0.515450  0.369850  0.011300  1.0  -0.7872
  O  O154  1  0.331720  0.544320  0.060900  1.0  -0.7232
  O  O155  1  0.379270  0.491070  0.630700  1.0  -0.6447
  O  O156  1  0.377610  0.517610  0.219300  1.0  -0.7293
  O  O157  1  0.476450  0.621450  0.558800  1.0  -0.6822
  O  O158  1  0.397540  0.460340  0.337600  1.0  -0.7136
  O  O159  1  0.630150  0.484550  0.488700  1.0  -0.7907
  O  O160  1  0.455680  0.668280  0.439100  1.0  -0.7214
