# generated using pymatgen
data_Cu5BH21WC20S3N10
_symmetry_space_group_name_H-M   'P 1'
_cell_length_a   15.16500000
_cell_length_b   26.90700000
_cell_length_c   23.71500000
_cell_angle_alpha   90.00000000
_cell_angle_beta   106.91000000
_cell_angle_gamma   90.00000000
_symmetry_Int_Tables_number   1
_chemical_formula_structural   Cu5BH21WC20S3N10
_chemical_formula_sum   'Cu40 B8 H168 W8 C160 S24 N80'
_cell_volume   9258.38247797
_cell_formula_units_Z   8
loop_
 _symmetry_equiv_pos_site_id
 _symmetry_equiv_pos_as_xyz
  1  'x, y, z'
loop_
 _atom_site_type_symbol
 _atom_site_label
 _atom_site_symmetry_multiplicity
 _atom_site_fract_x
 _atom_site_fract_y
 _atom_site_fract_z
 _atom_site_occupancy
 _atom_site_charge
  Cu  Cu1  1  0.271670  0.550000  0.577220  1.0  0.3482
  Cu  Cu2  1  0.260150  0.656490  0.605100  1.0  0.3603
  Cu  Cu3  1  0.192310  0.623270  0.480640  1.0  0.3673
  Cu  Cu4  1  0.160790  0.768830  0.741640  1.0  0.5266
  Cu  Cu5  1  0.135890  0.396610  0.634950  1.0  0.4958
  Cu  Cu6  1  0.771670  0.050000  0.577220  1.0  0.3482
  Cu  Cu7  1  0.760150  0.156490  0.605100  1.0  0.3603
  Cu  Cu8  1  0.692310  0.123270  0.480640  1.0  0.3673
  Cu  Cu9  1  0.660790  0.268830  0.741640  1.0  0.5266
  Cu  Cu10  1  0.635890  0.896610  0.634950  1.0  0.4958
  Cu  Cu11  1  0.728330  0.550000  0.922780  1.0  0.3496
  Cu  Cu12  1  0.739850  0.656490  0.894900  1.0  0.3569
  Cu  Cu13  1  0.807690  0.623270  0.019360  1.0  0.3661
  Cu  Cu14  1  0.839210  0.768830  0.758360  1.0  0.5265
  Cu  Cu15  1  0.864110  0.396610  0.865050  1.0  0.4967
  Cu  Cu16  1  0.228330  0.050000  0.922780  1.0  0.3496
  Cu  Cu17  1  0.239850  0.156490  0.894900  1.0  0.3569
  Cu  Cu18  1  0.307690  0.123270  0.019360  1.0  0.3661
  Cu  Cu19  1  0.339210  0.268830  0.758360  1.0  0.5265
  Cu  Cu20  1  0.364110  0.896610  0.865050  1.0  0.4967
  Cu  Cu21  1  0.728330  0.450000  0.422780  1.0  0.3488
  Cu  Cu22  1  0.739850  0.343510  0.394900  1.0  0.3556
  Cu  Cu23  1  0.807690  0.376730  0.519360  1.0  0.3657
  Cu  Cu24  1  0.839210  0.231170  0.258360  1.0  0.5276
  Cu  Cu25  1  0.864110  0.603390  0.365050  1.0  0.4968
  Cu  Cu26  1  0.228330  0.950000  0.422780  1.0  0.3488
  Cu  Cu27  1  0.239850  0.843510  0.394900  1.0  0.3556
  Cu  Cu28  1  0.307690  0.876730  0.519360  1.0  0.3657
  Cu  Cu29  1  0.339210  0.731170  0.258360  1.0  0.5276
  Cu  Cu30  1  0.364110  0.103390  0.365050  1.0  0.4968
  Cu  Cu31  1  0.271670  0.450000  0.077220  1.0  0.3493
  Cu  Cu32  1  0.260150  0.343510  0.105100  1.0  0.3596
  Cu  Cu33  1  0.192310  0.376730  0.980640  1.0  0.3666
  Cu  Cu34  1  0.160790  0.231170  0.241640  1.0  0.5274
  Cu  Cu35  1  0.135890  0.603390  0.134950  1.0  0.4963
  Cu  Cu36  1  0.771670  0.950000  0.077220  1.0  0.3493
  Cu  Cu37  1  0.760150  0.843510  0.105100  1.0  0.3596
  Cu  Cu38  1  0.692310  0.876730  0.980640  1.0  0.3666
  Cu  Cu39  1  0.660790  0.731170  0.241640  1.0  0.5274
  Cu  Cu40  1  0.635890  0.103390  0.134950  1.0  0.4963
  B  B41  1  0.584400  0.637600  0.528600  1.0  0.4982
  B  B42  1  0.084400  0.137600  0.528600  1.0  0.4982
  B  B43  1  0.415600  0.637600  0.971400  1.0  0.5009
  B  B44  1  0.915600  0.137600  0.971400  1.0  0.5009
  B  B45  1  0.415600  0.362400  0.471400  1.0  0.5012
  B  B46  1  0.915600  0.862400  0.471400  1.0  0.5012
  B  B47  1  0.584400  0.362400  0.028600  1.0  0.4988
  B  B48  1  0.084400  0.862400  0.028600  1.0  0.4988
  H  H49  1  0.629900  0.479100  0.601100  1.0  0.1053
  H  H50  1  0.414600  0.499900  0.618900  1.0  0.114
  H  H51  1  0.469700  0.454900  0.604100  1.0  0.1102
  H  H52  1  0.392300  0.480500  0.553900  1.0  0.112
  H  H53  1  0.425100  0.662300  0.336100  1.0  0.0983
  H  H54  1  0.745200  0.561700  0.535500  1.0  0.1169
  H  H55  1  0.776800  0.531000  0.594200  1.0  0.1157
  H  H56  1  0.763600  0.588700  0.596400  1.0  0.1199
  H  H57  1  0.371600  0.745500  0.625800  1.0  0.1203
  H  H58  1  0.449900  0.754000  0.684900  1.0  0.125
  H  H59  1  0.402000  0.701900  0.671200  1.0  0.125
  H  H60  1  0.246500  0.616300  0.378300  1.0  0.1267
  H  H61  1  0.258300  0.662000  0.340200  1.0  0.122
  H  H62  1  0.245000  0.670300  0.402700  1.0  0.1235
  H  H63  1  0.602100  0.761700  0.661000  1.0  0.0872
  H  H64  1  0.642200  0.689800  0.426400  1.0  0.1209
  H  H65  1  0.609200  0.662100  0.365800  1.0  0.1171
  H  H66  1  0.655400  0.632200  0.423500  1.0  0.1189
  H  H67  1  0.738700  0.753700  0.607500  1.0  0.124
  H  H68  1  0.714500  0.718000  0.552900  1.0  0.1152
  H  H69  1  0.760500  0.696800  0.616200  1.0  0.1281
  H  H70  1  0.129900  0.979100  0.601100  1.0  0.1053
  H  H71  1  0.914600  0.999900  0.618900  1.0  0.114
  H  H72  1  0.969700  0.954900  0.604100  1.0  0.1102
  H  H73  1  0.892300  0.980500  0.553900  1.0  0.112
  H  H74  1  0.925100  0.162300  0.336100  1.0  0.0983
  H  H75  1  0.245200  0.061700  0.535500  1.0  0.1169
  H  H76  1  0.276800  0.031000  0.594200  1.0  0.1157
  H  H77  1  0.263600  0.088700  0.596400  1.0  0.1199
  H  H78  1  0.871600  0.245500  0.625800  1.0  0.1203
  H  H79  1  0.949900  0.254000  0.684900  1.0  0.125
  H  H80  1  0.902000  0.201900  0.671200  1.0  0.125
  H  H81  1  0.746500  0.116300  0.378300  1.0  0.1267
  H  H82  1  0.758300  0.162000  0.340200  1.0  0.122
  H  H83  1  0.745000  0.170300  0.402700  1.0  0.1235
  H  H84  1  0.102100  0.261700  0.661000  1.0  0.0872
  H  H85  1  0.142200  0.189800  0.426400  1.0  0.1209
  H  H86  1  0.109200  0.162100  0.365800  1.0  0.1171
  H  H87  1  0.155400  0.132200  0.423500  1.0  0.1189
  H  H88  1  0.238700  0.253700  0.607500  1.0  0.124
  H  H89  1  0.214500  0.218000  0.552900  1.0  0.1152
  H  H90  1  0.260500  0.196800  0.616200  1.0  0.1281
  H  H91  1  0.370100  0.479100  0.898900  1.0  0.1048
  H  H92  1  0.585400  0.499900  0.881100  1.0  0.1139
  H  H93  1  0.530300  0.454900  0.895900  1.0  0.1096
  H  H94  1  0.607700  0.480500  0.946100  1.0  0.1136
  H  H95  1  0.574900  0.662300  0.163900  1.0  0.0992
  H  H96  1  0.254800  0.561700  0.964500  1.0  0.1174
  H  H97  1  0.223200  0.531000  0.905800  1.0  0.1152
  H  H98  1  0.236400  0.588700  0.903600  1.0  0.121
  H  H99  1  0.628400  0.745500  0.874200  1.0  0.1199
  H  H100  1  0.550100  0.754000  0.815100  1.0  0.1238
  H  H101  1  0.598000  0.701900  0.828800  1.0  0.1247
  H  H102  1  0.753500  0.616300  0.121700  1.0  0.1273
  H  H103  1  0.741700  0.662000  0.159800  1.0  0.1226
  H  H104  1  0.755000  0.670300  0.097300  1.0  0.1225
  H  H105  1  0.397900  0.761700  0.839000  1.0  0.0874
  H  H106  1  0.357800  0.689800  0.073600  1.0  0.1202
  H  H107  1  0.390800  0.662100  0.134200  1.0  0.1177
  H  H108  1  0.344600  0.632200  0.076500  1.0  0.1197
  H  H109  1  0.261300  0.753700  0.892500  1.0  0.125
  H  H110  1  0.285500  0.718000  0.947100  1.0  0.1164
  H  H111  1  0.239500  0.696800  0.883800  1.0  0.1279
  H  H112  1  0.870100  0.979100  0.898900  1.0  0.1048
  H  H113  1  0.085400  0.999900  0.881100  1.0  0.1139
  H  H114  1  0.030300  0.954900  0.895900  1.0  0.1096
  H  H115  1  0.107700  0.980500  0.946100  1.0  0.1136
  H  H116  1  0.074900  0.162300  0.163900  1.0  0.0992
  H  H117  1  0.754800  0.061700  0.964500  1.0  0.1174
  H  H118  1  0.723200  0.031000  0.905800  1.0  0.1152
  H  H119  1  0.736400  0.088700  0.903600  1.0  0.121
  H  H120  1  0.128400  0.245500  0.874200  1.0  0.1199
  H  H121  1  0.050100  0.254000  0.815100  1.0  0.1238
  H  H122  1  0.098000  0.201900  0.828800  1.0  0.1247
  H  H123  1  0.253500  0.116300  0.121700  1.0  0.1273
  H  H124  1  0.241700  0.162000  0.159800  1.0  0.1226
  H  H125  1  0.255000  0.170300  0.097300  1.0  0.1225
  H  H126  1  0.897900  0.261700  0.839000  1.0  0.0874
  H  H127  1  0.857800  0.189800  0.073600  1.0  0.1202
  H  H128  1  0.890800  0.162100  0.134200  1.0  0.1177
  H  H129  1  0.844600  0.132200  0.076500  1.0  0.1197
  H  H130  1  0.761300  0.253700  0.892500  1.0  0.125
  H  H131  1  0.785500  0.218000  0.947100  1.0  0.1164
  H  H132  1  0.739500  0.196800  0.883800  1.0  0.1279
  H  H133  1  0.370100  0.520900  0.398900  1.0  0.1051
  H  H134  1  0.585400  0.500100  0.381100  1.0  0.1134
  H  H135  1  0.530300  0.545100  0.395900  1.0  0.1103
  H  H136  1  0.607700  0.519500  0.446100  1.0  0.1137
  H  H137  1  0.574900  0.337700  0.663900  1.0  0.0992
  H  H138  1  0.254800  0.438300  0.464500  1.0  0.1175
  H  H139  1  0.223200  0.469000  0.405800  1.0  0.1163
  H  H140  1  0.236400  0.411300  0.403600  1.0  0.1198
  H  H141  1  0.628400  0.254500  0.374200  1.0  0.12
  H  H142  1  0.550100  0.246000  0.315100  1.0  0.1234
  H  H143  1  0.598000  0.298100  0.328800  1.0  0.1247
  H  H144  1  0.753500  0.383700  0.621700  1.0  0.1268
  H  H145  1  0.741700  0.338000  0.659800  1.0  0.1226
  H  H146  1  0.755000  0.329700  0.597300  1.0  0.122
  H  H147  1  0.397900  0.238300  0.339000  1.0  0.0872
  H  H148  1  0.357800  0.310200  0.573600  1.0  0.1206
  H  H149  1  0.390800  0.337900  0.634200  1.0  0.1182
  H  H150  1  0.344600  0.367800  0.576500  1.0  0.1199
  H  H151  1  0.261300  0.246300  0.392500  1.0  0.1255
  H  H152  1  0.285500  0.282000  0.447100  1.0  0.1162
  H  H153  1  0.239500  0.303200  0.383800  1.0  0.1281
  H  H154  1  0.870100  0.020900  0.398900  1.0  0.1051
  H  H155  1  0.085400  0.000100  0.381100  1.0  0.1134
  H  H156  1  0.030300  0.045100  0.395900  1.0  0.1103
  H  H157  1  0.107700  0.019500  0.446100  1.0  0.1137
  H  H158  1  0.074900  0.837700  0.663900  1.0  0.0992
  H  H159  1  0.754800  0.938300  0.464500  1.0  0.1175
  H  H160  1  0.723200  0.969000  0.405800  1.0  0.1163
  H  H161  1  0.736400  0.911300  0.403600  1.0  0.1198
  H  H162  1  0.128400  0.754500  0.374200  1.0  0.12
  H  H163  1  0.050100  0.746000  0.315100  1.0  0.1234
  H  H164  1  0.098000  0.798100  0.328800  1.0  0.1247
  H  H165  1  0.253500  0.883700  0.621700  1.0  0.1268
  H  H166  1  0.241700  0.838000  0.659800  1.0  0.1226
  H  H167  1  0.255000  0.829700  0.597300  1.0  0.122
  H  H168  1  0.897900  0.738300  0.339000  1.0  0.0872
  H  H169  1  0.857800  0.810200  0.573600  1.0  0.1206
  H  H170  1  0.890800  0.837900  0.634200  1.0  0.1182
  H  H171  1  0.844600  0.867800  0.576500  1.0  0.1199
  H  H172  1  0.761300  0.746300  0.392500  1.0  0.1255
  H  H173  1  0.785500  0.782000  0.447100  1.0  0.1162
  H  H174  1  0.739500  0.803200  0.383800  1.0  0.1281
  H  H175  1  0.629900  0.520900  0.101100  1.0  0.1048
  H  H176  1  0.414600  0.500100  0.118900  1.0  0.1142
  H  H177  1  0.469700  0.545100  0.104100  1.0  0.11
  H  H178  1  0.392300  0.519500  0.053900  1.0  0.1123
  H  H179  1  0.425100  0.337700  0.836100  1.0  0.0983
  H  H180  1  0.745200  0.438300  0.035500  1.0  0.1168
  H  H181  1  0.776800  0.469000  0.094200  1.0  0.1165
  H  H182  1  0.763600  0.411300  0.096400  1.0  0.1203
  H  H183  1  0.371600  0.254500  0.125800  1.0  0.1202
  H  H184  1  0.449900  0.246000  0.184900  1.0  0.1248
  H  H185  1  0.402000  0.298100  0.171200  1.0  0.1245
  H  H186  1  0.246500  0.383700  0.878300  1.0  0.1278
  H  H187  1  0.258300  0.338000  0.840200  1.0  0.122
  H  H188  1  0.245000  0.329700  0.902700  1.0  0.1238
  H  H189  1  0.602100  0.238300  0.161000  1.0  0.0874
  H  H190  1  0.642200  0.310200  0.926400  1.0  0.1211
  H  H191  1  0.609200  0.337900  0.865800  1.0  0.1177
  H  H192  1  0.655400  0.367800  0.923500  1.0  0.119
  H  H193  1  0.738700  0.246300  0.107500  1.0  0.1252
  H  H194  1  0.714500  0.282000  0.052900  1.0  0.115
  H  H195  1  0.760500  0.303200  0.116200  1.0  0.1281
  H  H196  1  0.129900  0.020900  0.101100  1.0  0.1048
  H  H197  1  0.914600  0.000100  0.118900  1.0  0.1142
  H  H198  1  0.969700  0.045100  0.104100  1.0  0.11
  H  H199  1  0.892300  0.019500  0.053900  1.0  0.1123
  H  H200  1  0.925100  0.837700  0.836100  1.0  0.0983
  H  H201  1  0.245200  0.938300  0.035500  1.0  0.1168
  H  H202  1  0.276800  0.969000  0.094200  1.0  0.1165
  H  H203  1  0.263600  0.911300  0.096400  1.0  0.1203
  H  H204  1  0.871600  0.754500  0.125800  1.0  0.1202
  H  H205  1  0.949900  0.746000  0.184900  1.0  0.1248
  H  H206  1  0.902000  0.798100  0.171200  1.0  0.1245
  H  H207  1  0.746500  0.883700  0.878300  1.0  0.1278
  H  H208  1  0.758300  0.838000  0.840200  1.0  0.122
  H  H209  1  0.745000  0.829700  0.902700  1.0  0.1238
  H  H210  1  0.102100  0.738300  0.161000  1.0  0.0874
  H  H211  1  0.142200  0.810200  0.926400  1.0  0.1211
  H  H212  1  0.109200  0.837900  0.865800  1.0  0.1177
  H  H213  1  0.155400  0.867800  0.923500  1.0  0.119
  H  H214  1  0.238700  0.746300  0.107500  1.0  0.1252
  H  H215  1  0.214500  0.782000  0.052900  1.0  0.115
  H  H216  1  0.260500  0.803200  0.116200  1.0  0.1281
  W  W217  1  0.368780  0.620420  0.543430  1.0  0.4278
  W  W218  1  0.868780  0.120420  0.543430  1.0  0.4278
  W  W219  1  0.631220  0.620420  0.956570  1.0  0.4246
  W  W220  1  0.131220  0.120420  0.956570  1.0  0.4246
  W  W221  1  0.631220  0.379580  0.456570  1.0  0.4252
  W  W222  1  0.131220  0.879580  0.456570  1.0  0.4252
  W  W223  1  0.368780  0.379580  0.043430  1.0  0.4279
  W  W224  1  0.868780  0.879580  0.043430  1.0  0.4279
  C  C225  1  0.069300  0.619900  0.431000  1.0  -0.0117
  C  C226  1  0.184500  0.456000  0.611400  1.0  0.1081
  C  C227  1  0.219000  0.695200  0.659100  1.0  -0.0222
  C  C228  1  0.642400  0.551300  0.573000  1.0  0.2201
  C  C229  1  0.289300  0.850700  0.812500  1.0  0.0008
  C  C230  1  0.601300  0.509300  0.587900  1.0  -0.1237
  C  C231  1  0.509300  0.520800  0.579000  1.0  0.2127
  C  C232  1  0.623900  0.712100  0.601500  1.0  0.1772
  C  C233  1  0.523400  0.651600  0.416200  1.0  0.1697
  C  C234  1  0.440400  0.486000  0.590000  1.0  -0.4195
  C  C235  1  0.373800  0.647000  0.406700  1.0  0.1952
  C  C236  1  0.437800  0.655400  0.376100  1.0  -0.1712
  C  C237  1  0.493800  0.714500  0.624800  1.0  0.2318
  C  C238  1  0.740800  0.558900  0.575000  1.0  -0.4465
  C  C239  1  0.422900  0.730400  0.654400  1.0  -0.4218
  C  C240  1  0.037300  0.768400  0.747900  1.0  0.073
  C  C241  1  0.271800  0.649100  0.379600  1.0  -0.4191
  C  C242  1  0.579100  0.735600  0.635200  1.0  -0.0905
  C  C243  1  0.615800  0.659600  0.407200  1.0  -0.4342
  C  C244  1  0.717900  0.721000  0.593800  1.0  -0.4299
  C  C245  1  0.569300  0.119900  0.431000  1.0  -0.0117
  C  C246  1  0.684500  0.956000  0.611400  1.0  0.1081
  C  C247  1  0.719000  0.195200  0.659100  1.0  -0.0222
  C  C248  1  0.142400  0.051300  0.573000  1.0  0.2201
  C  C249  1  0.789300  0.350700  0.812500  1.0  0.0008
  C  C250  1  0.101300  0.009300  0.587900  1.0  -0.1237
  C  C251  1  0.009300  0.020800  0.579000  1.0  0.2127
  C  C252  1  0.123900  0.212100  0.601500  1.0  0.1772
  C  C253  1  0.023400  0.151600  0.416200  1.0  0.1697
  C  C254  1  0.940400  0.986000  0.590000  1.0  -0.4195
  C  C255  1  0.873800  0.147000  0.406700  1.0  0.1952
  C  C256  1  0.937800  0.155400  0.376100  1.0  -0.1712
  C  C257  1  0.993800  0.214500  0.624800  1.0  0.2318
  C  C258  1  0.240800  0.058900  0.575000  1.0  -0.4465
  C  C259  1  0.922900  0.230400  0.654400  1.0  -0.4218
  C  C260  1  0.537300  0.268400  0.747900  1.0  0.073
  C  C261  1  0.771800  0.149100  0.379600  1.0  -0.4191
  C  C262  1  0.079100  0.235600  0.635200  1.0  -0.0905
  C  C263  1  0.115800  0.159600  0.407200  1.0  -0.4342
  C  C264  1  0.217900  0.221000  0.593800  1.0  -0.4299
  C  C265  1  0.930700  0.619900  0.069000  1.0  -0.0125
  C  C266  1  0.815500  0.456000  0.888600  1.0  0.1107
  C  C267  1  0.781000  0.695200  0.840900  1.0  -0.0202
  C  C268  1  0.357600  0.551300  0.927000  1.0  0.2221
  C  C269  1  0.710700  0.850700  0.687500  1.0  0.0011
  C  C270  1  0.398700  0.509300  0.912100  1.0  -0.1233
  C  C271  1  0.490700  0.520800  0.921000  1.0  0.2119
  C  C272  1  0.376100  0.712100  0.898500  1.0  0.1766
  C  C273  1  0.476600  0.651600  0.083800  1.0  0.1684
  C  C274  1  0.559600  0.486000  0.910000  1.0  -0.4201
  C  C275  1  0.626200  0.647000  0.093300  1.0  0.195
  C  C276  1  0.562200  0.655400  0.123900  1.0  -0.1722
  C  C277  1  0.506200  0.714500  0.875200  1.0  0.2323
  C  C278  1  0.259200  0.558900  0.925000  1.0  -0.4454
  C  C279  1  0.577100  0.730400  0.845600  1.0  -0.422
  C  C280  1  0.962700  0.768400  0.752100  1.0  0.0734
  C  C281  1  0.728200  0.649100  0.120400  1.0  -0.4196
  C  C282  1  0.420900  0.735600  0.864800  1.0  -0.0887
  C  C283  1  0.384200  0.659600  0.092800  1.0  -0.4331
  C  C284  1  0.282100  0.721000  0.906200  1.0  -0.4288
  C  C285  1  0.430700  0.119900  0.069000  1.0  -0.0125
  C  C286  1  0.315500  0.956000  0.888600  1.0  0.1107
  C  C287  1  0.281000  0.195200  0.840900  1.0  -0.0202
  C  C288  1  0.857600  0.051300  0.927000  1.0  0.2221
  C  C289  1  0.210700  0.350700  0.687500  1.0  0.0011
  C  C290  1  0.898700  0.009300  0.912100  1.0  -0.1233
  C  C291  1  0.990700  0.020800  0.921000  1.0  0.2119
  C  C292  1  0.876100  0.212100  0.898500  1.0  0.1766
  C  C293  1  0.976600  0.151600  0.083800  1.0  0.1684
  C  C294  1  0.059600  0.986000  0.910000  1.0  -0.4201
  C  C295  1  0.126200  0.147000  0.093300  1.0  0.195
  C  C296  1  0.062200  0.155400  0.123900  1.0  -0.1722
  C  C297  1  0.006200  0.214500  0.875200  1.0  0.2323
  C  C298  1  0.759200  0.058900  0.925000  1.0  -0.4454
  C  C299  1  0.077100  0.230400  0.845600  1.0  -0.422
  C  C300  1  0.462700  0.268400  0.752100  1.0  0.0734
  C  C301  1  0.228200  0.149100  0.120400  1.0  -0.4196
  C  C302  1  0.920900  0.235600  0.864800  1.0  -0.0887
  C  C303  1  0.884200  0.159600  0.092800  1.0  -0.4331
  C  C304  1  0.782100  0.221000  0.906200  1.0  -0.4288
  C  C305  1  0.930700  0.380100  0.569000  1.0  -0.0119
  C  C306  1  0.815500  0.544000  0.388600  1.0  0.1099
  C  C307  1  0.781000  0.304800  0.340900  1.0  -0.0203
  C  C308  1  0.357600  0.448700  0.427000  1.0  0.2216
  C  C309  1  0.710700  0.149300  0.187500  1.0  0.0029
  C  C310  1  0.398700  0.490700  0.412100  1.0  -0.1218
  C  C311  1  0.490700  0.479200  0.421000  1.0  0.2109
  C  C312  1  0.376100  0.287900  0.398500  1.0  0.177
  C  C313  1  0.476600  0.348400  0.583800  1.0  0.1681
  C  C314  1  0.559600  0.514000  0.410000  1.0  -0.4207
  C  C315  1  0.626200  0.353000  0.593300  1.0  0.1953
  C  C316  1  0.562200  0.344600  0.623900  1.0  -0.1714
  C  C317  1  0.506200  0.285500  0.375200  1.0  0.2329
  C  C318  1  0.259200  0.441100  0.425000  1.0  -0.4459
  C  C319  1  0.577100  0.269600  0.345600  1.0  -0.4216
  C  C320  1  0.962700  0.231600  0.252100  1.0  0.0735
  C  C321  1  0.728200  0.350900  0.620400  1.0  -0.4197
  C  C322  1  0.420900  0.264400  0.364800  1.0  -0.0897
  C  C323  1  0.384200  0.340400  0.592800  1.0  -0.4333
  C  C324  1  0.282100  0.279000  0.406200  1.0  -0.4292
  C  C325  1  0.430700  0.880100  0.569000  1.0  -0.0119
  C  C326  1  0.315500  0.044000  0.388600  1.0  0.1099
  C  C327  1  0.281000  0.804800  0.340900  1.0  -0.0203
  C  C328  1  0.857600  0.948700  0.427000  1.0  0.2216
  C  C329  1  0.210700  0.649300  0.187500  1.0  0.0029
  C  C330  1  0.898700  0.990700  0.412100  1.0  -0.1218
  C  C331  1  0.990700  0.979200  0.421000  1.0  0.2109
  C  C332  1  0.876100  0.787900  0.398500  1.0  0.177
  C  C333  1  0.976600  0.848400  0.583800  1.0  0.1681
  C  C334  1  0.059600  0.014000  0.410000  1.0  -0.4207
  C  C335  1  0.126200  0.853000  0.593300  1.0  0.1953
  C  C336  1  0.062200  0.844600  0.623900  1.0  -0.1714
  C  C337  1  0.006200  0.785500  0.375200  1.0  0.2329
  C  C338  1  0.759200  0.941100  0.425000  1.0  -0.4459
  C  C339  1  0.077100  0.769600  0.345600  1.0  -0.4216
  C  C340  1  0.462700  0.731600  0.252100  1.0  0.0735
  C  C341  1  0.228200  0.850900  0.620400  1.0  -0.4197
  C  C342  1  0.920900  0.764400  0.364800  1.0  -0.0897
  C  C343  1  0.884200  0.840400  0.592800  1.0  -0.4333
  C  C344  1  0.782100  0.779000  0.406200  1.0  -0.4292
  C  C345  1  0.069300  0.380100  0.931000  1.0  -0.0108
  C  C346  1  0.184500  0.544000  0.111400  1.0  0.1075
  C  C347  1  0.219000  0.304800  0.159100  1.0  -0.0237
  C  C348  1  0.642400  0.448700  0.073000  1.0  0.2203
  C  C349  1  0.289300  0.149300  0.312500  1.0  0.0034
  C  C350  1  0.601300  0.490700  0.087900  1.0  -0.122
  C  C351  1  0.509300  0.479200  0.079000  1.0  0.2128
  C  C352  1  0.623900  0.287900  0.101500  1.0  0.1774
  C  C353  1  0.523400  0.348400  0.916200  1.0  0.1694
  C  C354  1  0.440400  0.514000  0.090000  1.0  -0.4197
  C  C355  1  0.373800  0.353000  0.906700  1.0  0.1953
  C  C356  1  0.437800  0.344600  0.876100  1.0  -0.1712
  C  C357  1  0.493800  0.285500  0.124800  1.0  0.2322
  C  C358  1  0.740800  0.441100  0.075000  1.0  -0.4468
  C  C359  1  0.422900  0.269600  0.154400  1.0  -0.4216
  C  C360  1  0.037300  0.231600  0.247900  1.0  0.0724
  C  C361  1  0.271800  0.350900  0.879600  1.0  -0.4192
  C  C362  1  0.579100  0.264400  0.135200  1.0  -0.0902
  C  C363  1  0.615800  0.340400  0.907200  1.0  -0.4344
  C  C364  1  0.717900  0.279000  0.093800  1.0  -0.4302
  C  C365  1  0.569300  0.880100  0.931000  1.0  -0.0108
  C  C366  1  0.684500  0.044000  0.111400  1.0  0.1075
  C  C367  1  0.719000  0.804800  0.159100  1.0  -0.0237
  C  C368  1  0.142400  0.948700  0.073000  1.0  0.2203
  C  C369  1  0.789300  0.649300  0.312500  1.0  0.0034
  C  C370  1  0.101300  0.990700  0.087900  1.0  -0.122
  C  C371  1  0.009300  0.979200  0.079000  1.0  0.2128
  C  C372  1  0.123900  0.787900  0.101500  1.0  0.1774
  C  C373  1  0.023400  0.848400  0.916200  1.0  0.1694
  C  C374  1  0.940400  0.014000  0.090000  1.0  -0.4197
  C  C375  1  0.873800  0.853000  0.906700  1.0  0.1953
  C  C376  1  0.937800  0.844600  0.876100  1.0  -0.1712
  C  C377  1  0.993800  0.785500  0.124800  1.0  0.2322
  C  C378  1  0.240800  0.941100  0.075000  1.0  -0.4468
  C  C379  1  0.922900  0.769600  0.154400  1.0  -0.4216
  C  C380  1  0.537300  0.731600  0.247900  1.0  0.0724
  C  C381  1  0.771800  0.850900  0.879600  1.0  -0.4192
  C  C382  1  0.079100  0.764400  0.135200  1.0  -0.0902
  C  C383  1  0.115800  0.840400  0.907200  1.0  -0.4344
  C  C384  1  0.217900  0.779000  0.093800  1.0  -0.4302
  S  S385  1  0.283500  0.558220  0.487050  1.0  -0.2161
  S  S386  1  0.371640  0.600230  0.638170  1.0  -0.3131
  S  S387  1  0.274510  0.688860  0.521670  1.0  -0.3053
  S  S388  1  0.783500  0.058220  0.487050  1.0  -0.2161
  S  S389  1  0.871640  0.100230  0.638170  1.0  -0.3131
  S  S390  1  0.774510  0.188860  0.521670  1.0  -0.3053
  S  S391  1  0.716500  0.558220  0.012950  1.0  -0.2171
  S  S392  1  0.628360  0.600230  0.861830  1.0  -0.3105
  S  S393  1  0.725490  0.688860  0.978330  1.0  -0.3045
  S  S394  1  0.216500  0.058220  0.012950  1.0  -0.2171
  S  S395  1  0.128360  0.100230  0.861830  1.0  -0.3105
  S  S396  1  0.225490  0.188860  0.978330  1.0  -0.3045
  S  S397  1  0.716500  0.441780  0.512950  1.0  -0.2156
  S  S398  1  0.628360  0.399770  0.361830  1.0  -0.3109
  S  S399  1  0.725490  0.311140  0.478330  1.0  -0.3034
  S  S400  1  0.216500  0.941780  0.512950  1.0  -0.2156
  S  S401  1  0.128360  0.899770  0.361830  1.0  -0.3109
  S  S402  1  0.225490  0.811140  0.478330  1.0  -0.3034
  S  S403  1  0.283500  0.441780  0.987050  1.0  -0.2152
  S  S404  1  0.371640  0.399770  0.138170  1.0  -0.3128
  S  S405  1  0.274510  0.311140  0.021670  1.0  -0.3041
  S  S406  1  0.783500  0.941780  0.987050  1.0  -0.2152
  S  S407  1  0.871640  0.899770  0.138170  1.0  -0.3128
  S  S408  1  0.774510  0.811140  0.021670  1.0  -0.3041
  N  N409  1  0.575600  0.585500  0.554000  1.0  -0.1097
  N  N410  1  0.485200  0.676700  0.585600  1.0  -0.3842
  N  N411  1  0.511600  0.642900  0.469500  1.0  -0.1305
  N  N412  1  0.492700  0.568500  0.557800  1.0  -0.3699
  N  N413  1  0.216600  0.491800  0.598100  1.0  -0.4142
  N  N414  1  0.418500  0.639500  0.464000  1.0  -0.3338
  N  N415  1  0.567500  0.676100  0.571200  1.0  -0.1198
  N  N416  1  0.241600  0.820800  0.784200  1.0  -0.3793
  N  N417  1  0.995000  0.613600  0.403300  1.0  -0.446
  N  N418  1  0.197900  0.721800  0.692100  1.0  -0.3607
  N  N419  1  0.075600  0.085500  0.554000  1.0  -0.1097
  N  N420  1  0.985200  0.176700  0.585600  1.0  -0.3842
  N  N421  1  0.011600  0.142900  0.469500  1.0  -0.1305
  N  N422  1  0.992700  0.068500  0.557800  1.0  -0.3699
  N  N423  1  0.716600  0.991800  0.598100  1.0  -0.4142
  N  N424  1  0.918500  0.139500  0.464000  1.0  -0.3338
  N  N425  1  0.067500  0.176100  0.571200  1.0  -0.1198
  N  N426  1  0.741600  0.320800  0.784200  1.0  -0.3793
  N  N427  1  0.495000  0.113600  0.403300  1.0  -0.446
  N  N428  1  0.697900  0.221800  0.692100  1.0  -0.3607
  N  N429  1  0.424400  0.585500  0.946000  1.0  -0.1098
  N  N430  1  0.514800  0.676700  0.914400  1.0  -0.3819
  N  N431  1  0.488400  0.642900  0.030500  1.0  -0.1294
  N  N432  1  0.507300  0.568500  0.942200  1.0  -0.3686
  N  N433  1  0.783400  0.491800  0.901900  1.0  -0.4093
  N  N434  1  0.581500  0.639500  0.036000  1.0  -0.3321
  N  N435  1  0.432500  0.676100  0.928800  1.0  -0.1204
  N  N436  1  0.758400  0.820800  0.715800  1.0  -0.3802
  N  N437  1  0.005000  0.613600  0.096700  1.0  -0.4464
  N  N438  1  0.802100  0.721800  0.807900  1.0  -0.3614
  N  N439  1  0.924400  0.085500  0.946000  1.0  -0.1098
  N  N440  1  0.014800  0.176700  0.914400  1.0  -0.3819
  N  N441  1  0.988400  0.142900  0.030500  1.0  -0.1294
  N  N442  1  0.007300  0.068500  0.942200  1.0  -0.3686
  N  N443  1  0.283400  0.991800  0.901900  1.0  -0.4093
  N  N444  1  0.081500  0.139500  0.036000  1.0  -0.3321
  N  N445  1  0.932500  0.176100  0.928800  1.0  -0.1204
  N  N446  1  0.258400  0.320800  0.715800  1.0  -0.3802
  N  N447  1  0.505000  0.113600  0.096700  1.0  -0.4464
  N  N448  1  0.302100  0.221800  0.807900  1.0  -0.3614
  N  N449  1  0.424400  0.414500  0.446000  1.0  -0.1106
  N  N450  1  0.514800  0.323300  0.414400  1.0  -0.3812
  N  N451  1  0.488400  0.357100  0.530500  1.0  -0.1305
  N  N452  1  0.507300  0.431500  0.442200  1.0  -0.3687
  N  N453  1  0.783400  0.508200  0.401900  1.0  -0.4078
  N  N454  1  0.581500  0.360500  0.536000  1.0  -0.3316
  N  N455  1  0.432500  0.323900  0.428800  1.0  -0.1203
  N  N456  1  0.758400  0.179200  0.215800  1.0  -0.3802
  N  N457  1  0.005000  0.386400  0.596700  1.0  -0.4464
  N  N458  1  0.802100  0.278200  0.307900  1.0  -0.3626
  N  N459  1  0.924400  0.914500  0.446000  1.0  -0.1106
  N  N460  1  0.014800  0.823300  0.414400  1.0  -0.3812
  N  N461  1  0.988400  0.857100  0.530500  1.0  -0.1305
  N  N462  1  0.007300  0.931500  0.442200  1.0  -0.3687
  N  N463  1  0.283400  0.008200  0.401900  1.0  -0.4078
  N  N464  1  0.081500  0.860500  0.536000  1.0  -0.3316
  N  N465  1  0.932500  0.823900  0.428800  1.0  -0.1203
  N  N466  1  0.258400  0.679200  0.215800  1.0  -0.3802
  N  N467  1  0.505000  0.886400  0.596700  1.0  -0.4464
  N  N468  1  0.302100  0.778200  0.307900  1.0  -0.3626
  N  N469  1  0.575600  0.414500  0.054000  1.0  -0.1094
  N  N470  1  0.485200  0.323300  0.085600  1.0  -0.383
  N  N471  1  0.511600  0.357100  0.969500  1.0  -0.1314
  N  N472  1  0.492700  0.431500  0.057800  1.0  -0.3691
  N  N473  1  0.216600  0.508200  0.098100  1.0  -0.4117
  N  N474  1  0.418500  0.360500  0.964000  1.0  -0.3332
  N  N475  1  0.567500  0.323900  0.071200  1.0  -0.1198
  N  N476  1  0.241600  0.179200  0.284200  1.0  -0.3793
  N  N477  1  0.995000  0.386400  0.903300  1.0  -0.4462
  N  N478  1  0.197900  0.278200  0.192100  1.0  -0.3613
  N  N479  1  0.075600  0.914500  0.054000  1.0  -0.1094
  N  N480  1  0.985200  0.823300  0.085600  1.0  -0.383
  N  N481  1  0.011600  0.857100  0.969500  1.0  -0.1314
  N  N482  1  0.992700  0.931500  0.057800  1.0  -0.3691
  N  N483  1  0.716600  0.008200  0.098100  1.0  -0.4117
  N  N484  1  0.918500  0.860500  0.964000  1.0  -0.3332
  N  N485  1  0.067500  0.823900  0.071200  1.0  -0.1198
  N  N486  1  0.741600  0.679200  0.284200  1.0  -0.3793
  N  N487  1  0.495000  0.886400  0.903300  1.0  -0.4462
  N  N488  1  0.697900  0.778200  0.192100  1.0  -0.3613
