# generated using pymatgen
data_FeHC4O3
_symmetry_space_group_name_H-M   'P 1'
_cell_length_a   25.87840000
_cell_length_b   25.87840000
_cell_length_c   6.96690000
_cell_angle_alpha   90.00000000
_cell_angle_beta   90.00000000
_cell_angle_gamma   120.00000000
_symmetry_Int_Tables_number   1
_chemical_formula_structural   FeHC4O3
_chemical_formula_sum   'Fe18 H18 C72 O54'
_cell_volume   4040.59248206
_cell_formula_units_Z   18
loop_
 _symmetry_equiv_pos_site_id
 _symmetry_equiv_pos_as_xyz
  1  'x, y, z'
loop_
 _atom_site_type_symbol
 _atom_site_label
 _atom_site_symmetry_multiplicity
 _atom_site_fract_x
 _atom_site_fract_y
 _atom_site_fract_z
 _atom_site_occupancy
 _atom_site_charge
  Fe  Fe1  1  0.387700  0.352300  0.145000  1.0  1.0317
  Fe  Fe2  1  0.054370  0.685630  0.478330  1.0  1.0316
  Fe  Fe3  1  0.721030  0.018970  0.811670  1.0  1.0317
  Fe  Fe4  1  0.647700  0.035400  0.145000  1.0  1.032
  Fe  Fe5  1  0.314370  0.368730  0.478330  1.0  1.0319
  Fe  Fe6  1  0.981030  0.702070  0.811670  1.0  1.0322
  Fe  Fe7  1  0.964600  0.612300  0.145000  1.0  1.0308
  Fe  Fe8  1  0.631270  0.945630  0.478330  1.0  1.0309
  Fe  Fe9  1  0.297930  0.278970  0.811670  1.0  1.0308
  Fe  Fe10  1  0.612300  0.647700  0.855000  1.0  1.0334
  Fe  Fe11  1  0.278970  0.981030  0.188330  1.0  1.0334
  Fe  Fe12  1  0.945630  0.314370  0.521670  1.0  1.0333
  Fe  Fe13  1  0.352300  0.964600  0.855000  1.0  1.0315
  Fe  Fe14  1  0.018970  0.297930  0.188330  1.0  1.0319
  Fe  Fe15  1  0.685630  0.631270  0.521670  1.0  1.0314
  Fe  Fe16  1  0.035400  0.387700  0.855000  1.0  1.0306
  Fe  Fe17  1  0.702070  0.721030  0.188330  1.0  1.0305
  Fe  Fe18  1  0.368730  0.054370  0.521670  1.0  1.0307
  H  H19  1  0.302100  0.138600  0.502000  1.0  0.1238
  H  H20  1  0.968770  0.471930  0.835330  1.0  0.123
  H  H21  1  0.635430  0.805270  0.168670  1.0  0.123
  H  H22  1  0.861400  0.163500  0.502000  1.0  0.122
  H  H23  1  0.528070  0.496830  0.835330  1.0  0.1227
  H  H24  1  0.194730  0.830170  0.168670  1.0  0.1227
  H  H25  1  0.836500  0.697900  0.502000  1.0  0.1239
  H  H26  1  0.503170  0.031230  0.835330  1.0  0.1233
  H  H27  1  0.169830  0.364570  0.168670  1.0  0.1233
  H  H28  1  0.697900  0.861400  0.498000  1.0  0.1242
  H  H29  1  0.364570  0.194730  0.831330  1.0  0.1237
  H  H30  1  0.031230  0.528070  0.164670  1.0  0.1237
  H  H31  1  0.138600  0.836500  0.498000  1.0  0.1231
  H  H32  1  0.805270  0.169830  0.831330  1.0  0.1239
  H  H33  1  0.471930  0.503170  0.164670  1.0  0.1239
  H  H34  1  0.163500  0.302100  0.498000  1.0  0.1251
  H  H35  1  0.830170  0.635430  0.831330  1.0  0.1244
  H  H36  1  0.496830  0.968770  0.164670  1.0  0.1244
  C  C37  1  0.316700  0.247100  0.419300  1.0  0.6613
  C  C38  1  0.325400  0.205500  0.283600  1.0  -0.1334
  C  C39  1  0.343100  0.224800  0.095400  1.0  0.2882
  C  C40  1  0.317100  0.152000  0.349300  1.0  -0.0707
  C  C41  1  0.983370  0.580430  0.752630  1.0  0.6613
  C  C42  1  0.992070  0.538830  0.616930  1.0  -0.1318
  C  C43  1  0.009770  0.558130  0.428730  1.0  0.2878
  C  C44  1  0.983770  0.485330  0.682630  1.0  -0.0735
  C  C45  1  0.650030  0.913770  0.085970  1.0  0.6613
  C  C46  1  0.658730  0.872170  0.950270  1.0  -0.1334
  C  C47  1  0.676430  0.891470  0.762070  1.0  0.2882
  C  C48  1  0.650430  0.818670  0.015970  1.0  -0.0735
  C  C49  1  0.752900  0.069600  0.419300  1.0  0.66
  C  C50  1  0.794500  0.119900  0.283600  1.0  -0.1313
  C  C51  1  0.775200  0.118300  0.095400  1.0  0.2893
  C  C52  1  0.848000  0.165100  0.349300  1.0  -0.0653
  C  C53  1  0.419570  0.402930  0.752630  1.0  0.66
  C  C54  1  0.461170  0.453230  0.616930  1.0  -0.1325
  C  C55  1  0.441870  0.451630  0.428730  1.0  0.2894
  C  C56  1  0.514670  0.498430  0.682630  1.0  -0.0723
  C  C57  1  0.086230  0.736270  0.085970  1.0  0.66
  C  C58  1  0.127830  0.786570  0.950270  1.0  -0.1325
  C  C59  1  0.108530  0.784970  0.762070  1.0  0.2893
  C  C60  1  0.181330  0.831770  0.015970  1.0  -0.0723
  C  C61  1  0.930400  0.683300  0.419300  1.0  0.6605
  C  C62  1  0.880100  0.674600  0.283600  1.0  -0.1336
  C  C63  1  0.881700  0.656900  0.095400  1.0  0.2898
  C  C64  1  0.834900  0.682900  0.349300  1.0  -0.0748
  C  C65  1  0.597070  0.016630  0.752630  1.0  0.6605
  C  C66  1  0.546770  0.007930  0.616930  1.0  -0.1336
  C  C67  1  0.548370  0.990230  0.428730  1.0  0.2903
  C  C68  1  0.501570  0.016230  0.682630  1.0  -0.0742
  C  C69  1  0.263730  0.349970  0.085970  1.0  0.6605
  C  C70  1  0.213430  0.341270  0.950270  1.0  -0.1324
  C  C71  1  0.215030  0.323570  0.762070  1.0  0.2898
  C  C72  1  0.168230  0.349570  0.015970  1.0  -0.0741
  C  C73  1  0.683300  0.752900  0.580700  1.0  0.6602
  C  C74  1  0.674600  0.794500  0.716400  1.0  -0.1331
  C  C75  1  0.656900  0.775200  0.904600  1.0  0.2869
  C  C76  1  0.682900  0.848000  0.650700  1.0  -0.0704
  C  C77  1  0.349970  0.086230  0.914030  1.0  0.6602
  C  C78  1  0.341270  0.127830  0.049730  1.0  -0.1331
  C  C79  1  0.323570  0.108530  0.237930  1.0  0.2869
  C  C80  1  0.349570  0.181330  0.984030  1.0  -0.0732
  C  C81  1  0.016630  0.419570  0.247370  1.0  0.6602
  C  C82  1  0.007930  0.461170  0.383070  1.0  -0.1316
  C  C83  1  0.990230  0.441870  0.571270  1.0  0.2865
  C  C84  1  0.016230  0.514670  0.317370  1.0  -0.0731
  C  C85  1  0.247100  0.930400  0.580700  1.0  0.661
  C  C86  1  0.205500  0.880100  0.716400  1.0  -0.1315
  C  C87  1  0.224800  0.881700  0.904600  1.0  0.2893
  C  C88  1  0.152000  0.834900  0.650700  1.0  -0.0662
  C  C89  1  0.913770  0.263730  0.914030  1.0  0.661
  C  C90  1  0.872170  0.213430  0.049730  1.0  -0.1327
  C  C91  1  0.891470  0.215030  0.237930  1.0  0.2893
  C  C92  1  0.818670  0.168230  0.984030  1.0  -0.0735
  C  C93  1  0.580430  0.597070  0.247370  1.0  0.661
  C  C94  1  0.538830  0.546770  0.383070  1.0  -0.1327
  C  C95  1  0.558130  0.548370  0.571270  1.0  0.2893
  C  C96  1  0.485330  0.501570  0.317370  1.0  -0.0735
  C  C97  1  0.069600  0.316700  0.580700  1.0  0.6594
  C  C98  1  0.119900  0.325400  0.716400  1.0  -0.1337
  C  C99  1  0.118300  0.343100  0.904600  1.0  0.2871
  C  C100  1  0.165100  0.317100  0.650700  1.0  -0.0747
  C  C101  1  0.736270  0.650030  0.914030  1.0  0.6594
  C  C102  1  0.786570  0.658730  0.049730  1.0  -0.1325
  C  C103  1  0.784970  0.676430  0.237930  1.0  0.2871
  C  C104  1  0.831770  0.650430  0.984030  1.0  -0.0742
  C  C105  1  0.402930  0.983370  0.247370  1.0  0.6594
  C  C106  1  0.453230  0.992070  0.383070  1.0  -0.1337
  C  C107  1  0.451630  0.009770  0.571270  1.0  0.2875
  C  C108  1  0.498430  0.983770  0.317370  1.0  -0.0742
  O  O109  1  0.318300  0.293900  0.348800  1.0  -0.6328
  O  O110  1  0.304400  0.227500  0.595200  1.0  -0.598
  O  O111  1  0.355800  0.274800  0.006300  1.0  -0.6658
  O  O112  1  0.984970  0.627230  0.682130  1.0  -0.633
  O  O113  1  0.971070  0.560830  0.928530  1.0  -0.598
  O  O114  1  0.022470  0.608130  0.339630  1.0  -0.6657
  O  O115  1  0.651630  0.960570  0.015470  1.0  -0.6328
  O  O116  1  0.637730  0.894170  0.261870  1.0  -0.5979
  O  O117  1  0.689130  0.941470  0.672970  1.0  -0.6654
  O  O118  1  0.706100  0.024400  0.348800  1.0  -0.6351
  O  O119  1  0.772500  0.076900  0.595200  1.0  -0.5987
  O  O120  1  0.725200  0.081000  0.006300  1.0  -0.6667
  O  O121  1  0.372770  0.357730  0.682130  1.0  -0.6349
  O  O122  1  0.439170  0.410230  0.928530  1.0  -0.5985
  O  O123  1  0.391870  0.414330  0.339630  1.0  -0.667
  O  O124  1  0.039430  0.691070  0.015470  1.0  -0.6351
  O  O125  1  0.105830  0.743570  0.261870  1.0  -0.5987
  O  O126  1  0.058530  0.747670  0.672970  1.0  -0.6672
  O  O127  1  0.975600  0.681700  0.348800  1.0  -0.6351
  O  O128  1  0.923100  0.695600  0.595200  1.0  -0.5986
  O  O129  1  0.919000  0.644200  0.006300  1.0  -0.6663
  O  O130  1  0.642270  0.015030  0.682130  1.0  -0.6349
  O  O131  1  0.589770  0.028930  0.928530  1.0  -0.5986
  O  O132  1  0.585670  0.977530  0.339630  1.0  -0.6665
  O  O133  1  0.308930  0.348370  0.015470  1.0  -0.6351
  O  O134  1  0.256430  0.362270  0.261870  1.0  -0.5987
  O  O135  1  0.252330  0.310870  0.672970  1.0  -0.6661
  O  O136  1  0.681700  0.706100  0.651200  1.0  -0.6339
  O  O137  1  0.695600  0.772500  0.404800  1.0  -0.5982
  O  O138  1  0.644200  0.725200  0.993700  1.0  -0.6666
  O  O139  1  0.348370  0.039430  0.984530  1.0  -0.6339
  O  O140  1  0.362270  0.105830  0.738130  1.0  -0.598
  O  O141  1  0.310870  0.058530  0.327030  1.0  -0.6663
  O  O142  1  0.015030  0.372770  0.317870  1.0  -0.6341
  O  O143  1  0.028930  0.439170  0.071470  1.0  -0.5982
  O  O144  1  0.977530  0.391870  0.660370  1.0  -0.6666
  O  O145  1  0.293900  0.975600  0.651200  1.0  -0.6366
  O  O146  1  0.227500  0.923100  0.404800  1.0  -0.5993
  O  O147  1  0.274800  0.919000  0.993700  1.0  -0.6637
  O  O148  1  0.960570  0.308930  0.984530  1.0  -0.6366
  O  O149  1  0.894170  0.256430  0.738130  1.0  -0.5994
  O  O150  1  0.941470  0.252330  0.327030  1.0  -0.6641
  O  O151  1  0.627230  0.642270  0.317870  1.0  -0.6364
  O  O152  1  0.560830  0.589770  0.071470  1.0  -0.5992
  O  O153  1  0.608130  0.585670  0.660370  1.0  -0.664
  O  O154  1  0.024400  0.318300  0.651200  1.0  -0.6338
  O  O155  1  0.076900  0.304400  0.404800  1.0  -0.5993
  O  O156  1  0.081000  0.355800  0.993700  1.0  -0.665
  O  O157  1  0.691070  0.651630  0.984530  1.0  -0.6338
  O  O158  1  0.743570  0.637730  0.738130  1.0  -0.5994
  O  O159  1  0.747670  0.689130  0.327030  1.0  -0.6648
  O  O160  1  0.357730  0.984970  0.317870  1.0  -0.6337
  O  O161  1  0.410230  0.971070  0.071470  1.0  -0.5993
  O  O162  1  0.414330  0.022470  0.660370  1.0  -0.6652
