# generated using pymatgen
data_FeHC4O3
_symmetry_space_group_name_H-M   'P 1'
_cell_length_a   25.92020000
_cell_length_b   25.92020000
_cell_length_c   6.95050000
_cell_angle_alpha   90.00000000
_cell_angle_beta   90.00000000
_cell_angle_gamma   120.00000000
_symmetry_Int_Tables_number   1
_chemical_formula_structural   FeHC4O3
_chemical_formula_sum   'Fe18 H18 C72 O54'
_cell_volume   4044.11387286
_cell_formula_units_Z   18
loop_
 _symmetry_equiv_pos_site_id
 _symmetry_equiv_pos_as_xyz
  1  'x, y, z'
loop_
 _atom_site_type_symbol
 _atom_site_label
 _atom_site_symmetry_multiplicity
 _atom_site_fract_x
 _atom_site_fract_y
 _atom_site_fract_z
 _atom_site_occupancy
 _atom_site_charge
  Fe  Fe1  1  0.386170  0.351470  0.148500  1.0  1.0175
  Fe  Fe2  1  0.052840  0.684800  0.481830  1.0  1.0173
  Fe  Fe3  1  0.719500  0.018140  0.815170  1.0  1.0175
  Fe  Fe4  1  0.648530  0.034700  0.148500  1.0  1.0178
  Fe  Fe5  1  0.315200  0.368030  0.481830  1.0  1.0173
  Fe  Fe6  1  0.981860  0.701370  0.815170  1.0  1.0175
  Fe  Fe7  1  0.965300  0.613830  0.148500  1.0  1.0165
  Fe  Fe8  1  0.631970  0.947160  0.481830  1.0  1.0162
  Fe  Fe9  1  0.298630  0.280500  0.815170  1.0  1.0164
  Fe  Fe10  1  0.613830  0.648530  0.851500  1.0  1.0152
  Fe  Fe11  1  0.280500  0.981860  0.184830  1.0  1.0153
  Fe  Fe12  1  0.947160  0.315200  0.518170  1.0  1.015
  Fe  Fe13  1  0.351470  0.965300  0.851500  1.0  1.0187
  Fe  Fe14  1  0.018140  0.298630  0.184830  1.0  1.0185
  Fe  Fe15  1  0.684800  0.631970  0.518170  1.0  1.0183
  Fe  Fe16  1  0.034700  0.386170  0.851500  1.0  1.0155
  Fe  Fe17  1  0.701370  0.719500  0.184830  1.0  1.0155
  Fe  Fe18  1  0.368030  0.052840  0.518170  1.0  1.0153
  H  H19  1  0.306300  0.142000  0.508400  1.0  0.1198
  H  H20  1  0.972970  0.475330  0.841730  1.0  0.1196
  H  H21  1  0.639630  0.808670  0.175070  1.0  0.1196
  H  H22  1  0.858000  0.164300  0.508400  1.0  0.1196
  H  H23  1  0.524670  0.497630  0.841730  1.0  0.1194
  H  H24  1  0.191330  0.830970  0.175070  1.0  0.1195
  H  H25  1  0.835700  0.693700  0.508400  1.0  0.1198
  H  H26  1  0.502370  0.027030  0.841730  1.0  0.1196
  H  H27  1  0.169030  0.360370  0.175070  1.0  0.1196
  H  H28  1  0.693700  0.858000  0.491600  1.0  0.1196
  H  H29  1  0.360370  0.191330  0.824930  1.0  0.1194
  H  H30  1  0.027030  0.524670  0.158270  1.0  0.1194
  H  H31  1  0.142000  0.835700  0.491600  1.0  0.1195
  H  H32  1  0.808670  0.169030  0.824930  1.0  0.1192
  H  H33  1  0.475330  0.502370  0.158270  1.0  0.1192
  H  H34  1  0.164300  0.306300  0.491600  1.0  0.1199
  H  H35  1  0.830970  0.639630  0.824930  1.0  0.1196
  H  H36  1  0.497630  0.972970  0.158270  1.0  0.1196
  C  C37  1  0.314090  0.245800  0.423300  1.0  0.7235
  C  C38  1  0.327610  0.205930  0.282200  1.0  -0.175
  C  C39  1  0.343500  0.221390  0.091200  1.0  0.3435
  C  C40  1  0.315630  0.152320  0.360500  1.0  -0.1774
  C  C41  1  0.980760  0.579130  0.756630  1.0  0.7235
  C  C42  1  0.994280  0.539260  0.615530  1.0  -0.175
  C  C43  1  0.010170  0.554720  0.424530  1.0  0.3433
  C  C44  1  0.982300  0.485650  0.693830  1.0  -0.1784
  C  C45  1  0.647420  0.912470  0.089970  1.0  0.7235
  C  C46  1  0.660940  0.872600  0.948870  1.0  -0.1749
  C  C47  1  0.676830  0.888060  0.757870  1.0  0.3435
  C  C48  1  0.648960  0.818990  0.027170  1.0  -0.1781
  C  C49  1  0.754200  0.068290  0.423300  1.0  0.7245
  C  C50  1  0.794070  0.121680  0.282200  1.0  -0.1746
  C  C51  1  0.778610  0.122110  0.091200  1.0  0.3442
  C  C52  1  0.847680  0.163310  0.360500  1.0  -0.1743
  C  C53  1  0.420870  0.401620  0.756630  1.0  0.7245
  C  C54  1  0.460740  0.455010  0.615530  1.0  -0.1741
  C  C55  1  0.445280  0.455440  0.424530  1.0  0.3444
  C  C56  1  0.514350  0.496640  0.693830  1.0  -0.1781
  C  C57  1  0.087530  0.734960  0.089970  1.0  0.7245
  C  C58  1  0.127400  0.788350  0.948870  1.0  -0.1744
  C  C59  1  0.111940  0.788780  0.757870  1.0  0.3442
  C  C60  1  0.181010  0.829980  0.027170  1.0  -0.1785
  C  C61  1  0.931710  0.685910  0.423300  1.0  0.7237
  C  C62  1  0.878320  0.672390  0.282200  1.0  -0.174
  C  C63  1  0.877890  0.656500  0.091200  1.0  0.3454
  C  C64  1  0.836690  0.684370  0.360500  1.0  -0.1778
  C  C65  1  0.598380  0.019240  0.756630  1.0  0.7237
  C  C66  1  0.544990  0.005720  0.615530  1.0  -0.1742
  C  C67  1  0.544560  0.989830  0.424530  1.0  0.3455
  C  C68  1  0.503360  0.017700  0.693830  1.0  -0.1783
  C  C69  1  0.265040  0.352580  0.089970  1.0  0.7237
  C  C70  1  0.211650  0.339060  0.948870  1.0  -0.1742
  C  C71  1  0.211220  0.323170  0.757870  1.0  0.3453
  C  C72  1  0.170020  0.351040  0.027170  1.0  -0.1781
  C  C73  1  0.685910  0.754200  0.576700  1.0  0.7227
  C  C74  1  0.672390  0.794070  0.717800  1.0  -0.1754
  C  C75  1  0.656500  0.778610  0.908800  1.0  0.3481
  C  C76  1  0.684370  0.847680  0.639500  1.0  -0.1802
  C  C77  1  0.352580  0.087530  0.910030  1.0  0.7227
  C  C78  1  0.339060  0.127400  0.051130  1.0  -0.1753
  C  C79  1  0.323170  0.111940  0.242130  1.0  0.3481
  C  C80  1  0.351040  0.181010  0.972830  1.0  -0.181
  C  C81  1  0.019240  0.420870  0.243370  1.0  0.7227
  C  C82  1  0.005720  0.460740  0.384470  1.0  -0.1754
  C  C83  1  0.989830  0.445280  0.575470  1.0  0.3479
  C  C84  1  0.017700  0.514350  0.306170  1.0  -0.1813
  C  C85  1  0.245800  0.931710  0.576700  1.0  0.7244
  C  C86  1  0.205930  0.878320  0.717800  1.0  -0.1746
  C  C87  1  0.221390  0.877890  0.908800  1.0  0.3486
  C  C88  1  0.152320  0.836690  0.639500  1.0  -0.1783
  C  C89  1  0.912470  0.265040  0.910030  1.0  0.7244
  C  C90  1  0.872600  0.211650  0.051130  1.0  -0.1744
  C  C91  1  0.888060  0.211220  0.242130  1.0  0.3486
  C  C92  1  0.818990  0.170020  0.972830  1.0  -0.1824
  C  C93  1  0.579130  0.598380  0.243370  1.0  0.7244
  C  C94  1  0.539260  0.544990  0.384470  1.0  -0.1741
  C  C95  1  0.554720  0.544560  0.575470  1.0  0.3488
  C  C96  1  0.485650  0.503360  0.306170  1.0  -0.182
  C  C97  1  0.068290  0.314090  0.576700  1.0  0.7225
  C  C98  1  0.121680  0.327610  0.717800  1.0  -0.1751
  C  C99  1  0.122110  0.343500  0.908800  1.0  0.3475
  C  C100  1  0.163310  0.315630  0.639500  1.0  -0.1808
  C  C101  1  0.734960  0.647420  0.910030  1.0  0.7225
  C  C102  1  0.788350  0.660940  0.051130  1.0  -0.1752
  C  C103  1  0.788780  0.676830  0.242130  1.0  0.3474
  C  C104  1  0.829980  0.648960  0.972830  1.0  -0.1811
  C  C105  1  0.401620  0.980760  0.243370  1.0  0.7225
  C  C106  1  0.455010  0.994280  0.384470  1.0  -0.1753
  C  C107  1  0.455440  0.010170  0.575470  1.0  0.3476
  C  C108  1  0.496640  0.982300  0.306170  1.0  -0.1813
  O  O109  1  0.318420  0.292220  0.347500  1.0  -0.638
  O  O110  1  0.302580  0.226470  0.591500  1.0  -0.5773
  O  O111  1  0.352860  0.271090  0.009400  1.0  -0.6376
  O  O112  1  0.985090  0.625550  0.680830  1.0  -0.638
  O  O113  1  0.969250  0.559800  0.924830  1.0  -0.5772
  O  O114  1  0.019530  0.604420  0.342730  1.0  -0.6376
  O  O115  1  0.651750  0.958890  0.014170  1.0  -0.638
  O  O116  1  0.635910  0.893140  0.258170  1.0  -0.5772
  O  O117  1  0.686190  0.937760  0.676070  1.0  -0.6376
  O  O118  1  0.707780  0.026200  0.347500  1.0  -0.6398
  O  O119  1  0.773530  0.076110  0.591500  1.0  -0.5778
  O  O120  1  0.728910  0.081770  0.009400  1.0  -0.6376
  O  O121  1  0.374450  0.359530  0.680830  1.0  -0.6398
  O  O122  1  0.440200  0.409440  0.924830  1.0  -0.5778
  O  O123  1  0.395580  0.415100  0.342730  1.0  -0.6376
  O  O124  1  0.041110  0.692870  0.014170  1.0  -0.6398
  O  O125  1  0.106860  0.742780  0.258170  1.0  -0.5779
  O  O126  1  0.062240  0.748440  0.676070  1.0  -0.6375
  O  O127  1  0.973800  0.681580  0.347500  1.0  -0.6387
  O  O128  1  0.923890  0.697420  0.591500  1.0  -0.5776
  O  O129  1  0.918230  0.647140  0.009400  1.0  -0.6356
  O  O130  1  0.640470  0.014910  0.680830  1.0  -0.6387
  O  O131  1  0.590560  0.030750  0.924830  1.0  -0.5776
  O  O132  1  0.584900  0.980470  0.342730  1.0  -0.6356
  O  O133  1  0.307130  0.348250  0.014170  1.0  -0.6387
  O  O134  1  0.257220  0.364090  0.258170  1.0  -0.5777
  O  O135  1  0.251560  0.313810  0.676070  1.0  -0.6356
  O  O136  1  0.681580  0.707780  0.652500  1.0  -0.6388
  O  O137  1  0.697420  0.773530  0.408500  1.0  -0.5758
  O  O138  1  0.647140  0.728910  0.990600  1.0  -0.6369
  O  O139  1  0.348250  0.041110  0.985830  1.0  -0.6388
  O  O140  1  0.364090  0.106860  0.741830  1.0  -0.5757
  O  O141  1  0.313810  0.062240  0.323930  1.0  -0.637
  O  O142  1  0.014910  0.374450  0.319170  1.0  -0.6388
  O  O143  1  0.030750  0.440200  0.075170  1.0  -0.5758
  O  O144  1  0.980470  0.395580  0.657270  1.0  -0.6369
  O  O145  1  0.292220  0.973800  0.652500  1.0  -0.6389
  O  O146  1  0.226470  0.923890  0.408500  1.0  -0.5771
  O  O147  1  0.271090  0.918230  0.990600  1.0  -0.6345
  O  O148  1  0.958890  0.307130  0.985830  1.0  -0.639
  O  O149  1  0.893140  0.257220  0.741830  1.0  -0.5771
  O  O150  1  0.937760  0.251560  0.323930  1.0  -0.6345
  O  O151  1  0.625550  0.640470  0.319170  1.0  -0.639
  O  O152  1  0.559800  0.590560  0.075170  1.0  -0.5771
  O  O153  1  0.604420  0.584900  0.657270  1.0  -0.6345
  O  O154  1  0.026200  0.318420  0.652500  1.0  -0.638
  O  O155  1  0.076110  0.302580  0.408500  1.0  -0.5759
  O  O156  1  0.081770  0.352860  0.990600  1.0  -0.6363
  O  O157  1  0.692870  0.651750  0.985830  1.0  -0.638
  O  O158  1  0.742780  0.635910  0.741830  1.0  -0.576
  O  O159  1  0.748440  0.686190  0.323930  1.0  -0.6364
  O  O160  1  0.359530  0.985090  0.319170  1.0  -0.638
  O  O161  1  0.409440  0.969250  0.075170  1.0  -0.5759
  O  O162  1  0.415100  0.019530  0.657270  1.0  -0.6363
