# generated using pymatgen
data_FeHC4O3
_symmetry_space_group_name_H-M   'P 1'
_cell_length_a   6.85510000
_cell_length_b   15.23170000
_cell_length_c   15.23170000
_cell_angle_alpha   62.20940000
_cell_angle_beta   81.37200000
_cell_angle_gamma   98.62800000
_symmetry_Int_Tables_number   1
_chemical_formula_structural   FeHC4O3
_chemical_formula_sum   'Fe6 H6 C24 O18'
_cell_volume   1346.34240250
_cell_formula_units_Z   6
loop_
 _symmetry_equiv_pos_site_id
 _symmetry_equiv_pos_as_xyz
  1  'x, y, z'
loop_
 _atom_site_type_symbol
 _atom_site_label
 _atom_site_symmetry_multiplicity
 _atom_site_fract_x
 _atom_site_fract_y
 _atom_site_fract_z
 _atom_site_occupancy
 _atom_site_charge
  Fe  Fe1  1  0.886770  0.679350  0.588840  1.0  1.0392
  Fe  Fe2  1  0.475610  0.588840  0.731810  1.0  1.0378
  Fe  Fe3  1  0.207420  0.731810  0.679350  1.0  1.0414
  Fe  Fe4  1  0.113230  0.320650  0.411160  1.0  1.0415
  Fe  Fe5  1  0.524390  0.411160  0.268190  1.0  1.0403
  Fe  Fe6  1  0.792580  0.268190  0.320650  1.0  1.0413
  H  H7  1  0.656700  0.019600  0.537500  1.0  0.132
  H  H8  1  0.194200  0.537500  0.442900  1.0  0.1331
  H  H9  1  0.637100  0.442900  0.019600  1.0  0.1309
  H  H10  1  0.343300  0.980400  0.462500  1.0  0.1323
  H  H11  1  0.805800  0.462500  0.557100  1.0  0.1348
  H  H12  1  0.362900  0.557100  0.980400  1.0  0.1319
  C  C13  1  0.651650  0.826090  0.612340  1.0  0.7322
  C  C14  1  0.834090  0.916700  0.554030  1.0  -0.1332
  C  C15  1  0.032850  0.895550  0.540200  1.0  0.2231
  C  C16  1  0.801210  0.010210  0.517880  1.0  -0.0891
  C  C17  1  0.263990  0.612340  0.561570  1.0  0.7336
  C  C18  1  0.388120  0.554030  0.529270  1.0  -0.1331
  C  C19  1  0.573050  0.540200  0.564250  1.0  0.2246
  C  C20  1  0.319090  0.517880  0.471910  1.0  -0.0932
  C  C21  1  0.825560  0.561570  0.826090  1.0  0.7325
  C  C22  1  0.917390  0.529270  0.916700  1.0  -0.1337
  C  C23  1  0.137300  0.564250  0.895550  1.0  0.223
  C  C24  1  0.791000  0.471910  0.010210  1.0  -0.0883
  C  C25  1  0.348350  0.173910  0.387660  1.0  0.7311
  C  C26  1  0.165910  0.083300  0.445970  1.0  -0.1313
  C  C27  1  0.967150  0.104450  0.459800  1.0  0.2222
  C  C28  1  0.198790  0.989790  0.482120  1.0  -0.0874
  C  C29  1  0.736010  0.387660  0.438430  1.0  0.7332
  C  C30  1  0.611880  0.445970  0.470730  1.0  -0.1318
  C  C31  1  0.426950  0.459800  0.435750  1.0  0.225
  C  C32  1  0.680910  0.482120  0.528090  1.0  -0.0914
  C  C33  1  0.174440  0.438430  0.173910  1.0  0.7331
  C  C34  1  0.082610  0.470730  0.083300  1.0  -0.1312
  C  C35  1  0.862700  0.435750  0.104450  1.0  0.2231
  C  C36  1  0.209000  0.528090  0.989790  1.0  -0.0876
  O  O37  1  0.677730  0.736530  0.642240  1.0  -0.6674
  O  O38  1  0.482000  0.843600  0.624900  1.0  -0.587
  O  O39  1  0.065420  0.799740  0.576480  1.0  -0.6534
  O  O40  1  0.319970  0.642240  0.621230  1.0  -0.6661
  O  O41  1  0.106900  0.624900  0.531500  1.0  -0.5883
  O  O42  1  0.641900  0.576480  0.623780  1.0  -0.6525
  O  O43  1  0.941200  0.621230  0.736530  1.0  -0.666
  O  O44  1  0.638400  0.531500  0.843600  1.0  -0.5878
  O  O45  1  0.265680  0.623780  0.799740  1.0  -0.6519
  O  O46  1  0.322270  0.263470  0.357760  1.0  -0.6659
  O  O47  1  0.518000  0.156400  0.375100  1.0  -0.5882
  O  O48  1  0.934580  0.200260  0.423520  1.0  -0.6526
  O  O49  1  0.680030  0.357760  0.378770  1.0  -0.6655
  O  O50  1  0.893100  0.375100  0.468500  1.0  -0.5881
  O  O51  1  0.358100  0.423520  0.376220  1.0  -0.6521
  O  O52  1  0.058800  0.378770  0.263470  1.0  -0.6668
  O  O53  1  0.361600  0.468500  0.156400  1.0  -0.589
  O  O54  1  0.734320  0.376220  0.200260  1.0  -0.6534
