# generated using pymatgen
data_FeHC4O3
_symmetry_space_group_name_H-M   'P 1'
_cell_length_a   6.82820000
_cell_length_b   15.20940000
_cell_length_c   15.20940000
_cell_angle_alpha   62.19860000
_cell_angle_beta   81.39350000
_cell_angle_gamma   98.60650000
_symmetry_Int_Tables_number   1
_chemical_formula_structural   FeHC4O3
_chemical_formula_sum   'Fe6 H6 C24 O18'
_cell_volume   1337.28745815
_cell_formula_units_Z   6
loop_
 _symmetry_equiv_pos_site_id
 _symmetry_equiv_pos_as_xyz
  1  'x, y, z'
loop_
 _atom_site_type_symbol
 _atom_site_label
 _atom_site_symmetry_multiplicity
 _atom_site_fract_x
 _atom_site_fract_y
 _atom_site_fract_z
 _atom_site_occupancy
 _atom_site_charge
  Fe  Fe1  1  0.886190  0.683440  0.588370  1.0  1.0215
  Fe  Fe2  1  0.474560  0.588370  0.728190  1.0  1.0214
  Fe  Fe3  1  0.202750  0.728190  0.683440  1.0  1.0234
  Fe  Fe4  1  0.113810  0.316560  0.411630  1.0  1.0224
  Fe  Fe5  1  0.525440  0.411630  0.271810  1.0  1.0208
  Fe  Fe6  1  0.797250  0.271810  0.316560  1.0  1.0218
  H  H7  1  0.670300  0.032000  0.532500  1.0  0.1287
  H  H8  1  0.202800  0.532500  0.435500  1.0  0.1317
  H  H9  1  0.638300  0.435500  0.032000  1.0  0.1278
  H  H10  1  0.329700  0.968000  0.467500  1.0  0.1289
  H  H11  1  0.797200  0.467500  0.564500  1.0  0.1316
  H  H12  1  0.361700  0.564500  0.968000  1.0  0.1292
  C  C13  1  0.655900  0.827000  0.610400  1.0  0.6206
  C  C14  1  0.822580  0.917060  0.548120  1.0  -0.0446
  C  C15  1  0.028400  0.894900  0.537900  1.0  0.2503
  C  C16  1  0.806700  0.012900  0.517600  1.0  -0.0875
  C  C17  1  0.266300  0.610400  0.562600  1.0  0.6205
  C  C18  1  0.370700  0.548120  0.534820  1.0  -0.0443
  C  C19  1  0.566300  0.537900  0.567200  1.0  0.258
  C  C20  1  0.324300  0.517600  0.469500  1.0  -0.0623
  C  C21  1  0.828900  0.562600  0.827000  1.0  0.623
  C  C22  1  0.905520  0.534820  0.917060  1.0  -0.0424
  C  C23  1  0.133500  0.567200  0.894900  1.0  0.2491
  C  C24  1  0.793800  0.469500  0.012900  1.0  -0.0905
  C  C25  1  0.344100  0.173000  0.389600  1.0  0.6192
  C  C26  1  0.177420  0.082940  0.451880  1.0  -0.044
  C  C27  1  0.971600  0.105100  0.462100  1.0  0.2534
  C  C28  1  0.193300  0.987100  0.482400  1.0  -0.0849
  C  C29  1  0.733700  0.389600  0.437400  1.0  0.6204
  C  C30  1  0.629300  0.451880  0.465180  1.0  -0.0442
  C  C31  1  0.433700  0.462100  0.432800  1.0  0.2577
  C  C32  1  0.675700  0.482400  0.530500  1.0  -0.0588
  C  C33  1  0.171100  0.437400  0.173000  1.0  0.6237
  C  C34  1  0.094480  0.465180  0.082940  1.0  -0.044
  C  C35  1  0.866500  0.432800  0.105100  1.0  0.2504
  C  C36  1  0.206200  0.530500  0.987100  1.0  -0.0871
  O  O37  1  0.682900  0.739000  0.638800  1.0  -0.6706
  O  O38  1  0.516100  0.863100  0.614700  1.0  -0.5833
  O  O39  1  0.070600  0.810300  0.576900  1.0  -0.6483
  O  O40  1  0.321700  0.638800  0.622200  1.0  -0.6708
  O  O41  1  0.130800  0.614700  0.522200  1.0  -0.5843
  O  O42  1  0.647500  0.576900  0.612800  1.0  -0.6483
  O  O43  1  0.943900  0.622200  0.739000  1.0  -0.6714
  O  O44  1  0.653000  0.522200  0.863100  1.0  -0.5843
  O  O45  1  0.260300  0.612800  0.810300  1.0  -0.6488
  O  O46  1  0.317100  0.261000  0.361200  1.0  -0.6695
  O  O47  1  0.483900  0.136900  0.385300  1.0  -0.5852
  O  O48  1  0.929400  0.189700  0.423100  1.0  -0.6483
  O  O49  1  0.678300  0.361200  0.377800  1.0  -0.671
  O  O50  1  0.869200  0.385300  0.477800  1.0  -0.5842
  O  O51  1  0.352500  0.423100  0.387200  1.0  -0.6487
  O  O52  1  0.056100  0.377800  0.261000  1.0  -0.6703
  O  O53  1  0.347000  0.477800  0.136900  1.0  -0.5849
  O  O54  1  0.739700  0.387200  0.189700  1.0  -0.6488
