# generated using pymatgen
data_FeHC4O3
_symmetry_space_group_name_H-M   'P 1'
_cell_length_a   6.94480000
_cell_length_b   15.13040000
_cell_length_c   15.13040000
_cell_angle_alpha   62.29710000
_cell_angle_beta   81.19920000
_cell_angle_gamma   98.80080000
_symmetry_Int_Tables_number   1
_chemical_formula_structural   FeHC4O3
_chemical_formula_sum   'Fe6 H6 C24 O18'
_cell_volume   1344.63343091
_cell_formula_units_Z   6
loop_
 _symmetry_equiv_pos_site_id
 _symmetry_equiv_pos_as_xyz
  1  'x, y, z'
loop_
 _atom_site_type_symbol
 _atom_site_label
 _atom_site_symmetry_multiplicity
 _atom_site_fract_x
 _atom_site_fract_y
 _atom_site_fract_z
 _atom_site_occupancy
 _atom_site_charge
  Fe  Fe1  1  0.876300  0.680300  0.580100  1.0  1.0475
  Fe  Fe2  1  0.456400  0.580100  0.739600  1.0  1.0481
  Fe  Fe3  1  0.196000  0.739600  0.680300  1.0  1.0499
  Fe  Fe4  1  0.123700  0.319700  0.419900  1.0  1.0489
  Fe  Fe5  1  0.543600  0.419900  0.260400  1.0  1.0504
  Fe  Fe6  1  0.804000  0.260400  0.319700  1.0  1.0494
  H  H7  1  0.643900  0.008900  0.547200  1.0  0.1163
  H  H8  1  0.191100  0.547200  0.443900  1.0  0.1175
  H  H9  1  0.635000  0.443900  0.008900  1.0  0.116
  H  H10  1  0.356100  0.991100  0.452800  1.0  0.1163
  H  H11  1  0.808900  0.452800  0.556100  1.0  0.1169
  H  H12  1  0.365000  0.556100  0.991100  1.0  0.1155
  C  C13  1  0.658700  0.828600  0.603000  1.0  0.5806
  C  C14  1  0.839400  0.917300  0.552800  1.0  0.0031
  C  C15  1  0.025800  0.893000  0.545300  1.0  0.1524
  C  C16  1  0.814900  0.012300  0.519100  1.0  0.0411
  C  C17  1  0.261700  0.603000  0.568400  1.0  0.5827
  C  C18  1  0.392200  0.552800  0.529900  1.0  0.0035
  C  C19  1  0.571100  0.545300  0.561700  1.0  0.1545
  C  C20  1  0.334000  0.519100  0.468600  1.0  0.0319
  C  C21  1  0.830100  0.568400  0.828600  1.0  0.5835
  C  C22  1  0.922100  0.529900  0.917300  1.0  0.0031
  C  C23  1  0.132800  0.561700  0.893000  1.0  0.1521
  C  C24  1  0.802600  0.468600  0.012300  1.0  0.0355
  C  C25  1  0.341300  0.171400  0.397000  1.0  0.5788
  C  C26  1  0.160600  0.082700  0.447200  1.0  0.0028
  C  C27  1  0.974200  0.107000  0.454700  1.0  0.1521
  C  C28  1  0.185100  0.987700  0.480900  1.0  0.0442
  C  C29  1  0.738300  0.397000  0.431600  1.0  0.5801
  C  C30  1  0.607800  0.447200  0.470100  1.0  0.0027
  C  C31  1  0.428900  0.454700  0.438300  1.0  0.1538
  C  C32  1  0.666000  0.480900  0.531400  1.0  0.0358
  C  C33  1  0.169900  0.431600  0.171400  1.0  0.5814
  C  C34  1  0.077900  0.470100  0.082700  1.0  0.0034
  C  C35  1  0.867200  0.438300  0.107000  1.0  0.1531
  C  C36  1  0.197400  0.531400  0.987700  1.0  0.0381
  O  O37  1  0.668300  0.730400  0.658700  1.0  -0.684
  O  O38  1  0.479800  0.837200  0.624500  1.0  -0.6064
  O  O39  1  0.077100  0.801500  0.565100  1.0  -0.6501
  O  O40  1  0.327000  0.658700  0.610900  1.0  -0.6835
  O  O41  1  0.104300  0.624500  0.538300  1.0  -0.6066
  O  O42  1  0.642200  0.565100  0.633400  1.0  -0.6503
  O  O43  1  0.937900  0.610900  0.730400  1.0  -0.6837
  O  O44  1  0.642600  0.538300  0.837200  1.0  -0.6062
  O  O45  1  0.275600  0.633400  0.801500  1.0  -0.6495
  O  O46  1  0.331700  0.269600  0.341300  1.0  -0.6826
  O  O47  1  0.520200  0.162800  0.375500  1.0  -0.6065
  O  O48  1  0.922900  0.198500  0.434900  1.0  -0.6486
  O  O49  1  0.673000  0.341300  0.389100  1.0  -0.6834
  O  O50  1  0.895700  0.375500  0.461700  1.0  -0.6064
  O  O51  1  0.357800  0.434900  0.366600  1.0  -0.6519
  O  O52  1  0.062100  0.389100  0.269600  1.0  -0.6835
  O  O53  1  0.357400  0.461700  0.162800  1.0  -0.6098
  O  O54  1  0.724400  0.366600  0.198500  1.0  -0.6504
