# generated using pymatgen
data_Eu2H22C41NO12
_symmetry_space_group_name_H-M   'P 1'
_cell_length_a   14.24000000
_cell_length_b   15.18500000
_cell_length_c   22.19100000
_cell_angle_alpha   90.00000000
_cell_angle_beta   90.00000000
_cell_angle_gamma   102.98000000
_symmetry_Int_Tables_number   1
_chemical_formula_structural   Eu2H22C41NO12
_chemical_formula_sum   'Eu8 H88 C164 N4 O48'
_cell_volume   4675.84991688
_cell_formula_units_Z   4
loop_
 _symmetry_equiv_pos_site_id
 _symmetry_equiv_pos_as_xyz
  1  'x, y, z'
loop_
 _atom_site_type_symbol
 _atom_site_label
 _atom_site_symmetry_multiplicity
 _atom_site_fract_x
 _atom_site_fract_y
 _atom_site_fract_z
 _atom_site_occupancy
 _atom_site_charge
  Eu  Eu1  1  0.501560  0.435940  0.275680  1.0  2.1386
  Eu  Eu2  1  0.202250  0.334560  0.245880  1.0  2.1395
  Eu  Eu3  1  0.998440  0.064060  0.775680  1.0  2.1382
  Eu  Eu4  1  0.297750  0.165440  0.745880  1.0  2.1387
  Eu  Eu5  1  0.498440  0.564060  0.724320  1.0  2.1398
  Eu  Eu6  1  0.797750  0.665440  0.754120  1.0  2.1367
  Eu  Eu7  1  0.001560  0.935940  0.224320  1.0  2.1392
  Eu  Eu8  1  0.702250  0.834560  0.254120  1.0  2.1372
  H  H9  1  0.438100  0.288200  0.442400  1.0  0.1044
  H  H10  1  0.432500  0.239800  0.542200  1.0  0.1107
  H  H11  1  0.160000  0.399200  0.421100  1.0  0.1068
  H  H12  1  0.043400  0.421900  0.484500  1.0  0.1052
  H  H13  1  0.046400  0.382200  0.586200  1.0  0.1094
  H  H14  1  0.162700  0.315800  0.621100  1.0  0.0947
  H  H15  1  0.364700  0.700900  0.293400  1.0  0.1055
  H  H16  1  0.264100  0.800300  0.287200  1.0  0.0937
  H  H17  1  0.278900  0.508800  0.131200  1.0  0.0993
  H  H18  1  0.173700  0.498700  0.053600  1.0  0.1118
  H  H19  1  0.078200  0.603500  0.043900  1.0  0.1039
  H  H20  1  0.081900  0.712400  0.114500  1.0  0.1045
  H  H21  1  0.488500  0.195000  0.194800  1.0  0.0991
  H  H22  1  0.573500  0.079900  0.192500  1.0  0.117
  H  H23  1  0.292000  0.133000  0.359800  1.0  0.0947
  H  H24  1  0.258400  0.020600  0.431700  1.0  0.1156
  H  H25  1  0.340400  0.903700  0.428400  1.0  0.1067
  H  H26  1  0.450700  0.898400  0.356400  1.0  0.1059
  H  H27  1  0.442200  0.343300  0.137600  1.0  0.0679
  H  H28  1  0.428600  0.362700  0.035400  1.0  0.1194
  H  H29  1  0.583900  0.614900  0.056500  1.0  0.1264
  H  H30  1  0.586100  0.588800  0.156700  1.0  0.0752
  H  H31  1  0.061900  0.211800  0.942400  1.0  0.1038
  H  H32  1  0.067500  0.260200  0.042200  1.0  0.111
  H  H33  1  0.340000  0.100800  0.921100  1.0  0.1064
  H  H34  1  0.456600  0.078100  0.984500  1.0  0.1045
  H  H35  1  0.453600  0.117800  0.086200  1.0  0.1101
  H  H36  1  0.337300  0.184200  0.121100  1.0  0.0949
  H  H37  1  0.135300  0.799100  0.793400  1.0  0.106
  H  H38  1  0.235900  0.699700  0.787200  1.0  0.0937
  H  H39  1  0.221100  0.991200  0.631200  1.0  0.0998
  H  H40  1  0.326300  0.001300  0.553600  1.0  0.1124
  H  H41  1  0.421800  0.896500  0.543900  1.0  0.1043
  H  H42  1  0.418100  0.787600  0.614500  1.0  0.1041
  H  H43  1  0.011500  0.305000  0.694800  1.0  0.0994
  H  H44  1  0.926500  0.420100  0.692500  1.0  0.1171
  H  H45  1  0.208000  0.367000  0.859800  1.0  0.0949
  H  H46  1  0.241600  0.479400  0.931700  1.0  0.1157
  H  H47  1  0.159600  0.596300  0.928400  1.0  0.1063
  H  H48  1  0.049300  0.601600  0.856400  1.0  0.1057
  H  H49  1  0.057800  0.156700  0.637600  1.0  0.0681
  H  H50  1  0.071400  0.137300  0.535400  1.0  0.1201
  H  H51  1  0.916100  0.885100  0.556500  1.0  0.1266
  H  H52  1  0.913900  0.911200  0.656700  1.0  0.0754
  H  H53  1  0.561900  0.711800  0.557600  1.0  0.1035
  H  H54  1  0.567500  0.760200  0.457800  1.0  0.1113
  H  H55  1  0.840000  0.600800  0.578900  1.0  0.1053
  H  H56  1  0.956600  0.578100  0.515500  1.0  0.1043
  H  H57  1  0.953600  0.617800  0.413800  1.0  0.11
  H  H58  1  0.837300  0.684200  0.378900  1.0  0.095
  H  H59  1  0.635300  0.299100  0.706600  1.0  0.1053
  H  H60  1  0.735900  0.199700  0.712800  1.0  0.0935
  H  H61  1  0.721100  0.491200  0.868800  1.0  0.0998
  H  H62  1  0.826300  0.501300  0.946400  1.0  0.1122
  H  H63  1  0.921800  0.396500  0.956100  1.0  0.1045
  H  H64  1  0.918100  0.287600  0.885500  1.0  0.104
  H  H65  1  0.511500  0.805000  0.805200  1.0  0.1003
  H  H66  1  0.426500  0.920100  0.807500  1.0  0.118
  H  H67  1  0.708000  0.867000  0.640200  1.0  0.0949
  H  H68  1  0.741600  0.979400  0.568300  1.0  0.1158
  H  H69  1  0.659600  0.096300  0.571600  1.0  0.1061
  H  H70  1  0.549300  0.101600  0.643600  1.0  0.1055
  H  H71  1  0.557800  0.656700  0.862400  1.0  0.0678
  H  H72  1  0.571400  0.637300  0.964600  1.0  0.1199
  H  H73  1  0.416100  0.385100  0.943500  1.0  0.1266
  H  H74  1  0.413900  0.411200  0.843300  1.0  0.0754
  H  H75  1  0.938100  0.788200  0.057600  1.0  0.1038
  H  H76  1  0.932500  0.739800  0.957800  1.0  0.1111
  H  H77  1  0.660000  0.899200  0.078900  1.0  0.1055
  H  H78  1  0.543400  0.921900  0.015500  1.0  0.1046
  H  H79  1  0.546400  0.882200  0.913800  1.0  0.1098
  H  H80  1  0.662700  0.815800  0.878900  1.0  0.0951
  H  H81  1  0.864700  0.200900  0.206600  1.0  0.1051
  H  H82  1  0.764100  0.300300  0.212800  1.0  0.0937
  H  H83  1  0.778900  0.008800  0.368800  1.0  0.0995
  H  H84  1  0.673700  0.998700  0.446400  1.0  0.1122
  H  H85  1  0.578200  0.103500  0.456100  1.0  0.1042
  H  H86  1  0.581900  0.212400  0.385500  1.0  0.1042
  H  H87  1  0.988500  0.695000  0.305200  1.0  0.0997
  H  H88  1  0.073500  0.579900  0.307500  1.0  0.1182
  H  H89  1  0.792000  0.633000  0.140200  1.0  0.0946
  H  H90  1  0.758400  0.520600  0.068300  1.0  0.1152
  H  H91  1  0.840400  0.403700  0.071600  1.0  0.1062
  H  H92  1  0.950700  0.398400  0.143600  1.0  0.1054
  H  H93  1  0.942200  0.843300  0.362400  1.0  0.0674
  H  H94  1  0.928600  0.862700  0.464600  1.0  0.1197
  H  H95  1  0.083900  0.114900  0.443500  1.0  0.1264
  H  H96  1  0.086100  0.088800  0.343300  1.0  0.0754
  C  C97  1  0.321300  0.354500  0.378000  1.0  0.7507
  C  C98  1  0.314300  0.329200  0.443800  1.0  -0.1475
  C  C99  1  0.386700  0.293900  0.466800  1.0  -0.0574
  C  C100  1  0.384000  0.265900  0.527500  1.0  -0.0798
  C  C101  1  0.311900  0.276500  0.564700  1.0  -0.0943
  C  C102  1  0.237100  0.316400  0.542800  1.0  0.0243
  C  C103  1  0.237000  0.341000  0.481200  1.0  0.0511
  C  C104  1  0.161400  0.381900  0.461200  1.0  -0.1281
  C  C105  1  0.092300  0.395900  0.498800  1.0  -0.1325
  C  C106  1  0.093700  0.371400  0.560100  1.0  -0.1267
  C  C107  1  0.163200  0.332500  0.580800  1.0  -0.0863
  C  C108  1  0.309600  0.243100  0.628400  1.0  0.6949
  C  C109  1  0.367300  0.553700  0.237600  1.0  0.702
  C  C110  1  0.308500  0.621500  0.224300  1.0  -0.1094
  C  C111  1  0.317900  0.693100  0.263400  1.0  -0.086
  C  C112  1  0.258300  0.754300  0.258800  1.0  -0.0808
  C  C113  1  0.191900  0.748700  0.213900  1.0  -0.1479
  C  C114  1  0.185900  0.681600  0.168400  1.0  0.0353
  C  C115  1  0.244600  0.615900  0.175000  1.0  0.0386
  C  C116  1  0.239000  0.549500  0.128900  1.0  -0.0645
  C  C117  1  0.177600  0.544100  0.082200  1.0  -0.1467
  C  C118  1  0.119500  0.606900  0.076800  1.0  -0.0791
  C  C119  1  0.122400  0.672500  0.118600  1.0  -0.1085
  C  C120  1  0.127600  0.816200  0.216500  1.0  0.6903
  C  C121  1  0.348500  0.219900  0.258400  1.0  0.6826
  C  C122  1  0.407200  0.149600  0.264900  1.0  -0.0629
  C  C123  1  0.475200  0.149100  0.223400  1.0  -0.082
  C  C124  1  0.527400  0.079900  0.222200  1.0  -0.0951
  C  C125  1  0.509900  0.013200  0.264900  1.0  -0.1517
  C  C126  1  0.440900  0.012700  0.310400  1.0  0.0451
  C  C127  1  0.388400  0.082200  0.311300  1.0  0.0281
  C  C128  1  0.322900  0.085200  0.358100  1.0  -0.1074
  C  C129  1  0.303400  0.019000  0.401600  1.0  -0.1166
  C  C130  1  0.353200  0.949000  0.399300  1.0  -0.0962
  C  C131  1  0.418900  0.945600  0.356200  1.0  -0.1176
  C  C132  1  0.574900  0.947200  0.260900  1.0  0.6859
  C  C133  1  0.468700  0.399900  0.121400  1.0  0.1938
  C  C134  1  0.461300  0.410500  0.059000  1.0  -0.2049
  C  C135  1  0.503200  0.492900  0.032400  1.0  0.0607
  C  C136  1  0.552000  0.559100  0.071600  1.0  -0.1874
  C  C137  1  0.553300  0.542500  0.132100  1.0  0.1778
  C  C138  1  0.178700  0.145500  0.878000  1.0  0.7501
  C  C139  1  0.185700  0.170800  0.943800  1.0  -0.1472
  C  C140  1  0.113300  0.206100  0.966800  1.0  -0.0559
  C  C141  1  0.116000  0.234100  0.027500  1.0  -0.0795
  C  C142  1  0.188100  0.223500  0.064700  1.0  -0.0934
  C  C143  1  0.262900  0.183600  0.042800  1.0  0.0248
  C  C144  1  0.263000  0.159000  0.981200  1.0  0.0505
  C  C145  1  0.338600  0.118100  0.961200  1.0  -0.1293
  C  C146  1  0.407700  0.104100  0.998800  1.0  -0.1301
  C  C147  1  0.406300  0.128600  0.060100  1.0  -0.1271
  C  C148  1  0.336800  0.167500  0.080800  1.0  -0.0864
  C  C149  1  0.190400  0.256900  0.128400  1.0  0.695
  C  C150  1  0.132700  0.946300  0.737600  1.0  0.7
  C  C151  1  0.191500  0.878500  0.724300  1.0  -0.1101
  C  C152  1  0.182100  0.806900  0.763400  1.0  -0.0844
  C  C153  1  0.241700  0.745700  0.758800  1.0  -0.0793
  C  C154  1  0.308100  0.751300  0.713900  1.0  -0.1479
  C  C155  1  0.314100  0.818400  0.668400  1.0  0.0331
  C  C156  1  0.255400  0.884100  0.675000  1.0  0.0377
  C  C157  1  0.261000  0.950500  0.628900  1.0  -0.066
  C  C158  1  0.322400  0.955900  0.582200  1.0  -0.1469
  C  C159  1  0.380500  0.893100  0.576800  1.0  -0.0805
  C  C160  1  0.377600  0.827500  0.618600  1.0  -0.1104
  C  C161  1  0.372400  0.683800  0.716500  1.0  0.6901
  C  C162  1  0.151500  0.280100  0.758400  1.0  0.6855
  C  C163  1  0.092800  0.350400  0.764900  1.0  -0.0622
  C  C164  1  0.024800  0.350900  0.723400  1.0  -0.0819
  C  C165  1  0.972600  0.420100  0.722200  1.0  -0.0928
  C  C166  1  0.990100  0.486800  0.764900  1.0  -0.1513
  C  C167  1  0.059100  0.487300  0.810400  1.0  0.0462
  C  C168  1  0.111600  0.417800  0.811300  1.0  0.0289
  C  C169  1  0.177100  0.414800  0.858100  1.0  -0.1075
  C  C170  1  0.196600  0.481000  0.901600  1.0  -0.1165
  C  C171  1  0.146800  0.551000  0.899300  1.0  -0.0942
  C  C172  1  0.081100  0.554400  0.856200  1.0  -0.1157
  C  C173  1  0.925100  0.552800  0.760900  1.0  0.6878
  C  C174  1  0.031300  0.100100  0.621400  1.0  0.1943
  C  C175  1  0.038700  0.089500  0.559000  1.0  -0.2051
  C  C176  1  0.996800  0.007100  0.532400  1.0  0.0602
  C  C177  1  0.948000  0.940900  0.571600  1.0  -0.1877
  C  C178  1  0.946700  0.957500  0.632100  1.0  0.1775
  C  C179  1  0.678700  0.645500  0.622000  1.0  0.7519
  C  C180  1  0.685700  0.670800  0.556200  1.0  -0.1478
  C  C181  1  0.613300  0.706100  0.533200  1.0  -0.0558
  C  C182  1  0.616000  0.734100  0.472500  1.0  -0.0797
  C  C183  1  0.688100  0.723500  0.435300  1.0  -0.094
  C  C184  1  0.762900  0.683600  0.457200  1.0  0.0247
  C  C185  1  0.763000  0.659000  0.518800  1.0  0.0503
  C  C186  1  0.838600  0.618100  0.538800  1.0  -0.1306
  C  C187  1  0.907700  0.604100  0.501200  1.0  -0.1294
  C  C188  1  0.906300  0.628600  0.439900  1.0  -0.1279
  C  C189  1  0.836800  0.667500  0.419200  1.0  -0.085
  C  C190  1  0.690400  0.756900  0.371600  1.0  0.6961
  C  C191  1  0.632700  0.446300  0.762400  1.0  0.6999
  C  C192  1  0.691500  0.378500  0.775700  1.0  -0.1104
  C  C193  1  0.682100  0.306900  0.736600  1.0  -0.0838
  C  C194  1  0.741700  0.245700  0.741200  1.0  -0.0793
  C  C195  1  0.808100  0.251300  0.786100  1.0  -0.1475
  C  C196  1  0.814100  0.318400  0.831600  1.0  0.0356
  C  C197  1  0.755400  0.384100  0.825000  1.0  0.0376
  C  C198  1  0.761000  0.450500  0.871100  1.0  -0.0657
  C  C199  1  0.822400  0.455900  0.917800  1.0  -0.1469
  C  C200  1  0.880500  0.393100  0.923200  1.0  -0.0806
  C  C201  1  0.877600  0.327500  0.881400  1.0  -0.1092
  C  C202  1  0.872400  0.183800  0.783500  1.0  0.6901
  C  C203  1  0.651500  0.780100  0.741600  1.0  0.6854
  C  C204  1  0.592800  0.850400  0.735100  1.0  -0.0632
  C  C205  1  0.524800  0.850900  0.776600  1.0  -0.0824
  C  C206  1  0.472600  0.920100  0.777800  1.0  -0.0939
  C  C207  1  0.490100  0.986800  0.735100  1.0  -0.1504
  C  C208  1  0.559100  0.987300  0.689600  1.0  0.0455
  C  C209  1  0.611600  0.917800  0.688700  1.0  0.0286
  C  C210  1  0.677100  0.914800  0.641900  1.0  -0.1073
  C  C211  1  0.696600  0.981000  0.598400  1.0  -0.1171
  C  C212  1  0.646800  0.051000  0.600700  1.0  -0.0954
  C  C213  1  0.581100  0.054400  0.643800  1.0  -0.1159
  C  C214  1  0.425100  0.052800  0.739100  1.0  0.6859
  C  C215  1  0.531300  0.600100  0.878600  1.0  0.1942
  C  C216  1  0.538700  0.589500  0.941000  1.0  -0.2048
  C  C217  1  0.496800  0.507100  0.967600  1.0  0.0607
  C  C218  1  0.448000  0.440900  0.928400  1.0  -0.1876
  C  C219  1  0.446700  0.457500  0.867900  1.0  0.1776
  C  C220  1  0.821300  0.854500  0.122000  1.0  0.7517
  C  C221  1  0.814300  0.829200  0.056200  1.0  -0.1477
  C  C222  1  0.886700  0.793900  0.033200  1.0  -0.0569
  C  C223  1  0.884000  0.765900  0.972500  1.0  -0.0801
  C  C224  1  0.811900  0.776500  0.935300  1.0  -0.0939
  C  C225  1  0.737100  0.816400  0.957200  1.0  0.0241
  C  C226  1  0.737000  0.841000  0.018800  1.0  0.051
  C  C227  1  0.661400  0.881900  0.038800  1.0  -0.1288
  C  C228  1  0.592300  0.895900  0.001200  1.0  -0.1321
  C  C229  1  0.593700  0.871400  0.939900  1.0  -0.1278
  C  C230  1  0.663200  0.832500  0.919200  1.0  -0.0864
  C  C231  1  0.809600  0.743100  0.871600  1.0  0.6949
  C  C232  1  0.867300  0.053700  0.262400  1.0  0.701
  C  C233  1  0.808500  0.121500  0.275700  1.0  -0.1095
  C  C234  1  0.817900  0.193100  0.236600  1.0  -0.086
  C  C235  1  0.758300  0.254300  0.241200  1.0  -0.0802
  C  C236  1  0.691900  0.248700  0.286100  1.0  -0.1473
  C  C237  1  0.685900  0.181600  0.331600  1.0  0.0362
  C  C238  1  0.744600  0.115900  0.325000  1.0  0.0383
  C  C239  1  0.739000  0.049500  0.371100  1.0  -0.0645
  C  C240  1  0.677600  0.044100  0.417800  1.0  -0.146
  C  C241  1  0.619500  0.106900  0.423200  1.0  -0.08
  C  C242  1  0.622400  0.172500  0.381400  1.0  -0.1088
  C  C243  1  0.627600  0.316200  0.283500  1.0  0.6896
  C  C244  1  0.848500  0.719900  0.241600  1.0  0.6826
  C  C245  1  0.907200  0.649600  0.235100  1.0  -0.0635
  C  C246  1  0.975200  0.649100  0.276600  1.0  -0.0818
  C  C247  1  0.027400  0.579900  0.277800  1.0  -0.0948
  C  C248  1  0.009900  0.513200  0.235100  1.0  -0.1513
  C  C249  1  0.940900  0.512700  0.189600  1.0  0.0449
  C  C250  1  0.888400  0.582200  0.188700  1.0  0.0281
  C  C251  1  0.822900  0.585200  0.141900  1.0  -0.1072
  C  C252  1  0.803400  0.519000  0.098400  1.0  -0.1176
  C  C253  1  0.853200  0.449000  0.100700  1.0  -0.0972
  C  C254  1  0.918900  0.445600  0.143800  1.0  -0.1182
  C  C255  1  0.074900  0.447200  0.239100  1.0  0.6862
  C  C256  1  0.968700  0.899900  0.378600  1.0  0.1936
  C  C257  1  0.961300  0.910500  0.441000  1.0  -0.2047
  C  C258  1  0.003200  0.992900  0.467600  1.0  0.0613
  C  C259  1  0.052000  0.059100  0.428400  1.0  -0.1872
  C  C260  1  0.053300  0.042500  0.367900  1.0  0.1777
  N  N261  1  0.510200  0.463700  0.158500  1.0  -0.3737
  N  N262  1  0.989800  0.036300  0.658500  1.0  -0.3734
  N  N263  1  0.489800  0.536300  0.841500  1.0  -0.3724
  N  N264  1  0.010200  0.963700  0.341500  1.0  -0.3726
  O  O265  1  0.403600  0.387500  0.357780  1.0  -0.7285
  O  O266  1  0.246300  0.341900  0.347620  1.0  -0.692
  O  O267  1  0.369800  0.283300  0.665750  1.0  -0.6147
  O  O268  1  0.246400  0.174000  0.642300  1.0  -0.6128
  O  O269  1  0.329800  0.469200  0.236920  1.0  -0.8352
  O  O270  1  0.453600  0.581400  0.253110  1.0  -0.645
  O  O271  1  0.114500  0.849300  0.267280  1.0  -0.6907
  O  O272  1  0.089200  0.839100  0.170500  1.0  -0.6376
  O  O273  1  0.389200  0.300400  0.244480  1.0  -0.7543
  O  O274  1  0.259100  0.196200  0.263400  1.0  -0.6662
  O  O275  1  0.581700  0.896100  0.304100  1.0  -0.6192
  O  O276  1  0.622500  0.946100  0.213360  1.0  -0.6564
  O  O277  1  0.096400  0.112500  0.857780  1.0  -0.7303
  O  O278  1  0.253700  0.158100  0.847620  1.0  -0.6912
  O  O279  1  0.130200  0.216700  0.165750  1.0  -0.6106
  O  O280  1  0.253600  0.326000  0.142300  1.0  -0.6142
  O  O281  1  0.170200  0.030800  0.736920  1.0  -0.8356
  O  O282  1  0.046400  0.918600  0.753110  1.0  -0.6439
  O  O283  1  0.385500  0.650700  0.767280  1.0  -0.6894
  O  O284  1  0.410800  0.660900  0.670500  1.0  -0.6351
  O  O285  1  0.110800  0.199600  0.744480  1.0  -0.7533
  O  O286  1  0.240900  0.303800  0.763400  1.0  -0.6668
  O  O287  1  0.918300  0.603900  0.804100  1.0  -0.6196
  O  O288  1  0.877500  0.553900  0.713360  1.0  -0.6579
  O  O289  1  0.596400  0.612500  0.642220  1.0  -0.7299
  O  O290  1  0.753700  0.658100  0.652380  1.0  -0.6919
  O  O291  1  0.630200  0.716700  0.334250  1.0  -0.6135
  O  O292  1  0.753600  0.826000  0.357700  1.0  -0.614
  O  O293  1  0.670200  0.530800  0.763080  1.0  -0.8334
  O  O294  1  0.546400  0.418600  0.746890  1.0  -0.6446
  O  O295  1  0.885500  0.150700  0.732720  1.0  -0.69
  O  O296  1  0.910800  0.160900  0.829500  1.0  -0.6368
  O  O297  1  0.610800  0.699600  0.755520  1.0  -0.7531
  O  O298  1  0.740900  0.803800  0.736600  1.0  -0.6662
  O  O299  1  0.418300  0.103900  0.695900  1.0  -0.6199
  O  O300  1  0.377500  0.053900  0.786640  1.0  -0.6579
  O  O301  1  0.903600  0.887500  0.142220  1.0  -0.7289
  O  O302  1  0.746300  0.841900  0.152380  1.0  -0.6929
  O  O303  1  0.869800  0.783300  0.834250  1.0  -0.6127
  O  O304  1  0.746400  0.674000  0.857700  1.0  -0.6125
  O  O305  1  0.829800  0.969200  0.263080  1.0  -0.8341
  O  O306  1  0.953600  0.081400  0.246890  1.0  -0.6447
  O  O307  1  0.614500  0.349300  0.232720  1.0  -0.6901
  O  O308  1  0.589200  0.339100  0.329500  1.0  -0.6362
  O  O309  1  0.889200  0.800400  0.255520  1.0  -0.754
  O  O310  1  0.759100  0.696200  0.236600  1.0  -0.6657
  O  O311  1  0.081700  0.396100  0.195900  1.0  -0.6191
  O  O312  1  0.122500  0.446100  0.286640  1.0  -0.657
