# generated using pymatgen
data_EuH9(C3O)6
_symmetry_space_group_name_H-M   'P 1'
_cell_length_a   15.73700000
_cell_length_b   22.88560000
_cell_length_c   22.88560000
_cell_angle_alpha   83.21110000
_cell_angle_beta   69.89030000
_cell_angle_gamma   69.89030000
_symmetry_Int_Tables_number   1
_chemical_formula_structural   EuH9(C3O)6
_chemical_formula_sum   'Eu16 H144 C288 O96'
_cell_volume   7267.93590938
_cell_formula_units_Z   16
loop_
 _symmetry_equiv_pos_site_id
 _symmetry_equiv_pos_as_xyz
  1  'x, y, z'
loop_
 _atom_site_type_symbol
 _atom_site_label
 _atom_site_symmetry_multiplicity
 _atom_site_fract_x
 _atom_site_fract_y
 _atom_site_fract_z
 _atom_site_occupancy
 _atom_site_charge
  Eu  Eu1  1  0.588360  0.252560  0.205360  1.0  2.1371
  Eu  Eu2  1  0.342220  0.249730  0.194550  1.0  2.1323
  Eu  Eu3  1  0.046280  0.747440  0.794640  1.0  2.1364
  Eu  Eu4  1  0.786500  0.750270  0.805450  1.0  2.1315
  Eu  Eu5  1  0.043720  0.294640  0.752560  1.0  2.1362
  Eu  Eu6  1  0.786760  0.305460  0.749730  1.0  2.1325
  Eu  Eu7  1  0.090920  0.705360  0.247440  1.0  2.1363
  Eu  Eu8  1  0.841960  0.694540  0.250270  1.0  2.1317
  Eu  Eu9  1  0.546280  0.794640  0.747440  1.0  2.1354
  Eu  Eu10  1  0.286490  0.805460  0.750270  1.0  2.1326
  Eu  Eu11  1  0.088360  0.205360  0.252560  1.0  2.1371
  Eu  Eu12  1  0.842230  0.194540  0.249730  1.0  2.1316
  Eu  Eu13  1  0.590920  0.247440  0.705360  1.0  2.1367
  Eu  Eu14  1  0.341950  0.250270  0.694550  1.0  2.1314
  Eu  Eu15  1  0.543720  0.752560  0.294640  1.0  2.1365
  Eu  Eu16  1  0.286770  0.749730  0.305450  1.0  2.1324
  H  H17  1  0.591000  0.321900  0.997900  1.0  0.1212
  H  H18  1  0.608000  0.317200  0.893400  1.0  0.0967
  H  H19  1  0.560000  0.130200  0.875800  1.0  0.1047
  H  H20  1  0.528000  0.053400  0.942000  1.0  0.1155
  H  H21  1  0.521000  0.055900  0.044300  1.0  0.1085
  H  H22  1  0.542400  0.135900  0.080100  1.0  0.1155
  H  H23  1  0.264300  0.293400  0.507400  1.0  0.1156
  H  H24  1  0.271500  0.292900  0.405300  1.0  0.1098
  H  H25  1  0.519100  0.114300  0.321700  1.0  0.1153
  H  H26  1  0.619100  0.035200  0.359400  1.0  0.0994
  H  H27  1  0.603000  0.027100  0.462700  1.0  0.1177
  H  H28  1  0.496200  0.108400  0.530400  1.0  0.1144
  H  H29  1  0.455300  0.445000  0.182200  1.0  0.0862
  H  H30  1  0.426700  0.548200  0.199000  1.0  0.1312
  H  H31  1  0.175200  0.591300  0.384700  1.0  0.1171
  H  H32  1  0.080900  0.538900  0.450300  1.0  0.1181
  H  H33  1  0.102700  0.436800  0.428200  1.0  0.1254
  H  H34  1  0.227800  0.386700  0.343300  1.0  0.1063
  H  H35  1  0.910800  0.678100  0.002100  1.0  0.1211
  H  H36  1  0.818600  0.682800  0.106600  1.0  0.0958
  H  H37  1  0.566000  0.869800  0.124200  1.0  0.1043
  H  H38  1  0.523400  0.946600  0.058000  1.0  0.1157
  H  H39  1  0.621200  0.944100  0.955700  1.0  0.1085
  H  H40  1  0.758400  0.864100  0.919900  1.0  0.1157
  H  H41  1  0.065100  0.706600  0.492600  1.0  0.1161
  H  H42  1  0.969700  0.707100  0.594700  1.0  0.1105
  H  H43  1  0.955100  0.885700  0.678300  1.0  0.1163
  H  H44  1  0.013700  0.964800  0.640600  1.0  0.099
  H  H45  1  0.092800  0.972900  0.537300  1.0  0.1171
  H  H46  1  0.135000  0.891600  0.469600  1.0  0.1147
  H  H47  1  0.082500  0.555000  0.817800  1.0  0.0867
  H  H48  1  0.173900  0.451800  0.801000  1.0  0.1317
  H  H49  1  0.151200  0.408700  0.615300  1.0  0.1174
  H  H50  1  0.070100  0.461100  0.549700  1.0  0.1198
  H  H51  1  0.967700  0.563200  0.571800  1.0  0.1245
  H  H52  1  0.957800  0.613300  0.656700  1.0  0.107
  H  H53  1  0.838900  0.502100  0.821900  1.0  0.1204
  H  H54  1  0.751400  0.606600  0.817200  1.0  0.0973
  H  H55  1  0.685800  0.624200  0.630200  1.0  0.1051
  H  H56  1  0.720000  0.558000  0.553400  1.0  0.1177
  H  H57  1  0.815300  0.455700  0.555900  1.0  0.1075
  H  H58  1  0.872500  0.419900  0.635900  1.0  0.1165
  H  H59  1  0.021700  0.992600  0.793400  1.0  0.1151
  H  H60  1  0.926800  0.094700  0.792900  1.0  0.1105
  H  H61  1  0.090800  0.178300  0.614300  1.0  0.1162
  H  H62  1  0.228500  0.140600  0.535200  1.0  0.0999
  H  H63  1  0.315700  0.037300  0.527100  1.0  0.1156
  H  H64  1  0.276600  0.969600  0.608400  1.0  0.1159
  H  H65  1  0.887500  0.317800  0.945000  1.0  0.0851
  H  H66  1  0.875700  0.301000  0.048200  1.0  0.1311
  H  H67  1  0.809900  0.115300  0.091300  1.0  0.1178
  H  H68  1  0.781200  0.049700  0.038900  1.0  0.1191
  H  H69  1  0.780900  0.071800  0.936800  1.0  0.1253
  H  H70  1  0.821100  0.156700  0.886700  1.0  0.1076
  H  H71  1  0.162900  0.497900  0.178100  1.0  0.122
  H  H72  1  0.175200  0.393400  0.182800  1.0  0.096
  H  H73  1  0.940200  0.375800  0.369800  1.0  0.1055
  H  H74  1  0.831400  0.442000  0.446600  1.0  0.1167
  H  H75  1  0.826900  0.544300  0.444100  1.0  0.1082
  H  H76  1  0.928300  0.580100  0.364100  1.0  0.1158
  H  H77  1  0.807700  0.007400  0.206600  1.0  0.1169
  H  H78  1  0.814400  0.905300  0.207100  1.0  0.1115
  H  H79  1  0.883400  0.821700  0.385700  1.0  0.1165
  H  H80  1  0.904300  0.859400  0.464800  1.0  0.1008
  H  H81  1  0.880100  0.962700  0.472900  1.0  0.1164
  H  H82  1  0.854600  0.030400  0.391600  1.0  0.1174
  H  H83  1  0.150300  0.682200  0.055000  1.0  0.0846
  H  H84  1  0.224900  0.699000  0.951800  1.0  0.1305
  H  H85  1  0.016500  0.884700  0.908700  1.0  0.1183
  H  H86  1  0.869800  0.950300  0.961100  1.0  0.119
  H  H87  1  0.789500  0.928200  0.063200  1.0  0.1246
  H  H88  1  0.864500  0.843300  0.113300  1.0  0.1061
  H  H89  1  0.410800  0.002100  0.678100  1.0  0.1217
  H  H90  1  0.318600  0.106600  0.682800  1.0  0.0958
  H  H91  1  0.066000  0.124200  0.869800  1.0  0.1059
  H  H92  1  0.023400  0.058000  0.946600  1.0  0.1167
  H  H93  1  0.121200  0.955700  0.944100  1.0  0.1084
  H  H94  1  0.258400  0.919900  0.864100  1.0  0.1162
  H  H95  1  0.565100  0.492600  0.706600  1.0  0.1167
  H  H96  1  0.469700  0.594700  0.707100  1.0  0.1112
  H  H97  1  0.455100  0.678300  0.885700  1.0  0.1164
  H  H98  1  0.513700  0.640600  0.964800  1.0  0.1003
  H  H99  1  0.592800  0.537300  0.972900  1.0  0.1167
  H  H100  1  0.635000  0.469600  0.891600  1.0  0.1172
  H  H101  1  0.582500  0.817800  0.555000  1.0  0.0842
  H  H102  1  0.673900  0.801000  0.451800  1.0  0.1308
  H  H103  1  0.651200  0.615300  0.408700  1.0  0.1183
  H  H104  1  0.570100  0.549700  0.461100  1.0  0.1189
  H  H105  1  0.467700  0.571800  0.563200  1.0  0.1245
  H  H106  1  0.457800  0.656700  0.613300  1.0  0.1064
  H  H107  1  0.091000  0.997900  0.321900  1.0  0.1205
  H  H108  1  0.108000  0.893400  0.317200  1.0  0.0977
  H  H109  1  0.060000  0.875800  0.130200  1.0  0.1042
  H  H110  1  0.028000  0.942000  0.053400  1.0  0.1174
  H  H111  1  0.021000  0.044300  0.055900  1.0  0.1077
  H  H112  1  0.042400  0.080100  0.135900  1.0  0.1161
  H  H113  1  0.764300  0.507400  0.293400  1.0  0.115
  H  H114  1  0.771500  0.405300  0.292900  1.0  0.1106
  H  H115  1  0.019100  0.321700  0.114300  1.0  0.1162
  H  H116  1  0.119100  0.359400  0.035200  1.0  0.1
  H  H117  1  0.103000  0.462700  0.027100  1.0  0.1157
  H  H118  1  0.996200  0.530400  0.108400  1.0  0.1162
  H  H119  1  0.955300  0.182200  0.445000  1.0  0.0852
  H  H120  1  0.926700  0.199000  0.548200  1.0  0.1309
  H  H121  1  0.675200  0.384700  0.591300  1.0  0.1178
  H  H122  1  0.580900  0.450300  0.538900  1.0  0.1191
  H  H123  1  0.602700  0.428200  0.436800  1.0  0.1254
  H  H124  1  0.727800  0.343300  0.386700  1.0  0.1075
  H  H125  1  0.662900  0.178100  0.497900  1.0  0.1219
  H  H126  1  0.675200  0.182800  0.393400  1.0  0.0962
  H  H127  1  0.440200  0.369800  0.375800  1.0  0.105
  H  H128  1  0.331400  0.446600  0.442000  1.0  0.1158
  H  H129  1  0.326900  0.444100  0.544300  1.0  0.1083
  H  H130  1  0.428300  0.364100  0.580100  1.0  0.1154
  H  H131  1  0.307700  0.206600  0.007400  1.0  0.1153
  H  H132  1  0.314400  0.207100  0.905300  1.0  0.1096
  H  H133  1  0.383400  0.385700  0.821700  1.0  0.1152
  H  H134  1  0.404300  0.464800  0.859400  1.0  0.0997
  H  H135  1  0.380100  0.472900  0.962700  1.0  0.117
  H  H136  1  0.354600  0.391600  0.030400  1.0  0.1144
  H  H137  1  0.650300  0.055000  0.682200  1.0  0.0864
  H  H138  1  0.724900  0.951800  0.699000  1.0  0.1311
  H  H139  1  0.516500  0.908700  0.884700  1.0  0.1173
  H  H140  1  0.369800  0.961100  0.950300  1.0  0.1184
  H  H141  1  0.289500  0.063200  0.928200  1.0  0.1251
  H  H142  1  0.364500  0.113300  0.843300  1.0  0.107
  H  H143  1  0.338900  0.821900  0.502100  1.0  0.1206
  H  H144  1  0.251400  0.817200  0.606600  1.0  0.0961
  H  H145  1  0.185800  0.630200  0.624200  1.0  0.1043
  H  H146  1  0.220000  0.553400  0.558000  1.0  0.1159
  H  H147  1  0.315300  0.555900  0.455700  1.0  0.1082
  H  H148  1  0.372500  0.635900  0.419900  1.0  0.1158
  H  H149  1  0.521700  0.793400  0.992600  1.0  0.1165
  H  H150  1  0.426800  0.792900  0.094700  1.0  0.111
  H  H151  1  0.590800  0.614300  0.178300  1.0  0.1161
  H  H152  1  0.728500  0.535200  0.140600  1.0  0.0993
  H  H153  1  0.815700  0.527100  0.037300  1.0  0.1179
  H  H154  1  0.776600  0.608400  0.969600  1.0  0.1143
  H  H155  1  0.387500  0.945000  0.317800  1.0  0.0865
  H  H156  1  0.375700  0.048200  0.301000  1.0  0.1318
  H  H157  1  0.309900  0.091300  0.115300  1.0  0.1174
  H  H158  1  0.281200  0.038900  0.049700  1.0  0.1197
  H  H159  1  0.280900  0.936800  0.071800  1.0  0.1244
  H  H160  1  0.321100  0.886700  0.156700  1.0  0.1063
  C  C161  1  0.570300  0.239900  0.022100  1.0  -0.1145
  C  C162  1  0.586500  0.287400  0.982800  1.0  -0.1094
  C  C163  1  0.596500  0.284500  0.919700  1.0  -0.0515
  C  C164  1  0.589800  0.234800  0.896000  1.0  -0.1038
  C  C165  1  0.568500  0.184900  0.936500  1.0  0.0228
  C  C166  1  0.555700  0.132500  0.917100  1.0  -0.0714
  C  C167  1  0.537400  0.086500  0.956100  1.0  -0.086
  C  C168  1  0.532700  0.088300  0.017500  1.0  -0.0655
  C  C169  1  0.544900  0.136300  0.038900  1.0  -0.0806
  C  C170  1  0.561400  0.187100  0.000700  1.0  0.0146
  C  C171  1  0.566800  0.245700  0.087300  1.0  0.7141
  C  C172  1  0.605800  0.234900  0.827900  1.0  0.7078
  C  C173  1  0.367600  0.212200  0.506800  1.0  -0.1821
  C  C174  1  0.308700  0.260200  0.482000  1.0  -0.0575
  C  C175  1  0.313600  0.260300  0.420100  1.0  -0.1165
  C  C176  1  0.379600  0.213100  0.381100  1.0  -0.1027
  C  C177  1  0.442800  0.163500  0.402700  1.0  0.038
  C  C178  1  0.513200  0.114000  0.363600  1.0  -0.1301
  C  C179  1  0.571900  0.066300  0.386500  1.0  -0.0974
  C  C180  1  0.564300  0.062200  0.448000  1.0  -0.1053
  C  C181  1  0.498600  0.110300  0.489100  1.0  -0.118
  C  C182  1  0.436300  0.161700  0.467500  1.0  0.0287
  C  C183  1  0.357600  0.219500  0.573500  1.0  0.646
  C  C184  1  0.379000  0.218800  0.314200  1.0  0.7012
  C  C185  1  0.350600  0.429900  0.252100  1.0  -0.12
  C  C186  1  0.404200  0.464400  0.216400  1.0  -0.0414
  C  C187  1  0.389000  0.526800  0.226800  1.0  -0.1338
  C  C188  1  0.317200  0.555400  0.278800  1.0  -0.0832
  C  C189  1  0.258100  0.521300  0.320900  1.0  0.0087
  C  C190  1  0.184800  0.550500  0.375700  1.0  -0.09
  C  C191  1  0.128900  0.519300  0.414700  1.0  -0.099
  C  C192  1  0.142700  0.457800  0.402000  1.0  -0.0849
  C  C193  1  0.217200  0.428400  0.349800  1.0  -0.0992
  C  C194  1  0.277500  0.458100  0.306100  1.0  -0.0066
  C  C195  1  0.371400  0.365400  0.233400  1.0  0.7308
  C  C196  1  0.300800  0.621500  0.290500  1.0  0.7061
  C  C197  1  0.832300  0.760100  0.977900  1.0  -0.1143
  C  C198  1  0.856700  0.712600  0.017200  1.0  -0.1094
  C  C199  1  0.800700  0.715500  0.080300  1.0  -0.0504
  C  C200  1  0.720600  0.765200  0.104000  1.0  -0.1029
  C  C201  1  0.689900  0.815100  0.063500  1.0  0.0262
  C  C202  1  0.605300  0.867500  0.082900  1.0  -0.0711
  C  C203  1  0.580000  0.913500  0.043900  1.0  -0.0833
  C  C204  1  0.638500  0.911700  0.982500  1.0  -0.0653
  C  C205  1  0.720100  0.863700  0.961100  1.0  -0.0863
  C  C206  1  0.749200  0.812900  0.999300  1.0  0.015
  C  C207  1  0.899800  0.754300  0.912700  1.0  0.7113
  C  C208  1  0.668600  0.765100  0.172100  1.0  0.7083
  C  C209  1  0.086600  0.787800  0.493200  1.0  -0.1824
  C  C210  1  0.050900  0.739800  0.518000  1.0  -0.0534
  C  C211  1  0.994000  0.739700  0.579900  1.0  -0.1166
  C  C212  1  0.973800  0.786900  0.618900  1.0  -0.1016
  C  C213  1  0.009000  0.836500  0.597300  1.0  0.0402
  C  C214  1  0.990800  0.886000  0.636400  1.0  -0.1327
  C  C215  1  0.024700  0.933700  0.613500  1.0  -0.094
  C  C216  1  0.074500  0.937800  0.552000  1.0  -0.1054
  C  C217  1  0.098000  0.889700  0.510900  1.0  -0.1198
  C  C218  1  0.065500  0.838300  0.532500  1.0  0.0293
  C  C219  1  0.150600  0.780500  0.426500  1.0  0.6437
  C  C220  1  0.912000  0.781200  0.685800  1.0  0.6975
  C  C221  1  0.032600  0.570100  0.747900  1.0  -0.1183
  C  C222  1  0.085000  0.535600  0.783600  1.0  -0.0431
  C  C223  1  0.142600  0.473200  0.773200  1.0  -0.133
  C  C224  1  0.151400  0.444600  0.721200  1.0  -0.0813
  C  C225  1  0.100300  0.478700  0.679100  1.0  0.0093
  C  C226  1  0.111000  0.449500  0.624300  1.0  -0.09
  C  C227  1  0.062900  0.480700  0.585300  1.0  -0.0968
  C  C228  1  0.002500  0.542200  0.598000  1.0  -0.084
  C  C229  1  0.995400  0.571600  0.650200  1.0  -0.0986
  C  C230  1  0.041700  0.541900  0.693900  1.0  -0.0061
  C  C231  1  0.970200  0.634600  0.766600  1.0  0.7307
  C  C232  1  0.212800  0.378500  0.709500  1.0  0.7058
  C  C233  1  0.842400  0.477900  0.739900  1.0  -0.1133
  C  C234  1  0.819300  0.517200  0.787400  1.0  -0.1014
  C  C235  1  0.766200  0.580300  0.784500  1.0  -0.0486
  C  C236  1  0.735800  0.604000  0.734800  1.0  -0.101
  C  C237  1  0.755000  0.563500  0.684900  1.0  0.0243
  C  C238  1  0.722800  0.582900  0.632500  1.0  -0.0768
  C  C239  1  0.743500  0.543900  0.586500  1.0  -0.0878
  C  C240  1  0.800200  0.482500  0.588300  1.0  -0.0663
  C  C241  1  0.833800  0.461100  0.636300  1.0  -0.0849
  C  C242  1  0.812100  0.499300  0.687100  1.0  0.014
  C  C243  1  0.904100  0.412700  0.745700  1.0  0.7128
  C  C244  1  0.683700  0.672100  0.734900  1.0  0.7034
  C  C245  1  0.124400  0.993200  0.712200  1.0  -0.1821
  C  C246  1  0.040700  0.018000  0.760200  1.0  -0.056
  C  C247  1  0.983700  0.079900  0.760300  1.0  -0.1161
  C  C248  1  0.010700  0.118900  0.713100  1.0  -0.1007
  C  C249  1  0.095500  0.097300  0.663500  1.0  0.0379
  C  C250  1  0.126800  0.136400  0.614000  1.0  -0.1356
  C  C251  1  0.208400  0.113500  0.566300  1.0  -0.0933
  C  C252  1  0.262300  0.052000  0.562200  1.0  -0.1049
  C  C253  1  0.237700  0.010900  0.610300  1.0  -0.1215
  C  C254  1  0.153800  0.032500  0.661700  1.0  0.0278
  C  C255  1  0.181100  0.926500  0.719500  1.0  0.6445
  C  C256  1  0.943200  0.185800  0.718800  1.0  0.6999
  C  C257  1  0.852700  0.247900  0.929900  1.0  -0.1198
  C  C258  1  0.870600  0.283600  0.964400  1.0  -0.0428
  C  C259  1  0.865800  0.273200  0.026800  1.0  -0.1337
  C  C260  1  0.846000  0.221200  0.055400  1.0  -0.0822
  C  C261  1  0.829000  0.179100  0.021300  1.0  0.0091
  C  C262  1  0.810500  0.124300  0.050500  1.0  -0.0881
  C  C263  1  0.793600  0.085300  0.019300  1.0  -0.0979
  C  C264  1  0.794700  0.098000  0.957800  1.0  -0.0839
  C  C265  1  0.817000  0.150200  0.928400  1.0  -0.0924
  C  C266  1  0.833600  0.193900  0.958100  1.0  -0.006
  C  C267  1  0.854800  0.266600  0.865400  1.0  0.7311
  C  C268  1  0.841300  0.209500  0.121500  1.0  0.7066
  C  C269  1  0.060200  0.522100  0.260100  1.0  -0.1127
  C  C270  1  0.123900  0.482800  0.212600  1.0  -0.1062
  C  C271  1  0.131000  0.419700  0.215500  1.0  -0.0497
  C  C272  1  0.074600  0.396000  0.265200  1.0  -0.1034
  C  C273  1  0.003400  0.436500  0.315100  1.0  0.0255
  C  C274  1  0.938200  0.417100  0.367500  1.0  -0.0735
  C  C275  1  0.873900  0.456100  0.413500  1.0  -0.0856
  C  C276  1  0.871000  0.517500  0.411700  1.0  -0.0657
  C  C277  1  0.931200  0.538900  0.363700  1.0  -0.0853
  C  C278  1  0.998500  0.500700  0.312900  1.0  0.0148
  C  C279  1  0.062500  0.587300  0.254300  1.0  0.7122
  C  C280  1  0.090700  0.327900  0.265100  1.0  0.7042
  C  C281  1  0.829800  0.006800  0.287800  1.0  -0.1809
  C  C282  1  0.818900  0.982000  0.239800  1.0  -0.0563
  C  C283  1  0.823900  0.920100  0.239700  1.0  -0.1173
  C  C284  1  0.842700  0.881100  0.286900  1.0  -0.1016
  C  C285  1  0.856300  0.902700  0.336500  1.0  0.0411
  C  C286  1  0.877200  0.863600  0.386000  1.0  -0.1346
  C  C287  1  0.888200  0.886500  0.433700  1.0  -0.0956
  C  C288  1  0.876500  0.948000  0.437800  1.0  -0.1033
  C  C289  1  0.858900  0.989100  0.389700  1.0  -0.1246
  C  C290  1  0.848000  0.967500  0.338300  1.0  0.0305
  C  C291  1  0.827100  0.073500  0.280500  1.0  0.6454
  C  C292  1  0.847800  0.814200  0.281200  1.0  0.7001
  C  C293  1  0.030500  0.752100  0.070100  1.0  -0.1222
  C  C294  1  0.118600  0.716400  0.035600  1.0  -0.0417
  C  C295  1  0.165800  0.726800  0.973200  1.0  -0.1324
  C  C296  1  0.122600  0.778800  0.944600  1.0  -0.0823
  C  C297  1  0.029400  0.820900  0.978700  1.0  0.008
  C  C298  1  0.985300  0.875700  0.949500  1.0  -0.0893
  C  C299  1  0.898200  0.914700  0.980700  1.0  -0.0946
  C  C300  1  0.850500  0.902000  0.042200  1.0  -0.0837
  C  C301  1  0.895600  0.849800  0.071600  1.0  -0.0944
  C  C302  1  0.985600  0.806100  0.041900  1.0  -0.0062
  C  C303  1  0.986800  0.733400  0.134600  1.0  0.7298
  C  C304  1  0.172300  0.790500  0.878500  1.0  0.7037
  C  C305  1  0.332300  0.977900  0.760100  1.0  -0.1135
  C  C306  1  0.356700  0.017200  0.712600  1.0  -0.1051
  C  C307  1  0.300700  0.080300  0.715500  1.0  -0.0498
  C  C308  1  0.220600  0.104000  0.765200  1.0  -0.1027
  C  C309  1  0.189900  0.063500  0.815100  1.0  0.0259
  C  C310  1  0.105300  0.082900  0.867500  1.0  -0.0755
  C  C311  1  0.080000  0.043900  0.913500  1.0  -0.0863
  C  C312  1  0.138500  0.982500  0.911700  1.0  -0.0653
  C  C313  1  0.220100  0.961100  0.863700  1.0  -0.084
  C  C314  1  0.249200  0.999300  0.812900  1.0  0.0143
  C  C315  1  0.399800  0.912700  0.754300  1.0  0.7117
  C  C316  1  0.168600  0.172100  0.765100  1.0  0.7035
  C  C317  1  0.586600  0.493200  0.787800  1.0  -0.1822
  C  C318  1  0.550900  0.518000  0.739800  1.0  -0.0552
  C  C319  1  0.494000  0.579900  0.739700  1.0  -0.1179
  C  C320  1  0.473800  0.618900  0.786900  1.0  -0.1005
  C  C321  1  0.509000  0.597300  0.836500  1.0  0.0418
  C  C322  1  0.490800  0.636400  0.886000  1.0  -0.1358
  C  C323  1  0.524700  0.613500  0.933700  1.0  -0.0957
  C  C324  1  0.574500  0.552000  0.937800  1.0  -0.1026
  C  C325  1  0.598000  0.510900  0.889700  1.0  -0.1226
  C  C326  1  0.565500  0.532500  0.838300  1.0  0.0302
  C  C327  1  0.650600  0.426500  0.780500  1.0  0.645
  C  C328  1  0.412000  0.685800  0.781200  1.0  0.6996
  C  C329  1  0.532600  0.747900  0.570100  1.0  -0.1205
  C  C330  1  0.585000  0.783600  0.535600  1.0  -0.0432
  C  C331  1  0.642600  0.773200  0.473200  1.0  -0.1331
  C  C332  1  0.651400  0.721200  0.444600  1.0  -0.0829
  C  C333  1  0.600300  0.679100  0.478700  1.0  0.0082
  C  C334  1  0.611000  0.624300  0.449500  1.0  -0.0891
  C  C335  1  0.562900  0.585300  0.480700  1.0  -0.0951
  C  C336  1  0.502500  0.598000  0.542200  1.0  -0.0838
  C  C337  1  0.495400  0.650200  0.571600  1.0  -0.0934
  C  C338  1  0.541700  0.693900  0.541900  1.0  -0.0064
  C  C339  1  0.470200  0.766600  0.634600  1.0  0.7303
  C  C340  1  0.712800  0.709500  0.378500  1.0  0.7032
  C  C341  1  0.070300  0.022100  0.239900  1.0  -0.1122
  C  C342  1  0.086500  0.982800  0.287400  1.0  -0.1024
  C  C343  1  0.096500  0.919700  0.284500  1.0  -0.0486
  C  C344  1  0.089800  0.896000  0.234800  1.0  -0.1015
  C  C345  1  0.068500  0.936500  0.184900  1.0  0.0239
  C  C346  1  0.055700  0.917100  0.132500  1.0  -0.0754
  C  C347  1  0.037400  0.956100  0.086500  1.0  -0.0875
  C  C348  1  0.032700  0.017500  0.088300  1.0  -0.0667
  C  C349  1  0.044900  0.038900  0.136300  1.0  -0.0861
  C  C350  1  0.061400  0.000700  0.187100  1.0  0.0143
  C  C351  1  0.066800  0.087300  0.245700  1.0  0.7129
  C  C352  1  0.105800  0.827900  0.234900  1.0  0.7036
  C  C353  1  0.867600  0.506800  0.212200  1.0  -0.1811
  C  C354  1  0.808700  0.482000  0.260200  1.0  -0.0568
  C  C355  1  0.813600  0.420100  0.260300  1.0  -0.1157
  C  C356  1  0.879600  0.381100  0.213100  1.0  -0.1025
  C  C357  1  0.942800  0.402700  0.163500  1.0  0.0372
  C  C358  1  0.013200  0.363600  0.114000  1.0  -0.1367
  C  C359  1  0.071900  0.386500  0.066300  1.0  -0.0939
  C  C360  1  0.064300  0.448000  0.062200  1.0  -0.1052
  C  C361  1  0.998600  0.489100  0.110300  1.0  -0.123
  C  C362  1  0.936300  0.467500  0.161700  1.0  0.028
  C  C363  1  0.857600  0.573500  0.219500  1.0  0.6447
  C  C364  1  0.879000  0.314200  0.218800  1.0  0.7008
  C  C365  1  0.850600  0.252100  0.429900  1.0  -0.1213
  C  C366  1  0.904200  0.216400  0.464400  1.0  -0.0407
  C  C367  1  0.889000  0.226800  0.526800  1.0  -0.133
  C  C368  1  0.817200  0.278800  0.555400  1.0  -0.0819
  C  C369  1  0.758100  0.320900  0.521300  1.0  0.0093
  C  C370  1  0.684800  0.375700  0.550500  1.0  -0.0882
  C  C371  1  0.628900  0.414700  0.519300  1.0  -0.0982
  C  C372  1  0.642700  0.402000  0.457800  1.0  -0.0836
  C  C373  1  0.717200  0.349800  0.428400  1.0  -0.0938
  C  C374  1  0.777500  0.306100  0.458100  1.0  -0.006
  C  C375  1  0.871400  0.233400  0.365400  1.0  0.7307
  C  C376  1  0.800800  0.290500  0.621500  1.0  0.7068
  C  C377  1  0.560200  0.260100  0.522100  1.0  -0.1151
  C  C378  1  0.623900  0.212600  0.482800  1.0  -0.108
  C  C379  1  0.631000  0.215500  0.419700  1.0  -0.052
  C  C380  1  0.574600  0.265200  0.396000  1.0  -0.1028
  C  C381  1  0.503400  0.315100  0.436500  1.0  0.0229
  C  C382  1  0.438200  0.367500  0.417100  1.0  -0.0718
  C  C383  1  0.373900  0.413500  0.456100  1.0  -0.0838
  C  C384  1  0.371000  0.411700  0.517500  1.0  -0.0643
  C  C385  1  0.431200  0.363700  0.538900  1.0  -0.0807
  C  C386  1  0.498500  0.312900  0.500700  1.0  0.0152
  C  C387  1  0.562500  0.254300  0.587300  1.0  0.7137
  C  C388  1  0.590700  0.265100  0.327900  1.0  0.707
  C  C389  1  0.329800  0.287800  0.006800  1.0  -0.1825
  C  C390  1  0.318900  0.239800  0.982000  1.0  -0.058
  C  C391  1  0.323900  0.239700  0.920100  1.0  -0.1165
  C  C392  1  0.342700  0.286900  0.881100  1.0  -0.1021
  C  C393  1  0.356300  0.336500  0.902700  1.0  0.0394
  C  C394  1  0.377200  0.386000  0.863600  1.0  -0.131
  C  C395  1  0.388200  0.433700  0.886500  1.0  -0.095
  C  C396  1  0.376500  0.437800  0.948000  1.0  -0.1051
  C  C397  1  0.358900  0.389700  0.989100  1.0  -0.1187
  C  C398  1  0.348000  0.338300  0.967500  1.0  0.0294
  C  C399  1  0.327100  0.280500  0.073500  1.0  0.646
  C  C400  1  0.347800  0.281200  0.814200  1.0  0.7006
  C  C401  1  0.530500  0.070100  0.752100  1.0  -0.1195
  C  C402  1  0.618600  0.035600  0.716400  1.0  -0.0409
  C  C403  1  0.665800  0.973200  0.726800  1.0  -0.1331
  C  C404  1  0.622600  0.944600  0.778800  1.0  -0.0825
  C  C405  1  0.529400  0.978700  0.820900  1.0  0.0085
  C  C406  1  0.485300  0.949500  0.875700  1.0  -0.0882
  C  C407  1  0.398200  0.980700  0.914700  1.0  -0.0987
  C  C408  1  0.350500  0.042200  0.902000  1.0  -0.0844
  C  C409  1  0.395600  0.071600  0.849800  1.0  -0.0991
  C  C410  1  0.485600  0.041900  0.806100  1.0  -0.0067
  C  C411  1  0.486800  0.134600  0.733400  1.0  0.7309
  C  C412  1  0.672300  0.878500  0.790500  1.0  0.7063
  C  C413  1  0.342400  0.739900  0.477900  1.0  -0.114
  C  C414  1  0.319300  0.787400  0.517200  1.0  -0.1108
  C  C415  1  0.266200  0.784500  0.580300  1.0  -0.0494
  C  C416  1  0.235800  0.734800  0.604000  1.0  -0.1033
  C  C417  1  0.255000  0.684900  0.563500  1.0  0.0258
  C  C418  1  0.222800  0.632500  0.582900  1.0  -0.0717
  C  C419  1  0.243500  0.586500  0.543900  1.0  -0.0848
  C  C420  1  0.300200  0.588300  0.482500  1.0  -0.067
  C  C421  1  0.333800  0.636300  0.461100  1.0  -0.0857
  C  C422  1  0.312100  0.687100  0.499300  1.0  0.0146
  C  C423  1  0.404100  0.745700  0.412700  1.0  0.7115
  C  C424  1  0.183700  0.734900  0.672100  1.0  0.7087
  C  C425  1  0.624400  0.712200  0.993200  1.0  -0.1826
  C  C426  1  0.540700  0.760200  0.018000  1.0  -0.054
  C  C427  1  0.483700  0.760300  0.079900  1.0  -0.1166
  C  C428  1  0.510700  0.713100  0.118900  1.0  -0.102
  C  C429  1  0.595500  0.663500  0.097300  1.0  0.0389
  C  C430  1  0.626800  0.614000  0.136400  1.0  -0.1328
  C  C431  1  0.708400  0.566300  0.113500  1.0  -0.0955
  C  C432  1  0.762300  0.562200  0.052000  1.0  -0.1068
  C  C433  1  0.737700  0.610300  0.010900  1.0  -0.1198
  C  C434  1  0.653800  0.661700  0.032500  1.0  0.0287
  C  C435  1  0.681100  0.719500  0.926500  1.0  0.6435
  C  C436  1  0.443200  0.718800  0.185800  1.0  0.6982
  C  C437  1  0.352700  0.929900  0.247900  1.0  -0.118
  C  C438  1  0.370600  0.964400  0.283600  1.0  -0.0437
  C  C439  1  0.365800  0.026800  0.273200  1.0  -0.1334
  C  C440  1  0.346000  0.055400  0.221200  1.0  -0.0819
  C  C441  1  0.329000  0.021300  0.179100  1.0  0.0095
  C  C442  1  0.310500  0.050500  0.124300  1.0  -0.0907
  C  C443  1  0.293600  0.019300  0.085300  1.0  -0.0972
  C  C444  1  0.294700  0.957800  0.098000  1.0  -0.0845
  C  C445  1  0.317000  0.928400  0.150200  1.0  -0.0992
  C  C446  1  0.333600  0.958100  0.193900  1.0  -0.0061
  C  C447  1  0.354800  0.865400  0.266600  1.0  0.7307
  C  C448  1  0.341300  0.121500  0.209500  1.0  0.7056
  O  O449  1  0.510110  0.225930  0.134050  1.0  -0.738
  O  O450  1  0.618940  0.271960  0.095760  1.0  -0.62
  O  O451  1  0.643730  0.273530  0.791610  1.0  -0.8341
  O  O452  1  0.579600  0.199420  0.805580  1.0  -0.6099
  O  O453  1  0.408860  0.180510  0.602170  1.0  -0.605
  O  O454  1  0.295900  0.268800  0.602400  1.0  -0.6417
  O  O455  1  0.451000  0.219860  0.268940  1.0  -0.7744
  O  O456  1  0.302100  0.224390  0.306410  1.0  -0.6313
  O  O457  1  0.455400  0.336700  0.200500  1.0  -0.7478
  O  O458  1  0.306600  0.342300  0.246300  1.0  -0.6123
  O  O459  1  0.361000  0.634820  0.304780  1.0  -0.6019
  O  O460  1  0.229660  0.664430  0.283050  1.0  -0.8389
  O  O461  1  0.870090  0.774070  0.865950  1.0  -0.7391
  O  O462  1  0.986660  0.728040  0.904240  1.0  -0.6194
  O  O463  1  0.708870  0.726470  0.208390  1.0  -0.8349
  O  O464  1  0.584600  0.800580  0.194420  1.0  -0.6057
  O  O465  1  0.191540  0.819490  0.397830  1.0  -0.6067
  O  O466  1  0.167100  0.731200  0.397600  1.0  -0.6423
  O  O467  1  0.939800  0.780140  0.731060  1.0  -0.7772
  O  O468  1  0.832900  0.775610  0.693590  1.0  -0.6344
  O  O469  1  0.992600  0.663300  0.799500  1.0  -0.7528
  O  O470  1  0.895200  0.657700  0.753700  1.0  -0.6129
  O  O471  1  0.300600  0.365180  0.695220  1.0  -0.6031
  O  O472  1  0.177140  0.335570  0.716950  1.0  -0.8368
  O  O473  1  0.894160  0.365950  0.725930  1.0  -0.7404
  O  O474  1  0.964700  0.404240  0.771960  1.0  -0.6219
  O  O475  1  0.685340  0.708390  0.773530  1.0  -0.8341
  O  O476  1  0.635180  0.694420  0.699420  1.0  -0.608
  O  O477  1  0.261030  0.897830  0.680510  1.0  -0.607
  O  O478  1  0.148300  0.897600  0.768800  1.0  -0.6427
  O  O479  1  0.969940  0.231060  0.719860  1.0  -0.7758
  O  O480  1  0.858510  0.193590  0.724390  1.0  -0.6313
  O  O481  1  0.905900  0.299500  0.836700  1.0  -0.7486
  O  O482  1  0.802900  0.253700  0.842300  1.0  -0.6129
  O  O483  1  0.915780  0.195220  0.134820  1.0  -0.6029
  O  O484  1  0.762710  0.216950  0.164430  1.0  -0.8388
  O  O485  1  0.986040  0.634050  0.274070  1.0  -0.7397
  O  O486  1  0.140900  0.595760  0.228040  1.0  -0.6199
  O  O487  1  0.167260  0.291610  0.226470  1.0  -0.8344
  O  O488  1  0.029020  0.305580  0.300580  1.0  -0.6062
  O  O489  1  0.839370  0.102170  0.319490  1.0  -0.6059
  O  O490  1  0.814700  0.102400  0.231200  1.0  -0.6442
  O  O491  1  0.920860  0.768940  0.280140  1.0  -0.7772
  O  O492  1  0.776490  0.806410  0.275610  1.0  -0.6325
  O  O493  1  0.042100  0.700500  0.163300  1.0  -0.7509
  O  O494  1  0.898900  0.746300  0.157700  1.0  -0.6121
  O  O495  1  0.245820  0.804780  0.865180  1.0  -0.603
  O  O496  1  0.144090  0.783050  0.835570  1.0  -0.8385
  O  O497  1  0.370090  0.865950  0.774070  1.0  -0.7395
  O  O498  1  0.486660  0.904240  0.728040  1.0  -0.6211
  O  O499  1  0.208870  0.208390  0.726470  1.0  -0.8352
  O  O500  1  0.084600  0.194420  0.800580  1.0  -0.6056
  O  O501  1  0.691540  0.397830  0.819490  1.0  -0.6059
  O  O502  1  0.667100  0.397600  0.731200  1.0  -0.645
  O  O503  1  0.439800  0.731060  0.780140  1.0  -0.7787
  O  O504  1  0.332900  0.693590  0.775610  1.0  -0.6316
  O  O505  1  0.492600  0.799500  0.663300  1.0  -0.752
  O  O506  1  0.395200  0.753700  0.657700  1.0  -0.6121
  O  O507  1  0.800600  0.695220  0.365180  1.0  -0.6029
  O  O508  1  0.677140  0.716950  0.335570  1.0  -0.8378
  O  O509  1  0.010110  0.134050  0.225930  1.0  -0.74
  O  O510  1  0.118940  0.095760  0.271960  1.0  -0.6216
  O  O511  1  0.143730  0.791610  0.273530  1.0  -0.8345
  O  O512  1  0.079600  0.805580  0.199420  1.0  -0.6091
  O  O513  1  0.908860  0.602170  0.180510  1.0  -0.6065
  O  O514  1  0.795900  0.602400  0.268800  1.0  -0.6433
  O  O515  1  0.951000  0.268940  0.219860  1.0  -0.7757
  O  O516  1  0.802100  0.306410  0.224390  1.0  -0.632
  O  O517  1  0.955400  0.200500  0.336700  1.0  -0.7481
  O  O518  1  0.806600  0.246300  0.342300  1.0  -0.6132
  O  O519  1  0.861000  0.304780  0.634820  1.0  -0.6031
  O  O520  1  0.729660  0.283050  0.664430  1.0  -0.8377
  O  O521  1  0.486040  0.274070  0.634050  1.0  -0.7386
  O  O522  1  0.640900  0.228040  0.595760  1.0  -0.62
  O  O523  1  0.667260  0.226470  0.291610  1.0  -0.8349
  O  O524  1  0.529020  0.300580  0.305580  1.0  -0.6096
  O  O525  1  0.339370  0.319490  0.102170  1.0  -0.6059
  O  O526  1  0.314700  0.231200  0.102400  1.0  -0.6415
  O  O527  1  0.420860  0.280140  0.768940  1.0  -0.7734
  O  O528  1  0.276490  0.275610  0.806410  1.0  -0.6317
  O  O529  1  0.542100  0.163300  0.700500  1.0  -0.7478
  O  O530  1  0.398900  0.157700  0.746300  1.0  -0.6124
  O  O531  1  0.745820  0.865180  0.804780  1.0  -0.6019
  O  O532  1  0.644090  0.835570  0.783050  1.0  -0.8384
  O  O533  1  0.394160  0.725930  0.365950  1.0  -0.7395
  O  O534  1  0.464700  0.771960  0.404240  1.0  -0.6191
  O  O535  1  0.185340  0.773530  0.708390  1.0  -0.8354
  O  O536  1  0.135180  0.699420  0.694420  1.0  -0.6052
  O  O537  1  0.761030  0.680510  0.897830  1.0  -0.6075
  O  O538  1  0.648300  0.768800  0.897600  1.0  -0.6425
  O  O539  1  0.469940  0.719860  0.231060  1.0  -0.7765
  O  O540  1  0.358510  0.724390  0.193590  1.0  -0.6342
  O  O541  1  0.405900  0.836700  0.299500  1.0  -0.7536
  O  O542  1  0.302900  0.842300  0.253700  1.0  -0.6127
  O  O543  1  0.415780  0.134820  0.195220  1.0  -0.6037
  O  O544  1  0.262710  0.164430  0.216950  1.0  -0.8385
