# generated using pymatgen
data_GdH9(C3O)6
_symmetry_space_group_name_H-M   'P 1'
_cell_length_a   15.74700000
_cell_length_b   22.89790000
_cell_length_c   22.89790000
_cell_angle_alpha   83.20980000
_cell_angle_beta   69.88820000
_cell_angle_gamma   69.88820000
_symmetry_Int_Tables_number   1
_chemical_formula_structural   GdH9(C3O)6
_chemical_formula_sum   'Gd16 H144 C288 O96'
_cell_volume   7280.17832873
_cell_formula_units_Z   16
loop_
 _symmetry_equiv_pos_site_id
 _symmetry_equiv_pos_as_xyz
  1  'x, y, z'
loop_
 _atom_site_type_symbol
 _atom_site_label
 _atom_site_symmetry_multiplicity
 _atom_site_fract_x
 _atom_site_fract_y
 _atom_site_fract_z
 _atom_site_occupancy
 _atom_site_charge
  Gd  Gd1  1  0.588280  0.253250  0.206780  1.0  2.1751
  Gd  Gd2  1  0.340750  0.251070  0.193750  1.0  2.2058
  Gd  Gd3  1  0.048310  0.746750  0.793220  1.0  2.1753
  Gd  Gd4  1  0.785570  0.748930  0.806250  1.0  2.2057
  Gd  Gd5  1  0.045060  0.293220  0.753250  1.0  2.1745
  Gd  Gd6  1  0.784500  0.306250  0.751070  1.0  2.2057
  Gd  Gd7  1  0.091530  0.706780  0.246750  1.0  2.1752
  Gd  Gd8  1  0.841820  0.693750  0.248930  1.0  2.2056
  Gd  Gd9  1  0.548310  0.793220  0.746750  1.0  2.1748
  Gd  Gd10  1  0.285570  0.806250  0.748930  1.0  2.2047
  Gd  Gd11  1  0.088280  0.206780  0.253250  1.0  2.175
  Gd  Gd12  1  0.840750  0.193750  0.251070  1.0  2.2115
  Gd  Gd13  1  0.591530  0.246750  0.706780  1.0  2.175
  Gd  Gd14  1  0.341820  0.248930  0.693750  1.0  2.2042
  Gd  Gd15  1  0.545060  0.753250  0.293220  1.0  2.175
  Gd  Gd16  1  0.284500  0.751070  0.306250  1.0  2.2095
  H  H17  1  0.592900  0.322200  0.999200  1.0  0.1251
  H  H18  1  0.610600  0.316900  0.894300  1.0  0.0985
  H  H19  1  0.562300  0.130900  0.876100  1.0  0.1047
  H  H20  1  0.528300  0.053900  0.943900  1.0  0.1126
  H  H21  1  0.521700  0.056900  0.046100  1.0  0.1029
  H  H22  1  0.540200  0.137900  0.082300  1.0  0.1171
  H  H23  1  0.264000  0.295500  0.507700  1.0  0.1174
  H  H24  1  0.268900  0.294600  0.406000  1.0  0.1113
  H  H25  1  0.513000  0.117700  0.320900  1.0  0.1193
  H  H26  1  0.613200  0.037700  0.357100  1.0  0.0997
  H  H27  1  0.603500  0.029400  0.460600  1.0  0.1279
  H  H28  1  0.495900  0.109300  0.527700  1.0  0.1126
  H  H29  1  0.453400  0.450700  0.175300  1.0  0.0989
  H  H30  1  0.422100  0.553400  0.195200  1.0  0.1251
  H  H31  1  0.178500  0.591100  0.382300  1.0  0.0998
  H  H32  1  0.088700  0.536500  0.449900  1.0  0.1266
  H  H33  1  0.113800  0.433900  0.425700  1.0  0.1049
  H  H34  1  0.233500  0.387000  0.337200  1.0  0.1013
  H  H35  1  0.914300  0.677800  0.000800  1.0  0.1249
  H  H36  1  0.821800  0.683100  0.105700  1.0  0.0981
  H  H37  1  0.569300  0.869100  0.123900  1.0  0.1039
  H  H38  1  0.526100  0.946100  0.056100  1.0  0.1127
  H  H39  1  0.624700  0.943100  0.953900  1.0  0.1036
  H  H40  1  0.760400  0.862100  0.917700  1.0  0.1176
  H  H41  1  0.067200  0.704500  0.492300  1.0  0.1173
  H  H42  1  0.969500  0.705400  0.594000  1.0  0.1109
  H  H43  1  0.951600  0.882300  0.679100  1.0  0.1209
  H  H44  1  0.008000  0.962300  0.642900  1.0  0.0985
  H  H45  1  0.093500  0.970600  0.539400  1.0  0.1279
  H  H46  1  0.132900  0.890700  0.472300  1.0  0.1112
  H  H47  1  0.079400  0.549300  0.824700  1.0  0.0985
  H  H48  1  0.170700  0.446600  0.804800  1.0  0.1253
  H  H49  1  0.151900  0.408900  0.617700  1.0  0.0998
  H  H50  1  0.075100  0.463500  0.550100  1.0  0.1276
  H  H51  1  0.973400  0.566100  0.574300  1.0  0.1043
  H  H52  1  0.957700  0.613000  0.662800  1.0  0.1021
  H  H53  1  0.842100  0.500800  0.822200  1.0  0.1237
  H  H54  1  0.754900  0.605700  0.816900  1.0  0.0996
  H  H55  1  0.688400  0.623900  0.630900  1.0  0.1051
  H  H56  1  0.722200  0.556100  0.553900  1.0  0.1135
  H  H57  1  0.817800  0.453900  0.556900  1.0  0.1027
  H  H58  1  0.872500  0.417700  0.637900  1.0  0.1178
  H  H59  1  0.021700  0.992300  0.795500  1.0  0.1167
  H  H60  1  0.924900  0.094000  0.794600  1.0  0.1114
  H  H61  1  0.083900  0.179100  0.617700  1.0  0.1207
  H  H62  1  0.220300  0.142900  0.537700  1.0  0.1002
  H  H63  1  0.314100  0.039400  0.529400  1.0  0.1255
  H  H64  1  0.273600  0.972300  0.609300  1.0  0.1142
  H  H65  1  0.878700  0.324700  0.950700  1.0  0.098
  H  H66  1  0.867300  0.304800  0.053400  1.0  0.1248
  H  H67  1  0.810800  0.117700  0.091100  1.0  0.1009
  H  H68  1  0.788600  0.050100  0.036500  1.0  0.1278
  H  H69  1  0.789500  0.074300  0.933900  1.0  0.1052
  H  H70  1  0.820700  0.162800  0.887000  1.0  0.1035
  H  H71  1  0.165100  0.499200  0.177800  1.0  0.1261
  H  H72  1  0.177500  0.394300  0.183100  1.0  0.098
  H  H73  1  0.943200  0.376100  0.369100  1.0  0.1057
  H  H74  1  0.832200  0.443900  0.446100  1.0  0.1135
  H  H75  1  0.828600  0.546100  0.443100  1.0  0.1036
  H  H76  1  0.928100  0.582300  0.362100  1.0  0.1175
  H  H77  1  0.809500  0.007700  0.204500  1.0  0.1187
  H  H78  1  0.813500  0.906000  0.205400  1.0  0.1118
  H  H79  1  0.880700  0.820900  0.382300  1.0  0.1209
  H  H80  1  0.900900  0.857100  0.462300  1.0  0.1001
  H  H81  1  0.882900  0.960600  0.470600  1.0  0.1255
  H  H82  1  0.855200  0.027700  0.390700  1.0  0.1139
  H  H83  1  0.154100  0.675300  0.049300  1.0  0.0969
  H  H84  1  0.225500  0.695200  0.946600  1.0  0.1248
  H  H85  1  0.019600  0.882300  0.908900  1.0  0.1014
  H  H86  1  0.875200  0.949900  0.963500  1.0  0.1272
  H  H87  1  0.797700  0.925700  0.066100  1.0  0.105
  H  H88  1  0.870500  0.837200  0.113000  1.0  0.1009
  H  H89  1  0.414300  0.000800  0.677800  1.0  0.126
  H  H90  1  0.321800  0.105700  0.683100  1.0  0.0977
  H  H91  1  0.069300  0.123900  0.869100  1.0  0.1052
  H  H92  1  0.026100  0.056100  0.946100  1.0  0.1135
  H  H93  1  0.124700  0.953900  0.943100  1.0  0.1032
  H  H94  1  0.260400  0.917700  0.862100  1.0  0.1179
  H  H95  1  0.567200  0.492300  0.704500  1.0  0.1184
  H  H96  1  0.469500  0.594000  0.705400  1.0  0.1115
  H  H97  1  0.451600  0.679100  0.882300  1.0  0.1207
  H  H98  1  0.508000  0.642900  0.962300  1.0  0.0999
  H  H99  1  0.593500  0.539400  0.970600  1.0  0.126
  H  H100  1  0.632900  0.472300  0.890700  1.0  0.1143
  H  H101  1  0.579400  0.824700  0.549300  1.0  0.097
  H  H102  1  0.670700  0.804800  0.446600  1.0  0.125
  H  H103  1  0.651900  0.617700  0.408900  1.0  0.1015
  H  H104  1  0.575100  0.550100  0.463500  1.0  0.1269
  H  H105  1  0.473400  0.574300  0.566100  1.0  0.1048
  H  H106  1  0.457700  0.662800  0.613000  1.0  0.1009
  H  H107  1  0.092900  0.999200  0.322200  1.0  0.1237
  H  H108  1  0.110600  0.894300  0.316900  1.0  0.1002
  H  H109  1  0.062300  0.876100  0.130900  1.0  0.1053
  H  H110  1  0.028300  0.943900  0.053900  1.0  0.1131
  H  H111  1  0.021700  0.046100  0.056900  1.0  0.1023
  H  H112  1  0.040200  0.082300  0.137900  1.0  0.1174
  H  H113  1  0.764000  0.507700  0.295500  1.0  0.1169
  H  H114  1  0.768900  0.406000  0.294600  1.0  0.1116
  H  H115  1  0.013000  0.320900  0.117700  1.0  0.1209
  H  H116  1  0.113200  0.357100  0.037700  1.0  0.1
  H  H117  1  0.103500  0.460600  0.029400  1.0  0.1257
  H  H118  1  0.995900  0.527700  0.109300  1.0  0.1136
  H  H119  1  0.953400  0.175300  0.450700  1.0  0.0981
  H  H120  1  0.922100  0.195200  0.553400  1.0  0.1246
  H  H121  1  0.678500  0.382300  0.591100  1.0  0.1007
  H  H122  1  0.588700  0.449900  0.536500  1.0  0.1279
  H  H123  1  0.613800  0.425700  0.433900  1.0  0.1053
  H  H124  1  0.733500  0.337200  0.387000  1.0  0.1038
  H  H125  1  0.665100  0.177800  0.499200  1.0  0.1262
  H  H126  1  0.677500  0.183100  0.394300  1.0  0.0982
  H  H127  1  0.443200  0.369100  0.376100  1.0  0.1049
  H  H128  1  0.332200  0.446100  0.443900  1.0  0.1131
  H  H129  1  0.328600  0.443100  0.546100  1.0  0.1025
  H  H130  1  0.428100  0.362100  0.582300  1.0  0.1171
  H  H131  1  0.309500  0.204500  0.007700  1.0  0.1168
  H  H132  1  0.313500  0.205400  0.906000  1.0  0.1108
  H  H133  1  0.380700  0.382300  0.820900  1.0  0.1192
  H  H134  1  0.400900  0.462300  0.857100  1.0  0.0996
  H  H135  1  0.382900  0.470600  0.960600  1.0  0.1271
  H  H136  1  0.355200  0.390700  0.027700  1.0  0.1121
  H  H137  1  0.654100  0.049300  0.675300  1.0  0.0988
  H  H138  1  0.725500  0.946600  0.695200  1.0  0.1251
  H  H139  1  0.519600  0.908900  0.882300  1.0  0.1001
  H  H140  1  0.375200  0.963500  0.949900  1.0  0.1269
  H  H141  1  0.297700  0.066100  0.925700  1.0  0.1047
  H  H142  1  0.370500  0.113000  0.837200  1.0  0.1015
  H  H143  1  0.342100  0.822200  0.500800  1.0  0.1241
  H  H144  1  0.254900  0.816900  0.605700  1.0  0.0981
  H  H145  1  0.188400  0.630900  0.623900  1.0  0.1039
  H  H146  1  0.222200  0.553900  0.556100  1.0  0.1128
  H  H147  1  0.317800  0.556900  0.453900  1.0  0.1027
  H  H148  1  0.372500  0.637900  0.417700  1.0  0.1175
  H  H149  1  0.521700  0.795500  0.992300  1.0  0.1179
  H  H150  1  0.424900  0.794600  0.094000  1.0  0.1115
  H  H151  1  0.583900  0.617700  0.179100  1.0  0.1207
  H  H152  1  0.720300  0.537700  0.142900  1.0  0.0993
  H  H153  1  0.814100  0.529400  0.039400  1.0  0.1282
  H  H154  1  0.773600  0.609300  0.972300  1.0  0.1116
  H  H155  1  0.378700  0.950700  0.324700  1.0  0.0986
  H  H156  1  0.367300  0.053400  0.304800  1.0  0.1254
  H  H157  1  0.310800  0.091100  0.117700  1.0  0.0999
  H  H158  1  0.288600  0.036500  0.050100  1.0  0.1274
  H  H159  1  0.289500  0.933900  0.074300  1.0  0.1042
  H  H160  1  0.320700  0.887000  0.162800  1.0  0.1017
  C  C161  1  0.569400  0.241000  0.023400  1.0  -0.0944
  C  C162  1  0.587700  0.287900  0.984300  1.0  -0.1164
  C  C163  1  0.598600  0.284400  0.920600  1.0  -0.0534
  C  C164  1  0.591900  0.235300  0.897100  1.0  -0.1166
  C  C165  1  0.571000  0.185600  0.937000  1.0  0.0283
  C  C166  1  0.557600  0.133400  0.917400  1.0  -0.0916
  C  C167  1  0.538000  0.086900  0.957700  1.0  -0.0841
  C  C168  1  0.532900  0.089300  0.019300  1.0  -0.0798
  C  C169  1  0.543900  0.137700  0.040900  1.0  -0.1109
  C  C170  1  0.561200  0.188500  0.001700  1.0  0.0363
  C  C171  1  0.565700  0.247200  0.088800  1.0  0.7038
  C  C172  1  0.604500  0.236500  0.829700  1.0  0.6916
  C  C173  1  0.368700  0.213900  0.505500  1.0  -0.1278
  C  C174  1  0.308100  0.262500  0.481900  1.0  -0.0971
  C  C175  1  0.312400  0.262600  0.420200  1.0  -0.1082
  C  C176  1  0.380000  0.216000  0.379600  1.0  -0.1168
  C  C177  1  0.441400  0.165700  0.401500  1.0  0.0447
  C  C178  1  0.508700  0.117100  0.362500  1.0  -0.1572
  C  C179  1  0.567700  0.068900  0.384500  1.0  -0.0787
  C  C180  1  0.563500  0.064000  0.446400  1.0  -0.1166
  C  C181  1  0.498300  0.111600  0.486400  1.0  -0.0592
  C  C182  1  0.435400  0.163700  0.466300  1.0  0.0424
  C  C183  1  0.356500  0.220700  0.572900  1.0  0.6474
  C  C184  1  0.378000  0.222000  0.313800  1.0  0.6921
  C  C185  1  0.352300  0.434100  0.248100  1.0  -0.1549
  C  C186  1  0.404000  0.469000  0.210800  1.0  -0.0607
  C  C187  1  0.386700  0.530700  0.222900  1.0  -0.135
  C  C188  1  0.316000  0.558100  0.276900  1.0  -0.1002
  C  C189  1  0.261700  0.522800  0.318600  1.0  0.0171
  C  C190  1  0.189500  0.550100  0.373300  1.0  -0.113
  C  C191  1  0.135400  0.518100  0.413500  1.0  -0.1391
  C  C192  1  0.151300  0.456100  0.399100  1.0  -0.0908
  C  C193  1  0.222600  0.428300  0.345500  1.0  -0.0978
  C  C194  1  0.278900  0.461100  0.303300  1.0  0.0304
  C  C195  1  0.376700  0.368600  0.228400  1.0  0.72
  C  C196  1  0.299900  0.623200  0.289800  1.0  0.7019
  C  C197  1  0.833800  0.759000  0.976600  1.0  -0.0963
  C  C198  1  0.859900  0.712100  0.015700  1.0  -0.1163
  C  C199  1  0.803600  0.715600  0.079400  1.0  -0.0517
  C  C200  1  0.724300  0.764700  0.102900  1.0  -0.1168
  C  C201  1  0.693600  0.814400  0.063000  1.0  0.0302
  C  C202  1  0.608400  0.866600  0.082600  1.0  -0.0936
  C  C203  1  0.582600  0.913100  0.042300  1.0  -0.0834
  C  C204  1  0.641500  0.910700  0.980700  1.0  -0.0788
  C  C205  1  0.722500  0.862300  0.959100  1.0  -0.1133
  C  C206  1  0.751400  0.811500  0.998300  1.0  0.0358
  C  C207  1  0.901700  0.752800  0.911200  1.0  0.7024
  C  C208  1  0.670700  0.763500  0.170300  1.0  0.6906
  C  C209  1  0.088100  0.786100  0.494500  1.0  -0.1289
  C  C210  1  0.052500  0.737500  0.518100  1.0  -0.0914
  C  C211  1  0.995200  0.737400  0.579800  1.0  -0.1067
  C  C212  1  0.975600  0.784000  0.620400  1.0  -0.115
  C  C213  1  0.008600  0.834300  0.598500  1.0  0.0455
  C  C214  1  0.988300  0.882900  0.637500  1.0  -0.1617
  C  C215  1  0.021100  0.931100  0.615500  1.0  -0.0753
  C  C216  1  0.073900  0.936000  0.553600  1.0  -0.1143
  C  C217  1  0.096300  0.888400  0.513600  1.0  -0.0623
  C  C218  1  0.065400  0.836300  0.533700  1.0  0.0423
  C  C219  1  0.150100  0.779300  0.427100  1.0  0.6455
  C  C220  1  0.913800  0.778000  0.686200  1.0  0.6879
  C  C221  1  0.034500  0.565900  0.751900  1.0  -0.157
  C  C222  1  0.083800  0.531000  0.789200  1.0  -0.0596
  C  C223  1  0.140300  0.469300  0.777100  1.0  -0.1337
  C  C224  1  0.151000  0.441900  0.723100  1.0  -0.0979
  C  C225  1  0.103100  0.477200  0.681400  1.0  0.017
  C  C226  1  0.112900  0.449900  0.626700  1.0  -0.1131
  C  C227  1  0.067000  0.481900  0.586500  1.0  -0.1351
  C  C228  1  0.006500  0.543900  0.600900  1.0  -0.0889
  C  C229  1  0.996400  0.571700  0.654500  1.0  -0.097
  C  C230  1  0.043300  0.538900  0.696700  1.0  0.0318
  C  C231  1  0.973700  0.631400  0.771600  1.0  0.7199
  C  C232  1  0.212900  0.376800  0.710200  1.0  0.7029
  C  C233  1  0.842800  0.476600  0.741000  1.0  -0.0949
  C  C234  1  0.822000  0.515700  0.787900  1.0  -0.1097
  C  C235  1  0.769200  0.579400  0.784400  1.0  -0.0498
  C  C236  1  0.739000  0.602900  0.735300  1.0  -0.114
  C  C237  1  0.758000  0.563000  0.685600  1.0  0.0309
  C  C238  1  0.725000  0.582600  0.633400  1.0  -0.0975
  C  C239  1  0.745700  0.542300  0.586900  1.0  -0.0878
  C  C240  1  0.802200  0.480700  0.589300  1.0  -0.0809
  C  C241  1  0.834800  0.459100  0.637700  1.0  -0.1148
  C  C242  1  0.812900  0.498300  0.688500  1.0  0.0352
  C  C243  1  0.904500  0.411200  0.747200  1.0  0.7031
  C  C244  1  0.684200  0.670300  0.736500  1.0  0.6868
  C  C245  1  0.124200  0.994500  0.713900  1.0  -0.1284
  C  C246  1  0.040000  0.018100  0.762500  1.0  -0.0961
  C  C247  1  0.982600  0.079800  0.762600  1.0  -0.1059
  C  C248  1  0.009600  0.120400  0.716000  1.0  -0.1146
  C  C249  1  0.092900  0.098500  0.665700  1.0  0.0447
  C  C250  1  0.121200  0.137500  0.617100  1.0  -0.1629
  C  C251  1  0.202200  0.115500  0.568900  1.0  -0.0802
  C  C252  1  0.259900  0.053600  0.564000  1.0  -0.1158
  C  C253  1  0.234700  0.013600  0.611600  1.0  -0.062
  C  C254  1  0.151700  0.033700  0.663700  1.0  0.0428
  C  C255  1  0.179400  0.927100  0.720700  1.0  0.647
  C  C256  1  0.941800  0.186200  0.722000  1.0  0.6906
  C  C257  1  0.850400  0.251900  0.934100  1.0  -0.1569
  C  C258  1  0.864800  0.289200  0.969000  1.0  -0.0597
  C  C259  1  0.859600  0.277100  0.030700  1.0  -0.1354
  C  C260  1  0.842900  0.223100  0.058100  1.0  -0.0989
  C  C261  1  0.830300  0.181400  0.022800  1.0  0.017
  C  C262  1  0.812800  0.126700  0.050100  1.0  -0.1075
  C  C263  1  0.798900  0.086500  0.018100  1.0  -0.1352
  C  C264  1  0.800400  0.100900  0.956100  1.0  -0.0895
  C  C265  1  0.818100  0.154500  0.928300  1.0  -0.0942
  C  C266  1  0.832200  0.196700  0.961100  1.0  0.0302
  C  C267  1  0.855100  0.271600  0.868600  1.0  0.7198
  C  C268  1  0.839700  0.210200  0.123200  1.0  0.7033
  C  C269  1  0.060400  0.523400  0.259000  1.0  -0.0936
  C  C270  1  0.125600  0.484300  0.212100  1.0  -0.1144
  C  C271  1  0.133000  0.420600  0.215600  1.0  -0.0503
  C  C272  1  0.077200  0.397100  0.264700  1.0  -0.1163
  C  C273  1  0.006600  0.437000  0.314400  1.0  0.0305
  C  C274  1  0.941000  0.417400  0.366600  1.0  -0.0969
  C  C275  1  0.874900  0.457700  0.413100  1.0  -0.0855
  C  C276  1  0.872200  0.519300  0.410700  1.0  -0.0799
  C  C277  1  0.931600  0.540900  0.362300  1.0  -0.1171
  C  C278  1  0.999700  0.501700  0.311500  1.0  0.0361
  C  C279  1  0.062900  0.588800  0.252800  1.0  0.7011
  C  C280  1  0.091000  0.329700  0.263500  1.0  0.6886
  C  C281  1  0.832600  0.005500  0.286100  1.0  -0.1283
  C  C282  1  0.820600  0.981900  0.237500  1.0  -0.0943
  C  C283  1  0.825000  0.920200  0.237400  1.0  -0.1066
  C  C284  1  0.846000  0.879600  0.284000  1.0  -0.1158
  C  C285  1  0.857100  0.901500  0.334300  1.0  0.048
  C  C286  1  0.875800  0.862500  0.382900  1.0  -0.1641
  C  C287  1  0.886600  0.884500  0.431100  1.0  -0.0782
  C  C288  1  0.877500  0.946400  0.436000  1.0  -0.116
  C  C289  1  0.859900  0.986400  0.388400  1.0  -0.066
  C  C290  1  0.849100  0.966300  0.336300  1.0  0.0452
  C  C291  1  0.827200  0.072900  0.279300  1.0  0.6479
  C  C292  1  0.850000  0.813800  0.278000  1.0  0.6908
  C  C293  1  0.036400  0.748100  0.065900  1.0  -0.1596
  C  C294  1  0.123000  0.710800  0.031000  1.0  -0.0596
  C  C295  1  0.167400  0.722900  0.969300  1.0  -0.1335
  C  C296  1  0.124100  0.776900  0.941900  1.0  -0.0994
  C  C297  1  0.034500  0.818600  0.977200  1.0  0.0168
  C  C298  1  0.989600  0.873300  0.949900  1.0  -0.1076
  C  C299  1  0.903500  0.913500  0.981900  1.0  -0.1338
  C  C300  1  0.857400  0.899100  0.043900  1.0  -0.089
  C  C301  1  0.900900  0.845500  0.071700  1.0  -0.0945
  C  C302  1  0.990000  0.803300  0.038900  1.0  0.0312
  C  C303  1  0.995300  0.728400  0.131400  1.0  0.719
  C  C304  1  0.173100  0.789800  0.876800  1.0  0.7005
  C  C305  1  0.333800  0.976600  0.759000  1.0  -0.0953
  C  C306  1  0.359900  0.015700  0.712100  1.0  -0.1134
  C  C307  1  0.303600  0.079400  0.715600  1.0  -0.0513
  C  C308  1  0.224300  0.102900  0.764700  1.0  -0.1149
  C  C309  1  0.193600  0.063000  0.814400  1.0  0.031
  C  C310  1  0.108400  0.082600  0.866600  1.0  -0.0961
  C  C311  1  0.082600  0.042300  0.913100  1.0  -0.0861
  C  C312  1  0.141500  0.980700  0.910700  1.0  -0.0799
  C  C313  1  0.222500  0.959100  0.862300  1.0  -0.1154
  C  C314  1  0.251400  0.998300  0.811500  1.0  0.036
  C  C315  1  0.401700  0.911200  0.752800  1.0  0.702
  C  C316  1  0.170700  0.170300  0.763500  1.0  0.6884
  C  C317  1  0.588100  0.494500  0.786100  1.0  -0.1278
  C  C318  1  0.552500  0.518100  0.737500  1.0  -0.0925
  C  C319  1  0.495200  0.579800  0.737400  1.0  -0.107
  C  C320  1  0.475600  0.620400  0.784000  1.0  -0.1145
  C  C321  1  0.508600  0.598500  0.834300  1.0  0.0477
  C  C322  1  0.488300  0.637500  0.882900  1.0  -0.1641
  C  C323  1  0.521100  0.615500  0.931100  1.0  -0.0785
  C  C324  1  0.573900  0.553600  0.936000  1.0  -0.1153
  C  C325  1  0.596300  0.513600  0.888400  1.0  -0.0642
  C  C326  1  0.565400  0.533700  0.836300  1.0  0.0453
  C  C327  1  0.650100  0.427100  0.779300  1.0  0.6474
  C  C328  1  0.413800  0.686200  0.778000  1.0  0.6902
  C  C329  1  0.534500  0.751900  0.565900  1.0  -0.1583
  C  C330  1  0.583800  0.789200  0.531000  1.0  -0.0598
  C  C331  1  0.640300  0.777100  0.469300  1.0  -0.1337
  C  C332  1  0.651000  0.723100  0.441900  1.0  -0.0996
  C  C333  1  0.603100  0.681400  0.477200  1.0  0.0169
  C  C334  1  0.612900  0.626700  0.449900  1.0  -0.1073
  C  C335  1  0.567000  0.586500  0.481900  1.0  -0.1339
  C  C336  1  0.506500  0.600900  0.543900  1.0  -0.0892
  C  C337  1  0.496400  0.654500  0.571700  1.0  -0.0947
  C  C338  1  0.543300  0.696700  0.538900  1.0  0.0308
  C  C339  1  0.473700  0.771600  0.631400  1.0  0.7197
  C  C340  1  0.712900  0.710200  0.376800  1.0  0.7
  C  C341  1  0.069400  0.023400  0.241000  1.0  -0.0929
  C  C342  1  0.087700  0.984300  0.287900  1.0  -0.1101
  C  C343  1  0.098600  0.920600  0.284400  1.0  -0.049
  C  C344  1  0.091900  0.897100  0.235300  1.0  -0.1154
  C  C345  1  0.071000  0.937000  0.185600  1.0  0.0302
  C  C346  1  0.057600  0.917400  0.133400  1.0  -0.0977
  C  C347  1  0.038000  0.957700  0.086900  1.0  -0.0876
  C  C348  1  0.032900  0.019300  0.089300  1.0  -0.0804
  C  C349  1  0.043900  0.040900  0.137700  1.0  -0.1162
  C  C350  1  0.061200  0.001700  0.188500  1.0  0.0353
  C  C351  1  0.065700  0.088800  0.247200  1.0  0.7025
  C  C352  1  0.104500  0.829700  0.236500  1.0  0.6864
  C  C353  1  0.868700  0.505500  0.213900  1.0  -0.1284
  C  C354  1  0.808100  0.481900  0.262500  1.0  -0.097
  C  C355  1  0.812400  0.420200  0.262600  1.0  -0.1054
  C  C356  1  0.880000  0.379600  0.216000  1.0  -0.1165
  C  C357  1  0.941400  0.401500  0.165700  1.0  0.045
  C  C358  1  0.008700  0.362500  0.117100  1.0  -0.1642
  C  C359  1  0.067700  0.384500  0.068900  1.0  -0.0793
  C  C360  1  0.063500  0.446400  0.064000  1.0  -0.1162
  C  C361  1  0.998300  0.486400  0.111600  1.0  -0.0634
  C  C362  1  0.935400  0.466300  0.163700  1.0  0.0428
  C  C363  1  0.856500  0.572900  0.220700  1.0  0.6473
  C  C364  1  0.878000  0.313800  0.222000  1.0  0.6915
  C  C365  1  0.852300  0.248100  0.434100  1.0  -0.1576
  C  C366  1  0.904000  0.210800  0.469000  1.0  -0.0587
  C  C367  1  0.886700  0.222900  0.530700  1.0  -0.1348
  C  C368  1  0.816000  0.276900  0.558100  1.0  -0.0987
  C  C369  1  0.761700  0.318600  0.522800  1.0  0.0171
  C  C370  1  0.689500  0.373300  0.550100  1.0  -0.1077
  C  C371  1  0.635400  0.413500  0.518100  1.0  -0.1353
  C  C372  1  0.651300  0.399100  0.456100  1.0  -0.0885
  C  C373  1  0.722600  0.345500  0.428300  1.0  -0.0944
  C  C374  1  0.778900  0.303300  0.461100  1.0  0.0306
  C  C375  1  0.876700  0.228400  0.368600  1.0  0.7187
  C  C376  1  0.799900  0.289800  0.623200  1.0  0.7036
  C  C377  1  0.560400  0.259000  0.523400  1.0  -0.0951
  C  C378  1  0.625600  0.212100  0.484300  1.0  -0.1145
  C  C379  1  0.633000  0.215600  0.420600  1.0  -0.0536
  C  C380  1  0.577200  0.264700  0.397100  1.0  -0.1157
  C  C381  1  0.506600  0.314400  0.437000  1.0  0.0282
  C  C382  1  0.441000  0.366600  0.417400  1.0  -0.0925
  C  C383  1  0.374900  0.413100  0.457700  1.0  -0.0838
  C  C384  1  0.372200  0.410700  0.519300  1.0  -0.0786
  C  C385  1  0.431600  0.362300  0.540900  1.0  -0.11
  C  C386  1  0.499700  0.311500  0.501700  1.0  0.0363
  C  C387  1  0.562900  0.252800  0.588800  1.0  0.7033
  C  C388  1  0.591000  0.263500  0.329700  1.0  0.6912
  C  C389  1  0.332600  0.286100  0.005500  1.0  -0.1278
  C  C390  1  0.320600  0.237500  0.981900  1.0  -0.0975
  C  C391  1  0.325000  0.237400  0.920200  1.0  -0.1076
  C  C392  1  0.346000  0.284000  0.879600  1.0  -0.1167
  C  C393  1  0.357100  0.334300  0.901500  1.0  0.0447
  C  C394  1  0.375800  0.382900  0.862500  1.0  -0.1584
  C  C395  1  0.386600  0.431100  0.884500  1.0  -0.0776
  C  C396  1  0.377500  0.436000  0.946400  1.0  -0.115
  C  C397  1  0.359900  0.388400  0.986400  1.0  -0.0585
  C  C398  1  0.349100  0.336300  0.966300  1.0  0.0427
  C  C399  1  0.327200  0.279300  0.072900  1.0  0.6475
  C  C400  1  0.350000  0.278000  0.813800  1.0  0.6915
  C  C401  1  0.536400  0.065900  0.748100  1.0  -0.155
  C  C402  1  0.623000  0.031000  0.710800  1.0  -0.0609
  C  C403  1  0.667400  0.969300  0.722900  1.0  -0.1349
  C  C404  1  0.624100  0.941900  0.776900  1.0  -0.0995
  C  C405  1  0.534500  0.977200  0.818600  1.0  0.0169
  C  C406  1  0.489600  0.949900  0.873300  1.0  -0.1114
  C  C407  1  0.403500  0.981900  0.913500  1.0  -0.1385
  C  C408  1  0.357400  0.043900  0.899100  1.0  -0.091
  C  C409  1  0.400900  0.071700  0.845500  1.0  -0.0977
  C  C410  1  0.490000  0.038900  0.803300  1.0  0.0305
  C  C411  1  0.495300  0.131400  0.728400  1.0  0.7197
  C  C412  1  0.673100  0.876800  0.789800  1.0  0.7018
  C  C413  1  0.342800  0.741000  0.476600  1.0  -0.0956
  C  C414  1  0.322000  0.787900  0.515700  1.0  -0.1183
  C  C415  1  0.269200  0.784400  0.579400  1.0  -0.0511
  C  C416  1  0.239000  0.735300  0.602900  1.0  -0.1172
  C  C417  1  0.258000  0.685600  0.563000  1.0  0.0308
  C  C418  1  0.225000  0.633400  0.582600  1.0  -0.0941
  C  C419  1  0.245700  0.586900  0.542300  1.0  -0.0835
  C  C420  1  0.302200  0.589300  0.480700  1.0  -0.081
  C  C421  1  0.334800  0.637700  0.459100  1.0  -0.1133
  C  C422  1  0.312900  0.688500  0.498300  1.0  0.0359
  C  C423  1  0.404500  0.747200  0.411200  1.0  0.7024
  C  C424  1  0.184200  0.736500  0.670300  1.0  0.6906
  C  C425  1  0.624200  0.713900  0.994500  1.0  -0.1289
  C  C426  1  0.540000  0.762500  0.018100  1.0  -0.0925
  C  C427  1  0.482600  0.762600  0.079800  1.0  -0.107
  C  C428  1  0.509600  0.716000  0.120400  1.0  -0.1151
  C  C429  1  0.592900  0.665700  0.098500  1.0  0.0453
  C  C430  1  0.621200  0.617100  0.137500  1.0  -0.1612
  C  C431  1  0.702200  0.568900  0.115500  1.0  -0.0758
  C  C432  1  0.759900  0.564000  0.053600  1.0  -0.1181
  C  C433  1  0.734700  0.611600  0.013600  1.0  -0.0619
  C  C434  1  0.651700  0.663700  0.033700  1.0  0.0424
  C  C435  1  0.679400  0.720700  0.927100  1.0  0.6451
  C  C436  1  0.441800  0.722000  0.186200  1.0  0.6887
  C  C437  1  0.350400  0.934100  0.251900  1.0  -0.1561
  C  C438  1  0.364800  0.969000  0.289200  1.0  -0.0599
  C  C439  1  0.359600  0.030700  0.277100  1.0  -0.1342
  C  C440  1  0.342900  0.058100  0.223100  1.0  -0.0988
  C  C441  1  0.330300  0.022800  0.181400  1.0  0.0173
  C  C442  1  0.312800  0.050100  0.126700  1.0  -0.1131
  C  C443  1  0.298900  0.018100  0.086500  1.0  -0.1351
  C  C444  1  0.300400  0.956100  0.100900  1.0  -0.0891
  C  C445  1  0.318100  0.928300  0.154500  1.0  -0.0968
  C  C446  1  0.332200  0.961100  0.196700  1.0  0.0315
  C  C447  1  0.355100  0.868600  0.271600  1.0  0.7199
  C  C448  1  0.339700  0.123200  0.210200  1.0  0.7027
  O  O449  1  0.506840  0.228900  0.135220  1.0  -0.7429
  O  O450  1  0.620940  0.269670  0.097650  1.0  -0.6014
  O  O451  1  0.643560  0.273950  0.793530  1.0  -0.832
  O  O452  1  0.578430  0.200230  0.808110  1.0  -0.6063
  O  O453  1  0.407170  0.181120  0.601140  1.0  -0.5998
  O  O454  1  0.294490  0.269650  0.602370  1.0  -0.6415
  O  O455  1  0.451630  0.221660  0.267880  1.0  -0.8265
  O  O456  1  0.300750  0.229130  0.305770  1.0  -0.6269
  O  O457  1  0.463600  0.340800  0.200600  1.0  -0.7014
  O  O458  1  0.314500  0.344400  0.238600  1.0  -0.5942
  O  O459  1  0.360140  0.636820  0.303900  1.0  -0.6156
  O  O460  1  0.228290  0.666770  0.282850  1.0  -0.8471
  O  O461  1  0.870960  0.771100  0.864780  1.0  -0.7455
  O  O462  1  0.988260  0.730330  0.902350  1.0  -0.6007
  O  O463  1  0.711040  0.726050  0.206470  1.0  -0.835
  O  O464  1  0.586770  0.799770  0.191890  1.0  -0.6044
  O  O465  1  0.189430  0.818880  0.398860  1.0  -0.6044
  O  O466  1  0.166510  0.730350  0.397630  1.0  -0.643
  O  O467  1  0.941170  0.778340  0.732120  1.0  -0.8285
  O  O468  1  0.835650  0.770870  0.694230  1.0  -0.6277
  O  O469  1  0.005000  0.659200  0.799400  1.0  -0.7055
  O  O470  1  0.897500  0.655600  0.761400  1.0  -0.5926
  O  O471  1  0.300860  0.363180  0.696100  1.0  -0.6162
  O  O472  1  0.177910  0.333230  0.717150  1.0  -0.8481
  O  O473  1  0.892060  0.364780  0.728900  1.0  -0.7451
  O  O474  1  0.968590  0.402350  0.769670  1.0  -0.6024
  O  O475  1  0.687090  0.706470  0.773950  1.0  -0.8332
  O  O476  1  0.636540  0.691890  0.700230  1.0  -0.6047
  O  O477  1  0.258310  0.898860  0.681120  1.0  -0.6036
  O  O478  1  0.146860  0.897630  0.769650  1.0  -0.6432
  O  O479  1  0.969510  0.232120  0.721660  1.0  -0.8268
  O  O480  1  0.856520  0.194230  0.729130  1.0  -0.6278
  O  O481  1  0.914200  0.299400  0.840800  1.0  -0.7021
  O  O482  1  0.803100  0.261400  0.844400  1.0  -0.5939
  O  O483  1  0.914040  0.196100  0.136820  1.0  -0.6162
  O  O484  1  0.761140  0.217150  0.166770  1.0  -0.8493
  O  O485  1  0.985740  0.635220  0.271100  1.0  -0.7445
  O  O486  1  0.140610  0.597650  0.230330  1.0  -0.6004
  O  O487  1  0.167510  0.293530  0.226050  1.0  -0.8324
  O  O488  1  0.028660  0.308110  0.299770  1.0  -0.6041
  O  O489  1  0.838290  0.101140  0.318880  1.0  -0.6019
  O  O490  1  0.814140  0.102370  0.230350  1.0  -0.6435
  O  O491  1  0.923290  0.767880  0.278340  1.0  -0.8297
  O  O492  1  0.779880  0.805770  0.270870  1.0  -0.6283
  O  O493  1  0.054400  0.700600  0.159200  1.0  -0.7033
  O  O494  1  0.908900  0.738600  0.155600  1.0  -0.5916
  O  O495  1  0.246960  0.803900  0.863180  1.0  -0.6164
  O  O496  1  0.145060  0.782850  0.833230  1.0  -0.8484
  O  O497  1  0.370960  0.864780  0.771100  1.0  -0.745
  O  O498  1  0.488260  0.902350  0.730330  1.0  -0.6015
  O  O499  1  0.211040  0.206470  0.726050  1.0  -0.8342
  O  O500  1  0.086770  0.191890  0.799770  1.0  -0.6036
  O  O501  1  0.689430  0.398860  0.818880  1.0  -0.6011
  O  O502  1  0.666510  0.397630  0.730350  1.0  -0.6445
  O  O503  1  0.441170  0.732120  0.778340  1.0  -0.8306
  O  O504  1  0.335650  0.694230  0.770870  1.0  -0.6297
  O  O505  1  0.505000  0.799400  0.659200  1.0  -0.7043
  O  O506  1  0.397500  0.761400  0.655600  1.0  -0.592
  O  O507  1  0.800860  0.696100  0.363180  1.0  -0.6161
  O  O508  1  0.677910  0.717150  0.333230  1.0  -0.8485
  O  O509  1  0.006840  0.135220  0.228900  1.0  -0.7448
  O  O510  1  0.120940  0.097650  0.269670  1.0  -0.6025
  O  O511  1  0.143560  0.793530  0.273950  1.0  -0.8333
  O  O512  1  0.078430  0.808110  0.200230  1.0  -0.6056
  O  O513  1  0.907170  0.601140  0.181120  1.0  -0.604
  O  O514  1  0.794490  0.602370  0.269650  1.0  -0.6442
  O  O515  1  0.951630  0.267880  0.221660  1.0  -0.8282
  O  O516  1  0.800750  0.305770  0.229130  1.0  -0.6296
  O  O517  1  0.963600  0.200600  0.340800  1.0  -0.7016
  O  O518  1  0.814500  0.238600  0.344400  1.0  -0.594
  O  O519  1  0.860140  0.303900  0.636820  1.0  -0.6167
  O  O520  1  0.728290  0.282850  0.666770  1.0  -0.8522
  O  O521  1  0.485740  0.271100  0.635220  1.0  -0.7428
  O  O522  1  0.640610  0.230330  0.597650  1.0  -0.6015
  O  O523  1  0.667510  0.226050  0.293530  1.0  -0.833
  O  O524  1  0.528660  0.299770  0.308110  1.0  -0.6064
  O  O525  1  0.338290  0.318880  0.101140  1.0  -0.602
  O  O526  1  0.314140  0.230350  0.102370  1.0  -0.6416
  O  O527  1  0.423290  0.278340  0.767880  1.0  -0.8258
  O  O528  1  0.279880  0.270870  0.805770  1.0  -0.629
  O  O529  1  0.554400  0.159200  0.700600  1.0  -0.7016
  O  O530  1  0.408900  0.155600  0.738600  1.0  -0.5934
  O  O531  1  0.746960  0.863180  0.803900  1.0  -0.6153
  O  O532  1  0.645060  0.833230  0.782850  1.0  -0.85
  O  O533  1  0.392060  0.728900  0.364780  1.0  -0.746
  O  O534  1  0.468590  0.769670  0.402350  1.0  -0.6004
  O  O535  1  0.187090  0.773950  0.706470  1.0  -0.8362
  O  O536  1  0.136540  0.700230  0.691890  1.0  -0.6043
  O  O537  1  0.758310  0.681120  0.898860  1.0  -0.604
  O  O538  1  0.646860  0.769650  0.897630  1.0  -0.6427
  O  O539  1  0.469510  0.721660  0.232120  1.0  -0.8281
  O  O540  1  0.356520  0.729130  0.194230  1.0  -0.6289
  O  O541  1  0.414200  0.840800  0.299400  1.0  -0.7063
  O  O542  1  0.303100  0.844400  0.261400  1.0  -0.5927
  O  O543  1  0.414040  0.136820  0.196100  1.0  -0.6168
  O  O544  1  0.261140  0.166770  0.217150  1.0  -0.8517
