# generated using pymatgen
data_ZnHC4N11
_symmetry_space_group_name_H-M   'P 1'
_cell_length_a   14.62060000
_cell_length_b   14.62060000
_cell_length_c   14.62060000
_cell_angle_alpha   109.38000000
_cell_angle_beta   109.38000000
_cell_angle_gamma   109.38000000
_symmetry_Int_Tables_number   1
_chemical_formula_structural   ZnHC4N11
_chemical_formula_sum   'Zn6 H6 C24 N66'
_cell_volume   2413.96984179
_cell_formula_units_Z   6
loop_
 _symmetry_equiv_pos_site_id
 _symmetry_equiv_pos_as_xyz
  1  'x, y, z'
loop_
 _atom_site_type_symbol
 _atom_site_label
 _atom_site_symmetry_multiplicity
 _atom_site_fract_x
 _atom_site_fract_y
 _atom_site_fract_z
 _atom_site_occupancy
 _atom_site_charge
  Zn  Zn1  1  0.199220  0.449640  0.693520  1.0  0.7536
  Zn  Zn2  1  0.693520  0.199220  0.449640  1.0  0.7522
  Zn  Zn3  1  0.449640  0.693520  0.199220  1.0  0.752
  Zn  Zn4  1  0.800780  0.550360  0.306480  1.0  0.753
  Zn  Zn5  1  0.306480  0.800780  0.550360  1.0  0.752
  Zn  Zn6  1  0.550360  0.306480  0.800780  1.0  0.7517
  H  H7  1  0.692800  0.694300  0.060000  1.0  0.3318
  H  H8  1  0.060000  0.692800  0.694300  1.0  0.3319
  H  H9  1  0.694300  0.060000  0.692800  1.0  0.3312
  H  H10  1  0.307200  0.305700  0.940000  1.0  0.3321
  H  H11  1  0.940000  0.307200  0.305700  1.0  0.3307
  H  H12  1  0.305700  0.940000  0.307200  1.0  0.3279
  C  C13  1  0.449520  0.582760  0.949520  1.0  0.0626
  C  C14  1  0.471430  0.516280  0.875890  1.0  0.055
  C  C15  1  0.346090  0.570770  0.947940  1.0  0.2972
  C  C16  1  0.398480  0.411870  0.770050  1.0  0.3039
  C  C17  1  0.949520  0.449520  0.582760  1.0  0.0627
  C  C18  1  0.875890  0.471430  0.516280  1.0  0.0539
  C  C19  1  0.947940  0.346090  0.570770  1.0  0.296
  C  C20  1  0.770050  0.398480  0.411870  1.0  0.3033
  C  C21  1  0.582760  0.949520  0.449520  1.0  0.0628
  C  C22  1  0.516280  0.875890  0.471430  1.0  0.0528
  C  C23  1  0.570770  0.947940  0.346090  1.0  0.2974
  C  C24  1  0.411870  0.770050  0.398480  1.0  0.3028
  C  C25  1  0.550480  0.417240  0.050480  1.0  0.0625
  C  C26  1  0.528570  0.483720  0.124110  1.0  0.0541
  C  C27  1  0.653910  0.429230  0.052060  1.0  0.296
  C  C28  1  0.601520  0.588130  0.229950  1.0  0.3056
  C  C29  1  0.050480  0.550480  0.417240  1.0  0.0628
  C  C30  1  0.124110  0.528570  0.483720  1.0  0.0534
  C  C31  1  0.052060  0.653910  0.429230  1.0  0.2962
  C  C32  1  0.229950  0.601520  0.588130  1.0  0.3029
  C  C33  1  0.417240  0.050480  0.550480  1.0  0.0625
  C  C34  1  0.483720  0.124110  0.528570  1.0  0.0538
  C  C35  1  0.429230  0.052060  0.653910  1.0  0.2987
  C  C36  1  0.588130  0.229950  0.601520  1.0  0.3009
  N  N37  1  0.546510  0.667070  0.038220  1.0  -0.2953
  N  N38  1  0.622300  0.649900  0.015300  1.0  0.1391
  N  N39  1  0.582290  0.561070  0.920340  1.0  -0.3078
  N  N40  1  0.427200  0.335210  0.734590  1.0  -0.2594
  N  N41  1  0.340500  0.253800  0.631800  1.0  -0.075
  N  N42  1  0.262700  0.279700  0.606900  1.0  -0.0812
  N  N43  1  0.296330  0.378940  0.693030  1.0  -0.2566
  N  N44  1  0.337550  0.609370  0.038780  1.0  -0.2322
  N  N45  1  0.229730  0.581460  0.003210  1.0  -0.0827
  N  N46  1  0.175010  0.528360  0.895330  1.0  -0.075
  N  N47  1  0.247040  0.519780  0.857380  1.0  -0.2731
  N  N48  1  0.038220  0.546510  0.667070  1.0  -0.2964
  N  N49  1  0.015300  0.622300  0.649900  1.0  0.1425
  N  N50  1  0.920340  0.582290  0.561070  1.0  -0.3071
  N  N51  1  0.734590  0.427200  0.335210  1.0  -0.2576
  N  N52  1  0.631800  0.340500  0.253800  1.0  -0.075
  N  N53  1  0.606900  0.262700  0.279700  1.0  -0.0809
  N  N54  1  0.693030  0.296330  0.378940  1.0  -0.2544
  N  N55  1  0.038780  0.337550  0.609370  1.0  -0.2349
  N  N56  1  0.003210  0.229730  0.581460  1.0  -0.0838
  N  N57  1  0.895330  0.175010  0.528360  1.0  -0.0736
  N  N58  1  0.857380  0.247040  0.519780  1.0  -0.2737
  N  N59  1  0.667070  0.038220  0.546510  1.0  -0.2961
  N  N60  1  0.649900  0.015300  0.622300  1.0  0.1357
  N  N61  1  0.561070  0.920340  0.582290  1.0  -0.3118
  N  N62  1  0.335210  0.734590  0.427200  1.0  -0.2601
  N  N63  1  0.253800  0.631800  0.340500  1.0  -0.0735
  N  N64  1  0.279700  0.606900  0.262700  1.0  -0.0819
  N  N65  1  0.378940  0.693030  0.296330  1.0  -0.2543
  N  N66  1  0.609370  0.038780  0.337550  1.0  -0.2342
  N  N67  1  0.581460  0.003210  0.229730  1.0  -0.0808
  N  N68  1  0.528360  0.895330  0.175010  1.0  -0.0706
  N  N69  1  0.519780  0.857380  0.247040  1.0  -0.2734
  N  N70  1  0.453490  0.332930  0.961780  1.0  -0.2943
  N  N71  1  0.377700  0.350100  0.984700  1.0  0.1353
  N  N72  1  0.417710  0.438930  0.079660  1.0  -0.3109
  N  N73  1  0.572800  0.664790  0.265410  1.0  -0.2603
  N  N74  1  0.659500  0.746200  0.368200  1.0  -0.0727
  N  N75  1  0.737300  0.720300  0.393100  1.0  -0.0804
  N  N76  1  0.703670  0.621060  0.306970  1.0  -0.2535
  N  N77  1  0.662450  0.390630  0.961220  1.0  -0.2318
  N  N78  1  0.770270  0.418540  0.996790  1.0  -0.0812
  N  N79  1  0.824990  0.471640  0.104670  1.0  -0.074
  N  N80  1  0.752960  0.480220  0.142620  1.0  -0.2736
  N  N81  1  0.961780  0.453490  0.332930  1.0  -0.2954
  N  N82  1  0.984700  0.377700  0.350100  1.0  0.1398
  N  N83  1  0.079660  0.417710  0.438930  1.0  -0.3059
  N  N84  1  0.265410  0.572800  0.664790  1.0  -0.2587
  N  N85  1  0.368200  0.659500  0.746200  1.0  -0.0747
  N  N86  1  0.393100  0.737300  0.720300  1.0  -0.0799
  N  N87  1  0.306970  0.703670  0.621060  1.0  -0.2548
  N  N88  1  0.961220  0.662450  0.390630  1.0  -0.2348
  N  N89  1  0.996790  0.770270  0.418540  1.0  -0.0859
  N  N90  1  0.104670  0.824990  0.471640  1.0  -0.0749
  N  N91  1  0.142620  0.752960  0.480220  1.0  -0.2741
  N  N92  1  0.332930  0.961780  0.453490  1.0  -0.2971
  N  N93  1  0.350100  0.984700  0.377700  1.0  0.1251
  N  N94  1  0.438930  0.079660  0.417710  1.0  -0.308
  N  N95  1  0.664790  0.265410  0.572800  1.0  -0.2586
  N  N96  1  0.746200  0.368200  0.659500  1.0  -0.0742
  N  N97  1  0.720300  0.393100  0.737300  1.0  -0.0802
  N  N98  1  0.621060  0.306970  0.703670  1.0  -0.2536
  N  N99  1  0.390630  0.961220  0.662450  1.0  -0.2339
  N  N100  1  0.418540  0.996790  0.770270  1.0  -0.0822
  N  N101  1  0.471640  0.104670  0.824990  1.0  -0.0718
  N  N102  1  0.480220  0.142620  0.752960  1.0  -0.2737
