# generated using pymatgen
data_NiH12C15NO4
_symmetry_space_group_name_H-M   'P 1'
_cell_length_a   9.61160000
_cell_length_b   11.25420000
_cell_length_c   12.55650000
_cell_angle_alpha   103.50200000
_cell_angle_beta   94.52980000
_cell_angle_gamma   98.32720000
_symmetry_Int_Tables_number   1
_chemical_formula_structural   NiH12C15NO4
_chemical_formula_sum   'Ni2 H24 C30 N2 O8'
_cell_volume   1297.77285791
_cell_formula_units_Z   2
loop_
 _symmetry_equiv_pos_site_id
 _symmetry_equiv_pos_as_xyz
  1  'x, y, z'
loop_
 _atom_site_type_symbol
 _atom_site_label
 _atom_site_symmetry_multiplicity
 _atom_site_fract_x
 _atom_site_fract_y
 _atom_site_fract_z
 _atom_site_occupancy
 _atom_site_charge
  Ni  Ni1  1  0.194790  0.303180  0.413210  1.0  0.7018
  Ni  Ni2  1  0.902320  0.320400  0.408860  1.0  0.7818
  H  H3  1  0.269020  0.327020  0.079110  1.0  0.1095
  H  H4  1  0.346960  0.292090  0.893070  1.0  0.1175
  H  H5  1  0.825260  0.347390  0.128540  1.0  0.1049
  H  H6  1  0.857690  0.316060  0.753870  1.0  0.1144
  H  H7  1  0.774400  0.327190  0.935360  1.0  0.119
  H  H8  1  0.296560  0.275060  0.701610  1.0  0.1686
  H  H9  1  0.902200  0.631920  0.530970  1.0  0.0818
  H  H10  1  0.764180  0.791570  0.517930  1.0  0.0903
  H  H11  1  0.327050  0.645020  0.411670  1.0  0.1072
  H  H12  1  0.165380  0.006250  0.329170  1.0  0.1218
  H  H13  1  0.306900  0.845560  0.344430  1.0  0.0875
  H  H14  1  0.739300  0.988450  0.444630  1.0  0.0826
  H  H15  1  0.431750  0.368860  0.633280  1.0  0.1331
  H  H16  1  0.457010  0.474020  0.535590  1.0  0.0958
  H  H17  1  0.386610  0.089270  0.384490  1.0  0.1007
  H  H18  1  0.385770  0.133450  0.532870  1.0  0.1263
  H  H19  1  0.444070  0.423260  0.357470  1.0  0.1114
  H  H20  1  0.423570  0.255090  0.286230  1.0  0.0937
  H  H21  1  0.688800  0.492940  0.570890  1.0  0.089
  H  H22  1  0.659300  0.363010  0.644250  1.0  0.1011
  H  H23  1  0.626250  0.151510  0.550020  1.0  0.1022
  H  H24  1  0.621780  0.104100  0.402560  1.0  0.1039
  H  H25  1  0.660370  0.273930  0.299930  1.0  0.1081
  H  H26  1  0.681420  0.440890  0.375110  1.0  0.1046
  C  C27  1  0.466770  0.381800  0.553390  1.0  -0.0129
  C  C28  1  0.433400  0.164150  0.460100  1.0  -0.065
  C  C29  1  0.467810  0.327330  0.363890  1.0  -0.017
  C  C30  1  0.079680  0.349630  0.234880  1.0  0.6176
  C  C31  1  0.051380  0.336940  0.118240  1.0  -0.1112
  C  C32  1  0.162090  0.329160  0.047630  1.0  -0.1422
  C  C33  1  0.132380  0.314660  0.936030  1.0  -0.0851
  C  C34  1  0.240120  0.297520  0.864390  1.0  -0.0866
  C  C35  1  0.912250  0.339240  0.076350  1.0  -0.1157
  C  C36  1  0.120870  0.505150  0.492360  1.0  0.3886
  C  C37  1  0.107990  0.629310  0.462720  1.0  -0.1141
  C  C38  1  0.989520  0.680580  0.486370  1.0  0.0953
  C  C39  1  0.978200  0.788590  0.456200  1.0  -0.1426
  C  C40  1  0.852920  0.838980  0.473710  1.0  0.079
  C  C41  1  0.226550  0.687970  0.419290  1.0  -0.0566
  C  C42  1  0.631410  0.390800  0.566300  1.0  0.0472
  C  C43  1  0.595730  0.177840  0.471920  1.0  -0.0663
  C  C44  1  0.629050  0.338220  0.373500  1.0  0.0234
  C  C45  1  0.048470  0.280380  0.596940  1.0  0.6778
  C  C46  1  0.074060  0.295560  0.713550  1.0  -0.0947
  C  C47  1  0.963880  0.308870  0.784430  1.0  -0.0887
  C  C48  1  0.992110  0.317110  0.895170  1.0  -0.0804
  C  C49  1  0.883200  0.329540  0.966090  1.0  -0.0874
  C  C50  1  0.211050  0.287320  0.754510  1.0  -0.1249
  C  C51  1  0.960730  0.128560  0.363550  1.0  0.583
  C  C52  1  0.955230  0.999220  0.389070  1.0  -0.1124
  C  C53  1  0.077740  0.955090  0.371970  1.0  0.1755
  C  C54  1  0.093640  0.848690  0.406930  1.0  -0.0337
  C  C55  1  0.216160  0.797900  0.386860  1.0  0.1012
  C  C56  1  0.839390  0.944900  0.437130  1.0  -0.0511
  N  N57  1  0.396480  0.288600  0.452220  1.0  -0.2273
  N  N58  1  0.682660  0.302440  0.471690  1.0  -0.2591
  O  O59  1  0.198080  0.332570  0.277080  1.0  -0.5639
  O  O60  1  0.968440  0.354240  0.289510  1.0  -0.6657
  O  O61  1  0.998370  0.452260  0.510950  1.0  -0.6106
  O  O62  1  0.856560  0.179490  0.368390  1.0  -0.5078
  O  O63  1  0.932050  0.300070  0.555430  1.0  -0.6314
  O  O64  1  0.158540  0.271470  0.541490  1.0  -0.6254
  O  O65  1  0.086120  0.170040  0.340050  1.0  -0.6131
  O  O66  1  0.227870  0.439300  0.488540  1.0  -0.454
