# generated using pymatgen
data_V3P4(H2O7)2
_symmetry_space_group_name_H-M   'P 1'
_cell_length_a   12.30520000
_cell_length_b   11.81240000
_cell_length_c   12.68770000
_cell_angle_alpha   90.00000000
_cell_angle_beta   98.84000000
_cell_angle_gamma   90.00000000
_symmetry_Int_Tables_number   1
_chemical_formula_structural   V3P4(H2O7)2
_chemical_formula_sum   'V12 P16 H16 O56'
_cell_volume   1822.30052389
_cell_formula_units_Z   4
loop_
 _symmetry_equiv_pos_site_id
 _symmetry_equiv_pos_as_xyz
  1  'x, y, z'
loop_
 _atom_site_type_symbol
 _atom_site_label
 _atom_site_symmetry_multiplicity
 _atom_site_fract_x
 _atom_site_fract_y
 _atom_site_fract_z
 _atom_site_occupancy
 _atom_site_charge
  V  V1  1  0.302040  0.201650  0.118040  1.0  1.3798
  V  V2  1  0.263940  0.495960  0.208210  1.0  1.9637
  V  V3  1  0.821400  0.244260  0.160860  1.0  1.866
  V  V4  1  0.697960  0.701650  0.381960  1.0  1.3797
  V  V5  1  0.736060  0.995960  0.291790  1.0  1.9624
  V  V6  1  0.178600  0.744260  0.339140  1.0  1.8665
  V  V7  1  0.697960  0.798350  0.881960  1.0  1.3789
  V  V8  1  0.736060  0.504040  0.791790  1.0  1.9637
  V  V9  1  0.178600  0.755740  0.839140  1.0  1.8506
  V  V10  1  0.302040  0.298350  0.618040  1.0  1.3789
  V  V11  1  0.263940  0.004040  0.708210  1.0  1.9647
  V  V12  1  0.821400  0.255740  0.660860  1.0  1.8502
  P  P13  1  0.324710  0.205500  0.864750  1.0  1.6406
  P  P14  1  0.569270  0.161040  0.133500  1.0  1.6022
  P  P15  1  0.232950  0.751750  0.099740  1.0  1.6045
  P  P16  1  0.059040  0.335610  0.112600  1.0  1.5889
  P  P17  1  0.675290  0.705500  0.635250  1.0  1.641
  P  P18  1  0.430730  0.661040  0.366500  1.0  1.6012
  P  P19  1  0.767050  0.251750  0.400260  1.0  1.6036
  P  P20  1  0.940960  0.835610  0.387400  1.0  1.5914
  P  P21  1  0.675290  0.794500  0.135250  1.0  1.6088
  P  P22  1  0.430730  0.838960  0.866500  1.0  1.6036
  P  P23  1  0.767050  0.248250  0.900260  1.0  1.6046
  P  P24  1  0.940960  0.664390  0.887400  1.0  1.5914
  P  P25  1  0.324710  0.294500  0.364750  1.0  1.6103
  P  P26  1  0.569270  0.338960  0.633500  1.0  1.6006
  P  P27  1  0.232950  0.748250  0.599740  1.0  1.6051
  P  P28  1  0.059040  0.164390  0.612600  1.0  1.5889
  H  H29  1  0.438000  0.192000  0.876000  1.0  -0.0992
  H  H30  1  0.559000  0.094000  0.039000  1.0  -0.1027
  H  H31  1  0.337000  0.800000  0.103000  1.0  -0.0968
  H  H32  1  0.010000  0.352000  0.007000  1.0  -0.0889
  H  H33  1  0.562000  0.692000  0.624000  1.0  -0.1009
  H  H34  1  0.441000  0.594000  0.461000  1.0  -0.1092
  H  H35  1  0.663000  0.300000  0.397000  1.0  -0.0983
  H  H36  1  0.990000  0.852000  0.493000  1.0  -0.0944
  H  H37  1  0.562000  0.808000  0.124000  1.0  -0.1004
  H  H38  1  0.441000  0.906000  0.961000  1.0  -0.1091
  H  H39  1  0.663000  0.200000  0.897000  1.0  -0.0985
  H  H40  1  0.990000  0.648000  0.993000  1.0  -0.0943
  H  H41  1  0.438000  0.308000  0.376000  1.0  -0.099
  H  H42  1  0.559000  0.406000  0.539000  1.0  -0.1024
  H  H43  1  0.337000  0.700000  0.603000  1.0  -0.0973
  H  H44  1  0.010000  0.148000  0.507000  1.0  -0.0888
  O  O45  1  0.140700  0.244900  0.095600  1.0  -0.8167
  O  O46  1  0.324300  0.404800  0.142400  1.0  -0.7837
  O  O47  1  0.302000  0.253100  0.968100  1.0  -0.8082
  O  O48  1  0.463200  0.222500  0.144900  1.0  -0.8231
  O  O49  1  0.303800  0.294000  0.777700  1.0  -0.8016
  O  O50  1  0.259900  0.097200  0.836600  1.0  -0.7863
  O  O51  1  0.110000  0.446900  0.155400  1.0  -0.7725
  O  O52  1  0.599500  0.074100  0.221800  1.0  -0.7944
  O  O53  1  0.243300  0.623500  0.105200  1.0  -0.835
  O  O54  1  0.168500  0.784900  0.992600  1.0  -0.8165
  O  O55  1  0.978000  0.292600  0.183700  1.0  -0.798
  O  O56  1  0.169500  0.612400  0.302500  1.0  -0.8079
  O  O57  1  0.180600  0.803000  0.190800  1.0  -0.7997
  O  O58  1  0.657900  0.249600  0.129000  1.0  -0.7868
  O  O59  1  0.859300  0.744900  0.404400  1.0  -0.8175
  O  O60  1  0.675700  0.904800  0.357600  1.0  -0.7834
  O  O61  1  0.698000  0.753100  0.531900  1.0  -0.8093
  O  O62  1  0.536800  0.722500  0.355100  1.0  -0.8218
  O  O63  1  0.696200  0.794000  0.722300  1.0  -0.802
  O  O64  1  0.740100  0.597200  0.663400  1.0  -0.7868
  O  O65  1  0.890000  0.946900  0.344600  1.0  -0.7706
  O  O66  1  0.400500  0.574100  0.278200  1.0  -0.7919
  O  O67  1  0.756700  0.123500  0.394800  1.0  -0.8332
  O  O68  1  0.831500  0.284900  0.507400  1.0  -0.8165
  O  O69  1  0.022000  0.792600  0.316300  1.0  -0.7971
  O  O70  1  0.830500  0.112400  0.197500  1.0  -0.8086
  O  O71  1  0.819400  0.303000  0.309200  1.0  -0.7985
  O  O72  1  0.342100  0.749600  0.371000  1.0  -0.7882
  O  O73  1  0.859300  0.755100  0.904400  1.0  -0.8199
  O  O74  1  0.675700  0.595200  0.857600  1.0  -0.7828
  O  O75  1  0.698000  0.746900  0.031900  1.0  -0.8091
  O  O76  1  0.536800  0.777500  0.855100  1.0  -0.8216
  O  O77  1  0.696200  0.706000  0.222300  1.0  -0.8018
  O  O78  1  0.740100  0.902800  0.163400  1.0  -0.786
  O  O79  1  0.890000  0.553100  0.844600  1.0  -0.7704
  O  O80  1  0.400500  0.925900  0.778200  1.0  -0.7925
  O  O81  1  0.756700  0.376500  0.894800  1.0  -0.8345
  O  O82  1  0.831500  0.215100  0.007400  1.0  -0.8153
  O  O83  1  0.022000  0.707400  0.816300  1.0  -0.7966
  O  O84  1  0.830500  0.387600  0.697500  1.0  -0.8084
  O  O85  1  0.819400  0.197000  0.809200  1.0  -0.7974
  O  O86  1  0.342100  0.750400  0.871000  1.0  -0.7889
  O  O87  1  0.140700  0.255100  0.595600  1.0  -0.8206
  O  O88  1  0.324300  0.095200  0.642400  1.0  -0.7829
  O  O89  1  0.302000  0.246900  0.468100  1.0  -0.807
  O  O90  1  0.463200  0.277500  0.644900  1.0  -0.823
  O  O91  1  0.303800  0.206000  0.277700  1.0  -0.8015
  O  O92  1  0.259900  0.402800  0.336600  1.0  -0.7861
  O  O93  1  0.110000  0.053100  0.655400  1.0  -0.7726
  O  O94  1  0.599500  0.425900  0.721800  1.0  -0.7944
  O  O95  1  0.243300  0.876500  0.605200  1.0  -0.8349
  O  O96  1  0.168500  0.715100  0.492600  1.0  -0.815
  O  O97  1  0.978000  0.207400  0.683700  1.0  -0.7984
  O  O98  1  0.169500  0.887600  0.802500  1.0  -0.8077
  O  O99  1  0.180600  0.697000  0.690800  1.0  -0.7985
  O  O100  1  0.657900  0.250400  0.629000  1.0  -0.788
