# generated using pymatgen
data_Cu4H24WC36S4IN12
_symmetry_space_group_name_H-M   'P 1'
_cell_length_a   19.42560000
_cell_length_b   21.19490000
_cell_length_c   26.64680000
_cell_angle_alpha   90.00000000
_cell_angle_beta   90.00000000
_cell_angle_gamma   90.00000000
_symmetry_Int_Tables_number   1
_chemical_formula_structural   Cu4H24WC36S4IN12
_chemical_formula_sum   'Cu32 H192 W8 C288 S32 I8 N96'
_cell_volume   10971.11774190
_cell_formula_units_Z   8
loop_
 _symmetry_equiv_pos_site_id
 _symmetry_equiv_pos_as_xyz
  1  'x, y, z'
loop_
 _atom_site_type_symbol
 _atom_site_label
 _atom_site_symmetry_multiplicity
 _atom_site_fract_x
 _atom_site_fract_y
 _atom_site_fract_z
 _atom_site_occupancy
 _atom_site_charge
  Cu  Cu1  1  0.829510  0.574190  0.801980  1.0  0.3906
  Cu  Cu2  1  0.726910  0.277740  0.371610  1.0  0.3094
  Cu  Cu3  1  0.319850  0.173490  0.746190  1.0  0.3201
  Cu  Cu4  1  0.838320  0.665350  0.683980  1.0  0.2793
  Cu  Cu5  1  0.670490  0.425810  0.301980  1.0  0.391
  Cu  Cu6  1  0.773090  0.722260  0.871610  1.0  0.3097
  Cu  Cu7  1  0.180150  0.826510  0.246190  1.0  0.3195
  Cu  Cu8  1  0.661680  0.334650  0.183980  1.0  0.2805
  Cu  Cu9  1  0.170490  0.074190  0.698020  1.0  0.3904
  Cu  Cu10  1  0.273090  0.777740  0.128390  1.0  0.3105
  Cu  Cu11  1  0.680150  0.673490  0.753810  1.0  0.319
  Cu  Cu12  1  0.161680  0.165350  0.816020  1.0  0.2824
  Cu  Cu13  1  0.329510  0.925810  0.198020  1.0  0.3906
  Cu  Cu14  1  0.226910  0.222260  0.628390  1.0  0.3105
  Cu  Cu15  1  0.819850  0.326510  0.253810  1.0  0.3203
  Cu  Cu16  1  0.338320  0.834650  0.316020  1.0  0.2817
  Cu  Cu17  1  0.170490  0.425810  0.198020  1.0  0.3907
  Cu  Cu18  1  0.273090  0.722260  0.628390  1.0  0.3104
  Cu  Cu19  1  0.680150  0.826510  0.253810  1.0  0.3195
  Cu  Cu20  1  0.161680  0.334650  0.316020  1.0  0.2837
  Cu  Cu21  1  0.329510  0.574190  0.698020  1.0  0.3903
  Cu  Cu22  1  0.226910  0.277740  0.128390  1.0  0.3105
  Cu  Cu23  1  0.819850  0.173490  0.753810  1.0  0.32
  Cu  Cu24  1  0.338320  0.665350  0.816020  1.0  0.2829
  Cu  Cu25  1  0.829510  0.925810  0.301980  1.0  0.391
  Cu  Cu26  1  0.726910  0.222260  0.871610  1.0  0.3097
  Cu  Cu27  1  0.319850  0.326510  0.246190  1.0  0.3204
  Cu  Cu28  1  0.838320  0.834650  0.183980  1.0  0.281
  Cu  Cu29  1  0.670490  0.074190  0.801980  1.0  0.3906
  Cu  Cu30  1  0.773090  0.777740  0.371610  1.0  0.3096
  Cu  Cu31  1  0.180150  0.673490  0.746190  1.0  0.319
  Cu  Cu32  1  0.661680  0.165350  0.683980  1.0  0.2813
  H  H33  1  0.659900  0.404800  0.767200  1.0  0.1245
  H  H34  1  0.719800  0.474600  0.813700  1.0  0.073
  H  H35  1  0.844700  0.519700  0.704800  1.0  0.1042
  H  H36  1  0.784200  0.444900  0.649100  1.0  0.1243
  H  H37  1  0.740300  0.388300  0.539200  1.0  0.1142
  H  H38  1  0.768000  0.372600  0.453000  1.0  0.1052
  H  H39  1  0.615800  0.245400  0.445200  1.0  0.0995
  H  H40  1  0.607100  0.243500  0.531400  1.0  0.1016
  H  H41  1  0.510700  0.217000  0.626200  1.0  0.0983
  H  H42  1  0.416200  0.164500  0.660100  1.0  0.0983
  H  H43  1  0.423700  0.268600  0.779000  1.0  0.0354
  H  H44  1  0.516400  0.320000  0.752200  1.0  0.1173
  H  H45  1  0.997000  0.615400  0.937300  1.0  0.1211
  H  H46  1  0.952000  0.619800  0.860600  1.0  0.0815
  H  H47  1  0.807900  0.498000  0.895400  1.0  0.0877
  H  H48  1  0.846100  0.493400  0.977900  1.0  0.1254
  H  H49  1  0.832900  0.445700  0.093100  1.0  0.1047
  H  H50  1  0.793100  0.376200  0.148000  1.0  0.092
  H  H51  1  0.929900  0.432300  0.251900  1.0  0.0929
  H  H52  1  0.980800  0.498500  0.195700  1.0  0.1217
  H  H53  1  0.104200  0.606100  0.162300  1.0  0.118
  H  H54  1  0.190100  0.668400  0.175400  1.0  0.0234
  H  H55  1  0.164900  0.756700  0.050900  1.0  0.0766
  H  H56  1  0.085600  0.679100  0.023300  1.0  0.1119
  H  H57  1  0.840100  0.595200  0.267200  1.0  0.1245
  H  H58  1  0.780200  0.525400  0.313700  1.0  0.0728
  H  H59  1  0.655300  0.480300  0.204800  1.0  0.1029
  H  H60  1  0.715800  0.555100  0.149100  1.0  0.1247
  H  H61  1  0.759700  0.611700  0.039200  1.0  0.1148
  H  H62  1  0.732000  0.627400  0.953000  1.0  0.1048
  H  H63  1  0.884200  0.754600  0.945200  1.0  0.1003
  H  H64  1  0.892900  0.756500  0.031400  1.0  0.1015
  H  H65  1  0.989300  0.783000  0.126200  1.0  0.0989
  H  H66  1  0.083800  0.835500  0.160100  1.0  0.0984
  H  H67  1  0.076300  0.731400  0.279000  1.0  0.0362
  H  H68  1  0.983600  0.680000  0.252200  1.0  0.1173
  H  H69  1  0.503000  0.384600  0.437300  1.0  0.1211
  H  H70  1  0.548000  0.380200  0.360600  1.0  0.0813
  H  H71  1  0.692100  0.502000  0.395400  1.0  0.0879
  H  H72  1  0.653900  0.506600  0.477900  1.0  0.1256
  H  H73  1  0.667100  0.554300  0.593100  1.0  0.1041
  H  H74  1  0.706900  0.623800  0.648000  1.0  0.0921
  H  H75  1  0.570100  0.567700  0.751900  1.0  0.0939
  H  H76  1  0.519200  0.501500  0.695700  1.0  0.1215
  H  H77  1  0.395800  0.393900  0.662300  1.0  0.1182
  H  H78  1  0.309900  0.331600  0.675400  1.0  0.0235
  H  H79  1  0.335100  0.243300  0.550900  1.0  0.0766
  H  H80  1  0.414400  0.320900  0.523300  1.0  0.1117
  H  H81  1  0.340100  0.904800  0.732800  1.0  0.125
  H  H82  1  0.280200  0.974600  0.686300  1.0  0.0736
  H  H83  1  0.155300  0.019700  0.795200  1.0  0.1032
  H  H84  1  0.215800  0.944900  0.850900  1.0  0.1243
  H  H85  1  0.259700  0.888300  0.960800  1.0  0.1151
  H  H86  1  0.232000  0.872600  0.047000  1.0  0.1046
  H  H87  1  0.384200  0.745400  0.054800  1.0  0.0994
  H  H88  1  0.392900  0.743500  0.968600  1.0  0.1013
  H  H89  1  0.489300  0.717000  0.873800  1.0  0.099
  H  H90  1  0.583800  0.664500  0.839900  1.0  0.099
  H  H91  1  0.576300  0.768600  0.721000  1.0  0.0362
  H  H92  1  0.483600  0.820000  0.747800  1.0  0.1173
  H  H93  1  0.003000  0.115400  0.562700  1.0  0.1215
  H  H94  1  0.048000  0.119800  0.639400  1.0  0.0812
  H  H95  1  0.192100  0.998000  0.604600  1.0  0.0876
  H  H96  1  0.153900  0.993400  0.522100  1.0  0.125
  H  H97  1  0.167100  0.945700  0.406900  1.0  0.1038
  H  H98  1  0.206900  0.876200  0.352000  1.0  0.0922
  H  H99  1  0.070100  0.932300  0.248100  1.0  0.0929
  H  H100  1  0.019200  0.998500  0.304300  1.0  0.1216
  H  H101  1  0.895800  0.106100  0.337700  1.0  0.1186
  H  H102  1  0.809900  0.168400  0.324600  1.0  0.0237
  H  H103  1  0.835100  0.256700  0.449100  1.0  0.0767
  H  H104  1  0.914400  0.179100  0.476700  1.0  0.1119
  H  H105  1  0.159900  0.095200  0.232800  1.0  0.125
  H  H106  1  0.219800  0.025400  0.186300  1.0  0.0735
  H  H107  1  0.344700  0.980300  0.295200  1.0  0.1038
  H  H108  1  0.284200  0.055100  0.350900  1.0  0.1229
  H  H109  1  0.240300  0.111700  0.460800  1.0  0.1146
  H  H110  1  0.268000  0.127400  0.547000  1.0  0.1048
  H  H111  1  0.115800  0.254600  0.554800  1.0  0.1007
  H  H112  1  0.107100  0.256500  0.468600  1.0  0.1019
  H  H113  1  0.010700  0.283000  0.373800  1.0  0.0989
  H  H114  1  0.916200  0.335500  0.339900  1.0  0.0984
  H  H115  1  0.923700  0.231400  0.221000  1.0  0.036
  H  H116  1  0.016400  0.180000  0.247800  1.0  0.117
  H  H117  1  0.497000  0.884600  0.062700  1.0  0.1213
  H  H118  1  0.452000  0.880200  0.139400  1.0  0.0815
  H  H119  1  0.307900  0.002000  0.104600  1.0  0.0881
  H  H120  1  0.346100  0.006600  0.022100  1.0  0.1252
  H  H121  1  0.332900  0.054300  0.906900  1.0  0.1049
  H  H122  1  0.293100  0.123800  0.852000  1.0  0.0926
  H  H123  1  0.429900  0.067700  0.748100  1.0  0.093
  H  H124  1  0.480800  0.001500  0.804300  1.0  0.1221
  H  H125  1  0.604200  0.893900  0.837700  1.0  0.1185
  H  H126  1  0.690100  0.831600  0.824600  1.0  0.0238
  H  H127  1  0.664900  0.743300  0.949100  1.0  0.0771
  H  H128  1  0.585600  0.820900  0.976700  1.0  0.1113
  H  H129  1  0.340100  0.595200  0.232800  1.0  0.1251
  H  H130  1  0.280200  0.525400  0.186300  1.0  0.0734
  H  H131  1  0.155300  0.480300  0.295200  1.0  0.1031
  H  H132  1  0.215800  0.555100  0.350900  1.0  0.1238
  H  H133  1  0.259700  0.611700  0.460800  1.0  0.1146
  H  H134  1  0.232000  0.627400  0.547000  1.0  0.1047
  H  H135  1  0.384200  0.754600  0.554800  1.0  0.1
  H  H136  1  0.392900  0.756500  0.468600  1.0  0.1015
  H  H137  1  0.489300  0.783000  0.373800  1.0  0.0989
  H  H138  1  0.583800  0.835500  0.339900  1.0  0.0984
  H  H139  1  0.576300  0.731400  0.221000  1.0  0.0363
  H  H140  1  0.483600  0.680000  0.247800  1.0  0.1169
  H  H141  1  0.003000  0.384600  0.062700  1.0  0.1215
  H  H142  1  0.048000  0.380200  0.139400  1.0  0.0813
  H  H143  1  0.192100  0.502000  0.104600  1.0  0.0879
  H  H144  1  0.153900  0.506600  0.022100  1.0  0.1257
  H  H145  1  0.167100  0.554300  0.906900  1.0  0.1039
  H  H146  1  0.206900  0.623800  0.852000  1.0  0.0923
  H  H147  1  0.070100  0.567700  0.748100  1.0  0.093
  H  H148  1  0.019200  0.501500  0.804300  1.0  0.1215
  H  H149  1  0.895800  0.393900  0.837700  1.0  0.1187
  H  H150  1  0.809900  0.331600  0.824600  1.0  0.0237
  H  H151  1  0.835100  0.243300  0.949100  1.0  0.077
  H  H152  1  0.914400  0.320900  0.976700  1.0  0.1118
  H  H153  1  0.159900  0.404800  0.732800  1.0  0.1247
  H  H154  1  0.219800  0.474600  0.686300  1.0  0.0735
  H  H155  1  0.344700  0.519700  0.795200  1.0  0.1041
  H  H156  1  0.284200  0.444900  0.850900  1.0  0.1233
  H  H157  1  0.240300  0.388300  0.960800  1.0  0.1147
  H  H158  1  0.268000  0.372600  0.047000  1.0  0.105
  H  H159  1  0.115800  0.245400  0.054800  1.0  0.1
  H  H160  1  0.107100  0.243500  0.968600  1.0  0.1012
  H  H161  1  0.010700  0.217000  0.873800  1.0  0.0989
  H  H162  1  0.916200  0.164500  0.839900  1.0  0.0988
  H  H163  1  0.923700  0.268600  0.721000  1.0  0.0362
  H  H164  1  0.016400  0.320000  0.747800  1.0  0.1172
  H  H165  1  0.497000  0.615400  0.562700  1.0  0.1214
  H  H166  1  0.452000  0.619800  0.639400  1.0  0.0812
  H  H167  1  0.307900  0.498000  0.604600  1.0  0.0878
  H  H168  1  0.346100  0.493400  0.522100  1.0  0.1245
  H  H169  1  0.332900  0.445700  0.406900  1.0  0.1047
  H  H170  1  0.293100  0.376200  0.352000  1.0  0.0919
  H  H171  1  0.429900  0.432300  0.248100  1.0  0.0929
  H  H172  1  0.480800  0.498500  0.304300  1.0  0.122
  H  H173  1  0.604200  0.606100  0.337700  1.0  0.1183
  H  H174  1  0.690100  0.668400  0.324600  1.0  0.0239
  H  H175  1  0.664900  0.756700  0.449100  1.0  0.077
  H  H176  1  0.585600  0.679100  0.476700  1.0  0.1117
  H  H177  1  0.659900  0.095200  0.267200  1.0  0.1245
  H  H178  1  0.719800  0.025400  0.313700  1.0  0.0731
  H  H179  1  0.844700  0.980300  0.204800  1.0  0.1036
  H  H180  1  0.784200  0.055100  0.149100  1.0  0.1242
  H  H181  1  0.740300  0.111700  0.039200  1.0  0.1145
  H  H182  1  0.768000  0.127400  0.953000  1.0  0.1049
  H  H183  1  0.615800  0.254600  0.945200  1.0  0.1009
  H  H184  1  0.607100  0.256500  0.031400  1.0  0.1015
  H  H185  1  0.510700  0.283000  0.126200  1.0  0.0989
  H  H186  1  0.416200  0.335500  0.160100  1.0  0.0983
  H  H187  1  0.423700  0.231400  0.279000  1.0  0.0357
  H  H188  1  0.516400  0.180000  0.252200  1.0  0.1174
  H  H189  1  0.997000  0.884600  0.437300  1.0  0.1208
  H  H190  1  0.952000  0.880200  0.360600  1.0  0.0819
  H  H191  1  0.807900  0.002000  0.395400  1.0  0.0881
  H  H192  1  0.846100  0.006600  0.477900  1.0  0.1255
  H  H193  1  0.832900  0.054300  0.593100  1.0  0.1045
  H  H194  1  0.793100  0.123800  0.648000  1.0  0.0923
  H  H195  1  0.929900  0.067700  0.751900  1.0  0.0929
  H  H196  1  0.980800  0.001500  0.695700  1.0  0.1219
  H  H197  1  0.104200  0.893900  0.662300  1.0  0.1178
  H  H198  1  0.190100  0.831600  0.675400  1.0  0.0236
  H  H199  1  0.164900  0.743300  0.550900  1.0  0.0767
  H  H200  1  0.085600  0.820900  0.523300  1.0  0.1116
  H  H201  1  0.840100  0.904800  0.767200  1.0  0.1246
  H  H202  1  0.780200  0.974600  0.813700  1.0  0.0728
  H  H203  1  0.655300  0.019700  0.704800  1.0  0.1032
  H  H204  1  0.715800  0.944900  0.649100  1.0  0.1248
  H  H205  1  0.759700  0.888300  0.539200  1.0  0.115
  H  H206  1  0.732000  0.872600  0.453000  1.0  0.1049
  H  H207  1  0.884200  0.745400  0.445200  1.0  0.0994
  H  H208  1  0.892900  0.743500  0.531400  1.0  0.1017
  H  H209  1  0.989300  0.717000  0.626200  1.0  0.0982
  H  H210  1  0.083800  0.664500  0.660100  1.0  0.0985
  H  H211  1  0.076300  0.768600  0.779000  1.0  0.0359
  H  H212  1  0.983600  0.820000  0.752200  1.0  0.1173
  H  H213  1  0.503000  0.115400  0.937300  1.0  0.1213
  H  H214  1  0.548000  0.119800  0.860600  1.0  0.0815
  H  H215  1  0.692100  0.998000  0.895400  1.0  0.0876
  H  H216  1  0.653900  0.993400  0.977900  1.0  0.1255
  H  H217  1  0.667100  0.945700  0.093100  1.0  0.1045
  H  H218  1  0.706900  0.876200  0.148000  1.0  0.092
  H  H219  1  0.570100  0.932300  0.251900  1.0  0.0939
  H  H220  1  0.519200  0.998500  0.195700  1.0  0.1215
  H  H221  1  0.395800  0.106100  0.162300  1.0  0.1184
  H  H222  1  0.309900  0.168400  0.175400  1.0  0.0234
  H  H223  1  0.335100  0.256700  0.050900  1.0  0.0766
  H  H224  1  0.414400  0.179100  0.023300  1.0  0.1115
  W  W225  1  0.812940  0.697920  0.777360  1.0  0.6176
  W  W226  1  0.687060  0.302080  0.277360  1.0  0.6189
  W  W227  1  0.187060  0.197920  0.722640  1.0  0.6183
  W  W228  1  0.312940  0.802080  0.222640  1.0  0.6173
  W  W229  1  0.187060  0.302080  0.222640  1.0  0.6187
  W  W230  1  0.312940  0.697920  0.722640  1.0  0.6175
  W  W231  1  0.812940  0.802080  0.277360  1.0  0.6174
  W  W232  1  0.687060  0.197920  0.777360  1.0  0.6184
  C  C233  1  0.672600  0.378400  0.668800  1.0  0.3442
  C  C234  1  0.653800  0.333000  0.596900  1.0  0.2468
  C  C235  1  0.581900  0.311700  0.662700  1.0  0.4595
  C  C236  1  0.714700  0.418300  0.704400  1.0  -0.1319
  C  C237  1  0.696800  0.426600  0.753200  1.0  -0.1601
  C  C238  1  0.734600  0.467900  0.780900  1.0  0.1614
  C  C239  1  0.808700  0.495300  0.717200  1.0  0.1247
  C  C240  1  0.771200  0.450700  0.682400  1.0  -0.0967
  C  C241  1  0.662300  0.320800  0.542600  1.0  -0.1115
  C  C242  1  0.716900  0.358300  0.520300  1.0  -0.085
  C  C243  1  0.734000  0.348200  0.468200  1.0  0.1344
  C  C244  1  0.645500  0.270000  0.464400  1.0  0.1345
  C  C245  1  0.634200  0.273700  0.515600  1.0  -0.0704
  C  C246  1  0.523200  0.278000  0.682400  1.0  -0.0478
  C  C247  1  0.493100  0.229500  0.657100  1.0  -0.0908
  C  C248  1  0.435600  0.198200  0.677400  1.0  0.116
  C  C249  1  0.439700  0.258600  0.747100  1.0  0.1812
  C  C250  1  0.495700  0.290300  0.731400  1.0  -0.1798
  C  C251  1  0.944200  0.559800  0.022100  1.0  0.2866
  C  C252  1  0.944900  0.522300  0.102200  1.0  0.338
  C  C253  1  0.020200  0.595800  0.076900  1.0  0.3905
  C  C254  1  0.922200  0.559100  0.968300  1.0  -0.0642
  C  C255  1  0.956700  0.593500  0.930100  1.0  -0.1781
  C  C256  1  0.930900  0.593800  0.884100  1.0  0.1581
  C  C257  1  0.845400  0.522700  0.904600  1.0  0.1632
  C  C258  1  0.867200  0.520000  0.954700  1.0  -0.1487
  C  C259  1  0.911500  0.482900  0.138700  1.0  -0.1075
  C  C260  1  0.852900  0.442400  0.124700  1.0  -0.1091
  C  C261  1  0.829600  0.402000  0.157400  1.0  0.1521
  C  C262  1  0.912600  0.434700  0.219400  1.0  0.1571
  C  C263  1  0.941800  0.475700  0.186800  1.0  -0.1641
  C  C264  1  0.081200  0.636900  0.089200  1.0  -0.0792
  C  C265  1  0.117600  0.634500  0.137500  1.0  -0.1697
  C  C266  1  0.167500  0.671700  0.144700  1.0  0.1912
  C  C267  1  0.155700  0.722000  0.071200  1.0  0.1531
  C  C268  1  0.103300  0.678300  0.055700  1.0  -0.102
  C  C269  1  0.827400  0.621600  0.168800  1.0  0.3439
  C  C270  1  0.846200  0.667000  0.096900  1.0  0.2484
  C  C271  1  0.918100  0.688300  0.162700  1.0  0.4594
  C  C272  1  0.785300  0.581700  0.204400  1.0  -0.1325
  C  C273  1  0.803200  0.573400  0.253200  1.0  -0.1592
  C  C274  1  0.765400  0.532100  0.280900  1.0  0.162
  C  C275  1  0.691300  0.504700  0.217200  1.0  0.1242
  C  C276  1  0.728800  0.549300  0.182400  1.0  -0.0996
  C  C277  1  0.837700  0.679200  0.042600  1.0  -0.1111
  C  C278  1  0.783100  0.641700  0.020300  1.0  -0.0844
  C  C279  1  0.766000  0.651800  0.968200  1.0  0.1341
  C  C280  1  0.854500  0.730000  0.964400  1.0  0.134
  C  C281  1  0.865800  0.726300  0.015600  1.0  -0.0711
  C  C282  1  0.976800  0.722000  0.182400  1.0  -0.0493
  C  C283  1  0.006900  0.770500  0.157100  1.0  -0.0904
  C  C284  1  0.064400  0.801800  0.177400  1.0  0.1169
  C  C285  1  0.060300  0.741400  0.247100  1.0  0.1829
  C  C286  1  0.004300  0.709700  0.231400  1.0  -0.1796
  C  C287  1  0.555800  0.440200  0.522100  1.0  0.2864
  C  C288  1  0.555100  0.477700  0.602200  1.0  0.3378
  C  C289  1  0.479800  0.404200  0.576900  1.0  0.3908
  C  C290  1  0.577800  0.440900  0.468300  1.0  -0.0646
  C  C291  1  0.543300  0.406500  0.430100  1.0  -0.1764
  C  C292  1  0.569100  0.406200  0.384100  1.0  0.1596
  C  C293  1  0.654600  0.477300  0.404600  1.0  0.1639
  C  C294  1  0.632800  0.480000  0.454700  1.0  -0.1475
  C  C295  1  0.588500  0.517100  0.638700  1.0  -0.1067
  C  C296  1  0.647100  0.557600  0.624700  1.0  -0.1099
  C  C297  1  0.670400  0.598000  0.657400  1.0  0.1517
  C  C298  1  0.587400  0.565300  0.719400  1.0  0.1564
  C  C299  1  0.558200  0.524300  0.686800  1.0  -0.1641
  C  C300  1  0.418800  0.363100  0.589200  1.0  -0.0792
  C  C301  1  0.382400  0.365500  0.637500  1.0  -0.1689
  C  C302  1  0.332500  0.328300  0.644700  1.0  0.19
  C  C303  1  0.344300  0.278000  0.571200  1.0  0.1536
  C  C304  1  0.396700  0.321700  0.555700  1.0  -0.1034
  C  C305  1  0.327400  0.878400  0.831200  1.0  0.3441
  C  C306  1  0.346200  0.833000  0.903100  1.0  0.2483
  C  C307  1  0.418100  0.811700  0.837300  1.0  0.4586
  C  C308  1  0.285300  0.918300  0.795600  1.0  -0.1326
  C  C309  1  0.303200  0.926600  0.746800  1.0  -0.1598
  C  C310  1  0.265400  0.967900  0.719100  1.0  0.1592
  C  C311  1  0.191300  0.995300  0.782800  1.0  0.1247
  C  C312  1  0.228800  0.950700  0.817600  1.0  -0.1009
  C  C313  1  0.337700  0.820800  0.957400  1.0  -0.1109
  C  C314  1  0.283100  0.858300  0.979700  1.0  -0.0853
  C  C315  1  0.266000  0.848200  0.031800  1.0  0.1352
  C  C316  1  0.354500  0.770000  0.035600  1.0  0.1329
  C  C317  1  0.365800  0.773700  0.984400  1.0  -0.0713
  C  C318  1  0.476800  0.778000  0.817600  1.0  -0.0482
  C  C319  1  0.506900  0.729500  0.842900  1.0  -0.0911
  C  C320  1  0.564400  0.698200  0.822600  1.0  0.1163
  C  C321  1  0.560300  0.758600  0.752900  1.0  0.1834
  C  C322  1  0.504300  0.790300  0.768600  1.0  -0.1792
  C  C323  1  0.055800  0.059800  0.477900  1.0  0.2864
  C  C324  1  0.055100  0.022300  0.397800  1.0  0.3376
  C  C325  1  0.979800  0.095800  0.423100  1.0  0.3907
  C  C326  1  0.077800  0.059100  0.531700  1.0  -0.0652
  C  C327  1  0.043300  0.093500  0.569900  1.0  -0.178
  C  C328  1  0.069100  0.093800  0.615900  1.0  0.1575
  C  C329  1  0.154600  0.022700  0.595400  1.0  0.1636
  C  C330  1  0.132800  0.020000  0.545300  1.0  -0.1479
  C  C331  1  0.088500  0.982900  0.361300  1.0  -0.1065
  C  C332  1  0.147100  0.942400  0.375300  1.0  -0.1093
  C  C333  1  0.170400  0.902000  0.342600  1.0  0.1512
  C  C334  1  0.087400  0.934700  0.280600  1.0  0.1571
  C  C335  1  0.058200  0.975700  0.313200  1.0  -0.164
  C  C336  1  0.918800  0.136900  0.410800  1.0  -0.0789
  C  C337  1  0.882400  0.134500  0.362500  1.0  -0.1702
  C  C338  1  0.832500  0.171700  0.355300  1.0  0.1901
  C  C339  1  0.844300  0.222000  0.428800  1.0  0.1533
  C  C340  1  0.896700  0.178300  0.444300  1.0  -0.1047
  C  C341  1  0.172600  0.121600  0.331200  1.0  0.344
  C  C342  1  0.153800  0.167000  0.403100  1.0  0.2481
  C  C343  1  0.081900  0.188300  0.337300  1.0  0.4598
  C  C344  1  0.214700  0.081700  0.295600  1.0  -0.1315
  C  C345  1  0.196800  0.073400  0.246800  1.0  -0.1598
  C  C346  1  0.234600  0.032100  0.219100  1.0  0.1607
  C  C347  1  0.308700  0.004700  0.282800  1.0  0.1245
  C  C348  1  0.271200  0.049300  0.317600  1.0  -0.0974
  C  C349  1  0.162300  0.179200  0.457400  1.0  -0.1124
  C  C350  1  0.216900  0.141700  0.479700  1.0  -0.0855
  C  C351  1  0.234000  0.151800  0.531800  1.0  0.1361
  C  C352  1  0.145500  0.230000  0.535600  1.0  0.1342
  C  C353  1  0.134200  0.226300  0.484400  1.0  -0.0707
  C  C354  1  0.023200  0.222000  0.317600  1.0  -0.048
  C  C355  1  0.993100  0.270500  0.342900  1.0  -0.0911
  C  C356  1  0.935600  0.301800  0.322600  1.0  0.1157
  C  C357  1  0.939700  0.241400  0.252900  1.0  0.1842
  C  C358  1  0.995700  0.209700  0.268600  1.0  -0.1788
  C  C359  1  0.444200  0.940200  0.977900  1.0  0.2866
  C  C360  1  0.444900  0.977700  0.897800  1.0  0.338
  C  C361  1  0.520200  0.904200  0.923100  1.0  0.3909
  C  C362  1  0.422200  0.940900  0.031700  1.0  -0.0646
  C  C363  1  0.456700  0.906500  0.069900  1.0  -0.1769
  C  C364  1  0.430900  0.906200  0.115900  1.0  0.1589
  C  C365  1  0.345400  0.977300  0.095400  1.0  0.1632
  C  C366  1  0.367200  0.980000  0.045300  1.0  -0.1496
  C  C367  1  0.411500  0.017100  0.861300  1.0  -0.1068
  C  C368  1  0.352900  0.057600  0.875300  1.0  -0.11
  C  C369  1  0.329600  0.098000  0.842600  1.0  0.152
  C  C370  1  0.412600  0.065300  0.780600  1.0  0.1563
  C  C371  1  0.441800  0.024300  0.813200  1.0  -0.1644
  C  C372  1  0.581200  0.863100  0.910800  1.0  -0.0791
  C  C373  1  0.617600  0.865500  0.862500  1.0  -0.1694
  C  C374  1  0.667500  0.828300  0.855300  1.0  0.1914
  C  C375  1  0.655700  0.778000  0.928800  1.0  0.1537
  C  C376  1  0.603300  0.821700  0.944300  1.0  -0.1036
  C  C377  1  0.327400  0.621600  0.331200  1.0  0.3439
  C  C378  1  0.346200  0.667000  0.403100  1.0  0.249
  C  C379  1  0.418100  0.688300  0.337300  1.0  0.4591
  C  C380  1  0.285300  0.581700  0.295600  1.0  -0.1321
  C  C381  1  0.303200  0.573400  0.246800  1.0  -0.1599
  C  C382  1  0.265400  0.532100  0.219100  1.0  0.1591
  C  C383  1  0.191300  0.504700  0.282800  1.0  0.1247
  C  C384  1  0.228800  0.549300  0.317600  1.0  -0.1007
  C  C385  1  0.337700  0.679200  0.457400  1.0  -0.1117
  C  C386  1  0.283100  0.641700  0.479700  1.0  -0.0847
  C  C387  1  0.266000  0.651800  0.531800  1.0  0.1351
  C  C388  1  0.354500  0.730000  0.535600  1.0  0.1341
  C  C389  1  0.365800  0.726300  0.484400  1.0  -0.0707
  C  C390  1  0.476800  0.722000  0.317600  1.0  -0.0487
  C  C391  1  0.506900  0.770500  0.342900  1.0  -0.0914
  C  C392  1  0.564400  0.801800  0.322600  1.0  0.1167
  C  C393  1  0.560300  0.741400  0.252900  1.0  0.1839
  C  C394  1  0.504300  0.709700  0.268600  1.0  -0.179
  C  C395  1  0.055800  0.440200  0.977900  1.0  0.2864
  C  C396  1  0.055100  0.477700  0.897800  1.0  0.3377
  C  C397  1  0.979800  0.404200  0.923100  1.0  0.3908
  C  C398  1  0.077800  0.440900  0.031700  1.0  -0.065
  C  C399  1  0.043300  0.406500  0.069900  1.0  -0.1759
  C  C400  1  0.069100  0.406200  0.115900  1.0  0.1594
  C  C401  1  0.154600  0.477300  0.095400  1.0  0.1636
  C  C402  1  0.132800  0.480000  0.045300  1.0  -0.148
  C  C403  1  0.088500  0.517100  0.861300  1.0  -0.1063
  C  C404  1  0.147100  0.557600  0.875300  1.0  -0.1096
  C  C405  1  0.170400  0.598000  0.842600  1.0  0.1516
  C  C406  1  0.087400  0.565300  0.780600  1.0  0.1571
  C  C407  1  0.058200  0.524300  0.813200  1.0  -0.1636
  C  C408  1  0.918800  0.363100  0.910800  1.0  -0.0788
  C  C409  1  0.882400  0.365500  0.862500  1.0  -0.1687
  C  C410  1  0.832500  0.328300  0.855300  1.0  0.1904
  C  C411  1  0.844300  0.278000  0.928800  1.0  0.1532
  C  C412  1  0.896700  0.321700  0.944300  1.0  -0.1045
  C  C413  1  0.172600  0.378400  0.831200  1.0  0.3444
  C  C414  1  0.153800  0.333000  0.903100  1.0  0.2473
  C  C415  1  0.081900  0.311700  0.837300  1.0  0.4591
  C  C416  1  0.214700  0.418300  0.795600  1.0  -0.1319
  C  C417  1  0.196800  0.426600  0.746800  1.0  -0.1595
  C  C418  1  0.234600  0.467900  0.719100  1.0  0.1607
  C  C419  1  0.308700  0.495300  0.782800  1.0  0.1248
  C  C420  1  0.271200  0.450700  0.817600  1.0  -0.0975
  C  C421  1  0.162300  0.320800  0.957400  1.0  -0.1114
  C  C422  1  0.216900  0.358300  0.979700  1.0  -0.086
  C  C423  1  0.234000  0.348200  0.031800  1.0  0.1356
  C  C424  1  0.145500  0.270000  0.035600  1.0  0.1348
  C  C425  1  0.134200  0.273700  0.984400  1.0  -0.0696
  C  C426  1  0.023200  0.278000  0.817600  1.0  -0.0468
  C  C427  1  0.993100  0.229500  0.842900  1.0  -0.0917
  C  C428  1  0.935600  0.198200  0.822600  1.0  0.1162
  C  C429  1  0.939700  0.258600  0.752900  1.0  0.1837
  C  C430  1  0.995700  0.290300  0.768600  1.0  -0.1792
  C  C431  1  0.444200  0.559800  0.477900  1.0  0.2866
  C  C432  1  0.444900  0.522300  0.397800  1.0  0.338
  C  C433  1  0.520200  0.595800  0.423100  1.0  0.3904
  C  C434  1  0.422200  0.559100  0.531700  1.0  -0.0644
  C  C435  1  0.456700  0.593500  0.569900  1.0  -0.1778
  C  C436  1  0.430900  0.593800  0.615900  1.0  0.1576
  C  C437  1  0.345400  0.522700  0.595400  1.0  0.1635
  C  C438  1  0.367200  0.520000  0.545300  1.0  -0.1495
  C  C439  1  0.411500  0.482900  0.361300  1.0  -0.1071
  C  C440  1  0.352900  0.442400  0.375300  1.0  -0.1094
  C  C441  1  0.329600  0.402000  0.342600  1.0  0.1527
  C  C442  1  0.412600  0.434700  0.280600  1.0  0.1564
  C  C443  1  0.441800  0.475700  0.313200  1.0  -0.1649
  C  C444  1  0.581200  0.636900  0.410800  1.0  -0.0792
  C  C445  1  0.617600  0.634500  0.362500  1.0  -0.1704
  C  C446  1  0.667500  0.671700  0.355300  1.0  0.1915
  C  C447  1  0.655700  0.722000  0.428800  1.0  0.1542
  C  C448  1  0.603300  0.678300  0.444300  1.0  -0.1034
  C  C449  1  0.672600  0.121600  0.168800  1.0  0.3436
  C  C450  1  0.653800  0.167000  0.096900  1.0  0.2476
  C  C451  1  0.581900  0.188300  0.162700  1.0  0.46
  C  C452  1  0.714700  0.081700  0.204400  1.0  -0.1316
  C  C453  1  0.696800  0.073400  0.253200  1.0  -0.1608
  C  C454  1  0.734600  0.032100  0.280900  1.0  0.1615
  C  C455  1  0.808700  0.004700  0.217200  1.0  0.1244
  C  C456  1  0.771200  0.049300  0.182400  1.0  -0.0973
  C  C457  1  0.662300  0.179200  0.042600  1.0  -0.1122
  C  C458  1  0.716900  0.141700  0.020300  1.0  -0.0853
  C  C459  1  0.734000  0.151800  0.968200  1.0  0.1349
  C  C460  1  0.645500  0.230000  0.964400  1.0  0.1341
  C  C461  1  0.634200  0.226300  0.015600  1.0  -0.0712
  C  C462  1  0.523200  0.222000  0.182400  1.0  -0.0487
  C  C463  1  0.493100  0.270500  0.157100  1.0  -0.0906
  C  C464  1  0.435600  0.301800  0.177400  1.0  0.1164
  C  C465  1  0.439700  0.241400  0.247100  1.0  0.1819
  C  C466  1  0.495700  0.209700  0.231400  1.0  -0.1789
  C  C467  1  0.944200  0.940200  0.522100  1.0  0.2865
  C  C468  1  0.944900  0.977700  0.602200  1.0  0.338
  C  C469  1  0.020200  0.904200  0.576900  1.0  0.391
  C  C470  1  0.922200  0.940900  0.468300  1.0  -0.0638
  C  C471  1  0.956700  0.906500  0.430100  1.0  -0.1778
  C  C472  1  0.930900  0.906200  0.384100  1.0  0.1587
  C  C473  1  0.845400  0.977300  0.404600  1.0  0.163
  C  C474  1  0.867200  0.980000  0.454700  1.0  -0.1492
  C  C475  1  0.911500  0.017100  0.638700  1.0  -0.1071
  C  C476  1  0.852900  0.057600  0.624700  1.0  -0.11
  C  C477  1  0.829600  0.098000  0.657400  1.0  0.1522
  C  C478  1  0.912600  0.065300  0.719400  1.0  0.1565
  C  C479  1  0.941800  0.024300  0.686800  1.0  -0.1644
  C  C480  1  0.081200  0.863100  0.589200  1.0  -0.0794
  C  C481  1  0.117600  0.865500  0.637500  1.0  -0.1688
  C  C482  1  0.167500  0.828300  0.644700  1.0  0.1906
  C  C483  1  0.155700  0.778000  0.571200  1.0  0.1533
  C  C484  1  0.103300  0.821700  0.555700  1.0  -0.103
  C  C485  1  0.827400  0.878400  0.668800  1.0  0.3443
  C  C486  1  0.846200  0.833000  0.596900  1.0  0.2477
  C  C487  1  0.918100  0.811700  0.662700  1.0  0.4591
  C  C488  1  0.785300  0.918300  0.704400  1.0  -0.1329
  C  C489  1  0.803200  0.926600  0.753200  1.0  -0.1592
  C  C490  1  0.765400  0.967900  0.780900  1.0  0.1621
  C  C491  1  0.691300  0.995300  0.717200  1.0  0.1239
  C  C492  1  0.728800  0.950700  0.682400  1.0  -0.0992
  C  C493  1  0.837700  0.820800  0.542600  1.0  -0.1104
  C  C494  1  0.783100  0.858300  0.520300  1.0  -0.0844
  C  C495  1  0.766000  0.848200  0.468200  1.0  0.1343
  C  C496  1  0.854500  0.770000  0.464400  1.0  0.1327
  C  C497  1  0.865800  0.773700  0.515600  1.0  -0.0721
  C  C498  1  0.976800  0.778000  0.682400  1.0  -0.0489
  C  C499  1  0.006900  0.729500  0.657100  1.0  -0.09
  C  C500  1  0.064400  0.698200  0.677400  1.0  0.116
  C  C501  1  0.060300  0.758600  0.747100  1.0  0.1824
  C  C502  1  0.004300  0.790300  0.731400  1.0  -0.1808
  C  C503  1  0.555800  0.059800  0.022100  1.0  0.2864
  C  C504  1  0.555100  0.022300  0.102200  1.0  0.3376
  C  C505  1  0.479800  0.095800  0.076900  1.0  0.3906
  C  C506  1  0.577800  0.059100  0.968300  1.0  -0.0652
  C  C507  1  0.543300  0.093500  0.930100  1.0  -0.1779
  C  C508  1  0.569100  0.093800  0.884100  1.0  0.1583
  C  C509  1  0.654600  0.022700  0.904600  1.0  0.1637
  C  C510  1  0.632800  0.020000  0.954700  1.0  -0.1475
  C  C511  1  0.588500  0.982900  0.138700  1.0  -0.1069
  C  C512  1  0.647100  0.942400  0.124700  1.0  -0.1098
  C  C513  1  0.670400  0.902000  0.157400  1.0  0.1508
  C  C514  1  0.587400  0.934700  0.219400  1.0  0.1571
  C  C515  1  0.558200  0.975700  0.186800  1.0  -0.164
  C  C516  1  0.418800  0.136900  0.089200  1.0  -0.0792
  C  C517  1  0.382400  0.134500  0.137500  1.0  -0.1697
  C  C518  1  0.332500  0.171700  0.144700  1.0  0.19
  C  C519  1  0.344300  0.222000  0.071200  1.0  0.1531
  C  C520  1  0.396700  0.178300  0.055700  1.0  -0.1025
  S  S521  1  0.897190  0.637250  0.752540  1.0  -0.3454
  S  S522  1  0.243170  0.235660  0.787890  1.0  -0.3856
  S  S523  1  0.737950  0.638940  0.823760  1.0  0.0143
  S  S524  1  0.648010  0.226100  0.324470  1.0  -0.3555
  S  S525  1  0.602810  0.362750  0.252540  1.0  -0.3452
  S  S526  1  0.256830  0.764340  0.287890  1.0  -0.3858
  S  S527  1  0.762050  0.361060  0.323760  1.0  0.0143
  S  S528  1  0.851990  0.773900  0.824470  1.0  -0.3529
  S  S529  1  0.102810  0.137250  0.747460  1.0  -0.345
  S  S530  1  0.756830  0.735660  0.712110  1.0  -0.3851
  S  S531  1  0.262050  0.138940  0.676240  1.0  0.0132
  S  S532  1  0.351990  0.726100  0.175530  1.0  -0.3527
  S  S533  1  0.397190  0.862750  0.247460  1.0  -0.3448
  S  S534  1  0.743170  0.264340  0.212110  1.0  -0.3857
  S  S535  1  0.237950  0.861060  0.176240  1.0  0.0142
  S  S536  1  0.148010  0.273900  0.675530  1.0  -0.3555
  S  S537  1  0.102810  0.362750  0.247460  1.0  -0.3448
  S  S538  1  0.756830  0.764340  0.212110  1.0  -0.3857
  S  S539  1  0.262050  0.361060  0.176240  1.0  0.0137
  S  S540  1  0.351990  0.773900  0.675530  1.0  -0.3527
  S  S541  1  0.397190  0.637250  0.747460  1.0  -0.345
  S  S542  1  0.743170  0.235660  0.712110  1.0  -0.3852
  S  S543  1  0.237950  0.638940  0.676240  1.0  0.0133
  S  S544  1  0.148010  0.226100  0.175530  1.0  -0.3552
  S  S545  1  0.897190  0.862750  0.252540  1.0  -0.3452
  S  S546  1  0.243170  0.264340  0.287890  1.0  -0.3854
  S  S547  1  0.737950  0.861060  0.323760  1.0  0.0149
  S  S548  1  0.648010  0.273900  0.824470  1.0  -0.3558
  S  S549  1  0.602810  0.137250  0.752540  1.0  -0.3454
  S  S550  1  0.256830  0.735660  0.787890  1.0  -0.386
  S  S551  1  0.762050  0.138940  0.823760  1.0  0.014
  S  S552  1  0.851990  0.726100  0.324470  1.0  -0.353
  I  I553  1  0.848710  0.630360  0.600630  1.0  -0.3915
  I  I554  1  0.651290  0.369640  0.100630  1.0  -0.3936
  I  I555  1  0.151290  0.130360  0.899370  1.0  -0.3949
  I  I556  1  0.348710  0.869640  0.399370  1.0  -0.3955
  I  I557  1  0.151290  0.369640  0.399370  1.0  -0.3959
  I  I558  1  0.348710  0.630360  0.899370  1.0  -0.395
  I  I559  1  0.848710  0.869640  0.100630  1.0  -0.3929
  I  I560  1  0.651290  0.130360  0.600630  1.0  -0.3921
  N  N561  1  0.693300  0.371400  0.623500  1.0  -0.3775
  N  N562  1  0.596200  0.300100  0.615800  1.0  -0.4441
  N  N563  1  0.617000  0.349600  0.691200  1.0  -0.4235
  N  N564  1  0.790800  0.500300  0.766500  1.0  -0.3234
  N  N565  1  0.699100  0.301200  0.440100  1.0  -0.3487
  N  N566  1  0.406900  0.217600  0.724000  1.0  -0.3296
  N  N567  1  0.917500  0.520800  0.054400  1.0  -0.4927
  N  N568  1  0.996900  0.560100  0.114900  1.0  -0.4977
  N  N569  1  0.003000  0.596500  0.031200  1.0  -0.3526
  N  N570  1  0.875300  0.559100  0.868300  1.0  -0.3512
  N  N571  1  0.856500  0.395300  0.206000  1.0  -0.3498
  N  N572  1  0.191400  0.715200  0.113100  1.0  -0.3134
  N  N573  1  0.806700  0.628600  0.123500  1.0  -0.3799
  N  N574  1  0.903800  0.699900  0.115800  1.0  -0.4405
  N  N575  1  0.883000  0.650400  0.191200  1.0  -0.425
  N  N576  1  0.709200  0.499700  0.266500  1.0  -0.3252
  N  N577  1  0.800900  0.698800  0.940100  1.0  -0.3489
  N  N578  1  0.093100  0.782400  0.224000  1.0  -0.3309
  N  N579  1  0.582500  0.479200  0.554400  1.0  -0.4925
  N  N580  1  0.503100  0.439900  0.614900  1.0  -0.4992
  N  N581  1  0.497000  0.403500  0.531200  1.0  -0.3543
  N  N582  1  0.624700  0.440900  0.368300  1.0  -0.3512
  N  N583  1  0.643500  0.604700  0.706000  1.0  -0.3493
  N  N584  1  0.308600  0.284800  0.613100  1.0  -0.316
  N  N585  1  0.306700  0.871400  0.876500  1.0  -0.38
  N  N586  1  0.403800  0.800100  0.884200  1.0  -0.4409
  N  N587  1  0.383000  0.849600  0.808800  1.0  -0.4235
  N  N588  1  0.209200  0.000300  0.733500  1.0  -0.3235
  N  N589  1  0.300900  0.801200  0.059900  1.0  -0.3491
  N  N590  1  0.593100  0.717600  0.776000  1.0  -0.3298
  N  N591  1  0.082500  0.020800  0.445600  1.0  -0.4932
  N  N592  1  0.003100  0.060100  0.385100  1.0  -0.4963
  N  N593  1  0.997000  0.096500  0.468800  1.0  -0.3545
  N  N594  1  0.124700  0.059100  0.631700  1.0  -0.3501
  N  N595  1  0.143500  0.895300  0.294000  1.0  -0.3493
  N  N596  1  0.808600  0.215200  0.386900  1.0  -0.3149
  N  N597  1  0.193300  0.128600  0.376500  1.0  -0.3773
  N  N598  1  0.096200  0.199900  0.384200  1.0  -0.4408
  N  N599  1  0.117000  0.150400  0.308800  1.0  -0.425
  N  N600  1  0.290800  0.999700  0.233500  1.0  -0.3234
  N  N601  1  0.199100  0.198800  0.559900  1.0  -0.3473
  N  N602  1  0.906900  0.282400  0.276000  1.0  -0.3294
  N  N603  1  0.417500  0.979200  0.945600  1.0  -0.4917
  N  N604  1  0.496900  0.939900  0.885100  1.0  -0.4951
  N  N605  1  0.503000  0.903500  0.968800  1.0  -0.3525
  N  N606  1  0.375300  0.940900  0.131700  1.0  -0.3511
  N  N607  1  0.356500  0.104700  0.794000  1.0  -0.35
  N  N608  1  0.691400  0.784800  0.886900  1.0  -0.3124
  N  N609  1  0.306700  0.628600  0.376500  1.0  -0.3803
  N  N610  1  0.403800  0.699900  0.384200  1.0  -0.4405
  N  N611  1  0.383000  0.650400  0.308800  1.0  -0.4249
  N  N612  1  0.209200  0.499700  0.233500  1.0  -0.3251
  N  N613  1  0.300900  0.698800  0.559900  1.0  -0.3485
  N  N614  1  0.593100  0.782400  0.276000  1.0  -0.3298
  N  N615  1  0.082500  0.479200  0.945600  1.0  -0.4928
  N  N616  1  0.003100  0.439900  0.885100  1.0  -0.4966
  N  N617  1  0.997000  0.403500  0.968800  1.0  -0.3537
  N  N618  1  0.124700  0.440900  0.131700  1.0  -0.3499
  N  N619  1  0.143500  0.604700  0.794000  1.0  -0.3493
  N  N620  1  0.808600  0.284800  0.886900  1.0  -0.3156
  N  N621  1  0.193300  0.371400  0.876500  1.0  -0.3775
  N  N622  1  0.096200  0.300100  0.884200  1.0  -0.443
  N  N623  1  0.117000  0.349600  0.808800  1.0  -0.4234
  N  N624  1  0.290800  0.500300  0.733500  1.0  -0.3228
  N  N625  1  0.199100  0.301200  0.059900  1.0  -0.3477
  N  N626  1  0.906900  0.217600  0.776000  1.0  -0.3306
  N  N627  1  0.417500  0.520800  0.445600  1.0  -0.4929
  N  N628  1  0.496900  0.560100  0.385100  1.0  -0.4948
  N  N629  1  0.503000  0.596500  0.468800  1.0  -0.3532
  N  N630  1  0.375300  0.559100  0.631700  1.0  -0.3511
  N  N631  1  0.356500  0.395300  0.294000  1.0  -0.3507
  N  N632  1  0.691400  0.715200  0.386900  1.0  -0.3133
  N  N633  1  0.693300  0.128600  0.123500  1.0  -0.3775
  N  N634  1  0.596200  0.199900  0.115800  1.0  -0.4409
  N  N635  1  0.617000  0.150400  0.191200  1.0  -0.4238
  N  N636  1  0.790800  0.999700  0.266500  1.0  -0.3232
  N  N637  1  0.699100  0.198800  0.940100  1.0  -0.3478
  N  N638  1  0.406900  0.282400  0.224000  1.0  -0.3302
  N  N639  1  0.917500  0.979200  0.554400  1.0  -0.4914
  N  N640  1  0.996900  0.939900  0.614900  1.0  -0.4979
  N  N641  1  0.003000  0.903500  0.531200  1.0  -0.3533
  N  N642  1  0.875300  0.940900  0.368300  1.0  -0.3513
  N  N643  1  0.856500  0.104700  0.706000  1.0  -0.3502
  N  N644  1  0.191400  0.784800  0.613100  1.0  -0.3127
  N  N645  1  0.806700  0.871400  0.623500  1.0  -0.3797
  N  N646  1  0.903800  0.800100  0.615800  1.0  -0.4418
  N  N647  1  0.883000  0.849600  0.691200  1.0  -0.4251
  N  N648  1  0.709200  0.000300  0.766500  1.0  -0.3246
  N  N649  1  0.800900  0.801200  0.440100  1.0  -0.3501
  N  N650  1  0.093100  0.717600  0.724000  1.0  -0.3294
  N  N651  1  0.582500  0.020800  0.054400  1.0  -0.4929
  N  N652  1  0.503100  0.060100  0.114900  1.0  -0.499
  N  N653  1  0.497000  0.096500  0.031200  1.0  -0.3529
  N  N654  1  0.624700  0.059100  0.868300  1.0  -0.3513
  N  N655  1  0.643500  0.895300  0.206000  1.0  -0.3481
  N  N656  1  0.308600  0.215200  0.113100  1.0  -0.3151
