# generated using pymatgen
data_Gd(CO2)4
_symmetry_space_group_name_H-M   'P 1'
_cell_length_a   8.53300000
_cell_length_b   9.37000000
_cell_length_c   10.00300000
_cell_angle_alpha   63.28300000
_cell_angle_beta   75.90500000
_cell_angle_gamma   74.27600000
_symmetry_Int_Tables_number   1
_chemical_formula_structural   Gd(CO2)4
_chemical_formula_sum   'Gd2 C8 O16'
_cell_volume   680.73948563
_cell_formula_units_Z   2
loop_
 _symmetry_equiv_pos_site_id
 _symmetry_equiv_pos_as_xyz
  1  'x, y, z'
loop_
 _atom_site_type_symbol
 _atom_site_label
 _atom_site_symmetry_multiplicity
 _atom_site_fract_x
 _atom_site_fract_y
 _atom_site_fract_z
 _atom_site_occupancy
 _atom_site_charge
  Gd  Gd1  1  0.332500  0.368230  0.840500  1.0  2.0948
  Gd  Gd2  1  0.667500  0.631770  0.159500  1.0  2.0952
  C  C3  1  0.984700  0.413100  0.048400  1.0  0.5722
  C  C4  1  0.428700  0.973400  0.988100  1.0  0.5511
  C  C5  1  0.554800  0.415000  0.515700  1.0  0.5466
  C  C6  1  0.556300  0.539000  0.924100  1.0  0.6184
  C  C7  1  0.015300  0.586900  0.951600  1.0  0.5728
  C  C8  1  0.571300  0.026600  0.011900  1.0  0.5509
  C  C9  1  0.445200  0.585000  0.484300  1.0  0.5464
  C  C10  1  0.443700  0.461000  0.075900  1.0  0.6193
  O  O11  1  0.083200  0.302300  0.017000  1.0  -0.5503
  O  O12  1  0.320400  0.086600  0.919000  1.0  -0.5604
  O  O13  1  0.529900  0.307000  0.646500  1.0  -0.5574
  O  O14  1  0.533100  0.523300  0.813300  1.0  -0.5691
  O  O15  1  0.431400  0.824500  0.039400  1.0  -0.5194
  O  O16  1  0.862900  0.394800  0.149800  1.0  -0.5446
  O  O17  1  0.658100  0.608400  0.925500  1.0  -0.5411
  O  O18  1  0.657300  0.399900  0.408200  1.0  -0.5457
  O  O19  1  0.916800  0.697700  0.983000  1.0  -0.5437
  O  O20  1  0.679600  0.913400  0.081000  1.0  -0.56
  O  O21  1  0.470100  0.693000  0.353500  1.0  -0.5565
  O  O22  1  0.466900  0.476700  0.186700  1.0  -0.5688
  O  O23  1  0.568600  0.175500  0.960600  1.0  -0.5171
  O  O24  1  0.137100  0.605200  0.850200  1.0  -0.5459
  O  O25  1  0.341900  0.391600  0.074500  1.0  -0.5415
  O  O26  1  0.342700  0.600100  0.591800  1.0  -0.5463
