# generated using pymatgen
data_Nd(CO2)4
_symmetry_space_group_name_H-M   'P 1'
_cell_length_a   8.41700000
_cell_length_b   9.71600000
_cell_length_c   10.11700000
_cell_angle_alpha   61.95100000
_cell_angle_beta   77.81600000
_cell_angle_gamma   74.27900000
_symmetry_Int_Tables_number   1
_chemical_formula_structural   Nd(CO2)4
_chemical_formula_sum   'Nd2 C8 O16'
_cell_volume   699.45704113
_cell_formula_units_Z   2
loop_
 _symmetry_equiv_pos_site_id
 _symmetry_equiv_pos_as_xyz
  1  'x, y, z'
loop_
 _atom_site_type_symbol
 _atom_site_label
 _atom_site_symmetry_multiplicity
 _atom_site_fract_x
 _atom_site_fract_y
 _atom_site_fract_z
 _atom_site_occupancy
 _atom_site_charge
  Nd  Nd1  1  0.328630  0.369950  0.838490  1.0  2.183
  Nd  Nd2  1  0.671370  0.630050  0.161510  1.0  2.1838
  C  C3  1  0.985700  0.413000  0.049000  1.0  0.5766
  C  C4  1  0.425400  0.976600  0.988600  1.0  0.5489
  C  C5  1  0.553500  0.415800  0.517400  1.0  0.543
  C  C6  1  0.557200  0.536700  0.926600  1.0  0.6117
  C  C7  1  0.014300  0.587000  0.951000  1.0  0.5766
  C  C8  1  0.574600  0.023400  0.011400  1.0  0.5492
  C  C9  1  0.446500  0.584200  0.482600  1.0  0.5419
  C  C10  1  0.442800  0.463300  0.073400  1.0  0.6124
  O  O11  1  0.074000  0.308300  0.013700  1.0  -0.5394
  O  O12  1  0.311900  0.091900  0.922400  1.0  -0.5951
  O  O13  1  0.526700  0.308400  0.647200  1.0  -0.5578
  O  O14  1  0.538300  0.518200  0.816600  1.0  -0.5884
  O  O15  1  0.430000  0.831800  0.033100  1.0  -0.5389
  O  O16  1  0.873700  0.393800  0.157600  1.0  -0.5457
  O  O17  1  0.656000  0.609700  0.927500  1.0  -0.5467
  O  O18  1  0.659800  0.401500  0.415500  1.0  -0.5531
  O  O19  1  0.926000  0.691700  0.986300  1.0  -0.5366
  O  O20  1  0.688100  0.908100  0.077600  1.0  -0.595
  O  O21  1  0.473300  0.691600  0.352800  1.0  -0.5571
  O  O22  1  0.461700  0.481800  0.183400  1.0  -0.5883
  O  O23  1  0.570000  0.168200  0.966900  1.0  -0.5372
  O  O24  1  0.126300  0.606200  0.842400  1.0  -0.5495
  O  O25  1  0.344000  0.390300  0.072500  1.0  -0.5464
  O  O26  1  0.340200  0.598500  0.584500  1.0  -0.5518
