# generated using pymatgen
data_CdH10C13N3O4
_symmetry_space_group_name_H-M   'P 1'
_cell_length_a   9.79390000
_cell_length_b   21.68800000
_cell_length_c   27.67700000
_cell_angle_alpha   90.00000000
_cell_angle_beta   90.00000000
_cell_angle_gamma   90.00000000
_symmetry_Int_Tables_number   1
_chemical_formula_structural   CdH10C13N3O4
_chemical_formula_sum   'Cd16 H160 C208 N48 O64'
_cell_volume   5878.87442627
_cell_formula_units_Z   16
loop_
 _symmetry_equiv_pos_site_id
 _symmetry_equiv_pos_as_xyz
  1  'x, y, z'
loop_
 _atom_site_type_symbol
 _atom_site_label
 _atom_site_symmetry_multiplicity
 _atom_site_fract_x
 _atom_site_fract_y
 _atom_site_fract_z
 _atom_site_occupancy
 _atom_site_charge
  Cd  Cd1  1  0.328950  0.522710  0.356220  1.0  0.9861
  Cd  Cd2  1  0.171050  0.477290  0.856220  1.0  0.9864
  Cd  Cd3  1  0.671050  0.022710  0.143780  1.0  0.9866
  Cd  Cd4  1  0.828950  0.977290  0.643780  1.0  0.9862
  Cd  Cd5  1  0.796530  0.340910  0.458180  1.0  0.9966
  Cd  Cd6  1  0.703470  0.659090  0.958180  1.0  0.996
  Cd  Cd7  1  0.203470  0.840910  0.041820  1.0  0.9959
  Cd  Cd8  1  0.296530  0.159090  0.541820  1.0  0.9962
  Cd  Cd9  1  0.203470  0.659090  0.541820  1.0  0.9958
  Cd  Cd10  1  0.296530  0.340910  0.041820  1.0  0.9965
  Cd  Cd11  1  0.796530  0.159090  0.958180  1.0  0.9964
  Cd  Cd12  1  0.703470  0.840910  0.458180  1.0  0.9959
  Cd  Cd13  1  0.671050  0.477290  0.643780  1.0  0.9868
  Cd  Cd14  1  0.828950  0.522710  0.143780  1.0  0.9861
  Cd  Cd15  1  0.328950  0.977290  0.856220  1.0  0.986
  Cd  Cd16  1  0.171050  0.022710  0.356220  1.0  0.9864
  H  H17  1  0.096800  0.284800  0.199300  1.0  0.107
  H  H18  1  0.784100  0.180400  0.278000  1.0  0.1273
  H  H19  1  0.677300  0.099900  0.239500  1.0  0.078
  H  H20  1  0.437200  0.362000  0.462900  1.0  0.102
  H  H21  1  0.329200  0.397100  0.431500  1.0  0.1049
  H  H22  1  0.128400  0.411800  0.360900  1.0  0.0744
  H  H23  1  0.954800  0.258700  0.281100  1.0  0.1019
  H  H24  1  0.239400  0.378700  0.203300  1.0  0.1282
  H  H25  1  0.929700  0.110400  0.131500  1.0  0.0765
  H  H26  1  0.326200  0.460500  0.245400  1.0  0.0785
  H  H27  1  0.035100  0.329600  0.321700  1.0  0.1274
  H  H28  1  0.037500  0.193500  0.164800  1.0  0.1227
  H  H29  1  0.475600  0.293700  0.397800  1.0  0.0993
  H  H30  1  0.323500  0.290900  0.415300  1.0  0.1096
  H  H31  1  0.361100  0.327600  0.368400  1.0  0.0851
  H  H32  1  0.403200  0.715200  0.699300  1.0  0.1076
  H  H33  1  0.715900  0.819600  0.778000  1.0  0.1269
  H  H34  1  0.822700  0.900100  0.739500  1.0  0.0778
  H  H35  1  0.062800  0.638000  0.962900  1.0  0.1013
  H  H36  1  0.170800  0.602900  0.931500  1.0  0.1049
  H  H37  1  0.371600  0.588200  0.860900  1.0  0.0742
  H  H38  1  0.545200  0.741300  0.781100  1.0  0.1018
  H  H39  1  0.260600  0.621300  0.703300  1.0  0.1284
  H  H40  1  0.570300  0.889600  0.631500  1.0  0.077
  H  H41  1  0.173800  0.539500  0.745400  1.0  0.0781
  H  H42  1  0.464900  0.670400  0.821700  1.0  0.1276
  H  H43  1  0.462500  0.806500  0.664800  1.0  0.1231
  H  H44  1  0.024400  0.706300  0.897800  1.0  0.0985
  H  H45  1  0.176500  0.709100  0.915300  1.0  0.1101
  H  H46  1  0.138900  0.672400  0.868400  1.0  0.0856
  H  H47  1  0.903200  0.784800  0.300700  1.0  0.1071
  H  H48  1  0.215900  0.680400  0.222000  1.0  0.1273
  H  H49  1  0.322700  0.599900  0.260500  1.0  0.0774
  H  H50  1  0.562800  0.862000  0.037100  1.0  0.101
  H  H51  1  0.670800  0.897100  0.068500  1.0  0.1057
  H  H52  1  0.871600  0.911800  0.139100  1.0  0.0744
  H  H53  1  0.045200  0.758700  0.218900  1.0  0.1021
  H  H54  1  0.760600  0.878700  0.296700  1.0  0.1279
  H  H55  1  0.070300  0.610400  0.368500  1.0  0.077
  H  H56  1  0.673800  0.960500  0.254600  1.0  0.0783
  H  H57  1  0.964900  0.829600  0.178300  1.0  0.1277
  H  H58  1  0.962500  0.693500  0.335200  1.0  0.1224
  H  H59  1  0.524400  0.793700  0.102200  1.0  0.0988
  H  H60  1  0.676500  0.790900  0.084700  1.0  0.1099
  H  H61  1  0.638900  0.827600  0.131600  1.0  0.0858
  H  H62  1  0.596800  0.215200  0.800700  1.0  0.1072
  H  H63  1  0.284100  0.319600  0.722000  1.0  0.1273
  H  H64  1  0.177300  0.400100  0.760500  1.0  0.0776
  H  H65  1  0.937200  0.138000  0.537100  1.0  0.1005
  H  H66  1  0.829200  0.102900  0.568500  1.0  0.1045
  H  H67  1  0.628400  0.088200  0.639100  1.0  0.0747
  H  H68  1  0.454800  0.241300  0.718900  1.0  0.1022
  H  H69  1  0.739400  0.121300  0.796700  1.0  0.1281
  H  H70  1  0.429700  0.389600  0.868500  1.0  0.077
  H  H71  1  0.826200  0.039500  0.754600  1.0  0.0787
  H  H72  1  0.535100  0.170400  0.678300  1.0  0.1279
  H  H73  1  0.537500  0.306500  0.835200  1.0  0.1223
  H  H74  1  0.975600  0.206300  0.602200  1.0  0.0992
  H  H75  1  0.823500  0.209100  0.584700  1.0  0.1098
  H  H76  1  0.861100  0.172400  0.631600  1.0  0.0849
  H  H77  1  0.632700  0.204000  0.425700  1.0  0.0961
  H  H78  1  0.494200  0.172500  0.439800  1.0  0.0976
  H  H79  1  0.749400  0.134900  0.476500  1.0  0.0902
  H  H80  1  0.668700  0.099100  0.436400  1.0  0.1118
  H  H81  1  0.610500  0.102700  0.489100  1.0  0.1117
  H  H82  1  0.867300  0.796000  0.925700  1.0  0.0963
  H  H83  1  0.005800  0.827500  0.939800  1.0  0.0981
  H  H84  1  0.750600  0.865100  0.976500  1.0  0.0914
  H  H85  1  0.831300  0.900900  0.936400  1.0  0.1124
  H  H86  1  0.889500  0.897300  0.989100  1.0  0.1105
  H  H87  1  0.367300  0.704000  0.074300  1.0  0.0968
  H  H88  1  0.505800  0.672500  0.060200  1.0  0.0986
  H  H89  1  0.250600  0.634900  0.023500  1.0  0.0914
  H  H90  1  0.331300  0.599100  0.063600  1.0  0.1132
  H  H91  1  0.389500  0.602700  0.010900  1.0  0.1095
  H  H92  1  0.132700  0.296000  0.574300  1.0  0.0965
  H  H93  1  0.994200  0.327500  0.560200  1.0  0.0981
  H  H94  1  0.249400  0.365100  0.523500  1.0  0.0902
  H  H95  1  0.168700  0.400900  0.563600  1.0  0.1124
  H  H96  1  0.110500  0.397300  0.510900  1.0  0.1101
  H  H97  1  0.367300  0.796000  0.574300  1.0  0.0966
  H  H98  1  0.505800  0.827500  0.560200  1.0  0.098
  H  H99  1  0.250600  0.865100  0.523500  1.0  0.0918
  H  H100  1  0.331300  0.900900  0.563600  1.0  0.1125
  H  H101  1  0.389500  0.897300  0.510900  1.0  0.1095
  H  H102  1  0.132700  0.204000  0.074300  1.0  0.0965
  H  H103  1  0.994200  0.172500  0.060200  1.0  0.0973
  H  H104  1  0.249400  0.134900  0.023500  1.0  0.09
  H  H105  1  0.168700  0.099100  0.063600  1.0  0.113
  H  H106  1  0.110500  0.102700  0.010900  1.0  0.1101
  H  H107  1  0.632700  0.296000  0.925700  1.0  0.0961
  H  H108  1  0.494200  0.327500  0.939800  1.0  0.0981
  H  H109  1  0.749400  0.365100  0.976500  1.0  0.0902
  H  H110  1  0.668700  0.400900  0.936400  1.0  0.112
  H  H111  1  0.610500  0.397300  0.989100  1.0  0.111
  H  H112  1  0.867300  0.704000  0.425700  1.0  0.0968
  H  H113  1  0.005800  0.672500  0.439800  1.0  0.0978
  H  H114  1  0.750600  0.634900  0.476500  1.0  0.0911
  H  H115  1  0.831300  0.599100  0.436400  1.0  0.1123
  H  H116  1  0.889500  0.602700  0.489100  1.0  0.1109
  H  H117  1  0.903200  0.715200  0.800700  1.0  0.1074
  H  H118  1  0.215900  0.819600  0.722000  1.0  0.1273
  H  H119  1  0.322700  0.900100  0.760500  1.0  0.0776
  H  H120  1  0.562800  0.638000  0.537100  1.0  0.1001
  H  H121  1  0.670800  0.602900  0.568500  1.0  0.1051
  H  H122  1  0.871600  0.588200  0.639100  1.0  0.0743
  H  H123  1  0.045200  0.741300  0.718900  1.0  0.1021
  H  H124  1  0.760600  0.621300  0.796700  1.0  0.1281
  H  H125  1  0.070300  0.889600  0.868500  1.0  0.0771
  H  H126  1  0.673800  0.539500  0.754600  1.0  0.0786
  H  H127  1  0.964900  0.670400  0.678300  1.0  0.1278
  H  H128  1  0.962500  0.806500  0.835200  1.0  0.1225
  H  H129  1  0.524400  0.706300  0.602200  1.0  0.0987
  H  H130  1  0.676500  0.709100  0.584700  1.0  0.1101
  H  H131  1  0.638900  0.672400  0.631600  1.0  0.0855
  H  H132  1  0.596800  0.284800  0.300700  1.0  0.1068
  H  H133  1  0.284100  0.180400  0.222000  1.0  0.1273
  H  H134  1  0.177300  0.099900  0.260500  1.0  0.0775
  H  H135  1  0.937200  0.362000  0.037100  1.0  0.1013
  H  H136  1  0.829200  0.397100  0.068500  1.0  0.1049
  H  H137  1  0.628400  0.411800  0.139100  1.0  0.0746
  H  H138  1  0.454800  0.258700  0.218900  1.0  0.1022
  H  H139  1  0.739400  0.378700  0.296700  1.0  0.1278
  H  H140  1  0.429700  0.110400  0.368500  1.0  0.077
  H  H141  1  0.826200  0.460500  0.254600  1.0  0.0784
  H  H142  1  0.535100  0.329600  0.178300  1.0  0.1277
  H  H143  1  0.537500  0.193500  0.335200  1.0  0.1223
  H  H144  1  0.975600  0.293700  0.102200  1.0  0.0994
  H  H145  1  0.823500  0.290900  0.084700  1.0  0.1094
  H  H146  1  0.861100  0.327600  0.131600  1.0  0.0851
  H  H147  1  0.096800  0.215200  0.699300  1.0  0.1071
  H  H148  1  0.784100  0.319600  0.778000  1.0  0.1269
  H  H149  1  0.677300  0.400100  0.739500  1.0  0.0777
  H  H150  1  0.437200  0.138000  0.962900  1.0  0.1017
  H  H151  1  0.329200  0.102900  0.931500  1.0  0.1047
  H  H152  1  0.128400  0.088200  0.860900  1.0  0.0744
  H  H153  1  0.954800  0.241300  0.781100  1.0  0.1018
  H  H154  1  0.239400  0.121300  0.703300  1.0  0.1282
  H  H155  1  0.929700  0.389600  0.631500  1.0  0.0767
  H  H156  1  0.326200  0.039500  0.745400  1.0  0.0783
  H  H157  1  0.035100  0.170400  0.821700  1.0  0.1277
  H  H158  1  0.037500  0.306500  0.664800  1.0  0.1228
  H  H159  1  0.475600  0.206300  0.897800  1.0  0.0991
  H  H160  1  0.323500  0.209100  0.915300  1.0  0.1097
  H  H161  1  0.361100  0.172400  0.868400  1.0  0.0853
  H  H162  1  0.403200  0.784800  0.199300  1.0  0.1075
  H  H163  1  0.715900  0.680400  0.278000  1.0  0.1273
  H  H164  1  0.822700  0.599900  0.239500  1.0  0.078
  H  H165  1  0.062800  0.862000  0.462900  1.0  0.1015
  H  H166  1  0.170800  0.897100  0.431500  1.0  0.1052
  H  H167  1  0.371600  0.911800  0.360900  1.0  0.0743
  H  H168  1  0.545200  0.758700  0.281100  1.0  0.1019
  H  H169  1  0.260600  0.878700  0.203300  1.0  0.1285
  H  H170  1  0.570300  0.610400  0.131500  1.0  0.0766
  H  H171  1  0.173800  0.960500  0.245400  1.0  0.0783
  H  H172  1  0.464900  0.829600  0.321700  1.0  0.1276
  H  H173  1  0.462500  0.693500  0.164800  1.0  0.123
  H  H174  1  0.024400  0.793700  0.397800  1.0  0.0985
  H  H175  1  0.176500  0.790900  0.415300  1.0  0.11
  H  H176  1  0.138900  0.827600  0.368400  1.0  0.0856
  C  C177  1  0.722900  0.450630  0.393870  1.0  0.0048
  C  C178  1  0.626300  0.485750  0.370500  1.0  0.0192
  C  C179  1  0.523100  0.414230  0.410680  1.0  0.4392
  C  C180  1  0.125300  0.344250  0.257270  1.0  0.1452
  C  C181  1  0.920000  0.198210  0.225140  1.0  0.1318
  C  C182  1  0.068500  0.290990  0.231010  1.0  -0.1271
  C  C183  1  0.636800  0.537400  0.336120  1.0  0.5754
  C  C184  1  0.872500  0.457050  0.398030  1.0  0.598
  C  C185  1  0.813500  0.168000  0.247580  1.0  -0.1885
  C  C186  1  0.750900  0.119010  0.224440  1.0  0.1981
  C  C187  1  0.413800  0.374000  0.430130  1.0  -0.2164
  C  C188  1  0.150700  0.405200  0.328650  1.0  0.1789
  C  C189  1  0.981100  0.251830  0.249280  1.0  -0.0775
  C  C190  1  0.214500  0.384600  0.235350  1.0  -0.2048
  C  C191  1  0.898500  0.125680  0.160920  1.0  0.1805
  C  C192  1  0.266800  0.433700  0.261140  1.0  0.1922
  C  C193  1  0.094400  0.355700  0.305270  1.0  -0.1913
  C  C194  1  0.964200  0.175300  0.180720  1.0  -0.1888
  C  C195  1  0.391500  0.316200  0.400200  1.0  -0.2649
  C  C196  1  0.777100  0.549370  0.893870  1.0  0.0045
  C  C197  1  0.873700  0.514250  0.870500  1.0  0.0186
  C  C198  1  0.976900  0.585770  0.910680  1.0  0.4357
  C  C199  1  0.374700  0.655750  0.757270  1.0  0.1446
  C  C200  1  0.580000  0.801790  0.725140  1.0  0.132
  C  C201  1  0.431500  0.709010  0.731010  1.0  -0.1268
  C  C202  1  0.863200  0.462600  0.836120  1.0  0.5753
  C  C203  1  0.627500  0.542950  0.898030  1.0  0.5976
  C  C204  1  0.686500  0.832000  0.747580  1.0  -0.188
  C  C205  1  0.749100  0.880990  0.724440  1.0  0.1982
  C  C206  1  0.086200  0.626000  0.930130  1.0  -0.2161
  C  C207  1  0.349300  0.594800  0.828650  1.0  0.1796
  C  C208  1  0.518900  0.748170  0.749280  1.0  -0.0769
  C  C209  1  0.285500  0.615400  0.735350  1.0  -0.2054
  C  C210  1  0.601500  0.874320  0.660920  1.0  0.1809
  C  C211  1  0.233200  0.566300  0.761140  1.0  0.1925
  C  C212  1  0.405600  0.644300  0.805270  1.0  -0.191
  C  C213  1  0.535800  0.824700  0.680720  1.0  -0.1889
  C  C214  1  0.108500  0.683800  0.900200  1.0  -0.2656
  C  C215  1  0.277100  0.950630  0.106130  1.0  0.0038
  C  C216  1  0.373700  0.985750  0.129500  1.0  0.019
  C  C217  1  0.476900  0.914230  0.089320  1.0  0.4372
  C  C218  1  0.874700  0.844250  0.242730  1.0  0.1446
  C  C219  1  0.080000  0.698210  0.274860  1.0  0.1315
  C  C220  1  0.931500  0.790990  0.268990  1.0  -0.1269
  C  C221  1  0.363200  0.037400  0.163880  1.0  0.5753
  C  C222  1  0.127500  0.957050  0.101970  1.0  0.5974
  C  C223  1  0.186500  0.668000  0.252420  1.0  -0.1864
  C  C224  1  0.249100  0.619010  0.275560  1.0  0.1972
  C  C225  1  0.586200  0.874000  0.069870  1.0  -0.216
  C  C226  1  0.849300  0.905200  0.171350  1.0  0.1778
  C  C227  1  0.018900  0.751830  0.250720  1.0  -0.0772
  C  C228  1  0.785500  0.884600  0.264650  1.0  -0.2065
  C  C229  1  0.101500  0.625680  0.339080  1.0  0.1815
  C  C230  1  0.733200  0.933700  0.238860  1.0  0.1919
  C  C231  1  0.905600  0.855700  0.194730  1.0  -0.192
  C  C232  1  0.035800  0.675300  0.319280  1.0  -0.1879
  C  C233  1  0.608500  0.816200  0.099800  1.0  -0.266
  C  C234  1  0.222900  0.049370  0.606130  1.0  0.0045
  C  C235  1  0.126300  0.014250  0.629500  1.0  0.0186
  C  C236  1  0.023100  0.085770  0.589320  1.0  0.4366
  C  C237  1  0.625300  0.155750  0.742730  1.0  0.1446
  C  C238  1  0.420000  0.301790  0.774860  1.0  0.1321
  C  C239  1  0.568500  0.209010  0.768990  1.0  -0.1268
  C  C240  1  0.136800  0.962600  0.663880  1.0  0.5757
  C  C241  1  0.372500  0.042950  0.601970  1.0  0.5975
  C  C242  1  0.313500  0.332000  0.752420  1.0  -0.1868
  C  C243  1  0.250900  0.380990  0.775560  1.0  0.1976
  C  C244  1  0.913800  0.126000  0.569870  1.0  -0.2161
  C  C245  1  0.650700  0.094800  0.671350  1.0  0.1773
  C  C246  1  0.481100  0.248170  0.750720  1.0  -0.0782
  C  C247  1  0.714500  0.115400  0.764650  1.0  -0.2061
  C  C248  1  0.398500  0.374320  0.839080  1.0  0.1806
  C  C249  1  0.766800  0.066300  0.738860  1.0  0.1927
  C  C250  1  0.594400  0.144300  0.694730  1.0  -0.1911
  C  C251  1  0.464200  0.324700  0.819280  1.0  -0.1885
  C  C252  1  0.891500  0.183800  0.599800  1.0  -0.2651
  C  C253  1  0.598500  0.303740  0.541270  1.0  0.0041
  C  C254  1  0.569900  0.226520  0.493020  1.0  0.4438
  C  C255  1  0.655900  0.363040  0.558420  1.0  0.6112
  C  C256  1  0.584400  0.183260  0.451600  1.0  -0.2097
  C  C257  1  0.498300  0.265770  0.559970  1.0  0.0
  C  C258  1  0.414900  0.267890  0.604250  1.0  0.5677
  C  C259  1  0.660200  0.124600  0.464600  1.0  -0.2647
  C  C260  1  0.901500  0.696260  0.041270  1.0  0.0042
  C  C261  1  0.930100  0.773480  0.993020  1.0  0.4437
  C  C262  1  0.844100  0.636960  0.058420  1.0  0.6127
  C  C263  1  0.915600  0.816740  0.951600  1.0  -0.2094
  C  C264  1  0.001700  0.734230  0.059970  1.0  -0.0003
  C  C265  1  0.085100  0.732110  0.104250  1.0  0.5684
  C  C266  1  0.839800  0.875400  0.964600  1.0  -0.2632
  C  C267  1  0.401500  0.803740  0.958730  1.0  0.0037
  C  C268  1  0.430100  0.726520  0.006980  1.0  0.4442
  C  C269  1  0.344100  0.863040  0.941580  1.0  0.6102
  C  C270  1  0.415600  0.683260  0.048400  1.0  -0.2106
  C  C271  1  0.501700  0.765770  0.940030  1.0  1e-04
  C  C272  1  0.585100  0.767890  0.895750  1.0  0.5694
  C  C273  1  0.339800  0.624600  0.035400  1.0  -0.264
  C  C274  1  0.098500  0.196260  0.458730  1.0  0.0029
  C  C275  1  0.069900  0.273480  0.506980  1.0  0.444
  C  C276  1  0.155900  0.136960  0.441580  1.0  0.6122
  C  C277  1  0.084400  0.316740  0.548400  1.0  -0.2099
  C  C278  1  0.998300  0.234230  0.440030  1.0  -0.0
  C  C279  1  0.914900  0.232110  0.395750  1.0  0.5683
  C  C280  1  0.160200  0.375400  0.535400  1.0  -0.2624
  C  C281  1  0.401500  0.696260  0.458730  1.0  0.0027
  C  C282  1  0.430100  0.773480  0.506980  1.0  0.444
  C  C283  1  0.344100  0.636960  0.441580  1.0  0.612
  C  C284  1  0.415600  0.816740  0.548400  1.0  -0.2096
  C  C285  1  0.501700  0.734230  0.440030  1.0  -0.0002
  C  C286  1  0.585100  0.732110  0.395750  1.0  0.5694
  C  C287  1  0.339800  0.875400  0.535400  1.0  -0.2624
  C  C288  1  0.098500  0.303740  0.958730  1.0  0.0037
  C  C289  1  0.069900  0.226520  0.006980  1.0  0.4442
  C  C290  1  0.155900  0.363040  0.941580  1.0  0.6109
  C  C291  1  0.084400  0.183260  0.048400  1.0  -0.2105
  C  C292  1  0.998300  0.265770  0.940030  1.0  0.0004
  C  C293  1  0.914900  0.267890  0.895750  1.0  0.5683
  C  C294  1  0.160200  0.124600  0.035400  1.0  -0.2641
  C  C295  1  0.598500  0.196260  0.041270  1.0  0.0042
  C  C296  1  0.569900  0.273480  0.993020  1.0  0.4436
  C  C297  1  0.655900  0.136960  0.058420  1.0  0.6129
  C  C298  1  0.584400  0.316740  0.951600  1.0  -0.2096
  C  C299  1  0.498300  0.234230  0.059970  1.0  0.0002
  C  C300  1  0.414900  0.232110  0.104250  1.0  0.5678
  C  C301  1  0.660200  0.375400  0.964600  1.0  -0.2631
  C  C302  1  0.901500  0.803740  0.541270  1.0  0.0042
  C  C303  1  0.930100  0.726520  0.493020  1.0  0.4439
  C  C304  1  0.844100  0.863040  0.558420  1.0  0.6105
  C  C305  1  0.915600  0.683260  0.451600  1.0  -0.2099
  C  C306  1  0.001700  0.765770  0.559970  1.0  -0.0005
  C  C307  1  0.085100  0.767890  0.604250  1.0  0.5685
  C  C308  1  0.839800  0.624600  0.464600  1.0  -0.2648
  C  C309  1  0.277100  0.549370  0.606130  1.0  0.0038
  C  C310  1  0.373700  0.514250  0.629500  1.0  0.0185
  C  C311  1  0.476900  0.585770  0.589320  1.0  0.4347
  C  C312  1  0.874700  0.655750  0.742730  1.0  0.1443
  C  C313  1  0.080000  0.801790  0.774860  1.0  0.132
  C  C314  1  0.931500  0.709010  0.768990  1.0  -0.1267
  C  C315  1  0.363200  0.462600  0.663880  1.0  0.5757
  C  C316  1  0.127500  0.542950  0.601970  1.0  0.5972
  C  C317  1  0.186500  0.832000  0.752420  1.0  -0.1865
  C  C318  1  0.249100  0.880990  0.775560  1.0  0.1978
  C  C319  1  0.586200  0.626000  0.569870  1.0  -0.2162
  C  C320  1  0.849300  0.594800  0.671350  1.0  0.1779
  C  C321  1  0.018900  0.748170  0.750720  1.0  -0.0772
  C  C322  1  0.785500  0.615400  0.764650  1.0  -0.2065
  C  C323  1  0.101500  0.874320  0.839080  1.0  0.1808
  C  C324  1  0.733200  0.566300  0.738860  1.0  0.193
  C  C325  1  0.905600  0.644300  0.694730  1.0  -0.1917
  C  C326  1  0.035800  0.824700  0.819280  1.0  -0.1883
  C  C327  1  0.608500  0.683800  0.599800  1.0  -0.2651
  C  C328  1  0.222900  0.450630  0.106130  1.0  0.0045
  C  C329  1  0.126300  0.485750  0.129500  1.0  0.0193
  C  C330  1  0.023100  0.414230  0.089320  1.0  0.4388
  C  C331  1  0.625300  0.344250  0.242730  1.0  0.1448
  C  C332  1  0.420000  0.198210  0.274860  1.0  0.1317
  C  C333  1  0.568500  0.290990  0.268990  1.0  -0.127
  C  C334  1  0.136800  0.537400  0.163880  1.0  0.5752
  C  C335  1  0.372500  0.457050  0.101970  1.0  0.5976
  C  C336  1  0.313500  0.168000  0.252420  1.0  -0.1867
  C  C337  1  0.250900  0.119010  0.275560  1.0  0.1975
  C  C338  1  0.913800  0.374000  0.069870  1.0  -0.2163
  C  C339  1  0.650700  0.405200  0.171350  1.0  0.1775
  C  C340  1  0.481100  0.251830  0.250720  1.0  -0.0781
  C  C341  1  0.714500  0.384600  0.264650  1.0  -0.2059
  C  C342  1  0.398500  0.125680  0.339080  1.0  0.1814
  C  C343  1  0.766800  0.433700  0.238860  1.0  0.192
  C  C344  1  0.594400  0.355700  0.194730  1.0  -0.1917
  C  C345  1  0.464200  0.175300  0.319280  1.0  -0.1881
  C  C346  1  0.891500  0.316200  0.099800  1.0  -0.266
  C  C347  1  0.722900  0.049370  0.893870  1.0  0.0048
  C  C348  1  0.626300  0.014250  0.870500  1.0  0.0187
  C  C349  1  0.523100  0.085770  0.910680  1.0  0.4377
  C  C350  1  0.125300  0.155750  0.757270  1.0  0.145
  C  C351  1  0.920000  0.301790  0.725140  1.0  0.1321
  C  C352  1  0.068500  0.209010  0.731010  1.0  -0.1269
  C  C353  1  0.636800  0.962600  0.836120  1.0  0.5754
  C  C354  1  0.872500  0.042950  0.898030  1.0  0.5981
  C  C355  1  0.813500  0.332000  0.747580  1.0  -0.1885
  C  C356  1  0.750900  0.380990  0.724440  1.0  0.198
  C  C357  1  0.413800  0.126000  0.930130  1.0  -0.2164
  C  C358  1  0.150700  0.094800  0.828650  1.0  0.179
  C  C359  1  0.981100  0.248170  0.749280  1.0  -0.0779
  C  C360  1  0.214500  0.115400  0.735350  1.0  -0.2049
  C  C361  1  0.898500  0.374320  0.660920  1.0  0.1807
  C  C362  1  0.266800  0.066300  0.761140  1.0  0.1923
  C  C363  1  0.094400  0.144300  0.805270  1.0  -0.1907
  C  C364  1  0.964200  0.324700  0.680720  1.0  -0.1891
  C  C365  1  0.391500  0.183800  0.900200  1.0  -0.2651
  C  C366  1  0.777100  0.950630  0.393870  1.0  0.0047
  C  C367  1  0.873700  0.985750  0.370500  1.0  0.019
  C  C368  1  0.976900  0.914230  0.410680  1.0  0.4376
  C  C369  1  0.374700  0.844250  0.257270  1.0  0.1449
  C  C370  1  0.580000  0.698210  0.225140  1.0  0.1316
  C  C371  1  0.431500  0.790990  0.231010  1.0  -0.127
  C  C372  1  0.863200  0.037400  0.336120  1.0  0.5753
  C  C373  1  0.627500  0.957050  0.398030  1.0  0.5975
  C  C374  1  0.686500  0.668000  0.247580  1.0  -0.1881
  C  C375  1  0.749100  0.619010  0.224440  1.0  0.1978
  C  C376  1  0.086200  0.874000  0.430130  1.0  -0.2157
  C  C377  1  0.349300  0.905200  0.328650  1.0  0.1796
  C  C378  1  0.518900  0.751830  0.249280  1.0  -0.0768
  C  C379  1  0.285500  0.884600  0.235350  1.0  -0.2054
  C  C380  1  0.601500  0.625680  0.160920  1.0  0.1807
  C  C381  1  0.233200  0.933700  0.261140  1.0  0.1921
  C  C382  1  0.405600  0.855700  0.305270  1.0  -0.1917
  C  C383  1  0.535800  0.675300  0.180720  1.0  -0.1885
  C  C384  1  0.108500  0.816200  0.400200  1.0  -0.2654
  N  N385  1  0.657200  0.405140  0.418840  1.0  -0.4482
  N  N386  1  0.500500  0.462990  0.381500  1.0  -0.4827
  N  N387  1  0.791200  0.098040  0.181790  1.0  -0.3496
  N  N388  1  0.237100  0.444740  0.306930  1.0  -0.389
  N  N389  1  0.842800  0.594860  0.918840  1.0  -0.4487
  N  N390  1  0.999500  0.537010  0.881500  1.0  -0.4819
  N  N391  1  0.708800  0.901960  0.681790  1.0  -0.3474
  N  N392  1  0.262900  0.555260  0.806930  1.0  -0.3884
  N  N393  1  0.342800  0.905140  0.081160  1.0  -0.449
  N  N394  1  0.499500  0.962990  0.118500  1.0  -0.4839
  N  N395  1  0.208800  0.598040  0.318210  1.0  -0.3471
  N  N396  1  0.762900  0.944740  0.193070  1.0  -0.3887
  N  N397  1  0.157200  0.094860  0.581160  1.0  -0.448
  N  N398  1  0.000500  0.037010  0.618500  1.0  -0.4832
  N  N399  1  0.291200  0.401960  0.818210  1.0  -0.3476
  N  N400  1  0.737100  0.055260  0.693070  1.0  -0.3888
  N  N401  1  0.643300  0.278620  0.498740  1.0  -0.4807
  N  N402  1  0.481700  0.217100  0.529090  1.0  -0.4472
  N  N403  1  0.856700  0.721380  0.998740  1.0  -0.481
  N  N404  1  0.018300  0.782900  0.029090  1.0  -0.4478
  N  N405  1  0.356700  0.778620  0.001260  1.0  -0.4803
  N  N406  1  0.518300  0.717100  0.970910  1.0  -0.4469
  N  N407  1  0.143300  0.221380  0.501260  1.0  -0.4803
  N  N408  1  0.981700  0.282900  0.470910  1.0  -0.4473
  N  N409  1  0.356700  0.721380  0.501260  1.0  -0.4809
  N  N410  1  0.518300  0.782900  0.470910  1.0  -0.4476
  N  N411  1  0.143300  0.278620  0.001260  1.0  -0.4804
  N  N412  1  0.981700  0.217100  0.970910  1.0  -0.447
  N  N413  1  0.643300  0.221380  0.998740  1.0  -0.4806
  N  N414  1  0.481700  0.282900  0.029090  1.0  -0.4477
  N  N415  1  0.856700  0.778620  0.498740  1.0  -0.4803
  N  N416  1  0.018300  0.717100  0.529090  1.0  -0.4469
  N  N417  1  0.342800  0.594860  0.581160  1.0  -0.4482
  N  N418  1  0.499500  0.537010  0.618500  1.0  -0.483
  N  N419  1  0.208800  0.901960  0.818210  1.0  -0.3479
  N  N420  1  0.762900  0.555260  0.693070  1.0  -0.3891
  N  N421  1  0.157200  0.405140  0.081160  1.0  -0.4488
  N  N422  1  0.000500  0.462990  0.118500  1.0  -0.4836
  N  N423  1  0.291200  0.098040  0.318210  1.0  -0.3477
  N  N424  1  0.737100  0.444740  0.193070  1.0  -0.3892
  N  N425  1  0.657200  0.094860  0.918840  1.0  -0.448
  N  N426  1  0.500500  0.037010  0.881500  1.0  -0.4818
  N  N427  1  0.791200  0.401960  0.681790  1.0  -0.3472
  N  N428  1  0.237100  0.055260  0.806930  1.0  -0.388
  N  N429  1  0.842800  0.905140  0.418840  1.0  -0.4486
  N  N430  1  0.999500  0.962990  0.381500  1.0  -0.4831
  N  N431  1  0.708800  0.598040  0.181790  1.0  -0.3487
  N  N432  1  0.262900  0.944740  0.306930  1.0  -0.3887
  O  O433  1  0.928900  0.500950  0.374900  1.0  -0.417
  O  O434  1  0.936100  0.421410  0.424670  1.0  -0.5454
  O  O435  1  0.534000  0.557930  0.316780  1.0  -0.5151
  O  O436  1  0.758800  0.558840  0.327040  1.0  -0.3668
  O  O437  1  0.571100  0.499050  0.874900  1.0  -0.4171
  O  O438  1  0.563900  0.578590  0.924670  1.0  -0.544
  O  O439  1  0.966000  0.442070  0.816780  1.0  -0.5155
  O  O440  1  0.741200  0.441160  0.827040  1.0  -0.3674
  O  O441  1  0.071100  0.000950  0.125100  1.0  -0.419
  O  O442  1  0.063900  0.921410  0.075330  1.0  -0.545
  O  O443  1  0.466000  0.057930  0.183220  1.0  -0.5155
  O  O444  1  0.241200  0.058840  0.172960  1.0  -0.3686
  O  O445  1  0.428900  0.999050  0.625100  1.0  -0.4185
  O  O446  1  0.436100  0.078590  0.575330  1.0  -0.5462
  O  O447  1  0.034000  0.942070  0.683220  1.0  -0.516
  O  O448  1  0.258800  0.941160  0.672960  1.0  -0.368
  O  O449  1  0.432200  0.314080  0.634040  1.0  -0.3371
  O  O450  1  0.751600  0.386800  0.534540  1.0  -0.5695
  O  O451  1  0.330100  0.227720  0.612900  1.0  -0.5302
  O  O452  1  0.604600  0.386730  0.596060  1.0  -0.4919
  O  O453  1  0.067800  0.685920  0.134040  1.0  -0.3365
  O  O454  1  0.748400  0.613200  0.034540  1.0  -0.5695
  O  O455  1  0.169900  0.772280  0.112900  1.0  -0.5305
  O  O456  1  0.895400  0.613270  0.096060  1.0  -0.4908
  O  O457  1  0.567800  0.814080  0.865960  1.0  -0.336
  O  O458  1  0.248400  0.886800  0.965460  1.0  -0.5694
  O  O459  1  0.669900  0.727720  0.887100  1.0  -0.5311
  O  O460  1  0.395400  0.886730  0.903940  1.0  -0.4859
  O  O461  1  0.932200  0.185920  0.365960  1.0  -0.3381
  O  O462  1  0.251600  0.113200  0.465460  1.0  -0.5702
  O  O463  1  0.830100  0.272280  0.387100  1.0  -0.5302
  O  O464  1  0.104600  0.113270  0.403940  1.0  -0.49
  O  O465  1  0.567800  0.685920  0.365960  1.0  -0.3369
  O  O466  1  0.248400  0.613200  0.465460  1.0  -0.5695
  O  O467  1  0.669900  0.772280  0.387100  1.0  -0.5297
  O  O468  1  0.395400  0.613270  0.403940  1.0  -0.4877
  O  O469  1  0.932200  0.314080  0.865960  1.0  -0.3368
  O  O470  1  0.251600  0.386800  0.965460  1.0  -0.5701
  O  O471  1  0.830100  0.227720  0.887100  1.0  -0.5306
  O  O472  1  0.104600  0.386730  0.903940  1.0  -0.4881
  O  O473  1  0.432200  0.185920  0.134040  1.0  -0.3374
  O  O474  1  0.751600  0.113200  0.034540  1.0  -0.5698
  O  O475  1  0.330100  0.272280  0.112900  1.0  -0.5295
  O  O476  1  0.604600  0.113270  0.096060  1.0  -0.4931
  O  O477  1  0.067800  0.814080  0.634040  1.0  -0.3361
  O  O478  1  0.748400  0.886800  0.534540  1.0  -0.569
  O  O479  1  0.169900  0.727720  0.612900  1.0  -0.5299
  O  O480  1  0.895400  0.886730  0.596060  1.0  -0.4896
  O  O481  1  0.071100  0.499050  0.625100  1.0  -0.4187
  O  O482  1  0.063900  0.578590  0.575330  1.0  -0.545
  O  O483  1  0.466000  0.442070  0.683220  1.0  -0.5146
  O  O484  1  0.241200  0.441160  0.672960  1.0  -0.3674
  O  O485  1  0.428900  0.500950  0.125100  1.0  -0.4187
  O  O486  1  0.436100  0.421410  0.075330  1.0  -0.545
  O  O487  1  0.034000  0.557930  0.183220  1.0  -0.5147
  O  O488  1  0.258800  0.558840  0.172960  1.0  -0.3669
  O  O489  1  0.928900  0.999050  0.874900  1.0  -0.4169
  O  O490  1  0.936100  0.078590  0.924670  1.0  -0.5447
  O  O491  1  0.534000  0.942070  0.816780  1.0  -0.5149
  O  O492  1  0.758800  0.941160  0.827040  1.0  -0.3678
  O  O493  1  0.571100  0.000950  0.374900  1.0  -0.4175
  O  O494  1  0.563900  0.921410  0.424670  1.0  -0.5441
  O  O495  1  0.966000  0.057930  0.316780  1.0  -0.5143
  O  O496  1  0.741200  0.058840  0.327040  1.0  -0.3686
