# generated using pymatgen
data_AgC4N3
_symmetry_space_group_name_H-M   'P 1'
_cell_length_a   11.93300000
_cell_length_b   11.93300000
_cell_length_c   8.54860000
_cell_angle_alpha   90.00000000
_cell_angle_beta   90.00000000
_cell_angle_gamma   90.00000000
_symmetry_Int_Tables_number   1
_chemical_formula_structural   AgC4N3
_chemical_formula_sum   'Ag4 C16 N12'
_cell_volume   1217.29062587
_cell_formula_units_Z   4
loop_
 _symmetry_equiv_pos_site_id
 _symmetry_equiv_pos_as_xyz
  1  'x, y, z'
loop_
 _atom_site_type_symbol
 _atom_site_label
 _atom_site_symmetry_multiplicity
 _atom_site_fract_x
 _atom_site_fract_y
 _atom_site_fract_z
 _atom_site_occupancy
 _atom_site_charge
  Ag  Ag1  1  0.500000  0.500000  0.250000  1.0  0.2948
  Ag  Ag2  1  0.500000  0.500000  0.750000  1.0  0.2948
  Ag  Ag3  1  0.000000  0.500000  0.000000  1.0  0.2475
  Ag  Ag4  1  0.500000  0.000000  0.500000  1.0  0.2451
  C  C5  1  0.241600  0.500000  0.123400  1.0  0.3659
  C  C6  1  0.204100  0.500000  0.290600  1.0  -0.0386
  C  C7  1  0.758400  0.500000  0.123400  1.0  0.3669
  C  C8  1  0.795900  0.500000  0.290600  1.0  -0.0381
  C  C9  1  0.500000  0.241600  0.623400  1.0  0.3666
  C  C10  1  0.500000  0.204100  0.790600  1.0  -0.0386
  C  C11  1  0.500000  0.758400  0.623400  1.0  0.3661
  C  C12  1  0.500000  0.795900  0.790600  1.0  -0.0394
  C  C13  1  0.758400  0.500000  0.876600  1.0  0.3665
  C  C14  1  0.795900  0.500000  0.709400  1.0  -0.0386
  C  C15  1  0.241600  0.500000  0.876600  1.0  0.3654
  C  C16  1  0.204100  0.500000  0.709400  1.0  -0.0376
  C  C17  1  0.500000  0.241600  0.376600  1.0  0.3653
  C  C18  1  0.500000  0.204100  0.209400  1.0  -0.0391
  C  C19  1  0.500000  0.758400  0.376600  1.0  0.3663
  C  C20  1  0.500000  0.795900  0.209400  1.0  -0.0398
  N  N21  1  0.349000  0.500000  0.081500  1.0  -0.2693
  N  N22  1  0.651000  0.500000  0.081500  1.0  -0.2734
  N  N23  1  0.500000  0.349000  0.581500  1.0  -0.2734
  N  N24  1  0.500000  0.651000  0.581500  1.0  -0.2736
  N  N25  1  0.651000  0.500000  0.918500  1.0  -0.2724
  N  N26  1  0.349000  0.500000  0.918500  1.0  -0.2687
  N  N27  1  0.500000  0.349000  0.418500  1.0  -0.2726
  N  N28  1  0.500000  0.651000  0.418500  1.0  -0.2724
  N  N29  1  0.172400  0.500000  0.000000  1.0  -0.3791
  N  N30  1  0.827600  0.500000  0.000000  1.0  -0.3823
  N  N31  1  0.500000  0.172400  0.500000  1.0  -0.3816
  N  N32  1  0.500000  0.827600  0.500000  1.0  -0.3828
