# generated using pymatgen
data_Na14Mo24P17O104
_symmetry_space_group_name_H-M   'P 1'
_cell_length_a   20.40400000
_cell_length_b   20.40400000
_cell_length_c   20.40400000
_cell_angle_alpha   90.00000000
_cell_angle_beta   90.00000000
_cell_angle_gamma   90.00000000
_symmetry_Int_Tables_number   1
_chemical_formula_structural   Na14Mo24P17O104
_chemical_formula_sum   'Na28 Mo48 P34 O208'
_cell_volume   8494.65889926
_cell_formula_units_Z   2
loop_
 _symmetry_equiv_pos_site_id
 _symmetry_equiv_pos_as_xyz
  1  'x, y, z'
loop_
 _atom_site_type_symbol
 _atom_site_label
 _atom_site_symmetry_multiplicity
 _atom_site_fract_x
 _atom_site_fract_y
 _atom_site_fract_z
 _atom_site_occupancy
 _atom_site_charge
  Na  Na1  1  0.149600  0.257600  0.110000  1.0  1.0305
  Na  Na2  1  0.350400  0.242400  0.110000  1.0  1.0322
  Na  Na3  1  0.350400  0.257600  0.390000  1.0  1.0329
  Na  Na4  1  0.149600  0.242400  0.390000  1.0  1.032
  Na  Na5  1  0.110000  0.149600  0.257600  1.0  1.0319
  Na  Na6  1  0.110000  0.350400  0.242400  1.0  1.0301
  Na  Na7  1  0.390000  0.350400  0.257600  1.0  1.0329
  Na  Na8  1  0.390000  0.149600  0.242400  1.0  1.0311
  Na  Na9  1  0.257600  0.110000  0.149600  1.0  1.0347
  Na  Na10  1  0.242400  0.110000  0.350400  1.0  1.0337
  Na  Na11  1  0.257600  0.390000  0.350400  1.0  1.0348
  Na  Na12  1  0.242400  0.390000  0.149600  1.0  1.0332
  Na  Na13  1  0.850400  0.742400  0.890000  1.0  1.0331
  Na  Na14  1  0.649600  0.757600  0.890000  1.0  1.0316
  Na  Na15  1  0.649600  0.742400  0.610000  1.0  1.0309
  Na  Na16  1  0.850400  0.757600  0.610000  1.0  1.032
  Na  Na17  1  0.890000  0.850400  0.742400  1.0  1.0307
  Na  Na18  1  0.890000  0.649600  0.757600  1.0  1.0327
  Na  Na19  1  0.610000  0.649600  0.742400  1.0  1.0304
  Na  Na20  1  0.610000  0.850400  0.757600  1.0  1.032
  Na  Na21  1  0.742400  0.890000  0.850400  1.0  1.0337
  Na  Na22  1  0.757600  0.890000  0.649600  1.0  1.0346
  Na  Na23  1  0.742400  0.610000  0.649600  1.0  1.0335
  Na  Na24  1  0.757600  0.610000  0.850400  1.0  1.0346
  Na  Na25  1  0.000000  0.000000  0.000000  1.0  0.9996
  Na  Na26  1  0.500000  0.500000  0.000000  1.0  0.9996
  Na  Na27  1  0.500000  0.000000  0.500000  1.0  0.9996
  Na  Na28  1  0.000000  0.500000  0.500000  1.0  0.9996
  Mo  Mo29  1  0.108940  0.149130  0.946170  1.0  1.2646
  Mo  Mo30  1  0.006990  0.192210  0.008530  1.0  1.24
  Mo  Mo31  1  0.391060  0.350870  0.946170  1.0  1.2664
  Mo  Mo32  1  0.493010  0.307790  0.008530  1.0  1.2372
  Mo  Mo33  1  0.391060  0.149130  0.553830  1.0  1.2667
  Mo  Mo34  1  0.493010  0.192210  0.491470  1.0  1.2387
  Mo  Mo35  1  0.108940  0.350870  0.553830  1.0  1.2667
  Mo  Mo36  1  0.006990  0.307790  0.491470  1.0  1.2366
  Mo  Mo37  1  0.946170  0.108940  0.149130  1.0  1.2689
  Mo  Mo38  1  0.008530  0.006990  0.192210  1.0  1.238
  Mo  Mo39  1  0.946170  0.391060  0.350870  1.0  1.2702
  Mo  Mo40  1  0.008530  0.493010  0.307790  1.0  1.2413
  Mo  Mo41  1  0.553830  0.391060  0.149130  1.0  1.2685
  Mo  Mo42  1  0.491470  0.493010  0.192210  1.0  1.2404
  Mo  Mo43  1  0.553830  0.108940  0.350870  1.0  1.2706
  Mo  Mo44  1  0.491470  0.006990  0.307790  1.0  1.2383
  Mo  Mo45  1  0.149130  0.946170  0.108940  1.0  1.2774
  Mo  Mo46  1  0.192210  0.008530  0.006990  1.0  1.2378
  Mo  Mo47  1  0.350870  0.946170  0.391060  1.0  1.2757
  Mo  Mo48  1  0.307790  0.008530  0.493010  1.0  1.2382
  Mo  Mo49  1  0.149130  0.553830  0.391060  1.0  1.273
  Mo  Mo50  1  0.192210  0.491470  0.493010  1.0  1.2391
  Mo  Mo51  1  0.350870  0.553830  0.108940  1.0  1.2737
  Mo  Mo52  1  0.307790  0.491470  0.006990  1.0  1.2407
  Mo  Mo53  1  0.891060  0.850870  0.053830  1.0  1.2672
  Mo  Mo54  1  0.993010  0.807790  0.991470  1.0  1.2365
  Mo  Mo55  1  0.608940  0.649130  0.053830  1.0  1.2666
  Mo  Mo56  1  0.506990  0.692210  0.991470  1.0  1.2395
  Mo  Mo57  1  0.608940  0.850870  0.446170  1.0  1.2665
  Mo  Mo58  1  0.506990  0.807790  0.508530  1.0  1.2388
  Mo  Mo59  1  0.891060  0.649130  0.446170  1.0  1.2646
  Mo  Mo60  1  0.993010  0.692210  0.508530  1.0  1.2371
  Mo  Mo61  1  0.053830  0.891060  0.850870  1.0  1.2702
  Mo  Mo62  1  0.991470  0.993010  0.807790  1.0  1.2391
  Mo  Mo63  1  0.053830  0.608940  0.649130  1.0  1.2688
  Mo  Mo64  1  0.991470  0.506990  0.692210  1.0  1.2376
  Mo  Mo65  1  0.446170  0.608940  0.850870  1.0  1.2702
  Mo  Mo66  1  0.508530  0.506990  0.807790  1.0  1.24
  Mo  Mo67  1  0.446170  0.891060  0.649130  1.0  1.269
  Mo  Mo68  1  0.508530  0.993010  0.692210  1.0  1.2407
  Mo  Mo69  1  0.850870  0.053830  0.891060  1.0  1.2739
  Mo  Mo70  1  0.807790  0.991470  0.993010  1.0  1.2412
  Mo  Mo71  1  0.649130  0.053830  0.608940  1.0  1.2727
  Mo  Mo72  1  0.692210  0.991470  0.506990  1.0  1.2381
  Mo  Mo73  1  0.850870  0.446170  0.608940  1.0  1.2753
  Mo  Mo74  1  0.807790  0.508530  0.506990  1.0  1.2398
  Mo  Mo75  1  0.649130  0.446170  0.891060  1.0  1.2777
  Mo  Mo76  1  0.692210  0.508530  0.993010  1.0  1.2372
  P  P77  1  0.265400  0.152300  0.987900  1.0  1.7549
  P  P78  1  0.234600  0.347700  0.987900  1.0  1.753
  P  P79  1  0.234600  0.152300  0.512100  1.0  1.7539
  P  P80  1  0.265400  0.347700  0.512100  1.0  1.7567
  P  P81  1  0.987900  0.265400  0.152300  1.0  1.7565
  P  P82  1  0.987900  0.234600  0.347700  1.0  1.7556
  P  P83  1  0.512100  0.234600  0.152300  1.0  1.7574
  P  P84  1  0.512100  0.265400  0.347700  1.0  1.7591
  P  P85  1  0.152300  0.987900  0.265400  1.0  1.7542
  P  P86  1  0.347700  0.987900  0.234600  1.0  1.7547
  P  P87  1  0.152300  0.512100  0.234600  1.0  1.7557
  P  P88  1  0.347700  0.512100  0.265400  1.0  1.7579
  P  P89  1  0.734600  0.847700  0.012100  1.0  1.7541
  P  P90  1  0.765400  0.652300  0.012100  1.0  1.7568
  P  P91  1  0.765400  0.847700  0.487900  1.0  1.7551
  P  P92  1  0.734600  0.652300  0.487900  1.0  1.7527
  P  P93  1  0.012100  0.734600  0.847700  1.0  1.7577
  P  P94  1  0.012100  0.765400  0.652300  1.0  1.7586
  P  P95  1  0.487900  0.765400  0.847700  1.0  1.7577
  P  P96  1  0.487900  0.734600  0.652300  1.0  1.7545
  P  P97  1  0.847700  0.012100  0.734600  1.0  1.7559
  P  P98  1  0.652300  0.012100  0.765400  1.0  1.7579
  P  P99  1  0.847700  0.487900  0.765400  1.0  1.7545
  P  P100  1  0.652300  0.487900  0.734600  1.0  1.7543
  P  P101  1  0.111100  0.111100  0.111100  1.0  1.7125
  P  P102  1  0.388900  0.388900  0.111100  1.0  1.7117
  P  P103  1  0.388900  0.111100  0.388900  1.0  1.7119
  P  P104  1  0.111100  0.388900  0.388900  1.0  1.7126
  P  P105  1  0.888900  0.888900  0.888900  1.0  1.7119
  P  P106  1  0.611100  0.611100  0.888900  1.0  1.7126
  P  P107  1  0.611100  0.888900  0.611100  1.0  1.7125
  P  P108  1  0.888900  0.611100  0.611100  1.0  1.7117
  P  P109  1  0.250000  0.250000  0.250000  1.0  1.8413
  P  P110  1  0.750000  0.750000  0.750000  1.0  1.8413
  O  O111  1  0.025400  0.107400  0.968800  1.0  -0.7544
  O  O112  1  0.097300  0.223800  0.003300  1.0  -0.7969
  O  O113  1  0.142700  0.100800  0.042000  1.0  -0.8219
  O  O114  1  0.208900  0.175100  0.946300  1.0  -0.6586
  O  O115  1  0.142800  0.054600  0.926000  1.0  -0.6223
  O  O116  1  0.266700  0.186700  0.055300  1.0  -0.8786
  O  O117  1  0.330900  0.170800  0.951500  1.0  -0.4687
  O  O118  1  0.267600  0.078000  0.994400  1.0  -0.6471
  O  O119  1  0.474600  0.392600  0.968800  1.0  -0.7538
  O  O120  1  0.402700  0.276200  0.003300  1.0  -0.7971
  O  O121  1  0.357300  0.399200  0.042000  1.0  -0.821
  O  O122  1  0.291100  0.324900  0.946300  1.0  -0.6594
  O  O123  1  0.357200  0.445400  0.926000  1.0  -0.6234
  O  O124  1  0.233300  0.313300  0.055300  1.0  -0.8789
  O  O125  1  0.169100  0.329200  0.951500  1.0  -0.469
  O  O126  1  0.232400  0.422000  0.994400  1.0  -0.6487
  O  O127  1  0.474600  0.107400  0.531200  1.0  -0.7521
  O  O128  1  0.402700  0.223800  0.496700  1.0  -0.7956
  O  O129  1  0.357300  0.100800  0.458000  1.0  -0.8225
  O  O130  1  0.291100  0.175100  0.553700  1.0  -0.6553
  O  O131  1  0.357200  0.054600  0.574000  1.0  -0.6224
  O  O132  1  0.233300  0.186700  0.444700  1.0  -0.8798
  O  O133  1  0.169100  0.170800  0.548500  1.0  -0.4665
  O  O134  1  0.232400  0.078000  0.505600  1.0  -0.6468
  O  O135  1  0.025400  0.392600  0.531200  1.0  -0.7534
  O  O136  1  0.097300  0.276200  0.496700  1.0  -0.7968
  O  O137  1  0.142700  0.399200  0.458000  1.0  -0.8229
  O  O138  1  0.208900  0.324900  0.553700  1.0  -0.6551
  O  O139  1  0.142800  0.445400  0.574000  1.0  -0.6197
  O  O140  1  0.266700  0.313300  0.444700  1.0  -0.8786
  O  O141  1  0.330900  0.329200  0.548500  1.0  -0.4676
  O  O142  1  0.267600  0.422000  0.505600  1.0  -0.6479
  O  O143  1  0.968800  0.025400  0.107400  1.0  -0.7503
  O  O144  1  0.003300  0.097300  0.223800  1.0  -0.7953
  O  O145  1  0.042000  0.142700  0.100800  1.0  -0.8225
  O  O146  1  0.946300  0.208900  0.175100  1.0  -0.6562
  O  O147  1  0.926000  0.142800  0.054600  1.0  -0.6272
  O  O148  1  0.055300  0.266700  0.186700  1.0  -0.879
  O  O149  1  0.951500  0.330900  0.170800  1.0  -0.471
  O  O150  1  0.994400  0.267600  0.078000  1.0  -0.6523
  O  O151  1  0.968800  0.474600  0.392600  1.0  -0.751
  O  O152  1  0.003300  0.402700  0.276200  1.0  -0.7987
  O  O153  1  0.042000  0.357300  0.399200  1.0  -0.8229
  O  O154  1  0.946300  0.291100  0.324900  1.0  -0.6564
  O  O155  1  0.926000  0.357200  0.445400  1.0  -0.6282
  O  O156  1  0.055300  0.233300  0.313300  1.0  -0.878
  O  O157  1  0.951500  0.169100  0.329200  1.0  -0.4694
  O  O158  1  0.994400  0.232400  0.422000  1.0  -0.6513
  O  O159  1  0.531200  0.474600  0.107400  1.0  -0.7506
  O  O160  1  0.496700  0.402700  0.223800  1.0  -0.7987
  O  O161  1  0.458000  0.357300  0.100800  1.0  -0.8227
  O  O162  1  0.553700  0.291100  0.175100  1.0  -0.6547
  O  O163  1  0.574000  0.357200  0.054600  1.0  -0.63
  O  O164  1  0.444700  0.233300  0.186700  1.0  -0.8774
  O  O165  1  0.548500  0.169100  0.170800  1.0  -0.4699
  O  O166  1  0.505600  0.232400  0.078000  1.0  -0.6462
  O  O167  1  0.531200  0.025400  0.392600  1.0  -0.7519
  O  O168  1  0.496700  0.097300  0.276200  1.0  -0.7994
  O  O169  1  0.458000  0.142700  0.399200  1.0  -0.8232
  O  O170  1  0.553700  0.208900  0.324900  1.0  -0.6548
  O  O171  1  0.574000  0.142800  0.445400  1.0  -0.629
  O  O172  1  0.444700  0.266700  0.313300  1.0  -0.8766
  O  O173  1  0.548500  0.330900  0.329200  1.0  -0.4707
  O  O174  1  0.505600  0.267600  0.422000  1.0  -0.6519
  O  O175  1  0.107400  0.968800  0.025400  1.0  -0.7523
  O  O176  1  0.223800  0.003300  0.097300  1.0  -0.8004
  O  O177  1  0.100800  0.042000  0.142700  1.0  -0.8245
  O  O178  1  0.175100  0.946300  0.208900  1.0  -0.6588
  O  O179  1  0.054600  0.926000  0.142800  1.0  -0.6236
  O  O180  1  0.186700  0.055300  0.266700  1.0  -0.878
  O  O181  1  0.170800  0.951500  0.330900  1.0  -0.4723
  O  O182  1  0.078000  0.994400  0.267600  1.0  -0.6478
  O  O183  1  0.392600  0.968800  0.474600  1.0  -0.7529
  O  O184  1  0.276200  0.003300  0.402700  1.0  -0.7971
  O  O185  1  0.399200  0.042000  0.357300  1.0  -0.8235
  O  O186  1  0.324900  0.946300  0.291100  1.0  -0.6601
  O  O187  1  0.445400  0.926000  0.357200  1.0  -0.6209
  O  O188  1  0.313300  0.055300  0.233300  1.0  -0.8769
  O  O189  1  0.329200  0.951500  0.169100  1.0  -0.4703
  O  O190  1  0.422000  0.994400  0.232400  1.0  -0.6454
  O  O191  1  0.107400  0.531200  0.474600  1.0  -0.7522
  O  O192  1  0.223800  0.496700  0.402700  1.0  -0.7986
  O  O193  1  0.100800  0.458000  0.357300  1.0  -0.8235
  O  O194  1  0.175100  0.553700  0.291100  1.0  -0.6594
  O  O195  1  0.054600  0.574000  0.357200  1.0  -0.6142
  O  O196  1  0.186700  0.444700  0.233300  1.0  -0.8772
  O  O197  1  0.170800  0.548500  0.169100  1.0  -0.4752
  O  O198  1  0.078000  0.505600  0.232400  1.0  -0.6481
  O  O199  1  0.392600  0.531200  0.025400  1.0  -0.7518
  O  O200  1  0.276200  0.496700  0.097300  1.0  -0.7973
  O  O201  1  0.399200  0.458000  0.142700  1.0  -0.8245
  O  O202  1  0.324900  0.553700  0.208900  1.0  -0.6582
  O  O203  1  0.445400  0.574000  0.142800  1.0  -0.6141
  O  O204  1  0.313300  0.444700  0.266700  1.0  -0.8769
  O  O205  1  0.329200  0.548500  0.330900  1.0  -0.4715
  O  O206  1  0.422000  0.505600  0.267600  1.0  -0.6476
  O  O207  1  0.974600  0.892600  0.031200  1.0  -0.7522
  O  O208  1  0.902700  0.776200  0.996700  1.0  -0.7977
  O  O209  1  0.857300  0.899200  0.958000  1.0  -0.8223
  O  O210  1  0.791100  0.824900  0.053700  1.0  -0.6561
  O  O211  1  0.857200  0.945400  0.074000  1.0  -0.6217
  O  O212  1  0.733300  0.813300  0.944700  1.0  -0.8795
  O  O213  1  0.669100  0.829200  0.048500  1.0  -0.4669
  O  O214  1  0.732400  0.922000  0.005600  1.0  -0.6483
  O  O215  1  0.525400  0.607400  0.031200  1.0  -0.7532
  O  O216  1  0.597300  0.723800  0.996700  1.0  -0.7958
  O  O217  1  0.642700  0.600800  0.958000  1.0  -0.8231
  O  O218  1  0.708900  0.675100  0.053700  1.0  -0.6539
  O  O219  1  0.642800  0.554600  0.074000  1.0  -0.6208
  O  O220  1  0.766700  0.686700  0.944700  1.0  -0.8791
  O  O221  1  0.830900  0.670800  0.048500  1.0  -0.4674
  O  O222  1  0.767600  0.578000  0.005600  1.0  -0.6475
  O  O223  1  0.525400  0.892600  0.468800  1.0  -0.7539
  O  O224  1  0.597300  0.776200  0.503300  1.0  -0.7961
  O  O225  1  0.642700  0.899200  0.542000  1.0  -0.8217
  O  O226  1  0.708900  0.824900  0.446300  1.0  -0.6575
  O  O227  1  0.642800  0.945400  0.426000  1.0  -0.6222
  O  O228  1  0.766700  0.813300  0.555300  1.0  -0.8786
  O  O229  1  0.830900  0.829200  0.451500  1.0  -0.4688
  O  O230  1  0.767600  0.922000  0.494400  1.0  -0.649
  O  O231  1  0.974600  0.607400  0.468800  1.0  -0.7538
  O  O232  1  0.902700  0.723800  0.503300  1.0  -0.797
  O  O233  1  0.857300  0.600800  0.542000  1.0  -0.8213
  O  O234  1  0.791100  0.675100  0.446300  1.0  -0.6599
  O  O235  1  0.857200  0.554600  0.426000  1.0  -0.6238
  O  O236  1  0.733300  0.686700  0.555300  1.0  -0.8791
  O  O237  1  0.669100  0.670800  0.451500  1.0  -0.4684
  O  O238  1  0.732400  0.578000  0.494400  1.0  -0.646
  O  O239  1  0.031200  0.974600  0.892600  1.0  -0.7513
  O  O240  1  0.996700  0.902700  0.776200  1.0  -0.8001
  O  O241  1  0.958000  0.857300  0.899200  1.0  -0.8232
  O  O242  1  0.053700  0.791100  0.824900  1.0  -0.6547
  O  O243  1  0.074000  0.857200  0.945400  1.0  -0.6293
  O  O244  1  0.944700  0.733300  0.813300  1.0  -0.8764
  O  O245  1  0.048500  0.669100  0.829200  1.0  -0.4704
  O  O246  1  0.005600  0.732400  0.922000  1.0  -0.6515
  O  O247  1  0.031200  0.525400  0.607400  1.0  -0.7508
  O  O248  1  0.996700  0.597300  0.723800  1.0  -0.7983
  O  O249  1  0.958000  0.642700  0.600800  1.0  -0.8227
  O  O250  1  0.053700  0.708900  0.675100  1.0  -0.6551
  O  O251  1  0.074000  0.642800  0.554600  1.0  -0.6293
  O  O252  1  0.944700  0.766700  0.686700  1.0  -0.8772
  O  O253  1  0.048500  0.830900  0.670800  1.0  -0.4707
  O  O254  1  0.005600  0.767600  0.578000  1.0  -0.6516
  O  O255  1  0.468800  0.525400  0.892600  1.0  -0.7509
  O  O256  1  0.503300  0.597300  0.776200  1.0  -0.7978
  O  O257  1  0.542000  0.642700  0.899200  1.0  -0.823
  O  O258  1  0.446300  0.708900  0.824900  1.0  -0.6565
  O  O259  1  0.426000  0.642800  0.945400  1.0  -0.6275
  O  O260  1  0.555300  0.766700  0.813300  1.0  -0.8782
  O  O261  1  0.451500  0.830900  0.829200  1.0  -0.4708
  O  O262  1  0.494400  0.767600  0.922000  1.0  -0.6508
  O  O263  1  0.468800  0.974600  0.607400  1.0  -0.7509
  O  O264  1  0.503300  0.902700  0.723800  1.0  -0.7954
  O  O265  1  0.542000  0.857300  0.600800  1.0  -0.8225
  O  O266  1  0.446300  0.791100  0.675100  1.0  -0.6561
  O  O267  1  0.426000  0.857200  0.554600  1.0  -0.6282
  O  O268  1  0.555300  0.733300  0.686700  1.0  -0.8789
  O  O269  1  0.451500  0.669100  0.670800  1.0  -0.4693
  O  O270  1  0.494400  0.732400  0.578000  1.0  -0.6466
  O  O271  1  0.892600  0.031200  0.974600  1.0  -0.753
  O  O272  1  0.776200  0.996700  0.902700  1.0  -0.7965
  O  O273  1  0.899200  0.958000  0.857300  1.0  -0.8235
  O  O274  1  0.824900  0.053700  0.791100  1.0  -0.6593
  O  O275  1  0.945400  0.074000  0.857200  1.0  -0.6142
  O  O276  1  0.813300  0.944700  0.733300  1.0  -0.8761
  O  O277  1  0.829200  0.048500  0.669100  1.0  -0.4745
  O  O278  1  0.922000  0.005600  0.732400  1.0  -0.6486
  O  O279  1  0.607400  0.031200  0.525400  1.0  -0.7518
  O  O280  1  0.723800  0.996700  0.597300  1.0  -0.8005
  O  O281  1  0.600800  0.958000  0.642700  1.0  -0.8245
  O  O282  1  0.675100  0.053700  0.708900  1.0  -0.6583
  O  O283  1  0.554600  0.074000  0.642800  1.0  -0.6141
  O  O284  1  0.686700  0.944700  0.766700  1.0  -0.8781
  O  O285  1  0.670800  0.048500  0.830900  1.0  -0.4726
  O  O286  1  0.578000  0.005600  0.767600  1.0  -0.6472
  O  O287  1  0.892600  0.468800  0.525400  1.0  -0.7523
  O  O288  1  0.776200  0.503300  0.597300  1.0  -0.7977
  O  O289  1  0.899200  0.542000  0.642700  1.0  -0.8245
  O  O290  1  0.824900  0.446300  0.708900  1.0  -0.6586
  O  O291  1  0.945400  0.426000  0.642800  1.0  -0.6224
  O  O292  1  0.813300  0.555300  0.766700  1.0  -0.8769
  O  O293  1  0.829200  0.451500  0.830900  1.0  -0.4712
  O  O294  1  0.922000  0.494400  0.767600  1.0  -0.6479
  O  O295  1  0.607400  0.468800  0.974600  1.0  -0.7527
  O  O296  1  0.723800  0.503300  0.902700  1.0  -0.7992
  O  O297  1  0.600800  0.542000  0.857300  1.0  -0.8236
  O  O298  1  0.675100  0.446300  0.791100  1.0  -0.6601
  O  O299  1  0.554600  0.426000  0.857200  1.0  -0.6222
  O  O300  1  0.686700  0.555300  0.733300  1.0  -0.8778
  O  O301  1  0.670800  0.451500  0.669100  1.0  -0.4711
  O  O302  1  0.578000  0.494400  0.732400  1.0  -0.6451
  O  O303  1  0.153300  0.153300  0.153300  1.0  -0.7853
  O  O304  1  0.346700  0.346700  0.153300  1.0  -0.7851
  O  O305  1  0.346700  0.153300  0.346700  1.0  -0.7849
  O  O306  1  0.153300  0.346700  0.346700  1.0  -0.7855
  O  O307  1  0.846700  0.846700  0.846700  1.0  -0.7851
  O  O308  1  0.653300  0.653300  0.846700  1.0  -0.7853
  O  O309  1  0.653300  0.846700  0.653300  1.0  -0.7854
  O  O310  1  0.846700  0.653300  0.653300  1.0  -0.7849
  O  O311  1  0.206200  0.293800  0.206200  1.0  -0.8299
  O  O312  1  0.293800  0.206200  0.206200  1.0  -0.8318
  O  O313  1  0.293800  0.293800  0.293800  1.0  -0.8305
  O  O314  1  0.206200  0.206200  0.293800  1.0  -0.8297
  O  O315  1  0.793800  0.706200  0.793800  1.0  -0.8305
  O  O316  1  0.706200  0.793800  0.793800  1.0  -0.8296
  O  O317  1  0.706200  0.706200  0.706200  1.0  -0.8307
  O  O318  1  0.793800  0.793800  0.706200  1.0  -0.831
