# generated using pymatgen
data_U3H40C52O19
_symmetry_space_group_name_H-M   'P 1'
_cell_length_a   9.29250000
_cell_length_b   18.40660000
_cell_length_c   20.42600000
_cell_angle_alpha   113.80700000
_cell_angle_beta   90.00000000
_cell_angle_gamma   104.62100000
_symmetry_Int_Tables_number   1
_chemical_formula_structural   U3H40C52O19
_chemical_formula_sum   'U6 H80 C104 O38'
_cell_volume   3072.38455106
_cell_formula_units_Z   2
loop_
 _symmetry_equiv_pos_site_id
 _symmetry_equiv_pos_as_xyz
  1  'x, y, z'
loop_
 _atom_site_type_symbol
 _atom_site_label
 _atom_site_symmetry_multiplicity
 _atom_site_fract_x
 _atom_site_fract_y
 _atom_site_fract_z
 _atom_site_occupancy
 _atom_site_charge
  U  U1  1  0.218180  0.321660  0.094260  1.0  1.6518
  U  U2  1  0.896520  0.678340  0.405740  1.0  1.6523
  U  U3  1  0.781820  0.678340  0.905740  1.0  1.6506
  U  U4  1  0.103480  0.321660  0.594260  1.0  1.6484
  U  U5  1  0.000000  0.000000  0.000000  1.0  2.1469
  U  U6  1  0.000000  0.000000  0.500000  1.0  2.1469
  H  H7  1  0.922200  0.773600  0.105300  1.0  0.0706
  H  H8  1  0.797700  0.726800  0.137600  1.0  0.0665
  H  H9  1  0.037700  0.927800  0.175700  1.0  0.0603
  H  H10  1  0.054300  0.923600  0.250600  1.0  0.0647
  H  H11  1  0.826500  0.848600  0.296600  1.0  0.0841
  H  H12  1  0.691600  0.783000  0.239000  1.0  0.0839
  H  H13  1  0.795300  0.867400  0.102400  1.0  0.0729
  H  H14  1  0.724600  0.919400  0.169100  1.0  0.0567
  H  H15  1  0.592700  0.790200  0.325500  1.0  0.1266
  H  H16  1  0.359000  0.764000  0.383500  1.0  0.1261
  H  H17  1  0.272700  0.947800  0.349300  1.0  0.0757
  H  H18  1  0.473100  0.969600  0.291900  1.0  0.0988
  H  H19  1  0.355300  0.701200  0.076700  1.0  0.0998
  H  H20  1  0.142100  0.713800  0.029700  1.0  0.098
  H  H21  1  0.375700  0.927200  0.031100  1.0  0.0582
  H  H22  1  0.586900  0.918400  0.081100  1.0  0.108
  H  H23  1  0.216700  0.740400  0.231600  1.0  0.0759
  H  H24  1  0.286300  0.621200  0.203700  1.0  0.1127
  H  H25  1  0.918600  0.496200  0.067800  1.0  0.0752
  H  H26  1  0.850500  0.617600  0.091700  1.0  0.1059
  H  H27  1  0.148600  0.226400  0.394700  1.0  0.0705
  H  H28  1  0.070900  0.273200  0.362400  1.0  0.0668
  H  H29  1  0.109900  0.072200  0.324300  1.0  0.0605
  H  H30  1  0.130700  0.076400  0.249400  1.0  0.0648
  H  H31  1  0.977900  0.151400  0.203400  1.0  0.082
  H  H32  1  0.908600  0.217000  0.261000  1.0  0.0825
  H  H33  1  0.927900  0.132600  0.397600  1.0  0.0727
  H  H34  1  0.805200  0.080600  0.330900  1.0  0.0574
  H  H35  1  0.802500  0.209800  0.174500  1.0  0.1264
  H  H36  1  0.595000  0.236000  0.116500  1.0  0.1252
  H  H37  1  0.324900  0.052200  0.150700  1.0  0.076
  H  H38  1  0.503500  0.030400  0.208100  1.0  0.0988
  H  H39  1  0.654100  0.298800  0.423300  1.0  0.0998
  H  H40  1  0.428300  0.286200  0.470300  1.0  0.0986
  H  H41  1  0.448500  0.072800  0.468900  1.0  0.0578
  H  H42  1  0.668500  0.081600  0.418900  1.0  0.1086
  H  H43  1  0.476300  0.259600  0.268400  1.0  0.0766
  H  H44  1  0.665100  0.378800  0.296300  1.0  0.1126
  H  H45  1  0.422400  0.503800  0.432200  1.0  0.0753
  H  H46  1  0.232900  0.382400  0.408300  1.0  0.1067
  H  H47  1  0.077800  0.226400  0.894700  1.0  0.0704
  H  H48  1  0.202300  0.273200  0.862400  1.0  0.067
  H  H49  1  0.962300  0.072200  0.824300  1.0  0.0605
  H  H50  1  0.945700  0.076400  0.749400  1.0  0.0679
  H  H51  1  0.173500  0.151400  0.703400  1.0  0.0824
  H  H52  1  0.308400  0.217000  0.761000  1.0  0.0832
  H  H53  1  0.204700  0.132600  0.897600  1.0  0.0725
  H  H54  1  0.275400  0.080600  0.830900  1.0  0.0575
  H  H55  1  0.407300  0.209800  0.674500  1.0  0.1279
  H  H56  1  0.641000  0.236000  0.616500  1.0  0.1252
  H  H57  1  0.727300  0.052200  0.650700  1.0  0.0765
  H  H58  1  0.526900  0.030400  0.708100  1.0  0.0968
  H  H59  1  0.644700  0.298800  0.923300  1.0  0.1
  H  H60  1  0.857900  0.286200  0.970300  1.0  0.0988
  H  H61  1  0.624300  0.072800  0.968900  1.0  0.0578
  H  H62  1  0.413100  0.081600  0.918900  1.0  0.1084
  H  H63  1  0.783300  0.259600  0.768400  1.0  0.0768
  H  H64  1  0.713700  0.378800  0.796300  1.0  0.1133
  H  H65  1  0.081400  0.503800  0.932200  1.0  0.0748
  H  H66  1  0.149500  0.382400  0.908300  1.0  0.1072
  H  H67  1  0.851400  0.773600  0.605300  1.0  0.0698
  H  H68  1  0.929100  0.726800  0.637600  1.0  0.0669
  H  H69  1  0.890100  0.927800  0.675700  1.0  0.0609
  H  H70  1  0.869300  0.923600  0.750600  1.0  0.0657
  H  H71  1  0.022100  0.848600  0.796600  1.0  0.0833
  H  H72  1  0.091400  0.783000  0.739000  1.0  0.0846
  H  H73  1  0.072100  0.867400  0.602400  1.0  0.073
  H  H74  1  0.194800  0.919400  0.669100  1.0  0.0565
  H  H75  1  0.197500  0.790200  0.825500  1.0  0.1273
  H  H76  1  0.405000  0.764000  0.883500  1.0  0.1262
  H  H77  1  0.675100  0.947800  0.849300  1.0  0.0757
  H  H78  1  0.496500  0.969600  0.791900  1.0  0.0981
  H  H79  1  0.345900  0.701200  0.576700  1.0  0.0996
  H  H80  1  0.571700  0.713800  0.529700  1.0  0.0984
  H  H81  1  0.551500  0.927200  0.531100  1.0  0.0579
  H  H82  1  0.331500  0.918400  0.581100  1.0  0.108
  H  H83  1  0.523700  0.740400  0.731600  1.0  0.0764
  H  H84  1  0.334900  0.621200  0.703700  1.0  0.1129
  H  H85  1  0.577600  0.496200  0.567800  1.0  0.0758
  H  H86  1  0.767100  0.617600  0.591700  1.0  0.1076
  C  C87  1  0.845700  0.853800  0.192800  1.0  -0.0039
  C  C88  1  0.885900  0.773200  0.149800  1.0  0.0275
  C  C89  1  0.986300  0.927600  0.217000  1.0  0.0494
  C  C90  1  0.757700  0.838600  0.256200  1.0  -0.0192
  C  C91  1  0.745900  0.866600  0.144100  1.0  0.0333
  C  C92  1  0.542200  0.882400  0.307600  1.0  0.1508
  C  C93  1  0.523500  0.820400  0.331000  1.0  -0.1823
  C  C94  1  0.382300  0.804600  0.366100  1.0  -0.1148
  C  C95  1  0.289900  0.855000  0.370800  1.0  -0.0665
  C  C96  1  0.335500  0.914000  0.343500  1.0  -0.0767
  C  C97  1  0.454000  0.930000  0.310500  1.0  -0.0997
  C  C98  1  0.152900  0.847400  0.403800  1.0  0.7057
  C  C99  1  0.491600  0.810000  0.088000  1.0  0.3038
  C  C100  1  0.359100  0.748400  0.069400  1.0  -0.1877
  C  C101  1  0.231600  0.755000  0.040200  1.0  -0.1116
  C  C102  1  0.238200  0.825200  0.026300  1.0  -0.0679
  C  C103  1  0.370000  0.882000  0.041500  1.0  -0.0956
  C  C104  1  0.497600  0.877200  0.071700  1.0  -0.3095
  C  C105  1  0.102300  0.833800  0.999500  1.0  0.6712
  C  C106  1  0.026000  0.690200  0.166500  1.0  0.2528
  C  C107  1  0.155100  0.690600  0.198200  1.0  -0.1752
  C  C108  1  0.196800  0.619800  0.182200  1.0  -0.1138
  C  C109  1  0.103500  0.546800  0.133800  1.0  -0.1641
  C  C110  1  0.979400  0.546400  0.101300  1.0  -0.0396
  C  C111  1  0.936400  0.618600  0.115700  1.0  -0.2673
  C  C112  1  0.145600  0.469800  0.121500  1.0  0.6533
  C  C113  1  0.991900  0.146200  0.307200  1.0  -0.0044
  C  C114  1  0.112700  0.226800  0.350200  1.0  0.0284
  C  C115  1  0.058700  0.072400  0.283000  1.0  0.0502
  C  C116  1  0.919100  0.161400  0.243800  1.0  -0.0203
  C  C117  1  0.879300  0.133400  0.355900  1.0  0.0319
  C  C118  1  0.659800  0.117600  0.192400  1.0  0.1503
  C  C119  1  0.703100  0.179600  0.169000  1.0  -0.1806
  C  C120  1  0.577700  0.195400  0.133900  1.0  -0.1161
  C  C121  1  0.434900  0.145000  0.129200  1.0  -0.068
  C  C122  1  0.421500  0.086000  0.156500  1.0  -0.0785
  C  C123  1  0.524000  0.070000  0.189500  1.0  -0.0972
  C  C124  1  0.305500  0.152600  0.096200  1.0  0.7061
  C  C125  1  0.681600  0.190000  0.412000  1.0  0.3054
  C  C126  1  0.610700  0.251600  0.430600  1.0  -0.1918
  C  C127  1  0.476600  0.245000  0.459800  1.0  -0.1098
  C  C128  1  0.413000  0.174800  0.473700  1.0  -0.0656
  C  C129  1  0.488000  0.118000  0.458500  1.0  -0.0958
  C  C130  1  0.620400  0.122800  0.428300  1.0  -0.3085
  C  C131  1  0.268500  0.166200  0.500500  1.0  0.6702
  C  C132  1  0.335800  0.309800  0.333500  1.0  0.2517
  C  C133  1  0.464500  0.309400  0.301800  1.0  -0.1813
  C  C134  1  0.577000  0.380200  0.317800  1.0  -0.1144
  C  C135  1  0.556700  0.453200  0.366200  1.0  -0.1643
  C  C136  1  0.433000  0.453600  0.398700  1.0  -0.0383
  C  C137  1  0.317800  0.381400  0.384300  1.0  -0.27
  C  C138  1  0.675800  0.530200  0.378500  1.0  0.6508
  C  C139  1  0.154300  0.146200  0.807200  1.0  -0.0042
  C  C140  1  0.114100  0.226800  0.850200  1.0  0.0289
  C  C141  1  0.013700  0.072400  0.783000  1.0  0.0478
  C  C142  1  0.242300  0.161400  0.743800  1.0  -0.0203
  C  C143  1  0.254100  0.133400  0.855900  1.0  0.0322
  C  C144  1  0.457800  0.117600  0.692400  1.0  0.1517
  C  C145  1  0.476500  0.179600  0.669000  1.0  -0.1891
  C  C146  1  0.617700  0.195400  0.633900  1.0  -0.1155
  C  C147  1  0.710100  0.145000  0.629200  1.0  -0.0651
  C  C148  1  0.664500  0.086000  0.656500  1.0  -0.0785
  C  C149  1  0.546000  0.070000  0.689500  1.0  -0.0967
  C  C150  1  0.847100  0.152600  0.596200  1.0  0.7078
  C  C151  1  0.508400  0.190000  0.912000  1.0  0.297
  C  C152  1  0.640900  0.251600  0.930600  1.0  -0.1875
  C  C153  1  0.768400  0.245000  0.959800  1.0  -0.1138
  C  C154  1  0.761800  0.174800  0.973700  1.0  -0.0656
  C  C155  1  0.630000  0.118000  0.958500  1.0  -0.096
  C  C156  1  0.502400  0.122800  0.928300  1.0  -0.3091
  C  C157  1  0.897700  0.166200  0.000500  1.0  0.6739
  C  C158  1  0.974000  0.309800  0.833500  1.0  0.2587
  C  C159  1  0.844900  0.309400  0.801800  1.0  -0.1792
  C  C160  1  0.803200  0.380200  0.817800  1.0  -0.1143
  C  C161  1  0.896500  0.453200  0.866200  1.0  -0.164
  C  C162  1  0.020600  0.453600  0.898700  1.0  -0.0323
  C  C163  1  0.063600  0.381400  0.884300  1.0  -0.2655
  C  C164  1  0.854400  0.530200  0.878500  1.0  0.6539
  C  C165  1  0.008100  0.853800  0.692800  1.0  -0.0036
  C  C166  1  0.887300  0.773200  0.649800  1.0  0.0277
  C  C167  1  0.941300  0.927600  0.717000  1.0  0.0471
  C  C168  1  0.080900  0.838600  0.756200  1.0  -0.0193
  C  C169  1  0.120700  0.866600  0.644100  1.0  0.0329
  C  C170  1  0.340200  0.882400  0.807600  1.0  0.1517
  C  C171  1  0.296900  0.820400  0.831000  1.0  -0.1835
  C  C172  1  0.422300  0.804600  0.866100  1.0  -0.1147
  C  C173  1  0.565100  0.855000  0.870800  1.0  -0.0643
  C  C174  1  0.578500  0.914000  0.843500  1.0  -0.0708
  C  C175  1  0.476000  0.930000  0.810500  1.0  -0.0979
  C  C176  1  0.694500  0.847400  0.903800  1.0  0.7099
  C  C177  1  0.318400  0.810000  0.588000  1.0  0.2954
  C  C178  1  0.389300  0.748400  0.569400  1.0  -0.1857
  C  C179  1  0.523400  0.755000  0.540200  1.0  -0.116
  C  C180  1  0.587000  0.825200  0.526300  1.0  -0.0668
  C  C181  1  0.512000  0.882000  0.541500  1.0  -0.0961
  C  C182  1  0.379600  0.877200  0.571700  1.0  -0.3084
  C  C183  1  0.731500  0.833800  0.499500  1.0  0.6733
  C  C184  1  0.664200  0.690200  0.666500  1.0  0.2585
  C  C185  1  0.535500  0.690600  0.698200  1.0  -0.1802
  C  C186  1  0.423000  0.619800  0.682200  1.0  -0.1126
  C  C187  1  0.443300  0.546800  0.633800  1.0  -0.1641
  C  C188  1  0.567000  0.546400  0.601300  1.0  -0.0324
  C  C189  1  0.682200  0.618600  0.615700  1.0  -0.2672
  C  C190  1  0.324200  0.469800  0.621500  1.0  0.6541
  O  O191  1  0.994700  0.765200  0.189900  1.0  -0.2817
  O  O192  1  0.675300  0.898600  0.275100  1.0  -0.301
  O  O193  1  0.606810  0.800620  0.120900  1.0  -0.2765
  O  O194  1  0.263400  0.470600  0.150500  1.0  -0.6684
  O  O195  1  0.056600  0.400400  0.079800  1.0  -0.6484
  O  O196  1  0.112600  0.900400  0.992900  1.0  -0.7447
  O  O197  1  0.983100  0.779400  0.981700  1.0  -0.7031
  O  O198  1  0.101700  0.787000  0.418300  1.0  -0.7142
  O  O199  1  0.086600  0.900400  0.415300  1.0  -0.7021
  O  O200  1  0.229500  0.234800  0.310100  1.0  -0.2821
  O  O201  1  0.776700  0.101400  0.224900  1.0  -0.3017
  O  O202  1  0.806190  0.199380  0.379100  1.0  -0.2764
  O  O203  1  0.792800  0.529400  0.349500  1.0  -0.6683
  O  O204  1  0.656200  0.599600  0.420200  1.0  -0.6463
  O  O205  1  0.212200  0.099600  0.507100  1.0  -0.74
  O  O206  1  0.203700  0.220600  0.518300  1.0  -0.7046
  O  O207  1  0.314700  0.213000  0.081700  1.0  -0.7162
  O  O208  1  0.186200  0.099600  0.084700  1.0  -0.707
  O  O209  1  0.005300  0.234800  0.810100  1.0  -0.2827
  O  O210  1  0.324700  0.101400  0.724900  1.0  -0.3014
  O  O211  1  0.393190  0.199380  0.879100  1.0  -0.2756
  O  O212  1  0.736600  0.529400  0.849500  1.0  -0.6672
  O  O213  1  0.943400  0.599600  0.920200  1.0  -0.6474
  O  O214  1  0.887400  0.099600  0.007100  1.0  -0.7395
  O  O215  1  0.016900  0.220600  0.018300  1.0  -0.7038
  O  O216  1  0.898300  0.213000  0.581700  1.0  -0.7157
  O  O217  1  0.913400  0.099600  0.584700  1.0  -0.707
  O  O218  1  0.770500  0.765200  0.689900  1.0  -0.2836
  O  O219  1  0.223300  0.898600  0.775100  1.0  -0.3007
  O  O220  1  0.193810  0.800620  0.620900  1.0  -0.2761
  O  O221  1  0.207200  0.470600  0.650500  1.0  -0.667
  O  O222  1  0.343800  0.400400  0.579800  1.0  -0.6485
  O  O223  1  0.787800  0.900400  0.492900  1.0  -0.7391
  O  O224  1  0.796300  0.779400  0.481700  1.0  -0.7034
  O  O225  1  0.685300  0.787000  0.918300  1.0  -0.7149
  O  O226  1  0.813800  0.900400  0.915300  1.0  -0.7027
  O  O227  1  0.941800  0.000000  0.250000  1.0  -0.3223
  O  O228  1  0.058200  0.000000  0.750000  1.0  -0.3202
