# generated using pymatgen
data_Cu7C8(BrN4)2
_symmetry_space_group_name_H-M   'P 1'
_cell_length_a   7.09620000
_cell_length_b   12.45490000
_cell_length_c   13.15800000
_cell_angle_alpha   68.16000000
_cell_angle_beta   83.11500000
_cell_angle_gamma   81.83400000
_symmetry_Int_Tables_number   1
_chemical_formula_structural   Cu7C8(BrN4)2
_chemical_formula_sum   'Cu7 C8 Br2 N8'
_cell_volume   1065.67553526
_cell_formula_units_Z   1
loop_
 _symmetry_equiv_pos_site_id
 _symmetry_equiv_pos_as_xyz
  1  'x, y, z'
loop_
 _atom_site_type_symbol
 _atom_site_label
 _atom_site_symmetry_multiplicity
 _atom_site_fract_x
 _atom_site_fract_y
 _atom_site_fract_z
 _atom_site_occupancy
 _atom_site_charge
  Cu  Cu1  1  0.317710  0.979020  0.251080  1.0  0.4636
  Cu  Cu2  1  0.480330  0.369160  0.196570  1.0  0.4969
  Cu  Cu3  1  0.686010  0.933000  0.162250  1.0  0.4805
  Cu  Cu4  1  0.682290  0.020980  0.748920  1.0  0.4641
  Cu  Cu5  1  0.519670  0.630840  0.803430  1.0  0.5011
  Cu  Cu6  1  0.313990  0.067000  0.837750  1.0  0.4783
  Cu  Cu7  1  0.500000  0.500000  0.500000  1.0  0.5317
  C  C8  1  0.504700  0.448200  0.387300  1.0  0.0249
  C  C9  1  0.448800  0.211400  0.226900  1.0  0.0199
  C  C10  1  0.077200  0.950600  0.223300  1.0  0.0107
  C  C11  1  0.537800  0.983100  0.037500  1.0  0.1402
  C  C12  1  0.493100  0.471500  0.044500  1.0  0.0757
  C  C13  1  0.495300  0.551800  0.612700  1.0  0.0225
  C  C14  1  0.551200  0.788600  0.773100  1.0  0.0195
  C  C15  1  0.922800  0.049400  0.776700  1.0  0.0112
  Br  Br16  1  0.512040  0.791440  0.338050  1.0  -0.3641
  Br  Br17  1  0.487960  0.208560  0.661950  1.0  -0.3642
  N  N18  1  0.495500  0.418700  0.315500  1.0  -0.4142
  N  N19  1  0.412200  0.122300  0.237900  1.0  -0.3795
  N  N20  1  0.931500  0.941900  0.202000  1.0  -0.3479
  N  N21  1  0.462200  0.016900  0.962500  1.0  -0.3455
  N  N22  1  0.506900  0.528500  0.955500  1.0  -0.3815
  N  N23  1  0.504500  0.581300  0.684500  1.0  -0.414
  N  N24  1  0.587800  0.877700  0.762100  1.0  -0.3829
  N  N25  1  0.068500  0.058100  0.798000  1.0  -0.3471
