# generated using pymatgen
data_Cu6C7Br2N7
_symmetry_space_group_name_H-M   'P 1'
_cell_length_a   17.04610000
_cell_length_b   21.62290000
_cell_length_c   9.85050000
_cell_angle_alpha   90.00000000
_cell_angle_beta   90.00000000
_cell_angle_gamma   90.00000000
_symmetry_Int_Tables_number   1
_chemical_formula_structural   Cu6C7Br2N7
_chemical_formula_sum   'Cu24 C28 Br8 N28'
_cell_volume   3630.75753260
_cell_formula_units_Z   4
loop_
 _symmetry_equiv_pos_site_id
 _symmetry_equiv_pos_as_xyz
  1  'x, y, z'
loop_
 _atom_site_type_symbol
 _atom_site_label
 _atom_site_symmetry_multiplicity
 _atom_site_fract_x
 _atom_site_fract_y
 _atom_site_fract_z
 _atom_site_occupancy
 _atom_site_charge
  Cu  Cu1  1  0.668370  0.578160  0.079850  1.0  0.4602
  Cu  Cu2  1  0.432250  0.664550  0.314800  1.0  0.3384
  Cu  Cu3  1  0.559640  0.452020  0.704420  1.0  0.4411
  Cu  Cu4  1  0.831630  0.421840  0.579850  1.0  0.4604
  Cu  Cu5  1  0.067750  0.335450  0.814800  1.0  0.3384
  Cu  Cu6  1  0.940360  0.547980  0.204420  1.0  0.4404
  Cu  Cu7  1  0.331630  0.078160  0.920150  1.0  0.4604
  Cu  Cu8  1  0.567750  0.164550  0.685200  1.0  0.3386
  Cu  Cu9  1  0.440360  0.952020  0.295580  1.0  0.4403
  Cu  Cu10  1  0.168370  0.921840  0.420150  1.0  0.46
  Cu  Cu11  1  0.932250  0.835450  0.185200  1.0  0.3385
  Cu  Cu12  1  0.059640  0.047980  0.795580  1.0  0.4405
  Cu  Cu13  1  0.331630  0.421840  0.920150  1.0  0.4603
  Cu  Cu14  1  0.567750  0.335450  0.685200  1.0  0.3385
  Cu  Cu15  1  0.440360  0.547980  0.295580  1.0  0.4407
  Cu  Cu16  1  0.168370  0.578160  0.420150  1.0  0.4601
  Cu  Cu17  1  0.932250  0.664550  0.185200  1.0  0.3385
  Cu  Cu18  1  0.059640  0.452020  0.795580  1.0  0.4407
  Cu  Cu19  1  0.668370  0.921840  0.079850  1.0  0.4601
  Cu  Cu20  1  0.432250  0.835450  0.314800  1.0  0.3384
  Cu  Cu21  1  0.559640  0.047980  0.704420  1.0  0.4421
  Cu  Cu22  1  0.831630  0.078160  0.579850  1.0  0.4605
  Cu  Cu23  1  0.067750  0.164550  0.814800  1.0  0.3385
  Cu  Cu24  1  0.940360  0.952020  0.204420  1.0  0.4412
  C  C25  1  0.513800  0.488600  0.544500  1.0  0.0878
  C  C26  1  0.604500  0.494800  0.852500  1.0  0.0019
  C  C27  1  0.527000  0.625500  0.237600  1.0  0.1856
  C  C28  1  0.833500  0.622100  0.135500  1.0  0.2205
  C  C29  1  0.986200  0.511400  0.044500  1.0  0.089
  C  C30  1  0.895500  0.505200  0.352500  1.0  0.0019
  C  C31  1  0.973000  0.374500  0.737600  1.0  0.1855
  C  C32  1  0.666500  0.377900  0.635500  1.0  0.223
  C  C33  1  0.486200  0.988600  0.455500  1.0  0.0883
  C  C34  1  0.395500  0.994800  0.147500  1.0  0.0016
  C  C35  1  0.473000  0.125500  0.762400  1.0  0.1841
  C  C36  1  0.166500  0.122100  0.864500  1.0  0.2228
  C  C37  1  0.013800  0.011400  0.955500  1.0  0.087
  C  C38  1  0.104500  0.005200  0.647500  1.0  0.0028
  C  C39  1  0.027000  0.874500  0.262400  1.0  0.1858
  C  C40  1  0.333500  0.877900  0.364500  1.0  0.2204
  C  C41  1  0.395500  0.505200  0.147500  1.0  0.0021
  C  C42  1  0.473000  0.374500  0.762400  1.0  0.1845
  C  C43  1  0.166500  0.377900  0.864500  1.0  0.2231
  C  C44  1  0.104500  0.494800  0.647500  1.0  0.0018
  C  C45  1  0.027000  0.625500  0.262400  1.0  0.1857
  C  C46  1  0.333500  0.622100  0.364500  1.0  0.2204
  C  C47  1  0.604500  0.005200  0.852500  1.0  0.0028
  C  C48  1  0.527000  0.874500  0.237600  1.0  0.1857
  C  C49  1  0.833500  0.877900  0.135500  1.0  0.2203
  C  C50  1  0.895500  0.994800  0.352500  1.0  0.0015
  C  C51  1  0.973000  0.125500  0.737600  1.0  0.1849
  C  C52  1  0.666500  0.122100  0.635500  1.0  0.223
  Br  Br53  1  0.466460  0.750000  0.484230  1.0  -0.4091
  Br  Br54  1  0.387060  0.750000  0.129570  1.0  -0.4159
  Br  Br55  1  0.033540  0.250000  0.984230  1.0  -0.4088
  Br  Br56  1  0.112940  0.250000  0.629570  1.0  -0.4171
  Br  Br57  1  0.533540  0.250000  0.515770  1.0  -0.4086
  Br  Br58  1  0.612940  0.250000  0.870430  1.0  -0.4165
  Br  Br59  1  0.966460  0.750000  0.015770  1.0  -0.4095
  Br  Br60  1  0.887060  0.750000  0.370430  1.0  -0.4153
  N  N61  1  0.631100  0.524900  0.933600  1.0  -0.4504
  N  N62  1  0.578600  0.610600  0.191700  1.0  -0.3365
  N  N63  1  0.777700  0.605000  0.118300  1.0  -0.3036
  N  N64  1  0.486200  0.511400  0.455500  1.0  -0.3785
  N  N65  1  0.868900  0.475100  0.433600  1.0  -0.4491
  N  N66  1  0.921400  0.389400  0.691700  1.0  -0.3368
  N  N67  1  0.722300  0.395000  0.618300  1.0  -0.3057
  N  N68  1  0.013800  0.488600  0.955500  1.0  -0.3802
  N  N69  1  0.368900  0.024900  0.066400  1.0  -0.4497
  N  N70  1  0.421400  0.110600  0.808300  1.0  -0.3368
  N  N71  1  0.222300  0.105000  0.881700  1.0  -0.3007
  N  N72  1  0.513800  0.011400  0.544500  1.0  -0.3779
  N  N73  1  0.131100  0.975100  0.566400  1.0  -0.4501
  N  N74  1  0.078600  0.889400  0.308300  1.0  -0.3362
  N  N75  1  0.277700  0.895000  0.381700  1.0  -0.3091
  N  N76  1  0.986200  0.988600  0.044500  1.0  -0.3776
  N  N77  1  0.368900  0.475100  0.066400  1.0  -0.4492
  N  N78  1  0.421400  0.389400  0.808300  1.0  -0.3378
  N  N79  1  0.222300  0.395000  0.881700  1.0  -0.3011
  N  N80  1  0.131100  0.524900  0.566400  1.0  -0.4506
  N  N81  1  0.078600  0.610600  0.308300  1.0  -0.3382
  N  N82  1  0.277700  0.605000  0.381700  1.0  -0.3039
  N  N83  1  0.631100  0.975100  0.933600  1.0  -0.4496
  N  N84  1  0.578600  0.889400  0.191700  1.0  -0.3381
  N  N85  1  0.777700  0.895000  0.118300  1.0  -0.304
  N  N86  1  0.868900  0.024900  0.433600  1.0  -0.4494
  N  N87  1  0.921400  0.110600  0.691700  1.0  -0.3382
  N  N88  1  0.722300  0.105000  0.618300  1.0  -0.3009
