# generated using pymatgen
data_CuH10(C9O2)2
_symmetry_space_group_name_H-M   'P 1'
_cell_length_a   23.33660000
_cell_length_b   23.33630000
_cell_length_c   23.33630000
_cell_angle_alpha   109.47100000
_cell_angle_beta   109.47100000
_cell_angle_gamma   109.47100000
_symmetry_Int_Tables_number   1
_chemical_formula_structural   CuH10(C9O2)2
_chemical_formula_sum   'Cu12 H120 C216 O48'
_cell_volume   9783.25193717
_cell_formula_units_Z   12
loop_
 _symmetry_equiv_pos_site_id
 _symmetry_equiv_pos_as_xyz
  1  'x, y, z'
loop_
 _atom_site_type_symbol
 _atom_site_label
 _atom_site_symmetry_multiplicity
 _atom_site_fract_x
 _atom_site_fract_y
 _atom_site_fract_z
 _atom_site_occupancy
 _atom_site_charge
  Cu  Cu1  1  0.142190  0.642190  0.500000  1.0  0.9019
  Cu  Cu2  1  0.642190  0.500000  0.142190  1.0  0.9029
  Cu  Cu3  1  0.500000  0.857810  0.357810  1.0  0.9017
  Cu  Cu4  1  0.259850  0.500000  0.759850  1.0  0.9156
  Cu  Cu5  1  0.500000  0.240150  0.740150  1.0  0.9128
  Cu  Cu6  1  0.500000  0.142190  0.642190  1.0  0.9011
  Cu  Cu7  1  0.857810  0.357810  0.500000  1.0  0.9025
  Cu  Cu8  1  0.500000  0.759850  0.259850  1.0  0.911
  Cu  Cu9  1  0.740150  0.500000  0.240150  1.0  0.9161
  Cu  Cu10  1  0.240150  0.740150  0.500000  1.0  0.9137
  Cu  Cu11  1  0.759850  0.259850  0.500000  1.0  0.9138
  Cu  Cu12  1  0.357810  0.500000  0.857810  1.0  0.9033
  H  H13  1  0.351800  0.714400  0.825400  1.0  0.1191
  H  H14  1  0.631900  0.589400  0.511500  1.0  0.118
  H  H15  1  0.021900  0.575700  0.844000  1.0  0.1244
  H  H16  1  0.368100  0.410600  0.488500  1.0  0.1172
  H  H17  1  0.273800  0.781400  0.255600  1.0  0.1141
  H  H18  1  0.726200  0.981800  0.507600  1.0  0.1131
  H  H19  1  0.411400  0.966000  0.832600  1.0  0.0994
  H  H20  1  0.473600  0.362600  0.648200  1.0  0.1169
  H  H21  1  0.351800  0.526400  0.637400  1.0  0.1185
  H  H22  1  0.177900  0.446200  0.021900  1.0  0.1238
  H  H23  1  0.589400  0.957500  0.077900  1.0  0.114
  H  H24  1  0.174600  0.648200  0.285600  1.0  0.1196
  H  H25  1  0.922100  0.410600  0.042500  1.0  0.1153
  H  H26  1  0.526400  0.174600  0.889000  1.0  0.1171
  H  H27  1  0.034000  0.445400  0.866600  1.0  0.0902
  H  H28  1  0.511500  0.631900  0.589400  1.0  0.1167
  H  H29  1  0.525800  0.018200  0.744400  1.0  0.1123
  H  H30  1  0.966000  0.554600  0.133400  1.0  0.0915
  H  H31  1  0.177900  0.156000  0.731700  1.0  0.1236
  H  H32  1  0.488500  0.368100  0.410600  1.0  0.1166
  H  H33  1  0.488500  0.077900  0.120400  1.0  0.1143
  H  H34  1  0.167400  0.133400  0.578800  1.0  0.0982
  H  H35  1  0.578800  0.167400  0.133400  1.0  0.0995
  H  H36  1  0.034000  0.167400  0.588600  1.0  0.0986
  H  H37  1  0.781400  0.507600  0.525800  1.0  0.1137
  H  H38  1  0.726200  0.218600  0.744400  1.0  0.1135
  H  H39  1  0.362600  0.889000  0.714400  1.0  0.1202
  H  H40  1  0.474200  0.981800  0.255600  1.0  0.1123
  H  H41  1  0.492400  0.474200  0.218600  1.0  0.1104
  H  H42  1  0.156000  0.731700  0.177900  1.0  0.1238
  H  H43  1  0.957500  0.368100  0.879600  1.0  0.118
  H  H44  1  0.268300  0.822100  0.844000  1.0  0.1251
  H  H45  1  0.368100  0.879600  0.957500  1.0  0.1157
  H  H46  1  0.411400  0.578800  0.445400  1.0  0.0936
  H  H47  1  0.424300  0.446200  0.268300  1.0  0.1244
  H  H48  1  0.648200  0.473600  0.362600  1.0  0.1186
  H  H49  1  0.525800  0.781400  0.507600  1.0  0.1131
  H  H50  1  0.446200  0.268300  0.424300  1.0  0.1249
  H  H51  1  0.410600  0.042500  0.922100  1.0  0.1167
  H  H52  1  0.077900  0.589400  0.957500  1.0  0.1157
  H  H53  1  0.042500  0.922100  0.410600  1.0  0.1151
  H  H54  1  0.554600  0.588600  0.421200  1.0  0.0915
  H  H55  1  0.553800  0.731700  0.575700  1.0  0.1253
  H  H56  1  0.421200  0.832600  0.866600  1.0  0.0986
  H  H57  1  0.156000  0.978100  0.424300  1.0  0.1229
  H  H58  1  0.714400  0.825400  0.351800  1.0  0.1172
  H  H59  1  0.637400  0.351800  0.526400  1.0  0.1182
  H  H60  1  0.648200  0.285600  0.174600  1.0  0.1192
  H  H61  1  0.120400  0.488500  0.077900  1.0  0.1169
  H  H62  1  0.575700  0.844000  0.021900  1.0  0.1231
  H  H63  1  0.018200  0.744400  0.525800  1.0  0.1129
  H  H64  1  0.731700  0.575700  0.553800  1.0  0.1237
  H  H65  1  0.844000  0.021900  0.575700  1.0  0.1235
  H  H66  1  0.966000  0.832600  0.411400  1.0  0.0979
  H  H67  1  0.507600  0.525800  0.781400  1.0  0.1107
  H  H68  1  0.575700  0.553800  0.731700  1.0  0.1243
  H  H69  1  0.018200  0.492400  0.273800  1.0  0.1129
  H  H70  1  0.255600  0.474200  0.981800  1.0  0.1115
  H  H71  1  0.218600  0.744400  0.726200  1.0  0.114
  H  H72  1  0.981800  0.507600  0.726200  1.0  0.1127
  H  H73  1  0.285600  0.174600  0.648200  1.0  0.1176
  H  H74  1  0.832600  0.866600  0.421200  1.0  0.0986
  H  H75  1  0.832600  0.411400  0.966000  1.0  0.099
  H  H76  1  0.744400  0.525800  0.018200  1.0  0.1116
  H  H77  1  0.410600  0.488500  0.368100  1.0  0.1159
  H  H78  1  0.744400  0.726200  0.218600  1.0  0.1124
  H  H79  1  0.866600  0.034000  0.445400  1.0  0.096
  H  H80  1  0.285600  0.637400  0.111000  1.0  0.1193
  H  H81  1  0.362600  0.648200  0.473600  1.0  0.118
  H  H82  1  0.957500  0.077900  0.589400  1.0  0.1152
  H  H83  1  0.424300  0.156000  0.978100  1.0  0.1237
  H  H84  1  0.714400  0.362600  0.889000  1.0  0.1191
  H  H85  1  0.218600  0.492400  0.474200  1.0  0.1136
  H  H86  1  0.637400  0.111000  0.285600  1.0  0.1199
  H  H87  1  0.446200  0.021900  0.177900  1.0  0.1251
  H  H88  1  0.268300  0.424300  0.446200  1.0  0.1233
  H  H89  1  0.507600  0.726200  0.981800  1.0  0.1133
  H  H90  1  0.553800  0.978100  0.822100  1.0  0.1248
  H  H91  1  0.978100  0.424300  0.156000  1.0  0.1236
  H  H92  1  0.120400  0.042500  0.631900  1.0  0.1183
  H  H93  1  0.866600  0.421200  0.832600  1.0  0.1005
  H  H94  1  0.174600  0.889000  0.526400  1.0  0.1171
  H  H95  1  0.578800  0.445400  0.411400  1.0  0.093
  H  H96  1  0.111000  0.473600  0.825400  1.0  0.1184
  H  H97  1  0.421200  0.554600  0.588600  1.0  0.0935
  H  H98  1  0.889000  0.714400  0.362600  1.0  0.1191
  H  H99  1  0.473600  0.825400  0.111000  1.0  0.1172
  H  H100  1  0.981800  0.255600  0.474200  1.0  0.1127
  H  H101  1  0.588600  0.421200  0.554600  1.0  0.0924
  H  H102  1  0.021900  0.177900  0.446200  1.0  0.1213
  H  H103  1  0.167400  0.588600  0.034000  1.0  0.0997
  H  H104  1  0.889000  0.526400  0.174600  1.0  0.1186
  H  H105  1  0.133400  0.966000  0.554600  1.0  0.0956
  H  H106  1  0.844000  0.268300  0.822100  1.0  0.1241
  H  H107  1  0.133400  0.578800  0.167400  1.0  0.0998
  H  H108  1  0.922100  0.879600  0.511500  1.0  0.1162
  H  H109  1  0.589400  0.511500  0.631900  1.0  0.1146
  H  H110  1  0.781400  0.255600  0.273800  1.0  0.114
  H  H111  1  0.077900  0.120400  0.488500  1.0  0.1168
  H  H112  1  0.588600  0.034000  0.167400  1.0  0.0998
  H  H113  1  0.474200  0.218600  0.492400  1.0  0.1132
  H  H114  1  0.445400  0.411400  0.578800  1.0  0.0904
  H  H115  1  0.042500  0.631900  0.120400  1.0  0.1167
  H  H116  1  0.273800  0.018200  0.492400  1.0  0.1125
  H  H117  1  0.822100  0.553800  0.978100  1.0  0.1243
  H  H118  1  0.511500  0.922100  0.879600  1.0  0.1155
  H  H119  1  0.526400  0.637400  0.351800  1.0  0.1161
  H  H120  1  0.554600  0.133400  0.966000  1.0  0.0894
  H  H121  1  0.825400  0.111000  0.473600  1.0  0.1175
  H  H122  1  0.879600  0.957500  0.368100  1.0  0.1185
  H  H123  1  0.978100  0.822100  0.553800  1.0  0.1216
  H  H124  1  0.492400  0.273800  0.018200  1.0  0.1135
  H  H125  1  0.731700  0.177900  0.156000  1.0  0.1247
  H  H126  1  0.445400  0.866600  0.034000  1.0  0.0893
  H  H127  1  0.111000  0.285600  0.637400  1.0  0.1193
  H  H128  1  0.822100  0.844000  0.268300  1.0  0.1241
  H  H129  1  0.631900  0.120400  0.042500  1.0  0.1157
  H  H130  1  0.879600  0.511500  0.922100  1.0  0.117
  H  H131  1  0.825400  0.351800  0.714400  1.0  0.1194
  H  H132  1  0.255600  0.273800  0.781400  1.0  0.1127
  C  C133  1  0.412200  0.458300  0.387500  1.0  -0.1752
  C  C134  1  0.789700  0.531800  0.041900  1.0  -0.0267
  C  C135  1  0.875200  0.532200  0.134600  1.0  -0.1085
  C  C136  1  0.549400  0.628500  0.439300  1.0  -0.1248
  C  C137  1  0.422800  0.708400  0.899400  1.0  -0.1327
  C  C138  1  0.904200  0.849700  0.345100  1.0  0.0821
  C  C139  1  0.387500  0.929200  0.975300  1.0  -0.186
  C  C140  1  0.024700  0.612500  0.070800  1.0  -0.1696
  C  C141  1  0.397600  0.740600  0.865400  1.0  -0.1063
  C  C142  1  0.254900  0.623000  0.493100  1.0  0.7072
  C  C143  1  0.345100  0.495400  0.440900  1.0  0.066
  C  C144  1  0.745100  0.238200  0.368100  1.0  0.7089
  C  C145  1  0.809000  0.523400  0.100600  1.0  -0.1332
  C  C146  1  0.134600  0.602400  0.259400  1.0  -0.1074
  C  C147  1  0.182800  0.018500  0.469700  1.0  -0.1126
  C  C148  1  0.422800  0.523400  0.714400  1.0  -0.1302
  C  C149  1  0.541700  0.612500  0.587800  1.0  -0.1846
  C  C150  1  0.046200  0.427200  0.974400  1.0  0.024
  C  C151  1  0.559100  0.654900  0.504600  1.0  0.0722
  C  C152  1  0.259400  0.657000  0.124800  1.0  -0.1019
  C  C153  1  0.489900  0.531800  0.742100  1.0  -0.0321
  C  C154  1  0.875200  0.740600  0.343000  1.0  -0.1061
  C  C155  1  0.713100  0.530300  0.548800  1.0  -0.113
  C  C156  1  0.041900  0.510100  0.252200  1.0  -0.0321
  C  C157  1  0.291600  0.100600  0.577200  1.0  -0.132
  C  C158  1  0.345100  0.904200  0.849700  1.0  0.0775
  C  C159  1  0.440900  0.345100  0.495400  1.0  0.0725
  C  C160  1  0.602400  0.259400  0.134600  1.0  -0.1053
  C  C161  1  0.547200  0.928200  0.974400  1.0  0.0294
  C  C162  1  0.657000  0.397600  0.532200  1.0  -0.1116
  C  C163  1  0.945500  0.095800  0.440900  1.0  0.0786
  C  C164  1  0.129900  0.623000  0.368100  1.0  0.712
  C  C165  1  0.381000  0.953800  0.928200  1.0  0.0268
  C  C166  1  0.548800  0.018500  0.835700  1.0  -0.1145
  C  C167  1  0.095800  0.440900  0.945500  1.0  0.0749
  C  C168  1  0.714400  0.191000  0.291600  1.0  -0.137
  C  C169  1  0.285600  0.809000  0.708400  1.0  -0.1384
  C  C170  1  0.504600  0.559100  0.654900  1.0  0.073
  C  C171  1  0.018500  0.835700  0.548800  1.0  -0.1168
  C  C172  1  0.654900  0.095800  0.150300  1.0  0.0788
  C  C173  1  0.025600  0.953800  0.572800  1.0  0.04
  C  C174  1  0.476600  0.285600  0.577200  1.0  -0.1376
  C  C175  1  0.291600  0.714400  0.191000  1.0  -0.1309
  C  C176  1  0.439300  0.549400  0.628500  1.0  -0.1287
  C  C177  1  0.958100  0.210300  0.468200  1.0  -0.0282
  C  C178  1  0.761800  0.631900  0.254900  1.0  0.7042
  C  C179  1  0.110100  0.920900  0.549400  1.0  -0.127
  C  C180  1  0.810800  0.371500  0.920900  1.0  -0.1266
  C  C181  1  0.506900  0.745100  0.377000  1.0  0.7156
  C  C182  1  0.530300  0.548800  0.713100  1.0  -0.1093
  C  C183  1  0.572800  0.025600  0.953800  1.0  0.0243
  C  C184  1  0.046100  0.070800  0.458300  1.0  -0.1816
  C  C185  1  0.286900  0.469700  0.451200  1.0  -0.1134
  C  C186  1  0.742100  0.210300  0.252200  1.0  -0.0337
  C  C187  1  0.210300  0.252200  0.742100  1.0  -0.0325
  C  C188  1  0.371500  0.560700  0.450600  1.0  -0.1205
  C  C189  1  0.577200  0.476600  0.285600  1.0  -0.1302
  C  C190  1  0.440900  0.945500  0.095800  1.0  0.0734
  C  C191  1  0.981500  0.164300  0.451200  1.0  -0.1186
  C  C192  1  0.368100  0.745100  0.238200  1.0  0.7089
  C  C193  1  0.343000  0.875200  0.740600  1.0  -0.1075
  C  C194  1  0.742100  0.489900  0.531800  1.0  -0.0318
  C  C195  1  0.654900  0.504600  0.559100  1.0  0.068
  C  C196  1  0.817200  0.981500  0.530300  1.0  -0.11
  C  C197  1  0.587800  0.541700  0.612500  1.0  -0.1773
  C  C198  1  0.740600  0.865400  0.397600  1.0  -0.1079
  C  C199  1  0.257900  0.510100  0.468200  1.0  -0.032
  C  C200  1  0.079100  0.189200  0.628500  1.0  -0.1209
  C  C201  1  0.623000  0.368100  0.129900  1.0  0.7119
  C  C202  1  0.929200  0.975300  0.387500  1.0  -0.1812
  C  C203  1  0.747800  0.257900  0.789700  1.0  -0.0315
  C  C204  1  0.708400  0.899400  0.422800  1.0  -0.1316
  C  C205  1  0.920900  0.810800  0.371500  1.0  -0.1218
  C  C206  1  0.427200  0.381000  0.452800  1.0  0.0283
  C  C207  1  0.889900  0.439300  0.810800  1.0  -0.1268
  C  C208  1  0.920900  0.549400  0.110100  1.0  -0.1301
  C  C209  1  0.740600  0.343000  0.875200  1.0  -0.1038
  C  C210  1  0.817200  0.286900  0.835700  1.0  -0.1143
  C  C211  1  0.761800  0.506900  0.129900  1.0  0.7119
  C  C212  1  0.612500  0.070800  0.024700  1.0  -0.1869
  C  C213  1  0.150300  0.654900  0.095800  1.0  0.0762
  C  C214  1  0.150300  0.054500  0.495400  1.0  0.0792
  C  C215  1  0.493100  0.254900  0.623000  1.0  0.7157
  C  C216  1  0.254900  0.761800  0.631900  1.0  0.7094
  C  C217  1  0.953900  0.929200  0.541700  1.0  -0.1795
  C  C218  1  0.189200  0.110100  0.560700  1.0  -0.1246
  C  C219  1  0.631900  0.870100  0.377000  1.0  0.713
  C  C220  1  0.747800  0.958100  0.489900  1.0  -0.03
  C  C221  1  0.469700  0.182800  0.018500  1.0  -0.1163
  C  C222  1  0.928200  0.381000  0.953800  1.0  0.0257
  C  C223  1  0.623000  0.493100  0.254900  1.0  0.7123
  C  C224  1  0.559100  0.054500  0.904200  1.0  0.0751
  C  C225  1  0.450600  0.889900  0.079100  1.0  -0.1286
  C  C226  1  0.587800  0.975300  0.046100  1.0  -0.1781
  C  C227  1  0.577200  0.291600  0.100600  1.0  -0.1309
  C  C228  1  0.628500  0.439300  0.549400  1.0  -0.1174
  C  C229  1  0.071800  0.619000  0.046200  1.0  0.0241
  C  C230  1  0.452800  0.427200  0.381000  1.0  0.0349
  C  C231  1  0.467800  0.865400  0.124800  1.0  -0.1112
  C  C232  1  0.458300  0.387500  0.412200  1.0  -0.1835
  C  C233  1  0.541700  0.953900  0.929200  1.0  -0.1804
  C  C234  1  0.810800  0.889900  0.439300  1.0  -0.1293
  C  C235  1  0.397600  0.532200  0.657000  1.0  -0.1101
  C  C236  1  0.870100  0.238200  0.493100  1.0  0.7109
  C  C237  1  0.377000  0.631900  0.870100  1.0  0.7129
  C  C238  1  0.835700  0.548800  0.018500  1.0  -0.1177
  C  C239  1  0.134600  0.875200  0.532200  1.0  -0.1029
  C  C240  1  0.904200  0.559100  0.054500  1.0  0.0725
  C  C241  1  0.974400  0.547200  0.928200  1.0  0.0359
  C  C242  1  0.531800  0.742100  0.489900  1.0  -0.0331
  C  C243  1  0.259400  0.134600  0.602400  1.0  -0.1062
  C  C244  1  0.945500  0.504600  0.849700  1.0  0.0705
  C  C245  1  0.974400  0.046200  0.427200  1.0  0.0379
  C  C246  1  0.899400  0.422800  0.708400  1.0  -0.1312
  C  C247  1  0.110100  0.560700  0.189200  1.0  -0.1277
  C  C248  1  0.493100  0.870100  0.238200  1.0  0.7145
  C  C249  1  0.450600  0.371500  0.560700  1.0  -0.1242
  C  C250  1  0.547200  0.572800  0.619000  1.0  0.0342
  C  C251  1  0.849700  0.945500  0.504600  1.0  0.0776
  C  C252  1  0.189200  0.628500  0.079100  1.0  -0.126
  C  C253  1  0.025600  0.452800  0.071800  1.0  0.0341
  C  C254  1  0.495400  0.440900  0.345100  1.0  0.0717
  C  C255  1  0.095800  0.150300  0.654900  1.0  0.0799
  C  C256  1  0.975300  0.046100  0.587800  1.0  -0.1688
  C  C257  1  0.343000  0.602400  0.467800  1.0  -0.1115
  C  C258  1  0.929200  0.541700  0.953900  1.0  -0.1821
  C  C259  1  0.619000  0.547200  0.572800  1.0  0.0288
  C  C260  1  0.468200  0.958100  0.210300  1.0  -0.0305
  C  C261  1  0.024700  0.953900  0.412200  1.0  -0.1678
  C  C262  1  0.041900  0.789700  0.531800  1.0  -0.029
  C  C263  1  0.714400  0.422800  0.523400  1.0  -0.1324
  C  C264  1  0.628500  0.079100  0.189200  1.0  -0.1186
  C  C265  1  0.210300  0.468200  0.958100  1.0  -0.0263
  C  C266  1  0.619000  0.046200  0.071800  1.0  0.0255
  C  C267  1  0.238200  0.368100  0.745100  1.0  0.7041
  C  C268  1  0.504600  0.849700  0.945500  1.0  0.0775
  C  C269  1  0.452800  0.071800  0.025600  1.0  0.032
  C  C270  1  0.079100  0.450600  0.889900  1.0  -0.1293
  C  C271  1  0.070800  0.458300  0.046100  1.0  -0.1803
  C  C272  1  0.070800  0.024700  0.612500  1.0  -0.1794
  C  C273  1  0.458300  0.046100  0.070800  1.0  -0.183
  C  C274  1  0.708400  0.285600  0.809000  1.0  -0.1313
  C  C275  1  0.899400  0.191000  0.476600  1.0  -0.1307
  C  C276  1  0.870100  0.377000  0.631900  1.0  0.7121
  C  C277  1  0.958100  0.489900  0.747800  1.0  -0.0271
  C  C278  1  0.953900  0.412200  0.024700  1.0  -0.1835
  C  C279  1  0.548800  0.713100  0.530300  1.0  -0.1139
  C  C280  1  0.046200  0.071800  0.619000  1.0  0.0255
  C  C281  1  0.371500  0.920900  0.810800  1.0  -0.1218
  C  C282  1  0.531800  0.041900  0.789700  1.0  -0.0267
  C  C283  1  0.129900  0.761800  0.506900  1.0  0.7102
  C  C284  1  0.835700  0.817200  0.286900  1.0  -0.1179
  C  C285  1  0.164300  0.182800  0.713100  1.0  -0.1128
  C  C286  1  0.467800  0.343000  0.602400  1.0  -0.1084
  C  C287  1  0.560700  0.450600  0.371500  1.0  -0.1307
  C  C288  1  0.387500  0.412200  0.458300  1.0  -0.1816
  C  C289  1  0.054500  0.495400  0.150300  1.0  0.0719
  C  C290  1  0.257900  0.789700  0.747800  1.0  -0.0339
  C  C291  1  0.657000  0.124800  0.259400  1.0  -0.1077
  C  C292  1  0.510100  0.252200  0.041900  1.0  -0.0365
  C  C293  1  0.849700  0.345100  0.904200  1.0  0.0755
  C  C294  1  0.532200  0.657000  0.397600  1.0  -0.1076
  C  C295  1  0.631900  0.254900  0.761800  1.0  0.7093
  C  C296  1  0.865400  0.124800  0.467800  1.0  -0.1051
  C  C297  1  0.523400  0.100600  0.809000  1.0  -0.1321
  C  C298  1  0.191000  0.476600  0.899400  1.0  -0.133
  C  C299  1  0.451200  0.286900  0.469700  1.0  -0.1161
  C  C300  1  0.412200  0.024700  0.953900  1.0  -0.1758
  C  C301  1  0.100600  0.577200  0.291600  1.0  -0.1297
  C  C302  1  0.713100  0.164300  0.182800  1.0  -0.113
  C  C303  1  0.928200  0.974400  0.547200  1.0  0.0244
  C  C304  1  0.164300  0.451200  0.981500  1.0  -0.1169
  C  C305  1  0.495400  0.150300  0.054500  1.0  0.0759
  C  C306  1  0.468200  0.257900  0.510100  1.0  -0.0366
  C  C307  1  0.612500  0.587800  0.541700  1.0  -0.1815
  C  C308  1  0.238200  0.493100  0.870100  1.0  0.7109
  C  C309  1  0.572800  0.619000  0.547200  1.0  0.0272
  C  C310  1  0.510100  0.468200  0.257900  1.0  -0.0275
  C  C311  1  0.252200  0.742100  0.210300  1.0  -0.0315
  C  C312  1  0.809000  0.708400  0.285600  1.0  -0.1344
  C  C313  1  0.018500  0.469700  0.182800  1.0  -0.1205
  C  C314  1  0.975300  0.387500  0.929200  1.0  -0.1689
  C  C315  1  0.889900  0.079100  0.450600  1.0  -0.1283
  C  C316  1  0.602400  0.467800  0.343000  1.0  -0.1067
  C  C317  1  0.381000  0.452800  0.427200  1.0  0.0273
  C  C318  1  0.523400  0.714400  0.422800  1.0  -0.1366
  C  C319  1  0.124800  0.467800  0.865400  1.0  -0.1065
  C  C320  1  0.953800  0.928200  0.381000  1.0  0.0233
  C  C321  1  0.285600  0.577200  0.476600  1.0  -0.1318
  C  C322  1  0.182800  0.713100  0.164300  1.0  -0.115
  C  C323  1  0.439300  0.810800  0.889900  1.0  -0.1203
  C  C324  1  0.427200  0.974400  0.046200  1.0  0.0227
  C  C325  1  0.252200  0.041900  0.510100  1.0  -0.028
  C  C326  1  0.286900  0.835700  0.817200  1.0  -0.1106
  C  C327  1  0.489900  0.747800  0.958100  1.0  -0.036
  C  C328  1  0.124800  0.259400  0.657000  1.0  -0.1062
  C  C329  1  0.532200  0.134600  0.875200  1.0  -0.1092
  C  C330  1  0.071800  0.025600  0.452800  1.0  0.0222
  C  C331  1  0.560700  0.189200  0.110100  1.0  -0.1208
  C  C332  1  0.506900  0.129900  0.761800  1.0  0.7147
  C  C333  1  0.469700  0.451200  0.286900  1.0  -0.1111
  C  C334  1  0.530300  0.817200  0.981500  1.0  -0.1175
  C  C335  1  0.549400  0.110100  0.920900  1.0  -0.126
  C  C336  1  0.981500  0.530300  0.817200  1.0  -0.1202
  C  C337  1  0.953800  0.572800  0.025600  1.0  0.0222
  C  C338  1  0.191000  0.291600  0.714400  1.0  -0.1324
  C  C339  1  0.865400  0.397600  0.740600  1.0  -0.1083
  C  C340  1  0.054500  0.904200  0.559100  1.0  0.0768
  C  C341  1  0.451200  0.981500  0.164300  1.0  -0.1137
  C  C342  1  0.100600  0.809000  0.523400  1.0  -0.1328
  C  C343  1  0.745100  0.377000  0.506900  1.0  0.706
  C  C344  1  0.789700  0.747800  0.257900  1.0  -0.0345
  C  C345  1  0.476600  0.899400  0.191000  1.0  -0.1324
  C  C346  1  0.377000  0.506900  0.745100  1.0  0.7137
  C  C347  1  0.368100  0.129900  0.623000  1.0  0.713
  C  C348  1  0.046100  0.587800  0.975300  1.0  -0.1813
  O  O349  1  0.603180  0.900820  0.402340  1.0  -0.5857
  O  O350  1  0.597660  0.396820  0.099180  1.0  -0.583
  O  O351  1  0.717270  0.216150  0.398680  1.0  -0.565
  O  O352  1  0.501120  0.717270  0.318590  1.0  -0.5653
  O  O353  1  0.099180  0.597660  0.396820  1.0  -0.5821
  O  O354  1  0.396820  0.799160  0.297640  1.0  -0.5854
  O  O355  1  0.799160  0.297640  0.396820  1.0  -0.5801
  O  O356  1  0.702360  0.501520  0.099180  1.0  -0.5806
  O  O357  1  0.318590  0.601320  0.817470  1.0  -0.5591
  O  O358  1  0.498880  0.817470  0.216150  1.0  -0.5648
  O  O359  1  0.282730  0.783850  0.601320  1.0  -0.5652
  O  O360  1  0.398680  0.182530  0.681410  1.0  -0.5644
  O  O361  1  0.603180  0.200840  0.702360  1.0  -0.5845
  O  O362  1  0.099180  0.702360  0.501520  1.0  -0.5815
  O  O363  1  0.282730  0.681410  0.498880  1.0  -0.5607
  O  O364  1  0.681410  0.398680  0.182530  1.0  -0.5595
  O  O365  1  0.900820  0.402340  0.603180  1.0  -0.5832
  O  O366  1  0.398680  0.717270  0.216150  1.0  -0.5631
  O  O367  1  0.817470  0.318590  0.601320  1.0  -0.5597
  O  O368  1  0.501520  0.799160  0.402340  1.0  -0.5823
  O  O369  1  0.182530  0.681410  0.398680  1.0  -0.5608
  O  O370  1  0.799160  0.402340  0.501520  1.0  -0.5831
  O  O371  1  0.597660  0.498480  0.200840  1.0  -0.5836
  O  O372  1  0.783850  0.601320  0.282730  1.0  -0.5632
  O  O373  1  0.297640  0.396820  0.799160  1.0  -0.5799
  O  O374  1  0.498480  0.900820  0.297640  1.0  -0.5833
  O  O375  1  0.783850  0.501120  0.182530  1.0  -0.5612
  O  O376  1  0.601320  0.817470  0.318590  1.0  -0.5654
  O  O377  1  0.681410  0.498880  0.282730  1.0  -0.5611
  O  O378  1  0.200840  0.702360  0.603180  1.0  -0.5812
  O  O379  1  0.402340  0.501520  0.799160  1.0  -0.5833
  O  O380  1  0.601320  0.282730  0.783850  1.0  -0.5635
  O  O381  1  0.318590  0.501120  0.717270  1.0  -0.5606
  O  O382  1  0.182530  0.783850  0.501120  1.0  -0.5644
  O  O383  1  0.216150  0.498880  0.817470  1.0  -0.5617
  O  O384  1  0.501520  0.099180  0.702360  1.0  -0.5826
  O  O385  1  0.498480  0.200840  0.597660  1.0  -0.5816
  O  O386  1  0.702360  0.603180  0.200840  1.0  -0.5798
  O  O387  1  0.396820  0.099180  0.597660  1.0  -0.5845
  O  O388  1  0.297640  0.498480  0.900820  1.0  -0.5809
  O  O389  1  0.498880  0.282730  0.681410  1.0  -0.5648
  O  O390  1  0.216150  0.398680  0.717270  1.0  -0.5639
  O  O391  1  0.717270  0.318590  0.501120  1.0  -0.5609
  O  O392  1  0.900820  0.297640  0.498480  1.0  -0.581
  O  O393  1  0.817470  0.216150  0.498880  1.0  -0.5627
  O  O394  1  0.200840  0.597660  0.498480  1.0  -0.5829
  O  O395  1  0.402340  0.603180  0.900820  1.0  -0.5829
  O  O396  1  0.501120  0.182530  0.783850  1.0  -0.5637
