# generated using pymatgen
data_Zn2H8C11O7
_symmetry_space_group_name_H-M   'P 1'
_cell_length_a   10.29900000
_cell_length_b   11.82400000
_cell_length_c   20.37200000
_cell_angle_alpha   90.00000000
_cell_angle_beta   90.00000000
_cell_angle_gamma   90.00000000
_symmetry_Int_Tables_number   1
_chemical_formula_structural   Zn2H8C11O7
_chemical_formula_sum   'Zn8 H32 C44 O28'
_cell_volume   2480.80795987
_cell_formula_units_Z   4
loop_
 _symmetry_equiv_pos_site_id
 _symmetry_equiv_pos_as_xyz
  1  'x, y, z'
loop_
 _atom_site_type_symbol
 _atom_site_label
 _atom_site_symmetry_multiplicity
 _atom_site_fract_x
 _atom_site_fract_y
 _atom_site_fract_z
 _atom_site_occupancy
 _atom_site_charge
  Zn  Zn1  1  0.037990  0.919880  0.008650  1.0  1.1052
  Zn  Zn2  1  0.351200  0.824530  0.007790  1.0  1.0815
  Zn  Zn3  1  0.462010  0.080120  0.508650  1.0  1.1035
  Zn  Zn4  1  0.148800  0.175470  0.507790  1.0  1.0809
  Zn  Zn5  1  0.962010  0.419880  0.491350  1.0  1.105
  Zn  Zn6  1  0.648800  0.324530  0.492210  1.0  1.081
  Zn  Zn7  1  0.537990  0.580120  0.991350  1.0  1.1042
  Zn  Zn8  1  0.851200  0.675470  0.992210  1.0  1.0794
  H  H9  1  0.258900  0.528600  0.989800  1.0  0.0737
  H  H10  1  0.344600  0.549100  0.882200  1.0  0.1176
  H  H11  1  0.190900  0.550600  0.879500  1.0  0.1252
  H  H12  1  0.269700  0.665300  0.874000  1.0  0.1267
  H  H13  1  0.046300  0.009200  0.210300  1.0  0.1009
  H  H14  1  0.406800  0.888000  0.209100  1.0  0.1061
  H  H15  1  0.425700  0.928900  0.317600  1.0  0.1149
  H  H16  1  0.068200  0.048200  0.320700  1.0  0.1163
  H  H17  1  0.241100  0.471400  0.489800  1.0  0.0725
  H  H18  1  0.155400  0.450900  0.382200  1.0  0.1178
  H  H19  1  0.309100  0.449400  0.379500  1.0  0.1257
  H  H20  1  0.230300  0.334700  0.374000  1.0  0.1253
  H  H21  1  0.453700  0.990800  0.710300  1.0  0.1004
  H  H22  1  0.093200  0.112000  0.709100  1.0  0.1064
  H  H23  1  0.074300  0.071100  0.817600  1.0  0.1148
  H  H24  1  0.431800  0.951800  0.820700  1.0  0.1168
  H  H25  1  0.741100  0.028600  0.510200  1.0  0.0729
  H  H26  1  0.655400  0.049100  0.617800  1.0  0.1184
  H  H27  1  0.809100  0.050600  0.620500  1.0  0.1255
  H  H28  1  0.730300  0.165300  0.626000  1.0  0.1264
  H  H29  1  0.953700  0.509200  0.289700  1.0  0.1006
  H  H30  1  0.593200  0.388000  0.290900  1.0  0.1063
  H  H31  1  0.574300  0.428900  0.182400  1.0  0.115
  H  H32  1  0.931800  0.548200  0.179300  1.0  0.117
  H  H33  1  0.758900  0.971400  0.010200  1.0  0.0726
  H  H34  1  0.844600  0.950900  0.117800  1.0  0.1178
  H  H35  1  0.690900  0.949400  0.120500  1.0  0.1254
  H  H36  1  0.769700  0.834700  0.126000  1.0  0.1262
  H  H37  1  0.546300  0.490800  0.789700  1.0  0.1013
  H  H38  1  0.906800  0.612000  0.790900  1.0  0.1063
  H  H39  1  0.925700  0.571100  0.682400  1.0  0.1155
  H  H40  1  0.568200  0.451800  0.679300  1.0  0.1171
  C  C41  1  0.140500  0.670000  0.986800  1.0  0.6658
  C  C42  1  0.262400  0.604300  0.969100  1.0  0.1664
  C  C43  1  0.267400  0.591100  0.894300  1.0  -0.3713
  C  C44  1  0.216800  0.933900  0.122500  1.0  0.7406
  C  C45  1  0.232100  0.962800  0.193500  1.0  -0.1147
  C  C46  1  0.127800  0.000500  0.230400  1.0  -0.069
  C  C47  1  0.340600  0.929300  0.229900  1.0  -0.0542
  C  C48  1  0.274000  0.050300  0.397400  1.0  0.6975
  C  C49  1  0.259300  0.017800  0.325900  1.0  -0.1053
  C  C50  1  0.352800  0.954600  0.294200  1.0  -0.0697
  C  C51  1  0.141100  0.025600  0.296200  1.0  -0.0678
  C  C52  1  0.359500  0.330000  0.486800  1.0  0.6672
  C  C53  1  0.237600  0.395700  0.469100  1.0  0.1638
  C  C54  1  0.232600  0.408900  0.394300  1.0  -0.3721
  C  C55  1  0.283200  0.066100  0.622500  1.0  0.7414
  C  C56  1  0.267900  0.037200  0.693500  1.0  -0.1157
  C  C57  1  0.372200  0.999500  0.730400  1.0  -0.0694
  C  C58  1  0.159400  0.070700  0.729900  1.0  -0.0531
  C  C59  1  0.226000  0.949700  0.897400  1.0  0.6984
  C  C60  1  0.240700  0.982200  0.825900  1.0  -0.1032
  C  C61  1  0.147200  0.045400  0.794200  1.0  -0.0687
  C  C62  1  0.358900  0.974400  0.796200  1.0  -0.068
  C  C63  1  0.859500  0.170000  0.513200  1.0  0.6656
  C  C64  1  0.737600  0.104300  0.530900  1.0  0.1671
  C  C65  1  0.732600  0.091100  0.605700  1.0  -0.3717
  C  C66  1  0.783200  0.433900  0.377500  1.0  0.7411
  C  C67  1  0.767900  0.462800  0.306500  1.0  -0.1172
  C  C68  1  0.872200  0.500500  0.269600  1.0  -0.0699
  C  C69  1  0.659400  0.429300  0.270100  1.0  -0.0535
  C  C70  1  0.726000  0.550300  0.102600  1.0  0.6979
  C  C71  1  0.740700  0.517800  0.174100  1.0  -0.1054
  C  C72  1  0.647200  0.454600  0.205800  1.0  -0.0685
  C  C73  1  0.858900  0.525600  0.203800  1.0  -0.0677
  C  C74  1  0.640500  0.830000  0.013200  1.0  0.6676
  C  C75  1  0.762400  0.895700  0.030900  1.0  0.1662
  C  C76  1  0.767400  0.908900  0.105700  1.0  -0.3722
  C  C77  1  0.716800  0.566100  0.877500  1.0  0.741
  C  C78  1  0.732100  0.537200  0.806500  1.0  -0.1154
  C  C79  1  0.627800  0.499500  0.769600  1.0  -0.0694
  C  C80  1  0.840600  0.570700  0.770100  1.0  -0.0544
  C  C81  1  0.774000  0.449700  0.602600  1.0  0.6993
  C  C82  1  0.759300  0.482200  0.674100  1.0  -0.105
  C  C83  1  0.852800  0.545400  0.705800  1.0  -0.0702
  C  C84  1  0.641100  0.474400  0.703800  1.0  -0.067
  O  O85  1  0.153200  0.770700  0.006090  1.0  -0.6446
  O  O86  1  0.374600  0.662000  0.991160  1.0  -0.7327
  O  O87  1  0.033700  0.620000  0.980800  1.0  -0.5901
  O  O88  1  0.110900  0.954500  0.095920  1.0  -0.6353
  O  O89  1  0.315400  0.891300  0.095000  1.0  -0.618
  O  O90  1  0.385800  0.040900  0.421690  1.0  -0.6464
  O  O91  1  0.173500  0.082500  0.427270  1.0  -0.6183
  O  O92  1  0.346800  0.229300  0.506090  1.0  -0.6445
  O  O93  1  0.125400  0.338000  0.491160  1.0  -0.7333
  O  O94  1  0.466300  0.380000  0.480800  1.0  -0.5861
  O  O95  1  0.389100  0.045500  0.595920  1.0  -0.6346
  O  O96  1  0.184600  0.108700  0.595000  1.0  -0.6189
  O  O97  1  0.114200  0.959100  0.921690  1.0  -0.6487
  O  O98  1  0.326500  0.917500  0.927270  1.0  -0.6188
  O  O99  1  0.846800  0.270700  0.493910  1.0  -0.6432
  O  O100  1  0.625400  0.162000  0.508840  1.0  -0.7334
  O  O101  1  0.966300  0.120000  0.519200  1.0  -0.5885
  O  O102  1  0.889100  0.454500  0.404080  1.0  -0.6376
  O  O103  1  0.684600  0.391300  0.405000  1.0  -0.6185
  O  O104  1  0.614200  0.540900  0.078310  1.0  -0.6468
  O  O105  1  0.826500  0.582500  0.072730  1.0  -0.6189
  O  O106  1  0.653200  0.729300  0.993910  1.0  -0.6441
  O  O107  1  0.874600  0.838000  0.008840  1.0  -0.7336
  O  O108  1  0.533700  0.880000  0.019200  1.0  -0.588
  O  O109  1  0.610900  0.545500  0.904080  1.0  -0.636
  O  O110  1  0.815400  0.608700  0.905000  1.0  -0.6177
  O  O111  1  0.885800  0.459100  0.578310  1.0  -0.6484
  O  O112  1  0.673500  0.417500  0.572730  1.0  -0.6183
