# generated using pymatgen
data_ZnH18C17N4O11
_symmetry_space_group_name_H-M   'P 1'
_cell_length_a   7.59180000
_cell_length_b   10.04520000
_cell_length_c   31.69610000
_cell_angle_alpha   87.40620000
_cell_angle_beta   83.12190000
_cell_angle_gamma   67.79770000
_symmetry_Int_Tables_number   1
_chemical_formula_structural   ZnH18C17N4O11
_chemical_formula_sum   'Zn4 H72 C68 N16 O44'
_cell_volume   2221.85396048
_cell_formula_units_Z   4
loop_
 _symmetry_equiv_pos_site_id
 _symmetry_equiv_pos_as_xyz
  1  'x, y, z'
loop_
 _atom_site_type_symbol
 _atom_site_label
 _atom_site_symmetry_multiplicity
 _atom_site_fract_x
 _atom_site_fract_y
 _atom_site_fract_z
 _atom_site_occupancy
 _atom_site_charge
  Zn  Zn1  1  0.700000  0.196790  0.531470  1.0  1.0272
  Zn  Zn2  1  0.428260  0.803210  0.468530  1.0  1.0251
  Zn  Zn3  1  0.481470  0.696790  0.968530  1.0  1.0266
  Zn  Zn4  1  0.146790  0.303210  0.031470  1.0  1.0263
  H  H5  1  0.999500  0.010600  0.089600  1.0  0.1366
  H  H6  1  0.926300  0.771600  0.405800  1.0  0.1343
  H  H7  1  0.164400  0.563600  0.151800  1.0  0.1452
  H  H8  1  0.034800  0.609200  0.089200  1.0  0.1249
  H  H9  1  0.025300  0.802400  0.244800  1.0  0.1132
  H  H10  1  0.118300  0.918000  0.235200  1.0  0.1058
  H  H11  1  0.188500  0.023600  0.309800  1.0  0.1558
  H  H12  1  0.026400  0.122200  0.374400  1.0  0.1268
  H  H13  1  0.128700  0.973400  0.152600  1.0  0.1269
  H  H14  1  0.846300  0.933200  0.040600  1.0  0.1423
  H  H15  1  0.864500  0.772600  0.040600  1.0  0.1423
  H  H16  1  0.079100  0.667000  0.341600  1.0  0.1309
  H  H17  1  0.300300  0.657000  0.279000  1.0  0.117
  H  H18  1  0.379200  0.780800  0.271800  1.0  0.1223
  H  H19  1  0.801100  0.966400  0.451000  1.0  0.1385
  H  H20  1  0.784200  0.117800  0.432400  1.0  0.1398
  H  H21  1  0.378300  0.751800  0.194400  1.0  0.1308
  H  H22  1  0.298100  0.631000  0.205800  1.0  0.1156
  H  H23  1  0.099700  0.989400  0.910400  1.0  0.1364
  H  H24  1  0.103700  0.228400  0.594200  1.0  0.1354
  H  H25  1  0.879800  0.436400  0.848200  1.0  0.1448
  H  H26  1  0.733200  0.390800  0.910800  1.0  0.1248
  H  H27  1  0.072500  0.197600  0.755200  1.0  0.1128
  H  H28  1  0.271500  0.082000  0.764800  1.0  0.1048
  H  H29  1  0.521900  0.976400  0.690200  1.0  0.1544
  H  H30  1  0.523000  0.877800  0.625600  1.0  0.1274
  H  H31  1  0.254700  0.026600  0.847400  1.0  0.1263
  H  H32  1  0.820100  0.066800  0.959400  1.0  0.1414
  H  H33  1  0.677700  0.227400  0.959400  1.0  0.1435
  H  H34  1  0.087700  0.333000  0.658400  1.0  0.131
  H  H35  1  0.236300  0.343000  0.721000  1.0  0.1182
  H  H36  1  0.431800  0.219200  0.728200  1.0  0.1217
  H  H37  1  0.218500  0.033600  0.549000  1.0  0.1396
  H  H38  1  0.334400  0.882200  0.567600  1.0  0.1397
  H  H39  1  0.324500  0.248200  0.805600  1.0  0.1307
  H  H40  1  0.134900  0.369000  0.794200  1.0  0.1153
  H  H41  1  0.339100  0.510600  0.410400  1.0  0.1365
  H  H42  1  0.582100  0.271600  0.094200  1.0  0.1344
  H  H43  1  0.566200  0.063600  0.348200  1.0  0.1442
  H  H44  1  0.374000  0.109200  0.410800  1.0  0.1248
  H  H45  1  0.520100  0.302400  0.255200  1.0  0.1124
  H  H46  1  0.603500  0.418000  0.264800  1.0  0.106
  H  H47  1  0.748300  0.523600  0.190200  1.0  0.1542
  H  H48  1  0.650800  0.622200  0.125600  1.0  0.1276
  H  H49  1  0.531300  0.473400  0.347400  1.0  0.1267
  H  H50  1  0.136900  0.433200  0.459400  1.0  0.1424
  H  H51  1  0.155100  0.272600  0.459400  1.0  0.1438
  H  H52  1  0.670700  0.167000  0.158400  1.0  0.1312
  H  H53  1  0.829300  0.157000  0.221000  1.0  0.1167
  H  H54  1  0.901000  0.280800  0.228200  1.0  0.1212
  H  H55  1  0.502100  0.466400  0.049000  1.0  0.1393
  H  H56  1  0.466600  0.617800  0.067600  1.0  0.1403
  H  H57  1  0.822700  0.251800  0.305600  1.0  0.1308
  H  H58  1  0.753900  0.131000  0.294200  1.0  0.115
  H  H59  1  0.260100  0.489400  0.589600  1.0  0.1359
  H  H60  1  0.947900  0.728400  0.905800  1.0  0.1347
  H  H61  1  0.978000  0.936400  0.651800  1.0  0.1446
  H  H62  1  0.894000  0.890800  0.589200  1.0  0.1253
  H  H63  1  0.077700  0.697600  0.744800  1.0  0.1133
  H  H64  1  0.286300  0.582000  0.735200  1.0  0.1042
  H  H65  1  0.462100  0.476400  0.809800  1.0  0.1555
  H  H66  1  0.398600  0.377800  0.874400  1.0  0.1263
  H  H67  1  0.352100  0.526600  0.652600  1.0  0.1269
  H  H68  1  0.029500  0.566800  0.540600  1.0  0.1412
  H  H69  1  0.887100  0.727400  0.540600  1.0  0.1421
  H  H70  1  0.996100  0.833000  0.841600  1.0  0.1311
  H  H71  1  0.207300  0.843000  0.779000  1.0  0.118
  H  H72  1  0.410000  0.719200  0.771800  1.0  0.1227
  H  H73  1  0.017500  0.533600  0.951000  1.0  0.1381
  H  H74  1  0.152000  0.382200  0.932400  1.0  0.1397
  H  H75  1  0.380100  0.748200  0.694400  1.0  0.1309
  H  H76  1  0.179100  0.869000  0.705800  1.0  0.1149
  C  C77  1  0.090600  0.803340  0.005060  1.0  0.7585
  C  C78  1  0.021430  0.023940  0.464800  1.0  0.7532
  C  C79  1  0.033910  0.920520  0.102460  1.0  -0.1274
  C  C80  1  0.978700  0.821800  0.386200  1.0  -0.1362
  C  C81  1  0.006650  0.813260  0.083840  1.0  0.1598
  C  C82  1  0.964250  0.954440  0.395260  1.0  0.1105
  C  C83  1  0.133060  0.654500  0.139580  1.0  0.0722
  C  C84  1  0.055330  0.682100  0.102440  1.0  -0.1095
  C  C85  1  0.145780  0.816100  0.239340  1.0  -0.0837
  C  C86  1  0.135750  0.971680  0.328820  1.0  0.0667
  C  C87  1  0.039580  0.029800  0.367440  1.0  -0.102
  C  C88  1  0.111840  0.897720  0.140000  1.0  0.055
  C  C89  1  0.935190  0.834420  0.042600  1.0  -0.2992
  C  C90  1  0.071790  0.758780  0.347640  1.0  0.0729
  C  C91  1  0.263200  0.760520  0.276880  1.0  -0.0305
  C  C92  1  0.873180  0.020500  0.436740  1.0  -0.2741
  C  C93  1  0.261430  0.732840  0.199700  1.0  -0.0017
  C  C94  1  0.899000  0.196660  0.994940  1.0  0.7594
  C  C95  1  0.510170  0.976060  0.535200  1.0  0.7524
  C  C96  1  0.056890  0.079480  0.897540  1.0  -0.1268
  C  C97  1  0.186700  0.178200  0.613800  1.0  -0.137
  C  C98  1  0.903750  0.186740  0.916160  1.0  0.1608
  C  C99  1  0.313950  0.045560  0.604740  1.0  0.1102
  C  C100  1  0.927140  0.345500  0.860420  1.0  0.0709
  C  C101  1  0.839870  0.317900  0.897560  1.0  -0.1087
  C  C102  1  0.201220  0.183900  0.760660  1.0  -0.0837
  C  C103  1  0.436250  0.028320  0.671180  1.0  0.0668
  C  C104  1  0.436820  0.970200  0.632560  1.0  -0.1005
  C  C105  1  0.149560  0.102280  0.860000  1.0  0.0547
  C  C106  1  0.812210  0.165580  0.957400  1.0  -0.3008
  C  C107  1  0.178210  0.241220  0.652360  1.0  0.073
  C  C108  1  0.300600  0.239480  0.723120  1.0  -0.0272
  C  C109  1  0.330420  0.979500  0.563260  1.0  -0.273
  C  C110  1  0.193970  0.267160  0.800300  1.0  -0.0025
  C  C111  1  0.345660  0.303340  0.494940  1.0  0.7591
  C  C112  1  0.736230  0.523940  0.035200  1.0  0.7524
  C  C113  1  0.386370  0.420520  0.397540  1.0  -0.1281
  C  C114  1  0.614900  0.321800  0.113800  1.0  -0.1365
  C  C115  1  0.340490  0.313260  0.416160  1.0  0.1603
  C  C116  1  0.609510  0.454440  0.104740  1.0  0.1108
  C  C117  1  0.522640  0.154500  0.360420  1.0  0.0701
  C  C118  1  0.407770  0.182100  0.397560  1.0  -0.1088
  C  C119  1  0.635120  0.316100  0.260660  1.0  -0.0837
  C  C120  1  0.714570  0.471680  0.171180  1.0  0.0665
  C  C121  1  0.657020  0.529800  0.132560  1.0  -0.1016
  C  C122  1  0.501840  0.397720  0.360000  1.0  0.0551
  C  C123  1  0.227790  0.334420  0.457400  1.0  -0.3015
  C  C124  1  0.669430  0.258780  0.152360  1.0  0.072
  C  C125  1  0.790080  0.260520  0.223120  1.0  -0.028
  C  C126  1  0.559920  0.520500  0.063260  1.0  -0.2727
  C  C127  1  0.711130  0.232840  0.300300  1.0  -0.0036
  C  C128  1  0.143940  0.696660  0.505060  1.0  0.7585
  C  C129  1  0.295370  0.476060  0.964800  1.0  0.7533
  C  C130  1  0.204430  0.579480  0.602460  1.0  -0.1266
  C  C131  1  0.050500  0.678200  0.886200  1.0  -0.1376
  C  C132  1  0.069910  0.686740  0.583840  1.0  0.1603
  C  C133  1  0.168690  0.545560  0.895260  1.0  0.1098
  C  C134  1  0.037560  0.845500  0.639580  1.0  0.0729
  C  C135  1  0.987430  0.817900  0.602440  1.0  -0.1092
  C  C136  1  0.211880  0.683900  0.739340  1.0  -0.0836
  C  C137  1  0.357430  0.528320  0.828820  1.0  0.068
  C  C138  1  0.319380  0.470200  0.867440  1.0  -0.1006
  C  C139  1  0.259560  0.602280  0.640000  1.0  0.0544
  C  C140  1  0.019610  0.665580  0.542600  1.0  -0.2987
  C  C141  1  0.080570  0.741220  0.847640  1.0  0.0741
  C  C142  1  0.273720  0.739480  0.776880  1.0  -0.03
  C  C143  1  0.143680  0.479500  0.936740  1.0  -0.2747
  C  C144  1  0.244270  0.767160  0.699700  1.0  -0.0012
  N  N145  1  0.166990  0.763640  0.160180  1.0  -0.1705
  N  N146  1  0.152770  0.828620  0.318440  1.0  -0.1218
  N  N147  1  0.692220  0.221060  0.616100  1.0  0.7135
  N  N148  1  0.090810  0.236360  0.839820  1.0  -0.1714
  N  N149  1  0.299830  0.171380  0.681560  1.0  -0.1219
  N  N150  1  0.529380  0.778940  0.383900  1.0  0.7139
  N  N151  1  0.577170  0.263640  0.339820  1.0  -0.1711
  N  N152  1  0.721210  0.328620  0.181560  1.0  -0.1216
  N  N153  1  0.558320  0.721060  0.883900  1.0  0.7146
  N  N154  1  0.180630  0.736360  0.660180  1.0  -0.1709
  N  N155  1  0.231390  0.671380  0.818440  1.0  -0.1223
  N  N156  1  0.163280  0.278940  0.116100  1.0  0.7128
  N  N157  1  0.919650  0.412840  0.386660  1.0  0.7943
  N  N158  1  0.719150  0.587160  0.613340  1.0  0.7931
  N  N159  1  0.556310  0.912840  0.113340  1.0  0.7916
  N  N160  1  0.582490  0.087160  0.886660  1.0  0.7922
  O  O161  1  0.958640  0.077920  0.500960  1.0  -0.5673
  O  O162  1  0.193700  0.975580  0.449840  1.0  -0.5821
  O  O163  1  0.261180  0.765540  0.012900  1.0  -0.5525
  O  O164  1  0.833040  0.143080  0.592240  1.0  -0.6017
  O  O165  1  0.035250  0.818260  0.969440  1.0  -0.5199
  O  O166  1  0.547070  0.295980  0.598280  1.0  -0.6351
  O  O167  1  0.784820  0.375460  0.528300  1.0  -0.2701
  O  O168  1  0.699740  0.218500  0.654020  1.0  -0.3654
  O  O169  1  0.537520  0.922080  0.499040  1.0  -0.5676
  O  O170  1  0.619120  0.024420  0.550160  1.0  -0.5822
  O  O171  1  0.039620  0.234460  0.987100  1.0  -0.551
  O  O172  1  0.568360  0.856920  0.407760  1.0  -0.602
  O  O173  1  0.822950  0.181740  0.030560  1.0  -0.5196
  O  O174  1  0.441330  0.704020  0.401720  1.0  -0.6345
  O  O175  1  0.688580  0.624540  0.471700  1.0  -0.2697
  O  O176  1  0.572260  0.781500  0.345980  1.0  -0.367
  O  O177  1  0.709600  0.577920  0.999040  1.0  -0.5672
  O  O178  1  0.893540  0.475580  0.050160  1.0  -0.5822
  O  O179  1  0.524080  0.265540  0.487100  1.0  -0.5511
  O  O180  1  0.675280  0.643080  0.907760  1.0  -0.6021
  O  O181  1  0.254690  0.318260  0.530560  1.0  -0.5198
  O  O182  1  0.395350  0.795980  0.901720  1.0  -0.6344
  O  O183  1  0.563120  0.875460  0.971700  1.0  -0.2706
  O  O184  1  0.603760  0.718500  0.845980  1.0  -0.3673
  O  O185  1  0.286560  0.422080  0.000960  1.0  -0.5676
  O  O186  1  0.419280  0.524420  0.949840  1.0  -0.582
  O  O187  1  0.276720  0.734460  0.512900  1.0  -0.5524
  O  O188  1  0.226120  0.356920  0.092240  1.0  -0.6021
  O  O189  1  0.103510  0.681740  0.469440  1.0  -0.5203
  O  O190  1  0.093050  0.204020  0.098280  1.0  -0.6353
  O  O191  1  0.410280  0.124540  0.028300  1.0  -0.2695
  O  O192  1  0.168240  0.281500  0.154020  1.0  -0.3651
  O  O193  1  0.009040  0.350060  0.353660  1.0  -0.4105
  O  O194  1  0.861380  0.347280  0.415760  1.0  -0.4371
  O  O195  1  0.897260  0.541340  0.392340  1.0  -0.5339
  O  O196  1  0.712760  0.649940  0.646340  1.0  -0.408
  O  O197  1  0.624420  0.652720  0.584240  1.0  -0.4372
  O  O198  1  0.830940  0.458660  0.607660  1.0  -0.5322
  O  O199  1  0.612700  0.850060  0.146340  1.0  -0.4091
  O  O200  1  0.527140  0.847280  0.084240  1.0  -0.4356
  O  O201  1  0.539600  0.041340  0.107660  1.0  -0.5339
  O  O202  1  0.609100  0.149940  0.853660  1.0  -0.4098
  O  O203  1  0.458660  0.152720  0.915760  1.0  -0.4376
  O  O204  1  0.688600  0.958660  0.892340  1.0  -0.5321
