# generated using pymatgen
data_Cd3H62C72S2(N8O7)2
_symmetry_space_group_name_H-M   'P 1'
_cell_length_a   10.08000000
_cell_length_b   13.06300000
_cell_length_c   17.81500000
_cell_angle_alpha   79.02900000
_cell_angle_beta   86.32500000
_cell_angle_gamma   78.21100000
_symmetry_Int_Tables_number   1
_chemical_formula_structural   Cd3H62C72S2(N8O7)2
_chemical_formula_sum   'Cd3 H62 C72 S2 N16 O14'
_cell_volume   2253.56592217
_cell_formula_units_Z   1
loop_
 _symmetry_equiv_pos_site_id
 _symmetry_equiv_pos_as_xyz
  1  'x, y, z'
loop_
 _atom_site_type_symbol
 _atom_site_label
 _atom_site_symmetry_multiplicity
 _atom_site_fract_x
 _atom_site_fract_y
 _atom_site_fract_z
 _atom_site_occupancy
 _atom_site_charge
  Cd  Cd1  1  0.957090  0.903440  0.800990  1.0  0.9494
  Cd  Cd2  1  0.042910  0.096560  0.199010  1.0  0.951
  Cd  Cd3  1  0.500000  0.500000  0.500000  1.0  0.9694
  H  H4  1  0.593200  0.187600  0.696200  1.0  0.112
  H  H5  1  0.470800  0.917700  0.789600  1.0  0.0954
  H  H6  1  0.196700  0.177100  0.704800  1.0  0.0904
  H  H7  1  0.213100  0.735500  0.723200  1.0  0.0959
  H  H8  1  0.186200  0.578600  0.671500  1.0  0.1345
  H  H9  1  0.829000  0.718900  0.743400  1.0  0.0829
  H  H10  1  0.824300  0.581500  0.659500  1.0  0.0925
  H  H11  1  0.964200  0.527500  0.627500  1.0  0.1032
  H  H12  1  0.072600  0.450800  0.796000  1.0  0.1029
  H  H13  1  0.060600  0.296100  0.882000  1.0  0.098
  H  H14  1  0.739300  0.261800  0.772100  1.0  0.1069
  H  H15  1  0.756400  0.414700  0.684500  1.0  0.1018
  H  H16  1  0.891800  0.107000  0.866100  1.0  0.1121
  H  H17  1  0.784800  0.176300  0.913000  1.0  0.1152
  H  H18  1  0.153800  0.099400  0.909900  1.0  0.1206
  H  H19  1  0.237700  0.070000  0.037700  1.0  0.1003
  H  H20  1  0.849500  0.168700  0.048500  1.0  0.0982
  H  H21  1  0.406800  0.812400  0.303800  1.0  0.1114
  H  H22  1  0.529200  0.082300  0.210400  1.0  0.0954
  H  H23  1  0.803300  0.822900  0.295200  1.0  0.0911
  H  H24  1  0.786900  0.264500  0.276800  1.0  0.0954
  H  H25  1  0.813800  0.421400  0.328500  1.0  0.135
  H  H26  1  0.171000  0.281100  0.256600  1.0  0.0823
  H  H27  1  0.175700  0.418500  0.340500  1.0  0.0935
  H  H28  1  0.035800  0.472500  0.372500  1.0  0.1024
  H  H29  1  0.927400  0.549200  0.204000  1.0  0.1034
  H  H30  1  0.939400  0.703900  0.118000  1.0  0.0971
  H  H31  1  0.260700  0.738200  0.227900  1.0  0.1076
  H  H32  1  0.243600  0.585300  0.315500  1.0  0.1017
  H  H33  1  0.108200  0.893000  0.133900  1.0  0.1125
  H  H34  1  0.215200  0.823700  0.087000  1.0  0.1132
  H  H35  1  0.846200  0.900600  0.090100  1.0  0.1179
  H  H36  1  0.762300  0.930000  0.962300  1.0  0.1006
  H  H37  1  0.150500  0.831300  0.951500  1.0  0.0979
  H  H38  1  0.851400  0.499500  0.480200  1.0  0.0882
  H  H39  1  0.033200  0.351000  0.535000  1.0  0.1387
  H  H40  1  0.682800  0.257300  0.559500  1.0  0.0944
  H  H41  1  0.030300  0.166500  0.615900  1.0  0.1193
  H  H42  1  0.889400  0.136200  0.640500  1.0  0.1125
  H  H43  1  0.026700  0.955200  0.629000  1.0  0.0973
  H  H44  1  0.926200  0.174100  0.445900  1.0  0.0818
  H  H45  1  0.631400  0.707300  0.514200  1.0  0.0965
  H  H46  1  0.523500  0.697400  0.732200  1.0  0.1445
  H  H47  1  0.465400  0.542700  0.686900  1.0  0.1084
  H  H48  1  0.737800  0.827000  0.604500  1.0  0.0935
  H  H49  1  0.628300  0.861200  0.666500  1.0  0.0966
  H  H50  1  0.376700  0.909500  0.591400  1.0  0.0979
  H  H51  1  0.731500  0.964100  0.501800  1.0  0.085
  H  H52  1  0.148600  0.500500  0.519800  1.0  0.0879
  H  H53  1  0.966800  0.649000  0.465000  1.0  0.1405
  H  H54  1  0.317200  0.742700  0.440500  1.0  0.0942
  H  H55  1  0.969700  0.833500  0.384100  1.0  0.1189
  H  H56  1  0.110600  0.863800  0.359500  1.0  0.1122
  H  H57  1  0.973300  0.044800  0.371000  1.0  0.0981
  H  H58  1  0.073800  0.825900  0.554100  1.0  0.0814
  H  H59  1  0.368600  0.292700  0.485800  1.0  0.0968
  H  H60  1  0.476500  0.302600  0.267800  1.0  0.1446
  H  H61  1  0.534600  0.457300  0.313100  1.0  0.1081
  H  H62  1  0.262200  0.173000  0.395500  1.0  0.0934
  H  H63  1  0.371700  0.138800  0.333500  1.0  0.0984
  H  H64  1  0.623300  0.090500  0.408600  1.0  0.0978
  H  H65  1  0.268500  0.035900  0.498200  1.0  0.0859
  C  C66  1  0.387100  0.198700  0.695810  1.0  -0.2542
  C  C67  1  0.523800  0.150200  0.710800  1.0  -0.0092
  C  C68  1  0.551200  0.045100  0.748010  1.0  -0.1657
  C  C69  1  0.694500  0.989900  0.768170  1.0  0.6527
  C  C70  1  0.448900  0.988900  0.766580  1.0  -0.0174
  C  C71  1  0.312200  0.035400  0.751970  1.0  -0.1598
  C  C72  1  0.204600  0.975500  0.772110  1.0  0.6565
  C  C73  1  0.285700  0.143200  0.715560  1.0  0.0113
  C  C74  1  0.132200  0.712400  0.721340  1.0  0.0324
  C  C75  1  0.118300  0.626000  0.691870  1.0  -0.1537
  C  C76  1  0.921500  0.703600  0.732100  1.0  0.1588
  C  C77  1  0.916500  0.547340  0.673210  1.0  -0.0694
  C  C78  1  0.915700  0.447540  0.731780  1.0  0.0397
  C  C79  1  0.006100  0.412580  0.791280  1.0  -0.1109
  C  C80  1  0.997100  0.320600  0.843700  1.0  -0.0978
  C  C81  1  0.896000  0.265000  0.840100  1.0  0.0371
  C  C82  1  0.805300  0.300100  0.777400  1.0  -0.126
  C  C83  1  0.816100  0.391400  0.724700  1.0  -0.127
  C  C84  1  0.877300  0.166600  0.892900  1.0  -0.0598
  C  C85  1  0.101800  0.109800  0.953790  1.0  -0.1439
  C  C86  1  0.147600  0.094900  0.024370  1.0  0.0108
  C  C87  1  0.937500  0.148000  0.030110  1.0  0.1213
  C  C88  1  0.612900  0.801300  0.304190  1.0  -0.2535
  C  C89  1  0.476200  0.849800  0.289200  1.0  -0.0098
  C  C90  1  0.448800  0.954900  0.251990  1.0  -0.1657
  C  C91  1  0.305500  0.010100  0.231830  1.0  0.6493
  C  C92  1  0.551100  0.011100  0.233420  1.0  -0.0181
  C  C93  1  0.687800  0.964600  0.248030  1.0  -0.1622
  C  C94  1  0.795400  0.024500  0.227890  1.0  0.6568
  C  C95  1  0.714300  0.856800  0.284440  1.0  0.0107
  C  C96  1  0.867800  0.287600  0.278660  1.0  0.0311
  C  C97  1  0.881700  0.374000  0.308130  1.0  -0.153
  C  C98  1  0.078500  0.296400  0.267900  1.0  0.1579
  C  C99  1  0.083500  0.452660  0.326790  1.0  -0.0731
  C  C100  1  0.084300  0.552460  0.268220  1.0  0.0431
  C  C101  1  0.993900  0.587420  0.208720  1.0  -0.1085
  C  C102  1  0.002900  0.679400  0.156300  1.0  -0.1018
  C  C103  1  0.104000  0.735000  0.159900  1.0  0.0374
  C  C104  1  0.194700  0.699900  0.222600  1.0  -0.1236
  C  C105  1  0.183900  0.608600  0.275300  1.0  -0.1281
  C  C106  1  0.122700  0.833400  0.107100  1.0  -0.06
  C  C107  1  0.898200  0.890200  0.046210  1.0  -0.1464
  C  C108  1  0.852400  0.905100  0.975630  1.0  0.0076
  C  C109  1  0.062500  0.852000  0.969890  1.0  0.1218
  C  C110  1  0.839000  0.431800  0.502980  1.0  0.0412
  C  C111  1  0.941500  0.349900  0.533160  1.0  -0.1835
  C  C112  1  0.747800  0.299400  0.546200  1.0  0.172
  C  C113  1  0.944600  0.160900  0.596830  1.0  -0.093
  C  C114  1  0.971300  0.078600  0.544890  1.0  0.037
  C  C115  1  0.015500  0.974300  0.576440  1.0  -0.1035
  C  C116  1  0.956200  0.103500  0.468690  1.0  -0.1311
  C  C117  1  0.596400  0.685400  0.562890  1.0  0.1363
  C  C118  1  0.537900  0.681900  0.683120  1.0  -0.1639
  C  C119  1  0.506000  0.595200  0.657330  1.0  0.0397
  C  C120  1  0.641600  0.838200  0.617420  1.0  -0.0607
  C  C121  1  0.567400  0.921300  0.558490  1.0  0.0409
  C  C122  1  0.427700  0.945500  0.554030  1.0  -0.1119
  C  C123  1  0.637300  0.977800  0.501270  1.0  -0.1148
  C  C124  1  0.161000  0.568200  0.497020  1.0  0.0411
  C  C125  1  0.058500  0.650100  0.466840  1.0  -0.1832
  C  C126  1  0.252200  0.700600  0.453800  1.0  0.1682
  C  C127  1  0.055400  0.839100  0.403170  1.0  -0.0918
  C  C128  1  0.028700  0.921400  0.455110  1.0  0.0374
  C  C129  1  0.984500  0.025700  0.423560  1.0  -0.1023
  C  C130  1  0.043800  0.896500  0.531310  1.0  -0.1319
  C  C131  1  0.403600  0.314600  0.437110  1.0  0.1363
  C  C132  1  0.462100  0.318100  0.316880  1.0  -0.1651
  C  C133  1  0.494000  0.404800  0.342670  1.0  0.0403
  C  C134  1  0.358400  0.161800  0.382580  1.0  -0.0605
  C  C135  1  0.432600  0.078700  0.441510  1.0  0.041
  C  C136  1  0.572300  0.054500  0.445970  1.0  -0.1124
  C  C137  1  0.362700  0.022200  0.498730  1.0  -0.1178
  S  S138  1  0.344970  0.334150  0.650770  1.0  1.4053
  S  S139  1  0.655030  0.665850  0.349230  1.0  1.4026
  N  N140  1  0.006500  0.760200  0.748170  1.0  -0.4185
  N  N141  1  0.978500  0.624480  0.698980  1.0  0.0547
  N  N142  1  0.968200  0.142400  0.957750  1.0  0.0769
  N  N143  1  0.044800  0.121100  0.073550  1.0  -0.3995
  N  N144  1  0.993500  0.239800  0.251830  1.0  -0.4195
  N  N145  1  0.021500  0.375520  0.301020  1.0  0.056
  N  N146  1  0.031800  0.857600  0.042250  1.0  0.0776
  N  N147  1  0.955200  0.878900  0.926450  1.0  -0.4003
  N  N148  1  0.719500  0.401200  0.510750  1.0  -0.4183
  N  N149  1  0.877100  0.265610  0.560040  1.0  0.0635
  N  N150  1  0.543300  0.599900  0.583510  1.0  -0.353
  N  N151  1  0.593300  0.737600  0.622850  1.0  0.0469
  N  N152  1  0.280500  0.598800  0.489250  1.0  -0.4176
  N  N153  1  0.122900  0.734390  0.439960  1.0  0.063
  N  N154  1  0.456700  0.400100  0.416490  1.0  -0.3543
  N  N155  1  0.406700  0.262400  0.377150  1.0  0.047
  O  O156  1  0.457900  0.356690  0.600610  1.0  -0.7099
  O  O157  1  0.325100  0.393090  0.709820  1.0  -0.6323
  O  O158  1  0.227700  0.340370  0.608880  1.0  -0.6535
  O  O159  1  0.787300  0.042220  0.752570  1.0  -0.5999
  O  O160  1  0.718500  0.895470  0.796580  1.0  -0.6219
  O  O161  1  0.231300  0.881820  0.805440  1.0  -0.6064
  O  O162  1  0.084200  0.022370  0.757460  1.0  -0.6053
  O  O163  1  0.542100  0.643310  0.399390  1.0  -0.709
  O  O164  1  0.674900  0.606910  0.290180  1.0  -0.6393
  O  O165  1  0.772300  0.659630  0.391120  1.0  -0.6546
  O  O166  1  0.212700  0.957780  0.247430  1.0  -0.6006
  O  O167  1  0.281500  0.104530  0.203420  1.0  -0.6187
  O  O168  1  0.768700  0.118180  0.194560  1.0  -0.6004
  O  O169  1  0.915800  0.977630  0.242540  1.0  -0.606
