# generated using pymatgen
data_ZnH10(C2N)4
_symmetry_space_group_name_H-M   'P 1'
_cell_length_a   17.08600000
_cell_length_b   17.08600000
_cell_length_c   17.08600000
_cell_angle_alpha   90.00000000
_cell_angle_beta   90.00000000
_cell_angle_gamma   90.00000000
_symmetry_Int_Tables_number   1
_chemical_formula_structural   ZnH10(C2N)4
_chemical_formula_sum   'Zn12 H120 C96 N48'
_cell_volume   4987.93983206
_cell_formula_units_Z   12
loop_
 _symmetry_equiv_pos_site_id
 _symmetry_equiv_pos_as_xyz
  1  'x, y, z'
loop_
 _atom_site_type_symbol
 _atom_site_label
 _atom_site_symmetry_multiplicity
 _atom_site_fract_x
 _atom_site_fract_y
 _atom_site_fract_z
 _atom_site_occupancy
 _atom_site_charge
  Zn  Zn1  1  0.000000  0.750000  0.500000  1.0  0.7702
  Zn  Zn2  1  0.000000  0.250000  0.500000  1.0  0.7702
  Zn  Zn3  1  0.500000  0.000000  0.750000  1.0  0.7702
  Zn  Zn4  1  0.500000  0.000000  0.250000  1.0  0.7702
  Zn  Zn5  1  0.750000  0.500000  0.000000  1.0  0.7702
  Zn  Zn6  1  0.250000  0.500000  0.000000  1.0  0.7702
  Zn  Zn7  1  0.750000  0.000000  0.500000  1.0  0.7702
  Zn  Zn8  1  0.250000  0.000000  0.500000  1.0  0.7702
  Zn  Zn9  1  0.000000  0.500000  0.750000  1.0  0.7702
  Zn  Zn10  1  0.000000  0.500000  0.250000  1.0  0.7702
  Zn  Zn11  1  0.500000  0.750000  0.000000  1.0  0.7702
  Zn  Zn12  1  0.500000  0.250000  0.000000  1.0  0.7702
  H  H13  1  0.139600  0.725600  0.376900  1.0  0.0944
  H  H14  1  0.910400  0.603200  0.463000  1.0  0.1308
  H  H15  1  0.639600  0.225600  0.876900  1.0  0.0944
  H  H16  1  0.410400  0.103200  0.963000  1.0  0.1308
  H  H17  1  0.860400  0.274400  0.376900  1.0  0.095
  H  H18  1  0.089600  0.396800  0.463000  1.0  0.1309
  H  H19  1  0.360400  0.774400  0.876900  1.0  0.095
  H  H20  1  0.589600  0.896800  0.963000  1.0  0.1309
  H  H21  1  0.860400  0.725600  0.623100  1.0  0.0947
  H  H22  1  0.089600  0.603200  0.537000  1.0  0.1311
  H  H23  1  0.360400  0.225600  0.123100  1.0  0.0947
  H  H24  1  0.589600  0.103200  0.037000  1.0  0.1311
  H  H25  1  0.139600  0.274400  0.623100  1.0  0.0949
  H  H26  1  0.910400  0.396800  0.537000  1.0  0.1315
  H  H27  1  0.639600  0.774400  0.123100  1.0  0.0949
  H  H28  1  0.410400  0.896800  0.037000  1.0  0.1315
  H  H29  1  0.376900  0.139600  0.725600  1.0  0.0947
  H  H30  1  0.463000  0.910400  0.603200  1.0  0.1288
  H  H31  1  0.876900  0.639600  0.225600  1.0  0.0947
  H  H32  1  0.963000  0.410400  0.103200  1.0  0.1288
  H  H33  1  0.376900  0.860400  0.274400  1.0  0.095
  H  H34  1  0.463000  0.089600  0.396800  1.0  0.1291
  H  H35  1  0.876900  0.360400  0.774400  1.0  0.095
  H  H36  1  0.963000  0.589600  0.896800  1.0  0.1291
  H  H37  1  0.623100  0.860400  0.725600  1.0  0.095
  H  H38  1  0.537000  0.089600  0.603200  1.0  0.1307
  H  H39  1  0.123100  0.360400  0.225600  1.0  0.095
  H  H40  1  0.037000  0.589600  0.103200  1.0  0.1307
  H  H41  1  0.623100  0.139600  0.274400  1.0  0.0945
  H  H42  1  0.537000  0.910400  0.396800  1.0  0.1307
  H  H43  1  0.123100  0.639600  0.774400  1.0  0.0945
  H  H44  1  0.037000  0.410400  0.896800  1.0  0.1307
  H  H45  1  0.725600  0.376900  0.139600  1.0  0.0946
  H  H46  1  0.603200  0.463000  0.910400  1.0  0.1316
  H  H47  1  0.225600  0.876900  0.639600  1.0  0.0946
  H  H48  1  0.103200  0.963000  0.410400  1.0  0.1316
  H  H49  1  0.274400  0.376900  0.860400  1.0  0.0946
  H  H50  1  0.396800  0.463000  0.089600  1.0  0.1315
  H  H51  1  0.774400  0.876900  0.360400  1.0  0.0946
  H  H52  1  0.896800  0.963000  0.589600  1.0  0.1315
  H  H53  1  0.725600  0.623100  0.860400  1.0  0.0942
  H  H54  1  0.603200  0.537000  0.089600  1.0  0.131
  H  H55  1  0.225600  0.123100  0.360400  1.0  0.0942
  H  H56  1  0.103200  0.037000  0.589600  1.0  0.131
  H  H57  1  0.274400  0.623100  0.139600  1.0  0.0945
  H  H58  1  0.396800  0.537000  0.910400  1.0  0.1304
  H  H59  1  0.774400  0.123100  0.639600  1.0  0.0945
  H  H60  1  0.896800  0.037000  0.410400  1.0  0.1304
  H  H61  1  0.725600  0.139600  0.376900  1.0  0.0955
  H  H62  1  0.603200  0.910400  0.463000  1.0  0.1306
  H  H63  1  0.225600  0.639600  0.876900  1.0  0.0955
  H  H64  1  0.103200  0.410400  0.963000  1.0  0.1306
  H  H65  1  0.274400  0.860400  0.376900  1.0  0.0963
  H  H66  1  0.396800  0.089600  0.463000  1.0  0.1307
  H  H67  1  0.774400  0.360400  0.876900  1.0  0.0963
  H  H68  1  0.896800  0.589600  0.963000  1.0  0.1307
  H  H69  1  0.725600  0.860400  0.623100  1.0  0.096
  H  H70  1  0.603200  0.089600  0.537000  1.0  0.1307
  H  H71  1  0.225600  0.360400  0.123100  1.0  0.096
  H  H72  1  0.103200  0.589600  0.037000  1.0  0.1307
  H  H73  1  0.274400  0.139600  0.623100  1.0  0.0957
  H  H74  1  0.396800  0.910400  0.537000  1.0  0.1309
  H  H75  1  0.774400  0.639600  0.123100  1.0  0.0957
  H  H76  1  0.896800  0.410400  0.037000  1.0  0.1309
  H  H77  1  0.139600  0.376900  0.725600  1.0  0.0946
  H  H78  1  0.910400  0.463000  0.603200  1.0  0.1317
  H  H79  1  0.639600  0.876900  0.225600  1.0  0.0946
  H  H80  1  0.410400  0.963000  0.103200  1.0  0.1317
  H  H81  1  0.860400  0.376900  0.274400  1.0  0.0947
  H  H82  1  0.089600  0.463000  0.396800  1.0  0.1315
  H  H83  1  0.360400  0.876900  0.774400  1.0  0.0947
  H  H84  1  0.589600  0.963000  0.896800  1.0  0.1315
  H  H85  1  0.860400  0.623100  0.725600  1.0  0.0946
  H  H86  1  0.089600  0.537000  0.603200  1.0  0.1315
  H  H87  1  0.360400  0.123100  0.225600  1.0  0.0946
  H  H88  1  0.589600  0.037000  0.103200  1.0  0.1315
  H  H89  1  0.139600  0.623100  0.274400  1.0  0.0946
  H  H90  1  0.910400  0.537000  0.396800  1.0  0.1303
  H  H91  1  0.639600  0.123100  0.774400  1.0  0.0946
  H  H92  1  0.410400  0.037000  0.896800  1.0  0.1303
  H  H93  1  0.376900  0.725600  0.139600  1.0  0.0945
  H  H94  1  0.463000  0.603200  0.910400  1.0  0.1293
  H  H95  1  0.876900  0.225600  0.639600  1.0  0.0945
  H  H96  1  0.963000  0.103200  0.410400  1.0  0.1293
  H  H97  1  0.376900  0.274400  0.860400  1.0  0.0945
  H  H98  1  0.463000  0.396800  0.089600  1.0  0.1287
  H  H99  1  0.876900  0.774400  0.360400  1.0  0.0945
  H  H100  1  0.963000  0.896800  0.589600  1.0  0.1287
  H  H101  1  0.623100  0.725600  0.860400  1.0  0.0939
  H  H102  1  0.537000  0.603200  0.089600  1.0  0.1305
  H  H103  1  0.123100  0.225600  0.360400  1.0  0.0939
  H  H104  1  0.037000  0.103200  0.589600  1.0  0.1305
  H  H105  1  0.623100  0.274400  0.139600  1.0  0.0942
  H  H106  1  0.537000  0.396800  0.910400  1.0  0.1302
  H  H107  1  0.123100  0.774400  0.639600  1.0  0.0942
  H  H108  1  0.037000  0.896800  0.410400  1.0  0.1302
  H  H109  1  0.871900  0.620600  0.379400  1.0  0.1193
  H  H110  1  0.371900  0.120600  0.879400  1.0  0.1193
  H  H111  1  0.128100  0.379400  0.379400  1.0  0.1189
  H  H112  1  0.628100  0.879400  0.879400  1.0  0.1189
  H  H113  1  0.128100  0.620600  0.620600  1.0  0.1184
  H  H114  1  0.628100  0.120600  0.120600  1.0  0.1184
  H  H115  1  0.871900  0.379400  0.620600  1.0  0.1193
  H  H116  1  0.371900  0.879400  0.120600  1.0  0.1193
  H  H117  1  0.379400  0.871900  0.620600  1.0  0.1201
  H  H118  1  0.879400  0.371900  0.120600  1.0  0.1201
  H  H119  1  0.379400  0.128100  0.379400  1.0  0.1201
  H  H120  1  0.879400  0.628100  0.879400  1.0  0.1201
  H  H121  1  0.620600  0.128100  0.620600  1.0  0.1185
  H  H122  1  0.120600  0.628100  0.120600  1.0  0.1185
  H  H123  1  0.620600  0.871900  0.379400  1.0  0.1193
  H  H124  1  0.120600  0.371900  0.879400  1.0  0.1193
  H  H125  1  0.620600  0.379400  0.871900  1.0  0.1184
  H  H126  1  0.120600  0.879400  0.371900  1.0  0.1184
  H  H127  1  0.379400  0.379400  0.128100  1.0  0.1203
  H  H128  1  0.879400  0.879400  0.628100  1.0  0.1203
  H  H129  1  0.620600  0.620600  0.128100  1.0  0.1196
  H  H130  1  0.120600  0.120600  0.628100  1.0  0.1196
  H  H131  1  0.379400  0.620600  0.871900  1.0  0.1192
  H  H132  1  0.879400  0.120600  0.371900  1.0  0.1192
  C  C133  1  0.099080  0.688700  0.367820  1.0  -0.0384
  C  C134  1  0.599080  0.188700  0.867820  1.0  -0.0384
  C  C135  1  0.900920  0.311300  0.367820  1.0  -0.0384
  C  C136  1  0.400920  0.811300  0.867820  1.0  -0.0384
  C  C137  1  0.900920  0.688700  0.632180  1.0  -0.0394
  C  C138  1  0.400920  0.188700  0.132180  1.0  -0.0394
  C  C139  1  0.099080  0.311300  0.632180  1.0  -0.0382
  C  C140  1  0.599080  0.811300  0.132180  1.0  -0.0382
  C  C141  1  0.367820  0.099080  0.688700  1.0  -0.0395
  C  C142  1  0.867820  0.599080  0.188700  1.0  -0.0395
  C  C143  1  0.367820  0.900920  0.311300  1.0  -0.0399
  C  C144  1  0.867820  0.400920  0.811300  1.0  -0.0399
  C  C145  1  0.632180  0.900920  0.688700  1.0  -0.0395
  C  C146  1  0.132180  0.400920  0.188700  1.0  -0.0395
  C  C147  1  0.632180  0.099080  0.311300  1.0  -0.0393
  C  C148  1  0.132180  0.599080  0.811300  1.0  -0.0393
  C  C149  1  0.688700  0.367820  0.099080  1.0  -0.0392
  C  C150  1  0.188700  0.867820  0.599080  1.0  -0.0392
  C  C151  1  0.311300  0.367820  0.900920  1.0  -0.0392
  C  C152  1  0.811300  0.867820  0.400920  1.0  -0.0392
  C  C153  1  0.688700  0.632180  0.900920  1.0  -0.0393
  C  C154  1  0.188700  0.132180  0.400920  1.0  -0.0393
  C  C155  1  0.311300  0.632180  0.099080  1.0  -0.0405
  C  C156  1  0.811300  0.132180  0.599080  1.0  -0.0405
  C  C157  1  0.688700  0.099080  0.367820  1.0  -0.0401
  C  C158  1  0.188700  0.599080  0.867820  1.0  -0.0401
  C  C159  1  0.311300  0.900920  0.367820  1.0  -0.0401
  C  C160  1  0.811300  0.400920  0.867820  1.0  -0.0401
  C  C161  1  0.688700  0.900920  0.632180  1.0  -0.0409
  C  C162  1  0.188700  0.400920  0.132180  1.0  -0.0409
  C  C163  1  0.311300  0.099080  0.632180  1.0  -0.0414
  C  C164  1  0.811300  0.599080  0.132180  1.0  -0.0414
  C  C165  1  0.099080  0.367820  0.688700  1.0  -0.0374
  C  C166  1  0.599080  0.867820  0.188700  1.0  -0.0374
  C  C167  1  0.900920  0.367820  0.311300  1.0  -0.0378
  C  C168  1  0.400920  0.867820  0.811300  1.0  -0.0378
  C  C169  1  0.900920  0.632180  0.688700  1.0  -0.0383
  C  C170  1  0.400920  0.132180  0.188700  1.0  -0.0383
  C  C171  1  0.099080  0.632180  0.311300  1.0  -0.0375
  C  C172  1  0.599080  0.132180  0.811300  1.0  -0.0375
  C  C173  1  0.367820  0.688700  0.099080  1.0  -0.0403
  C  C174  1  0.867820  0.188700  0.599080  1.0  -0.0403
  C  C175  1  0.367820  0.311300  0.900920  1.0  -0.0389
  C  C176  1  0.867820  0.811300  0.400920  1.0  -0.0389
  C  C177  1  0.632180  0.688700  0.900920  1.0  -0.0386
  C  C178  1  0.132180  0.188700  0.400920  1.0  -0.0386
  C  C179  1  0.632180  0.311300  0.099080  1.0  -0.0388
  C  C180  1  0.132180  0.811300  0.599080  1.0  -0.0388
  C  C181  1  0.991700  0.622880  0.377120  1.0  0.4379
  C  C182  1  0.914400  0.593400  0.406600  1.0  -0.4412
  C  C183  1  0.491700  0.122880  0.877120  1.0  0.4379
  C  C184  1  0.414400  0.093400  0.906600  1.0  -0.4412
  C  C185  1  0.008300  0.377120  0.377120  1.0  0.4382
  C  C186  1  0.085600  0.406600  0.406600  1.0  -0.4412
  C  C187  1  0.508300  0.877120  0.877120  1.0  0.4382
  C  C188  1  0.585600  0.906600  0.906600  1.0  -0.4412
  C  C189  1  0.008300  0.622880  0.622880  1.0  0.4381
  C  C190  1  0.085600  0.593400  0.593400  1.0  -0.4413
  C  C191  1  0.508300  0.122880  0.122880  1.0  0.4381
  C  C192  1  0.585600  0.093400  0.093400  1.0  -0.4413
  C  C193  1  0.991700  0.377120  0.622880  1.0  0.4378
  C  C194  1  0.914400  0.406600  0.593400  1.0  -0.4407
  C  C195  1  0.491700  0.877120  0.122880  1.0  0.4378
  C  C196  1  0.414400  0.906600  0.093400  1.0  -0.4407
  C  C197  1  0.377120  0.991700  0.622880  1.0  0.4381
  C  C198  1  0.406600  0.914400  0.593400  1.0  -0.4417
  C  C199  1  0.877120  0.491700  0.122880  1.0  0.4381
  C  C200  1  0.906600  0.414400  0.093400  1.0  -0.4417
  C  C201  1  0.377120  0.008300  0.377120  1.0  0.4382
  C  C202  1  0.406600  0.085600  0.406600  1.0  -0.4405
  C  C203  1  0.877120  0.508300  0.877120  1.0  0.4382
  C  C204  1  0.906600  0.585600  0.906600  1.0  -0.4405
  C  C205  1  0.622880  0.008300  0.622880  1.0  0.4388
  C  C206  1  0.593400  0.085600  0.593400  1.0  -0.4412
  C  C207  1  0.122880  0.508300  0.122880  1.0  0.4388
  C  C208  1  0.093400  0.585600  0.093400  1.0  -0.4412
  C  C209  1  0.622880  0.991700  0.377120  1.0  0.4385
  C  C210  1  0.593400  0.914400  0.406600  1.0  -0.442
  C  C211  1  0.122880  0.491700  0.877120  1.0  0.4385
  C  C212  1  0.093400  0.414400  0.906600  1.0  -0.442
  C  C213  1  0.622880  0.377120  0.991700  1.0  0.439
  C  C214  1  0.593400  0.406600  0.914400  1.0  -0.4419
  C  C215  1  0.122880  0.877120  0.491700  1.0  0.439
  C  C216  1  0.093400  0.906600  0.414400  1.0  -0.4419
  C  C217  1  0.377120  0.377120  0.008300  1.0  0.4377
  C  C218  1  0.406600  0.406600  0.085600  1.0  -0.4418
  C  C219  1  0.877120  0.877120  0.508300  1.0  0.4377
  C  C220  1  0.906600  0.906600  0.585600  1.0  -0.4418
  C  C221  1  0.622880  0.622880  0.008300  1.0  0.4384
  C  C222  1  0.593400  0.593400  0.085600  1.0  -0.4425
  C  C223  1  0.122880  0.122880  0.508300  1.0  0.4384
  C  C224  1  0.093400  0.093400  0.585600  1.0  -0.4425
  C  C225  1  0.377120  0.622880  0.991700  1.0  0.4385
  C  C226  1  0.406600  0.593400  0.914400  1.0  -0.4416
  C  C227  1  0.877120  0.122880  0.491700  1.0  0.4385
  C  C228  1  0.906600  0.093400  0.414400  1.0  -0.4416
  N  N229  1  0.030060  0.682890  0.409460  1.0  -0.4368
  N  N230  1  0.530060  0.182890  0.909460  1.0  -0.4368
  N  N231  1  0.969940  0.317110  0.409460  1.0  -0.4364
  N  N232  1  0.469940  0.817110  0.909460  1.0  -0.4364
  N  N233  1  0.969940  0.682890  0.590540  1.0  -0.4367
  N  N234  1  0.469940  0.182890  0.090540  1.0  -0.4367
  N  N235  1  0.030060  0.317110  0.590540  1.0  -0.4367
  N  N236  1  0.530060  0.817110  0.090540  1.0  -0.4367
  N  N237  1  0.409460  0.030060  0.682890  1.0  -0.4363
  N  N238  1  0.909460  0.530060  0.182890  1.0  -0.4363
  N  N239  1  0.409460  0.969940  0.317110  1.0  -0.4367
  N  N240  1  0.909460  0.469940  0.817110  1.0  -0.4367
  N  N241  1  0.590540  0.969940  0.682890  1.0  -0.4363
  N  N242  1  0.090540  0.469940  0.182890  1.0  -0.4363
  N  N243  1  0.590540  0.030060  0.317110  1.0  -0.4375
  N  N244  1  0.090540  0.530060  0.817110  1.0  -0.4375
  N  N245  1  0.682890  0.409460  0.030060  1.0  -0.4361
  N  N246  1  0.182890  0.909460  0.530060  1.0  -0.4361
  N  N247  1  0.317110  0.409460  0.969940  1.0  -0.4371
  N  N248  1  0.817110  0.909460  0.469940  1.0  -0.4371
  N  N249  1  0.682890  0.590540  0.969940  1.0  -0.4368
  N  N250  1  0.182890  0.090540  0.469940  1.0  -0.4368
  N  N251  1  0.317110  0.590540  0.030060  1.0  -0.4383
  N  N252  1  0.817110  0.090540  0.530060  1.0  -0.4383
  N  N253  1  0.682890  0.030060  0.409460  1.0  -0.4367
  N  N254  1  0.182890  0.530060  0.909460  1.0  -0.4367
  N  N255  1  0.317110  0.969940  0.409460  1.0  -0.4373
  N  N256  1  0.817110  0.469940  0.909460  1.0  -0.4373
  N  N257  1  0.682890  0.969940  0.590540  1.0  -0.4363
  N  N258  1  0.182890  0.469940  0.090540  1.0  -0.4363
  N  N259  1  0.317110  0.030060  0.590540  1.0  -0.4377
  N  N260  1  0.817110  0.530060  0.090540  1.0  -0.4377
  N  N261  1  0.030060  0.409460  0.682890  1.0  -0.4357
  N  N262  1  0.530060  0.909460  0.182890  1.0  -0.4357
  N  N263  1  0.969940  0.409460  0.317110  1.0  -0.4362
  N  N264  1  0.469940  0.909460  0.817110  1.0  -0.4362
  N  N265  1  0.969940  0.590540  0.682890  1.0  -0.4364
  N  N266  1  0.469940  0.090540  0.182890  1.0  -0.4364
  N  N267  1  0.030060  0.590540  0.317110  1.0  -0.4372
  N  N268  1  0.530060  0.090540  0.817110  1.0  -0.4372
  N  N269  1  0.409460  0.682890  0.030060  1.0  -0.4374
  N  N270  1  0.909460  0.182890  0.530060  1.0  -0.4374
  N  N271  1  0.409460  0.317110  0.969940  1.0  -0.4366
  N  N272  1  0.909460  0.817110  0.469940  1.0  -0.4366
  N  N273  1  0.590540  0.682890  0.969940  1.0  -0.4375
  N  N274  1  0.090540  0.182890  0.469940  1.0  -0.4375
  N  N275  1  0.590540  0.317110  0.030060  1.0  -0.4373
  N  N276  1  0.090540  0.817110  0.530060  1.0  -0.4373
