# generated using pymatgen
data_ZnH10(C2N)4
_symmetry_space_group_name_H-M   'P 1'
_cell_length_a   17.13300000
_cell_length_b   17.13300000
_cell_length_c   17.13300000
_cell_angle_alpha   90.00000000
_cell_angle_beta   90.00000000
_cell_angle_gamma   90.00000000
_symmetry_Int_Tables_number   1
_chemical_formula_structural   ZnH10(C2N)4
_chemical_formula_sum   'Zn12 H120 C96 N48'
_cell_volume   5029.21549164
_cell_formula_units_Z   12
loop_
 _symmetry_equiv_pos_site_id
 _symmetry_equiv_pos_as_xyz
  1  'x, y, z'
loop_
 _atom_site_type_symbol
 _atom_site_label
 _atom_site_symmetry_multiplicity
 _atom_site_fract_x
 _atom_site_fract_y
 _atom_site_fract_z
 _atom_site_occupancy
 _atom_site_charge
  Zn  Zn1  1  0.000000  0.750000  0.500000  1.0  0.7619
  Zn  Zn2  1  0.000000  0.250000  0.500000  1.0  0.7619
  Zn  Zn3  1  0.500000  0.000000  0.750000  1.0  0.7619
  Zn  Zn4  1  0.500000  0.000000  0.250000  1.0  0.7619
  Zn  Zn5  1  0.750000  0.500000  0.000000  1.0  0.7619
  Zn  Zn6  1  0.250000  0.500000  0.000000  1.0  0.7619
  Zn  Zn7  1  0.750000  0.000000  0.500000  1.0  0.7619
  Zn  Zn8  1  0.250000  0.000000  0.500000  1.0  0.7619
  Zn  Zn9  1  0.000000  0.500000  0.750000  1.0  0.7619
  Zn  Zn10  1  0.000000  0.500000  0.250000  1.0  0.7619
  Zn  Zn11  1  0.500000  0.750000  0.000000  1.0  0.7619
  Zn  Zn12  1  0.500000  0.250000  0.000000  1.0  0.7619
  H  H13  1  0.154200  0.690800  0.411200  1.0  0.1015
  H  H14  1  0.885900  0.638700  0.427300  1.0  0.1347
  H  H15  1  0.654200  0.190800  0.911200  1.0  0.1015
  H  H16  1  0.385900  0.138700  0.927300  1.0  0.1347
  H  H17  1  0.845800  0.309200  0.411200  1.0  0.1013
  H  H18  1  0.114100  0.361300  0.427300  1.0  0.1336
  H  H19  1  0.345800  0.809200  0.911200  1.0  0.1013
  H  H20  1  0.614100  0.861300  0.927300  1.0  0.1336
  H  H21  1  0.845800  0.690800  0.588800  1.0  0.1009
  H  H22  1  0.114100  0.638700  0.572700  1.0  0.1349
  H  H23  1  0.345800  0.190800  0.088800  1.0  0.1009
  H  H24  1  0.614100  0.138700  0.072700  1.0  0.1349
  H  H25  1  0.154200  0.309200  0.588800  1.0  0.1018
  H  H26  1  0.885900  0.361300  0.572700  1.0  0.1355
  H  H27  1  0.654200  0.809200  0.088800  1.0  0.1018
  H  H28  1  0.385900  0.861300  0.072700  1.0  0.1355
  H  H29  1  0.411200  0.154200  0.690800  1.0  0.1026
  H  H30  1  0.427300  0.885900  0.638700  1.0  0.1341
  H  H31  1  0.911200  0.654200  0.190800  1.0  0.1026
  H  H32  1  0.927300  0.385900  0.138700  1.0  0.1341
  H  H33  1  0.411200  0.845800  0.309200  1.0  0.1026
  H  H34  1  0.427300  0.114100  0.361300  1.0  0.1341
  H  H35  1  0.911200  0.345800  0.809200  1.0  0.1026
  H  H36  1  0.927300  0.614100  0.861300  1.0  0.1341
  H  H37  1  0.588800  0.845800  0.690800  1.0  0.1029
  H  H38  1  0.572700  0.114100  0.638700  1.0  0.135
  H  H39  1  0.088800  0.345800  0.190800  1.0  0.1029
  H  H40  1  0.072700  0.614100  0.138700  1.0  0.135
  H  H41  1  0.588800  0.154200  0.309200  1.0  0.1026
  H  H42  1  0.572700  0.885900  0.361300  1.0  0.1351
  H  H43  1  0.088800  0.654200  0.809200  1.0  0.1026
  H  H44  1  0.072700  0.385900  0.861300  1.0  0.1351
  H  H45  1  0.690800  0.411200  0.154200  1.0  0.1018
  H  H46  1  0.638700  0.427300  0.885900  1.0  0.1359
  H  H47  1  0.190800  0.911200  0.654200  1.0  0.1018
  H  H48  1  0.138700  0.927300  0.385900  1.0  0.1359
  H  H49  1  0.309200  0.411200  0.845800  1.0  0.1022
  H  H50  1  0.361300  0.427300  0.114100  1.0  0.136
  H  H51  1  0.809200  0.911200  0.345800  1.0  0.1022
  H  H52  1  0.861300  0.927300  0.614100  1.0  0.136
  H  H53  1  0.690800  0.588800  0.845800  1.0  0.1022
  H  H54  1  0.638700  0.572700  0.114100  1.0  0.1366
  H  H55  1  0.190800  0.088800  0.345800  1.0  0.1022
  H  H56  1  0.138700  0.072700  0.614100  1.0  0.1366
  H  H57  1  0.309200  0.588800  0.154200  1.0  0.1018
  H  H58  1  0.361300  0.572700  0.885900  1.0  0.1351
  H  H59  1  0.809200  0.088800  0.654200  1.0  0.1018
  H  H60  1  0.861300  0.072700  0.385900  1.0  0.1351
  H  H61  1  0.690800  0.154200  0.411200  1.0  0.1029
  H  H62  1  0.638700  0.885900  0.427300  1.0  0.1354
  H  H63  1  0.190800  0.654200  0.911200  1.0  0.1029
  H  H64  1  0.138700  0.385900  0.927300  1.0  0.1354
  H  H65  1  0.309200  0.845800  0.411200  1.0  0.1028
  H  H66  1  0.361300  0.114100  0.427300  1.0  0.1355
  H  H67  1  0.809200  0.345800  0.911200  1.0  0.1028
  H  H68  1  0.861300  0.614100  0.927300  1.0  0.1355
  H  H69  1  0.690800  0.845800  0.588800  1.0  0.1029
  H  H70  1  0.638700  0.114100  0.572700  1.0  0.1365
  H  H71  1  0.190800  0.345800  0.088800  1.0  0.1029
  H  H72  1  0.138700  0.614100  0.072700  1.0  0.1365
  H  H73  1  0.309200  0.154200  0.588800  1.0  0.1028
  H  H74  1  0.361300  0.885900  0.572700  1.0  0.136
  H  H75  1  0.809200  0.654200  0.088800  1.0  0.1028
  H  H76  1  0.861300  0.385900  0.072700  1.0  0.136
  H  H77  1  0.154200  0.411200  0.690800  1.0  0.101
  H  H78  1  0.885900  0.427300  0.638700  1.0  0.136
  H  H79  1  0.654200  0.911200  0.190800  1.0  0.101
  H  H80  1  0.385900  0.927300  0.138700  1.0  0.136
  H  H81  1  0.845800  0.411200  0.309200  1.0  0.1009
  H  H82  1  0.114100  0.427300  0.361300  1.0  0.1353
  H  H83  1  0.345800  0.911200  0.809200  1.0  0.1009
  H  H84  1  0.614100  0.927300  0.861300  1.0  0.1353
  H  H85  1  0.845800  0.588800  0.690800  1.0  0.1007
  H  H86  1  0.114100  0.572700  0.638700  1.0  0.1358
  H  H87  1  0.345800  0.088800  0.190800  1.0  0.1007
  H  H88  1  0.614100  0.072700  0.138700  1.0  0.1358
  H  H89  1  0.154200  0.588800  0.309200  1.0  0.1013
  H  H90  1  0.885900  0.572700  0.361300  1.0  0.1361
  H  H91  1  0.654200  0.088800  0.809200  1.0  0.1013
  H  H92  1  0.385900  0.072700  0.861300  1.0  0.1361
  H  H93  1  0.411200  0.690800  0.154200  1.0  0.1023
  H  H94  1  0.427300  0.638700  0.885900  1.0  0.1329
  H  H95  1  0.911200  0.190800  0.654200  1.0  0.1023
  H  H96  1  0.927300  0.138700  0.385900  1.0  0.1329
  H  H97  1  0.411200  0.309200  0.845800  1.0  0.1025
  H  H98  1  0.427300  0.361300  0.114100  1.0  0.133
  H  H99  1  0.911200  0.809200  0.345800  1.0  0.1025
  H  H100  1  0.927300  0.861300  0.614100  1.0  0.133
  H  H101  1  0.588800  0.690800  0.845800  1.0  0.1025
  H  H102  1  0.572700  0.638700  0.114100  1.0  0.1338
  H  H103  1  0.088800  0.190800  0.345800  1.0  0.1025
  H  H104  1  0.072700  0.138700  0.614100  1.0  0.1338
  H  H105  1  0.588800  0.309200  0.154200  1.0  0.1024
  H  H106  1  0.572700  0.361300  0.885900  1.0  0.133
  H  H107  1  0.088800  0.809200  0.654200  1.0  0.1024
  H  H108  1  0.072700  0.861300  0.385900  1.0  0.133
  H  H109  1  0.877900  0.662600  0.337400  1.0  0.1357
  H  H110  1  0.377900  0.162600  0.837400  1.0  0.1357
  H  H111  1  0.122100  0.337400  0.337400  1.0  0.1344
  H  H112  1  0.622100  0.837400  0.837400  1.0  0.1344
  H  H113  1  0.122100  0.662600  0.662600  1.0  0.1346
  H  H114  1  0.622100  0.162600  0.162600  1.0  0.1346
  H  H115  1  0.877900  0.337400  0.662600  1.0  0.1356
  H  H116  1  0.377900  0.837400  0.162600  1.0  0.1356
  H  H117  1  0.337400  0.877900  0.662600  1.0  0.136
  H  H118  1  0.837400  0.377900  0.162600  1.0  0.136
  H  H119  1  0.337400  0.122100  0.337400  1.0  0.1364
  H  H120  1  0.837400  0.622100  0.837400  1.0  0.1364
  H  H121  1  0.662600  0.122100  0.662600  1.0  0.1352
  H  H122  1  0.162600  0.622100  0.162600  1.0  0.1352
  H  H123  1  0.662600  0.877900  0.337400  1.0  0.1345
  H  H124  1  0.162600  0.377900  0.837400  1.0  0.1345
  H  H125  1  0.662600  0.337400  0.877900  1.0  0.1357
  H  H126  1  0.162600  0.837400  0.377900  1.0  0.1357
  H  H127  1  0.337400  0.337400  0.122100  1.0  0.1364
  H  H128  1  0.837400  0.837400  0.622100  1.0  0.1364
  H  H129  1  0.662600  0.662600  0.122100  1.0  0.135
  H  H130  1  0.162600  0.162600  0.622100  1.0  0.135
  H  H131  1  0.337400  0.662600  0.877900  1.0  0.137
  H  H132  1  0.837400  0.162600  0.377900  1.0  0.137
  C  C133  1  0.109310  0.666100  0.390100  1.0  -0.0276
  C  C134  1  0.609310  0.166100  0.890100  1.0  -0.0276
  C  C135  1  0.890690  0.333900  0.390100  1.0  -0.0291
  C  C136  1  0.390690  0.833900  0.890100  1.0  -0.0291
  C  C137  1  0.890690  0.666100  0.609900  1.0  -0.0285
  C  C138  1  0.390690  0.166100  0.109900  1.0  -0.0285
  C  C139  1  0.109310  0.333900  0.609900  1.0  -0.0283
  C  C140  1  0.609310  0.833900  0.109900  1.0  -0.0283
  C  C141  1  0.390100  0.109310  0.666100  1.0  -0.029
  C  C142  1  0.890100  0.609310  0.166100  1.0  -0.029
  C  C143  1  0.390100  0.890690  0.333900  1.0  -0.0295
  C  C144  1  0.890100  0.390690  0.833900  1.0  -0.0295
  C  C145  1  0.609900  0.890690  0.666100  1.0  -0.0298
  C  C146  1  0.109900  0.390690  0.166100  1.0  -0.0298
  C  C147  1  0.609900  0.109310  0.333900  1.0  -0.0298
  C  C148  1  0.109900  0.609310  0.833900  1.0  -0.0298
  C  C149  1  0.666100  0.390100  0.109310  1.0  -0.0283
  C  C150  1  0.166100  0.890100  0.609310  1.0  -0.0283
  C  C151  1  0.333900  0.390100  0.890690  1.0  -0.0283
  C  C152  1  0.833900  0.890100  0.390690  1.0  -0.0283
  C  C153  1  0.666100  0.609900  0.890690  1.0  -0.0285
  C  C154  1  0.166100  0.109900  0.390690  1.0  -0.0285
  C  C155  1  0.333900  0.609900  0.109310  1.0  -0.0291
  C  C156  1  0.833900  0.109900  0.609310  1.0  -0.0291
  C  C157  1  0.666100  0.109310  0.390100  1.0  -0.0288
  C  C158  1  0.166100  0.609310  0.890100  1.0  -0.0288
  C  C159  1  0.333900  0.890690  0.390100  1.0  -0.0295
  C  C160  1  0.833900  0.390690  0.890100  1.0  -0.0295
  C  C161  1  0.666100  0.890690  0.609900  1.0  -0.0296
  C  C162  1  0.166100  0.390690  0.109900  1.0  -0.0296
  C  C163  1  0.333900  0.109310  0.609900  1.0  -0.0299
  C  C164  1  0.833900  0.609310  0.109900  1.0  -0.0299
  C  C165  1  0.109310  0.390100  0.666100  1.0  -0.0278
  C  C166  1  0.609310  0.890100  0.166100  1.0  -0.0278
  C  C167  1  0.890690  0.390100  0.333900  1.0  -0.0285
  C  C168  1  0.390690  0.890100  0.833900  1.0  -0.0285
  C  C169  1  0.890690  0.609900  0.666100  1.0  -0.0291
  C  C170  1  0.390690  0.109900  0.166100  1.0  -0.0291
  C  C171  1  0.109310  0.609900  0.333900  1.0  -0.0285
  C  C172  1  0.609310  0.109900  0.833900  1.0  -0.0285
  C  C173  1  0.390100  0.666100  0.109310  1.0  -0.0284
  C  C174  1  0.890100  0.166100  0.609310  1.0  -0.0284
  C  C175  1  0.390100  0.333900  0.890690  1.0  -0.0284
  C  C176  1  0.890100  0.833900  0.390690  1.0  -0.0284
  C  C177  1  0.609900  0.666100  0.890690  1.0  -0.0285
  C  C178  1  0.109900  0.166100  0.390690  1.0  -0.0285
  C  C179  1  0.609900  0.333900  0.109310  1.0  -0.0295
  C  C180  1  0.109900  0.833900  0.609310  1.0  -0.0295
  C  C181  1  0.990000  0.632190  0.367810  1.0  0.4061
  C  C182  1  0.902200  0.626000  0.374000  1.0  -0.4417
  C  C183  1  0.490000  0.132190  0.867810  1.0  0.4061
  C  C184  1  0.402200  0.126000  0.874000  1.0  -0.4417
  C  C185  1  0.010000  0.367810  0.367810  1.0  0.4078
  C  C186  1  0.097800  0.374000  0.374000  1.0  -0.4426
  C  C187  1  0.510000  0.867810  0.867810  1.0  0.4078
  C  C188  1  0.597800  0.874000  0.874000  1.0  -0.4426
  C  C189  1  0.010000  0.632190  0.632190  1.0  0.4079
  C  C190  1  0.097800  0.626000  0.626000  1.0  -0.4428
  C  C191  1  0.510000  0.132190  0.132190  1.0  0.4079
  C  C192  1  0.597800  0.126000  0.126000  1.0  -0.4428
  C  C193  1  0.990000  0.367810  0.632190  1.0  0.4063
  C  C194  1  0.902200  0.374000  0.626000  1.0  -0.4413
  C  C195  1  0.490000  0.867810  0.132190  1.0  0.4063
  C  C196  1  0.402200  0.874000  0.126000  1.0  -0.4413
  C  C197  1  0.367810  0.990000  0.632190  1.0  0.4079
  C  C198  1  0.374000  0.902200  0.626000  1.0  -0.4436
  C  C199  1  0.867810  0.490000  0.132190  1.0  0.4079
  C  C200  1  0.874000  0.402200  0.126000  1.0  -0.4436
  C  C201  1  0.367810  0.010000  0.367810  1.0  0.4076
  C  C202  1  0.374000  0.097800  0.374000  1.0  -0.4425
  C  C203  1  0.867810  0.510000  0.867810  1.0  0.4076
  C  C204  1  0.874000  0.597800  0.874000  1.0  -0.4425
  C  C205  1  0.632190  0.010000  0.632190  1.0  0.408
  C  C206  1  0.626000  0.097800  0.626000  1.0  -0.443
  C  C207  1  0.132190  0.510000  0.132190  1.0  0.408
  C  C208  1  0.126000  0.597800  0.126000  1.0  -0.443
  C  C209  1  0.632190  0.990000  0.367810  1.0  0.408
  C  C210  1  0.626000  0.902200  0.374000  1.0  -0.4437
  C  C211  1  0.132190  0.490000  0.867810  1.0  0.408
  C  C212  1  0.126000  0.402200  0.874000  1.0  -0.4437
  C  C213  1  0.632190  0.367810  0.990000  1.0  0.4081
  C  C214  1  0.626000  0.374000  0.902200  1.0  -0.4443
  C  C215  1  0.132190  0.867810  0.490000  1.0  0.4081
  C  C216  1  0.126000  0.874000  0.402200  1.0  -0.4443
  C  C217  1  0.367810  0.367810  0.010000  1.0  0.4075
  C  C218  1  0.374000  0.374000  0.097800  1.0  -0.4447
  C  C219  1  0.867810  0.867810  0.510000  1.0  0.4075
  C  C220  1  0.874000  0.874000  0.597800  1.0  -0.4447
  C  C221  1  0.632190  0.632190  0.010000  1.0  0.4078
  C  C222  1  0.626000  0.626000  0.097800  1.0  -0.4453
  C  C223  1  0.132190  0.132190  0.510000  1.0  0.4078
  C  C224  1  0.126000  0.126000  0.597800  1.0  -0.4453
  C  C225  1  0.367810  0.632190  0.990000  1.0  0.4078
  C  C226  1  0.374000  0.626000  0.902200  1.0  -0.4449
  C  C227  1  0.867810  0.132190  0.490000  1.0  0.4078
  C  C228  1  0.874000  0.126000  0.402200  1.0  -0.4449
  N  N229  1  0.033140  0.681140  0.411280  1.0  -0.4483
  N  N230  1  0.533140  0.181140  0.911280  1.0  -0.4483
  N  N231  1  0.966860  0.318860  0.411280  1.0  -0.4478
  N  N232  1  0.466860  0.818860  0.911280  1.0  -0.4478
  N  N233  1  0.966860  0.681140  0.588720  1.0  -0.4478
  N  N234  1  0.466860  0.181140  0.088720  1.0  -0.4478
  N  N235  1  0.033140  0.318860  0.588720  1.0  -0.4481
  N  N236  1  0.533140  0.818860  0.088720  1.0  -0.4481
  N  N237  1  0.411280  0.033140  0.681140  1.0  -0.4495
  N  N238  1  0.911280  0.533140  0.181140  1.0  -0.4495
  N  N239  1  0.411280  0.966860  0.318860  1.0  -0.4489
  N  N240  1  0.911280  0.466860  0.818860  1.0  -0.4489
  N  N241  1  0.588720  0.966860  0.681140  1.0  -0.4494
  N  N242  1  0.088720  0.466860  0.181140  1.0  -0.4494
  N  N243  1  0.588720  0.033140  0.318860  1.0  -0.4494
  N  N244  1  0.088720  0.533140  0.818860  1.0  -0.4494
  N  N245  1  0.681140  0.411280  0.033140  1.0  -0.448
  N  N246  1  0.181140  0.911280  0.533140  1.0  -0.448
  N  N247  1  0.318860  0.411280  0.966860  1.0  -0.449
  N  N248  1  0.818860  0.911280  0.466860  1.0  -0.449
  N  N249  1  0.681140  0.588720  0.966860  1.0  -0.4482
  N  N250  1  0.181140  0.088720  0.466860  1.0  -0.4482
  N  N251  1  0.318860  0.588720  0.033140  1.0  -0.4484
  N  N252  1  0.818860  0.088720  0.533140  1.0  -0.4484
  N  N253  1  0.681140  0.033140  0.411280  1.0  -0.4491
  N  N254  1  0.181140  0.533140  0.911280  1.0  -0.4491
  N  N255  1  0.318860  0.966860  0.411280  1.0  -0.4496
  N  N256  1  0.818860  0.466860  0.911280  1.0  -0.4496
  N  N257  1  0.681140  0.966860  0.588720  1.0  -0.4487
  N  N258  1  0.181140  0.466860  0.088720  1.0  -0.4487
  N  N259  1  0.318860  0.033140  0.588720  1.0  -0.4498
  N  N260  1  0.818860  0.533140  0.088720  1.0  -0.4498
  N  N261  1  0.033140  0.411280  0.681140  1.0  -0.4478
  N  N262  1  0.533140  0.911280  0.181140  1.0  -0.4478
  N  N263  1  0.966860  0.411280  0.318860  1.0  -0.4473
  N  N264  1  0.466860  0.911280  0.818860  1.0  -0.4473
  N  N265  1  0.966860  0.588720  0.681140  1.0  -0.4477
  N  N266  1  0.466860  0.088720  0.181140  1.0  -0.4477
  N  N267  1  0.033140  0.588720  0.318860  1.0  -0.4478
  N  N268  1  0.533140  0.088720  0.818860  1.0  -0.4478
  N  N269  1  0.411280  0.681140  0.033140  1.0  -0.4487
  N  N270  1  0.911280  0.181140  0.533140  1.0  -0.4487
  N  N271  1  0.411280  0.318860  0.966860  1.0  -0.4487
  N  N272  1  0.911280  0.818860  0.466860  1.0  -0.4487
  N  N273  1  0.588720  0.681140  0.966860  1.0  -0.4489
  N  N274  1  0.088720  0.181140  0.466860  1.0  -0.4489
  N  N275  1  0.588720  0.318860  0.033140  1.0  -0.4483
  N  N276  1  0.088720  0.818860  0.533140  1.0  -0.4483
