# generated using pymatgen
data_ZnH10(CN)6
_symmetry_space_group_name_H-M   'P 1'
_cell_length_a   17.06410000
_cell_length_b   17.06410000
_cell_length_c   17.06410000
_cell_angle_alpha   90.00000000
_cell_angle_beta   90.00000000
_cell_angle_gamma   90.00000000
_symmetry_Int_Tables_number   1
_chemical_formula_structural   ZnH10(CN)6
_chemical_formula_sum   'Zn12 H120 C72 N72'
_cell_volume   4968.78451268
_cell_formula_units_Z   12
loop_
 _symmetry_equiv_pos_site_id
 _symmetry_equiv_pos_as_xyz
  1  'x, y, z'
loop_
 _atom_site_type_symbol
 _atom_site_label
 _atom_site_symmetry_multiplicity
 _atom_site_fract_x
 _atom_site_fract_y
 _atom_site_fract_z
 _atom_site_occupancy
 _atom_site_charge
  Zn  Zn1  1  0.000000  0.750000  0.500000  1.0  0.7528
  Zn  Zn2  1  0.000000  0.250000  0.500000  1.0  0.7528
  Zn  Zn3  1  0.500000  0.000000  0.750000  1.0  0.7528
  Zn  Zn4  1  0.500000  0.000000  0.250000  1.0  0.7528
  Zn  Zn5  1  0.750000  0.500000  0.000000  1.0  0.7528
  Zn  Zn6  1  0.250000  0.500000  0.000000  1.0  0.7528
  Zn  Zn7  1  0.750000  0.000000  0.500000  1.0  0.7528
  Zn  Zn8  1  0.250000  0.000000  0.500000  1.0  0.7528
  Zn  Zn9  1  0.000000  0.500000  0.750000  1.0  0.7528
  Zn  Zn10  1  0.000000  0.500000  0.250000  1.0  0.7528
  Zn  Zn11  1  0.500000  0.750000  0.000000  1.0  0.7528
  Zn  Zn12  1  0.500000  0.250000  0.000000  1.0  0.7528
  H  H13  1  0.135400  0.724400  0.376800  1.0  0.0972
  H  H14  1  0.901100  0.607500  0.458800  1.0  0.119
  H  H15  1  0.635400  0.224400  0.876800  1.0  0.0972
  H  H16  1  0.401100  0.107500  0.958800  1.0  0.119
  H  H17  1  0.864600  0.275600  0.376800  1.0  0.0973
  H  H18  1  0.098900  0.392500  0.458800  1.0  0.1192
  H  H19  1  0.364600  0.775600  0.876800  1.0  0.0973
  H  H20  1  0.598900  0.892500  0.958800  1.0  0.1192
  H  H21  1  0.864600  0.724400  0.623200  1.0  0.0969
  H  H22  1  0.098900  0.607500  0.541200  1.0  0.1198
  H  H23  1  0.364600  0.224400  0.123200  1.0  0.0969
  H  H24  1  0.598900  0.107500  0.041200  1.0  0.1198
  H  H25  1  0.135400  0.275600  0.623200  1.0  0.097
  H  H26  1  0.901100  0.392500  0.541200  1.0  0.1201
  H  H27  1  0.635400  0.775600  0.123200  1.0  0.097
  H  H28  1  0.401100  0.892500  0.041200  1.0  0.1201
  H  H29  1  0.376800  0.135400  0.724400  1.0  0.0967
  H  H30  1  0.458800  0.901100  0.607500  1.0  0.1155
  H  H31  1  0.876800  0.635400  0.224400  1.0  0.0967
  H  H32  1  0.958800  0.401100  0.107500  1.0  0.1155
  H  H33  1  0.376800  0.864600  0.275600  1.0  0.0966
  H  H34  1  0.458800  0.098900  0.392500  1.0  0.1161
  H  H35  1  0.876800  0.364600  0.775600  1.0  0.0966
  H  H36  1  0.958800  0.598900  0.892500  1.0  0.1161
  H  H37  1  0.623200  0.864600  0.724400  1.0  0.0969
  H  H38  1  0.541200  0.098900  0.607500  1.0  0.1189
  H  H39  1  0.123200  0.364600  0.224400  1.0  0.0969
  H  H40  1  0.041200  0.598900  0.107500  1.0  0.1189
  H  H41  1  0.623200  0.135400  0.275600  1.0  0.0966
  H  H42  1  0.541200  0.901100  0.392500  1.0  0.1192
  H  H43  1  0.123200  0.635400  0.775600  1.0  0.0966
  H  H44  1  0.041200  0.401100  0.892500  1.0  0.1192
  H  H45  1  0.724400  0.376800  0.135400  1.0  0.0964
  H  H46  1  0.607500  0.458800  0.901100  1.0  0.1205
  H  H47  1  0.224400  0.876800  0.635400  1.0  0.0964
  H  H48  1  0.107500  0.958800  0.401100  1.0  0.1205
  H  H49  1  0.275600  0.376800  0.864600  1.0  0.0964
  H  H50  1  0.392500  0.458800  0.098900  1.0  0.1211
  H  H51  1  0.775600  0.876800  0.364600  1.0  0.0964
  H  H52  1  0.892500  0.958800  0.598900  1.0  0.1211
  H  H53  1  0.724400  0.623200  0.864600  1.0  0.0961
  H  H54  1  0.607500  0.541200  0.098900  1.0  0.1208
  H  H55  1  0.224400  0.123200  0.364600  1.0  0.0961
  H  H56  1  0.107500  0.041200  0.598900  1.0  0.1208
  H  H57  1  0.275600  0.623200  0.135400  1.0  0.0962
  H  H58  1  0.392500  0.541200  0.901100  1.0  0.1207
  H  H59  1  0.775600  0.123200  0.635400  1.0  0.0962
  H  H60  1  0.892500  0.041200  0.401100  1.0  0.1207
  H  H61  1  0.724400  0.135400  0.376800  1.0  0.098
  H  H62  1  0.607500  0.901100  0.458800  1.0  0.1191
  H  H63  1  0.224400  0.635400  0.876800  1.0  0.098
  H  H64  1  0.107500  0.401100  0.958800  1.0  0.1191
  H  H65  1  0.275600  0.864600  0.376800  1.0  0.0986
  H  H66  1  0.392500  0.098900  0.458800  1.0  0.1198
  H  H67  1  0.775600  0.364600  0.876800  1.0  0.0986
  H  H68  1  0.892500  0.598900  0.958800  1.0  0.1198
  H  H69  1  0.724400  0.864600  0.623200  1.0  0.0979
  H  H70  1  0.607500  0.098900  0.541200  1.0  0.1196
  H  H71  1  0.224400  0.364600  0.123200  1.0  0.0979
  H  H72  1  0.107500  0.598900  0.041200  1.0  0.1196
  H  H73  1  0.275600  0.135400  0.623200  1.0  0.0978
  H  H74  1  0.392500  0.901100  0.541200  1.0  0.12
  H  H75  1  0.775600  0.635400  0.123200  1.0  0.0978
  H  H76  1  0.892500  0.401100  0.041200  1.0  0.12
  H  H77  1  0.135400  0.376800  0.724400  1.0  0.0961
  H  H78  1  0.901100  0.458800  0.607500  1.0  0.1205
  H  H79  1  0.635400  0.876800  0.224400  1.0  0.0961
  H  H80  1  0.401100  0.958800  0.107500  1.0  0.1205
  H  H81  1  0.864600  0.376800  0.275600  1.0  0.0959
  H  H82  1  0.098900  0.458800  0.392500  1.0  0.1212
  H  H83  1  0.364600  0.876800  0.775600  1.0  0.0959
  H  H84  1  0.598900  0.958800  0.892500  1.0  0.1212
  H  H85  1  0.864600  0.623200  0.724400  1.0  0.0955
  H  H86  1  0.098900  0.541200  0.607500  1.0  0.1216
  H  H87  1  0.364600  0.123200  0.224400  1.0  0.0955
  H  H88  1  0.598900  0.041200  0.107500  1.0  0.1216
  H  H89  1  0.135400  0.623200  0.275600  1.0  0.096
  H  H90  1  0.901100  0.541200  0.392500  1.0  0.1205
  H  H91  1  0.635400  0.123200  0.775600  1.0  0.096
  H  H92  1  0.401100  0.041200  0.892500  1.0  0.1205
  H  H93  1  0.376800  0.724400  0.135400  1.0  0.0964
  H  H94  1  0.458800  0.607500  0.901100  1.0  0.1156
  H  H95  1  0.876800  0.224400  0.635400  1.0  0.0964
  H  H96  1  0.958800  0.107500  0.401100  1.0  0.1156
  H  H97  1  0.376800  0.275600  0.864600  1.0  0.0966
  H  H98  1  0.458800  0.392500  0.098900  1.0  0.1152
  H  H99  1  0.876800  0.775600  0.364600  1.0  0.0966
  H  H100  1  0.958800  0.892500  0.598900  1.0  0.1152
  H  H101  1  0.623200  0.724400  0.864600  1.0  0.0961
  H  H102  1  0.541200  0.607500  0.098900  1.0  0.1187
  H  H103  1  0.123200  0.224400  0.364600  1.0  0.0961
  H  H104  1  0.041200  0.107500  0.598900  1.0  0.1187
  H  H105  1  0.623200  0.275600  0.135400  1.0  0.0965
  H  H106  1  0.541200  0.392500  0.901100  1.0  0.1182
  H  H107  1  0.123200  0.775600  0.635400  1.0  0.0965
  H  H108  1  0.041200  0.892500  0.401100  1.0  0.1182
  H  H109  1  0.866800  0.626350  0.373650  1.0  0.1147
  H  H110  1  0.366800  0.126350  0.873650  1.0  0.1147
  H  H111  1  0.133200  0.373650  0.373650  1.0  0.1136
  H  H112  1  0.633200  0.873650  0.873650  1.0  0.1136
  H  H113  1  0.133200  0.626350  0.626350  1.0  0.1142
  H  H114  1  0.633200  0.126350  0.126350  1.0  0.1142
  H  H115  1  0.866800  0.373650  0.626350  1.0  0.1151
  H  H116  1  0.366800  0.873650  0.126350  1.0  0.1151
  H  H117  1  0.373650  0.866800  0.626350  1.0  0.115
  H  H118  1  0.873650  0.366800  0.126350  1.0  0.115
  H  H119  1  0.373650  0.133200  0.373650  1.0  0.1146
  H  H120  1  0.873650  0.633200  0.873650  1.0  0.1146
  H  H121  1  0.626350  0.133200  0.626350  1.0  0.1146
  H  H122  1  0.126350  0.633200  0.126350  1.0  0.1146
  H  H123  1  0.626350  0.866800  0.373650  1.0  0.1139
  H  H124  1  0.126350  0.366800  0.873650  1.0  0.1139
  H  H125  1  0.626350  0.373650  0.866800  1.0  0.1136
  H  H126  1  0.126350  0.873650  0.366800  1.0  0.1136
  H  H127  1  0.373650  0.373650  0.133200  1.0  0.1153
  H  H128  1  0.873650  0.873650  0.633200  1.0  0.1153
  H  H129  1  0.626350  0.626350  0.133200  1.0  0.1152
  H  H130  1  0.126350  0.126350  0.633200  1.0  0.1152
  H  H131  1  0.373650  0.626350  0.866800  1.0  0.1142
  H  H132  1  0.873650  0.126350  0.366800  1.0  0.1142
  C  C133  1  0.094540  0.687730  0.367510  1.0  0.1185
  C  C134  1  0.594540  0.187730  0.867510  1.0  0.1185
  C  C135  1  0.905460  0.312270  0.367510  1.0  0.117
  C  C136  1  0.405460  0.812270  0.867510  1.0  0.117
  C  C137  1  0.905460  0.687730  0.632490  1.0  0.1161
  C  C138  1  0.405460  0.187730  0.132490  1.0  0.1161
  C  C139  1  0.094540  0.312270  0.632490  1.0  0.118
  C  C140  1  0.594540  0.812270  0.132490  1.0  0.118
  C  C141  1  0.367510  0.094540  0.687730  1.0  0.1173
  C  C142  1  0.867510  0.594540  0.187730  1.0  0.1173
  C  C143  1  0.367510  0.905460  0.312270  1.0  0.1175
  C  C144  1  0.867510  0.405460  0.812270  1.0  0.1175
  C  C145  1  0.632490  0.905460  0.687730  1.0  0.1178
  C  C146  1  0.132490  0.405460  0.187730  1.0  0.1178
  C  C147  1  0.632490  0.094540  0.312270  1.0  0.117
  C  C148  1  0.132490  0.594540  0.812270  1.0  0.117
  C  C149  1  0.687730  0.367510  0.094540  1.0  0.1189
  C  C150  1  0.187730  0.867510  0.594540  1.0  0.1189
  C  C151  1  0.312270  0.367510  0.905460  1.0  0.1176
  C  C152  1  0.812270  0.867510  0.405460  1.0  0.1176
  C  C153  1  0.687730  0.632490  0.905460  1.0  0.1186
  C  C154  1  0.187730  0.132490  0.405460  1.0  0.1186
  C  C155  1  0.312270  0.632490  0.094540  1.0  0.1166
  C  C156  1  0.812270  0.132490  0.594540  1.0  0.1166
  C  C157  1  0.986700  0.623600  0.376400  1.0  0.4167
  C  C158  1  0.907000  0.597400  0.402600  1.0  -0.4557
  C  C159  1  0.486700  0.123600  0.876400  1.0  0.4167
  C  C160  1  0.407000  0.097400  0.902600  1.0  -0.4557
  C  C161  1  0.013300  0.376400  0.376400  1.0  0.4173
  C  C162  1  0.093000  0.402600  0.402600  1.0  -0.4564
  C  C163  1  0.513300  0.876400  0.876400  1.0  0.4173
  C  C164  1  0.593000  0.902600  0.902600  1.0  -0.4564
  C  C165  1  0.013300  0.623600  0.623600  1.0  0.4169
  C  C166  1  0.093000  0.597400  0.597400  1.0  -0.4569
  C  C167  1  0.513300  0.123600  0.123600  1.0  0.4169
  C  C168  1  0.593000  0.097400  0.097400  1.0  -0.4569
  C  C169  1  0.986700  0.376400  0.623600  1.0  0.417
  C  C170  1  0.907000  0.402600  0.597400  1.0  -0.4559
  C  C171  1  0.486700  0.876400  0.123600  1.0  0.417
  C  C172  1  0.407000  0.902600  0.097400  1.0  -0.4559
  C  C173  1  0.376400  0.986700  0.623600  1.0  0.4168
  C  C174  1  0.402600  0.907000  0.597400  1.0  -0.4574
  C  C175  1  0.876400  0.486700  0.123600  1.0  0.4168
  C  C176  1  0.902600  0.407000  0.097400  1.0  -0.4574
  C  C177  1  0.376400  0.013300  0.376400  1.0  0.4167
  C  C178  1  0.402600  0.093000  0.402600  1.0  -0.4561
  C  C179  1  0.876400  0.513300  0.876400  1.0  0.4167
  C  C180  1  0.902600  0.593000  0.902600  1.0  -0.4561
  C  C181  1  0.623600  0.013300  0.623600  1.0  0.4176
  C  C182  1  0.597400  0.093000  0.597400  1.0  -0.4568
  C  C183  1  0.123600  0.513300  0.123600  1.0  0.4176
  C  C184  1  0.097400  0.593000  0.097400  1.0  -0.4568
  C  C185  1  0.623600  0.986700  0.376400  1.0  0.4176
  C  C186  1  0.597400  0.907000  0.402600  1.0  -0.4574
  C  C187  1  0.123600  0.486700  0.876400  1.0  0.4176
  C  C188  1  0.097400  0.407000  0.902600  1.0  -0.4574
  C  C189  1  0.623600  0.376400  0.986700  1.0  0.4181
  C  C190  1  0.597400  0.402600  0.907000  1.0  -0.4575
  C  C191  1  0.123600  0.876400  0.486700  1.0  0.4181
  C  C192  1  0.097400  0.902600  0.407000  1.0  -0.4575
  C  C193  1  0.376400  0.376400  0.013300  1.0  0.4169
  C  C194  1  0.402600  0.402600  0.093000  1.0  -0.4565
  C  C195  1  0.876400  0.876400  0.513300  1.0  0.4169
  C  C196  1  0.902600  0.902600  0.593000  1.0  -0.4565
  C  C197  1  0.623600  0.623600  0.013300  1.0  0.4176
  C  C198  1  0.597400  0.597400  0.093000  1.0  -0.4576
  C  C199  1  0.123600  0.123600  0.513300  1.0  0.4176
  C  C200  1  0.097400  0.097400  0.593000  1.0  -0.4576
  C  C201  1  0.376400  0.623600  0.986700  1.0  0.4167
  C  C202  1  0.402600  0.597400  0.907000  1.0  -0.4576
  C  C203  1  0.876400  0.123600  0.486700  1.0  0.4167
  C  C204  1  0.902600  0.097400  0.407000  1.0  -0.4576
  N  N205  1  0.025950  0.682730  0.408440  1.0  -0.4379
  N  N206  1  0.094540  0.632490  0.312270  1.0  -0.2189
  N  N207  1  0.525950  0.182730  0.908440  1.0  -0.4379
  N  N208  1  0.594540  0.132490  0.812270  1.0  -0.2189
  N  N209  1  0.974050  0.317270  0.408440  1.0  -0.4365
  N  N210  1  0.905460  0.367510  0.312270  1.0  -0.2206
  N  N211  1  0.474050  0.817270  0.908440  1.0  -0.4365
  N  N212  1  0.405460  0.867510  0.812270  1.0  -0.2206
  N  N213  1  0.974050  0.682730  0.591560  1.0  -0.4373
  N  N214  1  0.905460  0.632490  0.687730  1.0  -0.2212
  N  N215  1  0.474050  0.182730  0.091560  1.0  -0.4373
  N  N216  1  0.405460  0.132490  0.187730  1.0  -0.2212
  N  N217  1  0.025950  0.317270  0.591560  1.0  -0.4377
  N  N218  1  0.094540  0.367510  0.687730  1.0  -0.2194
  N  N219  1  0.525950  0.817270  0.091560  1.0  -0.4377
  N  N220  1  0.594540  0.867510  0.187730  1.0  -0.2194
  N  N221  1  0.408440  0.025950  0.682730  1.0  -0.4368
  N  N222  1  0.312270  0.094540  0.632490  1.0  -0.2239
  N  N223  1  0.908440  0.525950  0.182730  1.0  -0.4368
  N  N224  1  0.812270  0.594540  0.132490  1.0  -0.2239
  N  N225  1  0.408440  0.974050  0.317270  1.0  -0.4372
  N  N226  1  0.312270  0.905460  0.367510  1.0  -0.2237
  N  N227  1  0.908440  0.474050  0.817270  1.0  -0.4372
  N  N228  1  0.812270  0.405460  0.867510  1.0  -0.2237
  N  N229  1  0.591560  0.974050  0.682730  1.0  -0.4372
  N  N230  1  0.687730  0.905460  0.632490  1.0  -0.223
  N  N231  1  0.091560  0.474050  0.182730  1.0  -0.4372
  N  N232  1  0.187730  0.405460  0.132490  1.0  -0.223
  N  N233  1  0.591560  0.025950  0.317270  1.0  -0.438
  N  N234  1  0.687730  0.094540  0.367510  1.0  -0.2221
  N  N235  1  0.091560  0.525950  0.817270  1.0  -0.438
  N  N236  1  0.187730  0.594540  0.867510  1.0  -0.2221
  N  N237  1  0.682730  0.408440  0.025950  1.0  -0.4372
  N  N238  1  0.632490  0.312270  0.094540  1.0  -0.217
  N  N239  1  0.182730  0.908440  0.525950  1.0  -0.4372
  N  N240  1  0.132490  0.812270  0.594540  1.0  -0.217
  N  N241  1  0.317270  0.408440  0.974050  1.0  -0.4381
  N  N242  1  0.367510  0.312270  0.905460  1.0  -0.2202
  N  N243  1  0.817270  0.908440  0.474050  1.0  -0.4381
  N  N244  1  0.867510  0.812270  0.405460  1.0  -0.2202
  N  N245  1  0.682730  0.591560  0.974050  1.0  -0.4377
  N  N246  1  0.632490  0.687730  0.905460  1.0  -0.2202
  N  N247  1  0.182730  0.091560  0.474050  1.0  -0.4377
  N  N248  1  0.132490  0.187730  0.405460  1.0  -0.2202
  N  N249  1  0.317270  0.591560  0.025950  1.0  -0.4386
  N  N250  1  0.367510  0.687730  0.094540  1.0  -0.2179
  N  N251  1  0.817270  0.091560  0.525950  1.0  -0.4386
  N  N252  1  0.867510  0.187730  0.594540  1.0  -0.2179
  N  N253  1  0.682730  0.025950  0.408440  1.0  -0.3414
  N  N254  1  0.182730  0.525950  0.908440  1.0  -0.3414
  N  N255  1  0.317270  0.974050  0.408440  1.0  -0.3427
  N  N256  1  0.817270  0.474050  0.908440  1.0  -0.3427
  N  N257  1  0.682730  0.974050  0.591560  1.0  -0.3423
  N  N258  1  0.182730  0.474050  0.091560  1.0  -0.3423
  N  N259  1  0.317270  0.025950  0.591560  1.0  -0.3436
  N  N260  1  0.817270  0.525950  0.091560  1.0  -0.3436
  N  N261  1  0.025950  0.408440  0.682730  1.0  -0.3418
  N  N262  1  0.525950  0.908440  0.182730  1.0  -0.3418
  N  N263  1  0.974050  0.408440  0.317270  1.0  -0.3416
  N  N264  1  0.474050  0.908440  0.817270  1.0  -0.3416
  N  N265  1  0.974050  0.591560  0.682730  1.0  -0.3418
  N  N266  1  0.474050  0.091560  0.182730  1.0  -0.3418
  N  N267  1  0.025950  0.591560  0.317270  1.0  -0.3435
  N  N268  1  0.525950  0.091560  0.817270  1.0  -0.3435
  N  N269  1  0.408440  0.682730  0.025950  1.0  -0.3427
  N  N270  1  0.908440  0.182730  0.525950  1.0  -0.3427
  N  N271  1  0.408440  0.317270  0.974050  1.0  -0.3419
  N  N272  1  0.908440  0.817270  0.474050  1.0  -0.3419
  N  N273  1  0.591560  0.682730  0.974050  1.0  -0.3438
  N  N274  1  0.091560  0.182730  0.474050  1.0  -0.3438
  N  N275  1  0.591560  0.317270  0.025950  1.0  -0.343
  N  N276  1  0.091560  0.817270  0.525950  1.0  -0.343
