# generated using pymatgen
data_ZnH10(C2N)4
_symmetry_space_group_name_H-M   'P 1'
_cell_length_a   17.12000000
_cell_length_b   17.12000000
_cell_length_c   17.12000000
_cell_angle_alpha   90.00000000
_cell_angle_beta   90.00000000
_cell_angle_gamma   90.00000000
_symmetry_Int_Tables_number   1
_chemical_formula_structural   ZnH10(C2N)4
_chemical_formula_sum   'Zn12 H120 C96 N48'
_cell_volume   5017.77612800
_cell_formula_units_Z   12
loop_
 _symmetry_equiv_pos_site_id
 _symmetry_equiv_pos_as_xyz
  1  'x, y, z'
loop_
 _atom_site_type_symbol
 _atom_site_label
 _atom_site_symmetry_multiplicity
 _atom_site_fract_x
 _atom_site_fract_y
 _atom_site_fract_z
 _atom_site_occupancy
 _atom_site_charge
  Zn  Zn1  1  0.000000  0.750000  0.500000  1.0  0.7582
  Zn  Zn2  1  0.000000  0.250000  0.500000  1.0  0.7582
  Zn  Zn3  1  0.500000  0.000000  0.750000  1.0  0.7582
  Zn  Zn4  1  0.500000  0.000000  0.250000  1.0  0.7582
  Zn  Zn5  1  0.750000  0.500000  0.000000  1.0  0.7582
  Zn  Zn6  1  0.250000  0.500000  0.000000  1.0  0.7582
  Zn  Zn7  1  0.750000  0.000000  0.500000  1.0  0.7582
  Zn  Zn8  1  0.250000  0.000000  0.500000  1.0  0.7582
  Zn  Zn9  1  0.000000  0.500000  0.750000  1.0  0.7582
  Zn  Zn10  1  0.000000  0.500000  0.250000  1.0  0.7582
  Zn  Zn11  1  0.500000  0.750000  0.000000  1.0  0.7582
  Zn  Zn12  1  0.500000  0.250000  0.000000  1.0  0.7582
  H  H13  1  0.148500  0.705800  0.394000  1.0  0.0895
  H  H14  1  0.897100  0.619900  0.446200  1.0  0.1279
  H  H15  1  0.648500  0.205800  0.894000  1.0  0.0895
  H  H16  1  0.397100  0.119900  0.946200  1.0  0.1279
  H  H17  1  0.851500  0.294200  0.394000  1.0  0.09
  H  H18  1  0.102900  0.380100  0.446200  1.0  0.1279
  H  H19  1  0.351500  0.794200  0.894000  1.0  0.09
  H  H20  1  0.602900  0.880100  0.946200  1.0  0.1279
  H  H21  1  0.851500  0.705800  0.606000  1.0  0.0904
  H  H22  1  0.102900  0.619900  0.553800  1.0  0.1302
  H  H23  1  0.351500  0.205800  0.106000  1.0  0.0904
  H  H24  1  0.602900  0.119900  0.053800  1.0  0.1302
  H  H25  1  0.148500  0.294200  0.606000  1.0  0.0903
  H  H26  1  0.897100  0.380100  0.553800  1.0  0.1298
  H  H27  1  0.648500  0.794200  0.106000  1.0  0.0903
  H  H28  1  0.397100  0.880100  0.053800  1.0  0.1298
  H  H29  1  0.394000  0.148500  0.705800  1.0  0.0917
  H  H30  1  0.446200  0.897100  0.619900  1.0  0.1244
  H  H31  1  0.894000  0.648500  0.205800  1.0  0.0917
  H  H32  1  0.946200  0.397100  0.119900  1.0  0.1244
  H  H33  1  0.394000  0.851500  0.294200  1.0  0.0915
  H  H34  1  0.446200  0.102900  0.380100  1.0  0.1248
  H  H35  1  0.894000  0.351500  0.794200  1.0  0.0915
  H  H36  1  0.946200  0.602900  0.880100  1.0  0.1248
  H  H37  1  0.606000  0.851500  0.705800  1.0  0.0918
  H  H38  1  0.553800  0.102900  0.619900  1.0  0.1275
  H  H39  1  0.106000  0.351500  0.205800  1.0  0.0918
  H  H40  1  0.053800  0.602900  0.119900  1.0  0.1275
  H  H41  1  0.606000  0.148500  0.294200  1.0  0.0914
  H  H42  1  0.553800  0.897100  0.380100  1.0  0.1284
  H  H43  1  0.106000  0.648500  0.794200  1.0  0.0914
  H  H44  1  0.053800  0.397100  0.880100  1.0  0.1284
  H  H45  1  0.705800  0.394000  0.148500  1.0  0.0907
  H  H46  1  0.619900  0.446200  0.897100  1.0  0.1301
  H  H47  1  0.205800  0.894000  0.648500  1.0  0.0907
  H  H48  1  0.119900  0.946200  0.397100  1.0  0.1301
  H  H49  1  0.294200  0.394000  0.851500  1.0  0.0914
  H  H50  1  0.380100  0.446200  0.102900  1.0  0.13
  H  H51  1  0.794200  0.894000  0.351500  1.0  0.0914
  H  H52  1  0.880100  0.946200  0.602900  1.0  0.13
  H  H53  1  0.705800  0.606000  0.851500  1.0  0.0913
  H  H54  1  0.619900  0.553800  0.102900  1.0  0.1294
  H  H55  1  0.205800  0.106000  0.351500  1.0  0.0913
  H  H56  1  0.119900  0.053800  0.602900  1.0  0.1294
  H  H57  1  0.294200  0.606000  0.148500  1.0  0.0905
  H  H58  1  0.380100  0.553800  0.897100  1.0  0.1288
  H  H59  1  0.794200  0.106000  0.648500  1.0  0.0905
  H  H60  1  0.880100  0.053800  0.397100  1.0  0.1288
  H  H61  1  0.705800  0.148500  0.394000  1.0  0.0909
  H  H62  1  0.619900  0.897100  0.446200  1.0  0.129
  H  H63  1  0.205800  0.648500  0.894000  1.0  0.0909
  H  H64  1  0.119900  0.397100  0.946200  1.0  0.129
  H  H65  1  0.294200  0.851500  0.394000  1.0  0.0911
  H  H66  1  0.380100  0.102900  0.446200  1.0  0.1284
  H  H67  1  0.794200  0.351500  0.894000  1.0  0.0911
  H  H68  1  0.880100  0.602900  0.946200  1.0  0.1284
  H  H69  1  0.705800  0.851500  0.606000  1.0  0.0917
  H  H70  1  0.619900  0.102900  0.553800  1.0  0.1303
  H  H71  1  0.205800  0.351500  0.106000  1.0  0.0917
  H  H72  1  0.119900  0.602900  0.053800  1.0  0.1303
  H  H73  1  0.294200  0.148500  0.606000  1.0  0.0914
  H  H74  1  0.380100  0.897100  0.553800  1.0  0.1304
  H  H75  1  0.794200  0.648500  0.106000  1.0  0.0914
  H  H76  1  0.880100  0.397100  0.053800  1.0  0.1304
  H  H77  1  0.148500  0.394000  0.705800  1.0  0.0901
  H  H78  1  0.897100  0.446200  0.619900  1.0  0.1304
  H  H79  1  0.648500  0.894000  0.205800  1.0  0.0901
  H  H80  1  0.397100  0.946200  0.119900  1.0  0.1304
  H  H81  1  0.851500  0.394000  0.294200  1.0  0.0901
  H  H82  1  0.102900  0.446200  0.380100  1.0  0.1305
  H  H83  1  0.351500  0.894000  0.794200  1.0  0.0901
  H  H84  1  0.602900  0.946200  0.880100  1.0  0.1305
  H  H85  1  0.851500  0.606000  0.705800  1.0  0.0903
  H  H86  1  0.102900  0.553800  0.619900  1.0  0.1302
  H  H87  1  0.351500  0.106000  0.205800  1.0  0.0903
  H  H88  1  0.602900  0.053800  0.119900  1.0  0.1302
  H  H89  1  0.148500  0.606000  0.294200  1.0  0.0897
  H  H90  1  0.897100  0.553800  0.380100  1.0  0.1295
  H  H91  1  0.648500  0.106000  0.794200  1.0  0.0897
  H  H92  1  0.397100  0.053800  0.880100  1.0  0.1295
  H  H93  1  0.394000  0.705800  0.148500  1.0  0.0906
  H  H94  1  0.446200  0.619900  0.897100  1.0  0.124
  H  H95  1  0.894000  0.205800  0.648500  1.0  0.0906
  H  H96  1  0.946200  0.119900  0.397100  1.0  0.124
  H  H97  1  0.394000  0.294200  0.851500  1.0  0.0917
  H  H98  1  0.446200  0.380100  0.102900  1.0  0.124
  H  H99  1  0.894000  0.794200  0.351500  1.0  0.0917
  H  H100  1  0.946200  0.880100  0.602900  1.0  0.124
  H  H101  1  0.606000  0.705800  0.851500  1.0  0.0915
  H  H102  1  0.553800  0.619900  0.102900  1.0  0.1272
  H  H103  1  0.106000  0.205800  0.351500  1.0  0.0915
  H  H104  1  0.053800  0.119900  0.602900  1.0  0.1272
  H  H105  1  0.606000  0.294200  0.148500  1.0  0.0906
  H  H106  1  0.553800  0.380100  0.897100  1.0  0.1261
  H  H107  1  0.106000  0.794200  0.648500  1.0  0.0906
  H  H108  1  0.053800  0.880100  0.397100  1.0  0.1261
  H  H109  1  0.873500  0.641600  0.358400  1.0  0.1187
  H  H110  1  0.373500  0.141600  0.858400  1.0  0.1187
  H  H111  1  0.126500  0.358400  0.358400  1.0  0.1181
  H  H112  1  0.626500  0.858400  0.858400  1.0  0.1181
  H  H113  1  0.126500  0.641600  0.641600  1.0  0.1174
  H  H114  1  0.626500  0.141600  0.141600  1.0  0.1174
  H  H115  1  0.873500  0.358400  0.641600  1.0  0.1182
  H  H116  1  0.373500  0.858400  0.141600  1.0  0.1182
  H  H117  1  0.358400  0.873500  0.641600  1.0  0.1186
  H  H118  1  0.858400  0.373500  0.141600  1.0  0.1186
  H  H119  1  0.358400  0.126500  0.358400  1.0  0.12
  H  H120  1  0.858400  0.626500  0.858400  1.0  0.12
  H  H121  1  0.641600  0.126500  0.641600  1.0  0.1186
  H  H122  1  0.141600  0.626500  0.141600  1.0  0.1186
  H  H123  1  0.641600  0.873500  0.358400  1.0  0.118
  H  H124  1  0.141600  0.373500  0.858400  1.0  0.118
  H  H125  1  0.641600  0.358400  0.873500  1.0  0.1187
  H  H126  1  0.141600  0.858400  0.373500  1.0  0.1187
  H  H127  1  0.358400  0.358400  0.126500  1.0  0.12
  H  H128  1  0.858400  0.858400  0.626500  1.0  0.12
  H  H129  1  0.641600  0.641600  0.126500  1.0  0.1191
  H  H130  1  0.141600  0.141600  0.626500  1.0  0.1191
  H  H131  1  0.358400  0.641600  0.873500  1.0  0.1196
  H  H132  1  0.858400  0.141600  0.373500  1.0  0.1196
  C  C133  1  0.104400  0.675500  0.379200  1.0  0.0253
  C  C134  1  0.604400  0.175500  0.879200  1.0  0.0253
  C  C135  1  0.895600  0.324500  0.379200  1.0  0.0252
  C  C136  1  0.395600  0.824500  0.879200  1.0  0.0252
  C  C137  1  0.895600  0.675500  0.620800  1.0  0.0255
  C  C138  1  0.395600  0.175500  0.120800  1.0  0.0255
  C  C139  1  0.104400  0.324500  0.620800  1.0  0.0257
  C  C140  1  0.604400  0.824500  0.120800  1.0  0.0257
  C  C141  1  0.379200  0.104400  0.675500  1.0  0.0257
  C  C142  1  0.879200  0.604400  0.175500  1.0  0.0257
  C  C143  1  0.379200  0.895600  0.324500  1.0  0.0256
  C  C144  1  0.879200  0.395600  0.824500  1.0  0.0256
  C  C145  1  0.620800  0.895600  0.675500  1.0  0.0251
  C  C146  1  0.120800  0.395600  0.175500  1.0  0.0251
  C  C147  1  0.620800  0.104400  0.324500  1.0  0.0241
  C  C148  1  0.120800  0.604400  0.824500  1.0  0.0241
  C  C149  1  0.675500  0.379200  0.104400  1.0  0.0267
  C  C150  1  0.175500  0.879200  0.604400  1.0  0.0267
  C  C151  1  0.324500  0.379200  0.895600  1.0  0.0257
  C  C152  1  0.824500  0.879200  0.395600  1.0  0.0257
  C  C153  1  0.675500  0.620800  0.895600  1.0  0.0263
  C  C154  1  0.175500  0.120800  0.395600  1.0  0.0263
  C  C155  1  0.324500  0.620800  0.104400  1.0  0.0249
  C  C156  1  0.824500  0.120800  0.604400  1.0  0.0249
  C  C157  1  0.675500  0.104400  0.379200  1.0  0.026
  C  C158  1  0.175500  0.604400  0.879200  1.0  0.026
  C  C159  1  0.324500  0.895600  0.379200  1.0  0.0259
  C  C160  1  0.824500  0.395600  0.879200  1.0  0.0259
  C  C161  1  0.675500  0.895600  0.620800  1.0  0.027
  C  C162  1  0.175500  0.395600  0.120800  1.0  0.027
  C  C163  1  0.324500  0.104400  0.620800  1.0  0.0247
  C  C164  1  0.824500  0.604400  0.120800  1.0  0.0247
  C  C165  1  0.104400  0.379200  0.675500  1.0  0.0265
  C  C166  1  0.604400  0.879200  0.175500  1.0  0.0265
  C  C167  1  0.895600  0.379200  0.324500  1.0  0.0254
  C  C168  1  0.395600  0.879200  0.824500  1.0  0.0254
  C  C169  1  0.895600  0.620800  0.675500  1.0  0.0259
  C  C170  1  0.395600  0.120800  0.175500  1.0  0.0259
  C  C171  1  0.104400  0.620800  0.324500  1.0  0.0252
  C  C172  1  0.604400  0.120800  0.824500  1.0  0.0252
  C  C173  1  0.379200  0.675500  0.104400  1.0  0.0251
  C  C174  1  0.879200  0.175500  0.604400  1.0  0.0251
  C  C175  1  0.379200  0.324500  0.895600  1.0  0.0255
  C  C176  1  0.879200  0.824500  0.395600  1.0  0.0255
  C  C177  1  0.620800  0.675500  0.895600  1.0  0.0243
  C  C178  1  0.120800  0.175500  0.395600  1.0  0.0243
  C  C179  1  0.620800  0.324500  0.104400  1.0  0.0239
  C  C180  1  0.120800  0.824500  0.604400  1.0  0.0239
  C  C181  1  0.990700  0.627000  0.373000  1.0  0.4237
  C  C182  1  0.907500  0.609100  0.390900  1.0  -0.4496
  C  C183  1  0.490700  0.127000  0.873000  1.0  0.4237
  C  C184  1  0.407500  0.109100  0.890900  1.0  -0.4496
  C  C185  1  0.009300  0.373000  0.373000  1.0  0.4236
  C  C186  1  0.092500  0.390900  0.390900  1.0  -0.4502
  C  C187  1  0.509300  0.873000  0.873000  1.0  0.4236
  C  C188  1  0.592500  0.890900  0.890900  1.0  -0.4502
  C  C189  1  0.009300  0.627000  0.627000  1.0  0.4233
  C  C190  1  0.092500  0.609100  0.609100  1.0  -0.4506
  C  C191  1  0.509300  0.127000  0.127000  1.0  0.4233
  C  C192  1  0.592500  0.109100  0.109100  1.0  -0.4506
  C  C193  1  0.990700  0.373000  0.627000  1.0  0.4237
  C  C194  1  0.907500  0.390900  0.609100  1.0  -0.4496
  C  C195  1  0.490700  0.873000  0.127000  1.0  0.4237
  C  C196  1  0.407500  0.890900  0.109100  1.0  -0.4496
  C  C197  1  0.373000  0.990700  0.627000  1.0  0.4234
  C  C198  1  0.390900  0.907500  0.609100  1.0  -0.4509
  C  C199  1  0.873000  0.490700  0.127000  1.0  0.4234
  C  C200  1  0.890900  0.407500  0.109100  1.0  -0.4509
  C  C201  1  0.373000  0.009300  0.373000  1.0  0.4236
  C  C202  1  0.390900  0.092500  0.390900  1.0  -0.4512
  C  C203  1  0.873000  0.509300  0.873000  1.0  0.4236
  C  C204  1  0.890900  0.592500  0.890900  1.0  -0.4512
  C  C205  1  0.627000  0.009300  0.627000  1.0  0.4238
  C  C206  1  0.609100  0.092500  0.609100  1.0  -0.4518
  C  C207  1  0.127000  0.509300  0.127000  1.0  0.4238
  C  C208  1  0.109100  0.592500  0.109100  1.0  -0.4518
  C  C209  1  0.627000  0.990700  0.373000  1.0  0.4237
  C  C210  1  0.609100  0.907500  0.390900  1.0  -0.4509
  C  C211  1  0.127000  0.490700  0.873000  1.0  0.4237
  C  C212  1  0.109100  0.407500  0.890900  1.0  -0.4509
  C  C213  1  0.627000  0.373000  0.990700  1.0  0.4242
  C  C214  1  0.609100  0.390900  0.907500  1.0  -0.4514
  C  C215  1  0.127000  0.873000  0.490700  1.0  0.4242
  C  C216  1  0.109100  0.890900  0.407500  1.0  -0.4514
  C  C217  1  0.373000  0.373000  0.009300  1.0  0.4233
  C  C218  1  0.390900  0.390900  0.092500  1.0  -0.4506
  C  C219  1  0.873000  0.873000  0.509300  1.0  0.4233
  C  C220  1  0.890900  0.890900  0.592500  1.0  -0.4506
  C  C221  1  0.627000  0.627000  0.009300  1.0  0.4235
  C  C222  1  0.609100  0.609100  0.092500  1.0  -0.4514
  C  C223  1  0.127000  0.127000  0.509300  1.0  0.4235
  C  C224  1  0.109100  0.109100  0.592500  1.0  -0.4514
  C  C225  1  0.373000  0.627000  0.990700  1.0  0.4234
  C  C226  1  0.390900  0.609100  0.907500  1.0  -0.4519
  C  C227  1  0.873000  0.127000  0.490700  1.0  0.4234
  C  C228  1  0.890900  0.109100  0.407500  1.0  -0.4519
  N  N229  1  0.032100  0.681900  0.411000  1.0  -0.481
  N  N230  1  0.532100  0.181900  0.911000  1.0  -0.481
  N  N231  1  0.967900  0.318100  0.411000  1.0  -0.4806
  N  N232  1  0.467900  0.818100  0.911000  1.0  -0.4806
  N  N233  1  0.967900  0.681900  0.589000  1.0  -0.4821
  N  N234  1  0.467900  0.181900  0.089000  1.0  -0.4821
  N  N235  1  0.032100  0.318100  0.589000  1.0  -0.4807
  N  N236  1  0.532100  0.818100  0.089000  1.0  -0.4807
  N  N237  1  0.411000  0.032100  0.681900  1.0  -0.4787
  N  N238  1  0.911000  0.532100  0.181900  1.0  -0.4787
  N  N239  1  0.411000  0.967900  0.318100  1.0  -0.4804
  N  N240  1  0.911000  0.467900  0.818100  1.0  -0.4804
  N  N241  1  0.589000  0.967900  0.681900  1.0  -0.4784
  N  N242  1  0.089000  0.467900  0.181900  1.0  -0.4784
  N  N243  1  0.589000  0.032100  0.318100  1.0  -0.4804
  N  N244  1  0.089000  0.532100  0.818100  1.0  -0.4804
  N  N245  1  0.681900  0.411000  0.032100  1.0  -0.4784
  N  N246  1  0.181900  0.911000  0.532100  1.0  -0.4784
  N  N247  1  0.318100  0.411000  0.967900  1.0  -0.4797
  N  N248  1  0.818100  0.911000  0.467900  1.0  -0.4797
  N  N249  1  0.681900  0.589000  0.967900  1.0  -0.4785
  N  N250  1  0.181900  0.089000  0.467900  1.0  -0.4785
  N  N251  1  0.318100  0.589000  0.032100  1.0  -0.4796
  N  N252  1  0.818100  0.089000  0.532100  1.0  -0.4796
  N  N253  1  0.681900  0.032100  0.411000  1.0  -0.4791
  N  N254  1  0.181900  0.532100  0.911000  1.0  -0.4791
  N  N255  1  0.318100  0.967900  0.411000  1.0  -0.4809
  N  N256  1  0.818100  0.467900  0.911000  1.0  -0.4809
  N  N257  1  0.681900  0.967900  0.589000  1.0  -0.4804
  N  N258  1  0.181900  0.467900  0.089000  1.0  -0.4804
  N  N259  1  0.318100  0.032100  0.589000  1.0  -0.4811
  N  N260  1  0.818100  0.532100  0.089000  1.0  -0.4811
  N  N261  1  0.032100  0.411000  0.681900  1.0  -0.4783
  N  N262  1  0.532100  0.911000  0.181900  1.0  -0.4783
  N  N263  1  0.967900  0.411000  0.318100  1.0  -0.4811
  N  N264  1  0.467900  0.911000  0.818100  1.0  -0.4811
  N  N265  1  0.967900  0.589000  0.681900  1.0  -0.479
  N  N266  1  0.467900  0.089000  0.181900  1.0  -0.479
  N  N267  1  0.032100  0.589000  0.318100  1.0  -0.481
  N  N268  1  0.532100  0.089000  0.818100  1.0  -0.481
  N  N269  1  0.411000  0.681900  0.032100  1.0  -0.4803
  N  N270  1  0.911000  0.181900  0.532100  1.0  -0.4803
  N  N271  1  0.411000  0.318100  0.967900  1.0  -0.4791
  N  N272  1  0.911000  0.818100  0.467900  1.0  -0.4791
  N  N273  1  0.589000  0.681900  0.967900  1.0  -0.4799
  N  N274  1  0.089000  0.181900  0.467900  1.0  -0.4799
  N  N275  1  0.589000  0.318100  0.032100  1.0  -0.4789
  N  N276  1  0.089000  0.818100  0.532100  1.0  -0.4789
