# generated using pymatgen
data_ZnH10(C2N)4
_symmetry_space_group_name_H-M   'P 1'
_cell_length_a   17.12360000
_cell_length_b   17.12360000
_cell_length_c   17.12360000
_cell_angle_alpha   90.00000000
_cell_angle_beta   90.00000000
_cell_angle_gamma   90.00000000
_symmetry_Int_Tables_number   1
_chemical_formula_structural   ZnH10(C2N)4
_chemical_formula_sum   'Zn12 H120 C96 N48'
_cell_volume   5020.94221319
_cell_formula_units_Z   12
loop_
 _symmetry_equiv_pos_site_id
 _symmetry_equiv_pos_as_xyz
  1  'x, y, z'
loop_
 _atom_site_type_symbol
 _atom_site_label
 _atom_site_symmetry_multiplicity
 _atom_site_fract_x
 _atom_site_fract_y
 _atom_site_fract_z
 _atom_site_occupancy
 _atom_site_charge
  Zn  Zn1  1  0.000000  0.750000  0.500000  1.0  0.7589
  Zn  Zn2  1  0.000000  0.250000  0.500000  1.0  0.7589
  Zn  Zn3  1  0.500000  0.000000  0.750000  1.0  0.7589
  Zn  Zn4  1  0.500000  0.000000  0.250000  1.0  0.7589
  Zn  Zn5  1  0.750000  0.500000  0.000000  1.0  0.7589
  Zn  Zn6  1  0.250000  0.500000  0.000000  1.0  0.7589
  Zn  Zn7  1  0.750000  0.000000  0.500000  1.0  0.7589
  Zn  Zn8  1  0.250000  0.000000  0.500000  1.0  0.7589
  Zn  Zn9  1  0.000000  0.500000  0.750000  1.0  0.7589
  Zn  Zn10  1  0.000000  0.500000  0.250000  1.0  0.7589
  Zn  Zn11  1  0.500000  0.750000  0.000000  1.0  0.7589
  Zn  Zn12  1  0.500000  0.250000  0.000000  1.0  0.7589
  H  H13  1  0.154100  0.691000  0.410800  1.0  0.0973
  H  H14  1  0.885900  0.638800  0.427200  1.0  0.1308
  H  H15  1  0.654100  0.191000  0.910800  1.0  0.0973
  H  H16  1  0.385900  0.138800  0.927200  1.0  0.1308
  H  H17  1  0.845900  0.309000  0.410800  1.0  0.097
  H  H18  1  0.114100  0.361200  0.427200  1.0  0.1293
  H  H19  1  0.345900  0.809000  0.910800  1.0  0.097
  H  H20  1  0.614100  0.861200  0.927200  1.0  0.1293
  H  H21  1  0.845900  0.691000  0.589200  1.0  0.0967
  H  H22  1  0.114100  0.638800  0.572800  1.0  0.1304
  H  H23  1  0.345900  0.191000  0.089200  1.0  0.0967
  H  H24  1  0.614100  0.138800  0.072800  1.0  0.1304
  H  H25  1  0.154100  0.309000  0.589200  1.0  0.0976
  H  H26  1  0.885900  0.361200  0.572800  1.0  0.1311
  H  H27  1  0.654100  0.809000  0.089200  1.0  0.0976
  H  H28  1  0.385900  0.861200  0.072800  1.0  0.1311
  H  H29  1  0.410800  0.154100  0.691000  1.0  0.0982
  H  H30  1  0.427200  0.885900  0.638800  1.0  0.1298
  H  H31  1  0.910800  0.654100  0.191000  1.0  0.0982
  H  H32  1  0.927200  0.385900  0.138800  1.0  0.1298
  H  H33  1  0.410800  0.845900  0.309000  1.0  0.0983
  H  H34  1  0.427200  0.114100  0.361200  1.0  0.1295
  H  H35  1  0.910800  0.345900  0.809000  1.0  0.0983
  H  H36  1  0.927200  0.614100  0.861200  1.0  0.1295
  H  H37  1  0.589200  0.845900  0.691000  1.0  0.0985
  H  H38  1  0.572800  0.114100  0.638800  1.0  0.1307
  H  H39  1  0.089200  0.345900  0.191000  1.0  0.0985
  H  H40  1  0.072800  0.614100  0.138800  1.0  0.1307
  H  H41  1  0.589200  0.154100  0.309000  1.0  0.0982
  H  H42  1  0.572800  0.885900  0.361200  1.0  0.1311
  H  H43  1  0.089200  0.654100  0.809000  1.0  0.0982
  H  H44  1  0.072800  0.385900  0.861200  1.0  0.1311
  H  H45  1  0.691000  0.410800  0.154100  1.0  0.0977
  H  H46  1  0.638800  0.427200  0.885900  1.0  0.132
  H  H47  1  0.191000  0.910800  0.654100  1.0  0.0977
  H  H48  1  0.138800  0.927200  0.385900  1.0  0.132
  H  H49  1  0.309000  0.410800  0.845900  1.0  0.098
  H  H50  1  0.361200  0.427200  0.114100  1.0  0.132
  H  H51  1  0.809000  0.910800  0.345900  1.0  0.098
  H  H52  1  0.861200  0.927200  0.614100  1.0  0.132
  H  H53  1  0.691000  0.589200  0.845900  1.0  0.098
  H  H54  1  0.638800  0.572800  0.114100  1.0  0.1325
  H  H55  1  0.191000  0.089200  0.345900  1.0  0.098
  H  H56  1  0.138800  0.072800  0.614100  1.0  0.1325
  H  H57  1  0.309000  0.589200  0.154100  1.0  0.0977
  H  H58  1  0.361200  0.572800  0.885900  1.0  0.1312
  H  H59  1  0.809000  0.089200  0.654100  1.0  0.0977
  H  H60  1  0.861200  0.072800  0.385900  1.0  0.1312
  H  H61  1  0.691000  0.154100  0.410800  1.0  0.0986
  H  H62  1  0.638800  0.885900  0.427200  1.0  0.1312
  H  H63  1  0.191000  0.654100  0.910800  1.0  0.0986
  H  H64  1  0.138800  0.385900  0.927200  1.0  0.1312
  H  H65  1  0.309000  0.845900  0.410800  1.0  0.0984
  H  H66  1  0.361200  0.114100  0.427200  1.0  0.131
  H  H67  1  0.809000  0.345900  0.910800  1.0  0.0984
  H  H68  1  0.861200  0.614100  0.927200  1.0  0.131
  H  H69  1  0.691000  0.845900  0.589200  1.0  0.0986
  H  H70  1  0.638800  0.114100  0.572800  1.0  0.1318
  H  H71  1  0.191000  0.345900  0.089200  1.0  0.0986
  H  H72  1  0.138800  0.614100  0.072800  1.0  0.1318
  H  H73  1  0.309000  0.154100  0.589200  1.0  0.0984
  H  H74  1  0.361200  0.885900  0.572800  1.0  0.1313
  H  H75  1  0.809000  0.654100  0.089200  1.0  0.0984
  H  H76  1  0.861200  0.385900  0.072800  1.0  0.1313
  H  H77  1  0.154100  0.410800  0.691000  1.0  0.0967
  H  H78  1  0.885900  0.427200  0.638800  1.0  0.1323
  H  H79  1  0.654100  0.910800  0.191000  1.0  0.0967
  H  H80  1  0.385900  0.927200  0.138800  1.0  0.1323
  H  H81  1  0.845900  0.410800  0.309000  1.0  0.0966
  H  H82  1  0.114100  0.427200  0.361200  1.0  0.1312
  H  H83  1  0.345900  0.910800  0.809000  1.0  0.0966
  H  H84  1  0.614100  0.927200  0.861200  1.0  0.1312
  H  H85  1  0.845900  0.589200  0.691000  1.0  0.0963
  H  H86  1  0.114100  0.572800  0.638800  1.0  0.1316
  H  H87  1  0.345900  0.089200  0.191000  1.0  0.0963
  H  H88  1  0.614100  0.072800  0.138800  1.0  0.1316
  H  H89  1  0.154100  0.589200  0.309000  1.0  0.0971
  H  H90  1  0.885900  0.572800  0.361200  1.0  0.1322
  H  H91  1  0.654100  0.089200  0.809000  1.0  0.0971
  H  H92  1  0.385900  0.072800  0.861200  1.0  0.1322
  H  H93  1  0.410800  0.691000  0.154100  1.0  0.0982
  H  H94  1  0.427200  0.638800  0.885900  1.0  0.1285
  H  H95  1  0.910800  0.191000  0.654100  1.0  0.0982
  H  H96  1  0.927200  0.138800  0.385900  1.0  0.1285
  H  H97  1  0.410800  0.309000  0.845900  1.0  0.0983
  H  H98  1  0.427200  0.361200  0.114100  1.0  0.1288
  H  H99  1  0.910800  0.809000  0.345900  1.0  0.0983
  H  H100  1  0.927200  0.861200  0.614100  1.0  0.1288
  H  H101  1  0.589200  0.691000  0.845900  1.0  0.0983
  H  H102  1  0.572800  0.638800  0.114100  1.0  0.1299
  H  H103  1  0.089200  0.191000  0.345900  1.0  0.0983
  H  H104  1  0.072800  0.138800  0.614100  1.0  0.1299
  H  H105  1  0.589200  0.309000  0.154100  1.0  0.0985
  H  H106  1  0.572800  0.361200  0.885900  1.0  0.1291
  H  H107  1  0.089200  0.809000  0.654100  1.0  0.0985
  H  H108  1  0.072800  0.861200  0.385900  1.0  0.1291
  H  H109  1  0.878000  0.662800  0.337200  1.0  0.1333
  H  H110  1  0.378000  0.162800  0.837200  1.0  0.1333
  H  H111  1  0.122000  0.337200  0.337200  1.0  0.1318
  H  H112  1  0.622000  0.837200  0.837200  1.0  0.1318
  H  H113  1  0.122000  0.662800  0.662800  1.0  0.1322
  H  H114  1  0.622000  0.162800  0.162800  1.0  0.1322
  H  H115  1  0.878000  0.337200  0.662800  1.0  0.1332
  H  H116  1  0.378000  0.837200  0.162800  1.0  0.1332
  H  H117  1  0.337200  0.878000  0.662800  1.0  0.1335
  H  H118  1  0.837200  0.378000  0.162800  1.0  0.1335
  H  H119  1  0.337200  0.122000  0.337200  1.0  0.1338
  H  H120  1  0.837200  0.622000  0.837200  1.0  0.1338
  H  H121  1  0.662800  0.122000  0.662800  1.0  0.1326
  H  H122  1  0.162800  0.622000  0.162800  1.0  0.1326
  H  H123  1  0.662800  0.878000  0.337200  1.0  0.1319
  H  H124  1  0.162800  0.378000  0.837200  1.0  0.1319
  H  H125  1  0.662800  0.337200  0.878000  1.0  0.133
  H  H126  1  0.162800  0.837200  0.378000  1.0  0.133
  H  H127  1  0.337200  0.337200  0.122000  1.0  0.1338
  H  H128  1  0.837200  0.837200  0.622000  1.0  0.1338
  H  H129  1  0.662800  0.662800  0.122000  1.0  0.1325
  H  H130  1  0.162800  0.162800  0.622000  1.0  0.1325
  H  H131  1  0.337200  0.662800  0.878000  1.0  0.1345
  H  H132  1  0.837200  0.162800  0.378000  1.0  0.1345
  C  C133  1  0.109110  0.666180  0.389970  1.0  -0.0248
  C  C134  1  0.609110  0.166180  0.889970  1.0  -0.0248
  C  C135  1  0.890890  0.333820  0.389970  1.0  -0.0266
  C  C136  1  0.390890  0.833820  0.889970  1.0  -0.0266
  C  C137  1  0.890890  0.666180  0.610030  1.0  -0.0263
  C  C138  1  0.390890  0.166180  0.110030  1.0  -0.0263
  C  C139  1  0.109110  0.333820  0.610030  1.0  -0.0255
  C  C140  1  0.609110  0.833820  0.110030  1.0  -0.0255
  C  C141  1  0.389970  0.109110  0.666180  1.0  -0.0265
  C  C142  1  0.889970  0.609110  0.166180  1.0  -0.0265
  C  C143  1  0.389970  0.890890  0.333820  1.0  -0.0272
  C  C144  1  0.889970  0.390890  0.833820  1.0  -0.0272
  C  C145  1  0.610030  0.890890  0.666180  1.0  -0.0275
  C  C146  1  0.110030  0.390890  0.166180  1.0  -0.0275
  C  C147  1  0.610030  0.109110  0.333820  1.0  -0.0273
  C  C148  1  0.110030  0.609110  0.833820  1.0  -0.0273
  C  C149  1  0.666180  0.389970  0.109110  1.0  -0.0256
  C  C150  1  0.166180  0.889970  0.609110  1.0  -0.0256
  C  C151  1  0.333820  0.389970  0.890890  1.0  -0.0259
  C  C152  1  0.833820  0.889970  0.390890  1.0  -0.0259
  C  C153  1  0.666180  0.610030  0.890890  1.0  -0.0259
  C  C154  1  0.166180  0.110030  0.390890  1.0  -0.0259
  C  C155  1  0.333820  0.610030  0.109110  1.0  -0.0264
  C  C156  1  0.833820  0.110030  0.609110  1.0  -0.0264
  C  C157  1  0.666180  0.109110  0.389970  1.0  -0.0264
  C  C158  1  0.166180  0.609110  0.889970  1.0  -0.0264
  C  C159  1  0.333820  0.890890  0.389970  1.0  -0.0274
  C  C160  1  0.833820  0.390890  0.889970  1.0  -0.0274
  C  C161  1  0.666180  0.890890  0.610030  1.0  -0.0275
  C  C162  1  0.166180  0.390890  0.110030  1.0  -0.0275
  C  C163  1  0.333820  0.109110  0.610030  1.0  -0.0278
  C  C164  1  0.833820  0.609110  0.110030  1.0  -0.0278
  C  C165  1  0.109110  0.389970  0.666180  1.0  -0.0248
  C  C166  1  0.609110  0.889970  0.166180  1.0  -0.0248
  C  C167  1  0.890890  0.389970  0.333820  1.0  -0.026
  C  C168  1  0.390890  0.889970  0.833820  1.0  -0.026
  C  C169  1  0.890890  0.610030  0.666180  1.0  -0.0265
  C  C170  1  0.390890  0.110030  0.166180  1.0  -0.0265
  C  C171  1  0.109110  0.610030  0.333820  1.0  -0.0256
  C  C172  1  0.609110  0.110030  0.833820  1.0  -0.0256
  C  C173  1  0.389970  0.666180  0.109110  1.0  -0.0258
  C  C174  1  0.889970  0.166180  0.609110  1.0  -0.0258
  C  C175  1  0.389970  0.333820  0.890890  1.0  -0.0258
  C  C176  1  0.889970  0.833820  0.390890  1.0  -0.0258
  C  C177  1  0.610030  0.666180  0.890890  1.0  -0.026
  C  C178  1  0.110030  0.166180  0.390890  1.0  -0.026
  C  C179  1  0.610030  0.333820  0.109110  1.0  -0.0268
  C  C180  1  0.110030  0.833820  0.609110  1.0  -0.0268
  C  C181  1  0.990100  0.632220  0.367780  1.0  0.4016
  C  C182  1  0.902200  0.626130  0.373870  1.0  -0.4432
  C  C183  1  0.490100  0.132220  0.867780  1.0  0.4016
  C  C184  1  0.402200  0.126130  0.873870  1.0  -0.4432
  C  C185  1  0.009900  0.367780  0.367780  1.0  0.4031
  C  C186  1  0.097800  0.373870  0.373870  1.0  -0.4443
  C  C187  1  0.509900  0.867780  0.867780  1.0  0.4031
  C  C188  1  0.597800  0.873870  0.873870  1.0  -0.4443
  C  C189  1  0.009900  0.632220  0.632220  1.0  0.4033
  C  C190  1  0.097800  0.626130  0.626130  1.0  -0.4442
  C  C191  1  0.509900  0.132220  0.132220  1.0  0.4033
  C  C192  1  0.597800  0.126130  0.126130  1.0  -0.4442
  C  C193  1  0.990100  0.367780  0.632220  1.0  0.4018
  C  C194  1  0.902200  0.373870  0.626130  1.0  -0.4431
  C  C195  1  0.490100  0.867780  0.132220  1.0  0.4018
  C  C196  1  0.402200  0.873870  0.126130  1.0  -0.4431
  C  C197  1  0.367780  0.990100  0.632220  1.0  0.4031
  C  C198  1  0.373870  0.902200  0.626130  1.0  -0.4447
  C  C199  1  0.867780  0.490100  0.132220  1.0  0.4031
  C  C200  1  0.873870  0.402200  0.126130  1.0  -0.4447
  C  C201  1  0.367780  0.009900  0.367780  1.0  0.4028
  C  C202  1  0.373870  0.097800  0.373870  1.0  -0.4444
  C  C203  1  0.867780  0.509900  0.867780  1.0  0.4028
  C  C204  1  0.873870  0.597800  0.873870  1.0  -0.4444
  C  C205  1  0.632220  0.009900  0.632220  1.0  0.4034
  C  C206  1  0.626130  0.097800  0.626130  1.0  -0.4447
  C  C207  1  0.132220  0.509900  0.132220  1.0  0.4034
  C  C208  1  0.126130  0.597800  0.126130  1.0  -0.4447
  C  C209  1  0.632220  0.990100  0.367780  1.0  0.4034
  C  C210  1  0.626130  0.902200  0.373870  1.0  -0.4448
  C  C211  1  0.132220  0.490100  0.867780  1.0  0.4034
  C  C212  1  0.126130  0.402200  0.873870  1.0  -0.4448
  C  C213  1  0.632220  0.367780  0.990100  1.0  0.4035
  C  C214  1  0.626130  0.373870  0.902200  1.0  -0.4465
  C  C215  1  0.132220  0.867780  0.490100  1.0  0.4035
  C  C216  1  0.126130  0.873870  0.402200  1.0  -0.4465
  C  C217  1  0.367780  0.367780  0.009900  1.0  0.4027
  C  C218  1  0.373870  0.373870  0.097800  1.0  -0.4464
  C  C219  1  0.867780  0.867780  0.509900  1.0  0.4027
  C  C220  1  0.873870  0.873870  0.597800  1.0  -0.4464
  C  C221  1  0.632220  0.632220  0.009900  1.0  0.4031
  C  C222  1  0.626130  0.626130  0.097800  1.0  -0.4468
  C  C223  1  0.132220  0.132220  0.509900  1.0  0.4031
  C  C224  1  0.126130  0.126130  0.597800  1.0  -0.4468
  C  C225  1  0.367780  0.632220  0.990100  1.0  0.4031
  C  C226  1  0.373870  0.626130  0.902200  1.0  -0.4469
  C  C227  1  0.867780  0.132220  0.490100  1.0  0.4031
  C  C228  1  0.873870  0.126130  0.402200  1.0  -0.4469
  N  N229  1  0.033020  0.681040  0.411580  1.0  -0.4369
  N  N230  1  0.533020  0.181040  0.911580  1.0  -0.4369
  N  N231  1  0.966980  0.318960  0.411580  1.0  -0.4364
  N  N232  1  0.466980  0.818960  0.911580  1.0  -0.4364
  N  N233  1  0.966980  0.681040  0.588420  1.0  -0.4369
  N  N234  1  0.466980  0.181040  0.088420  1.0  -0.4369
  N  N235  1  0.033020  0.318960  0.588420  1.0  -0.437
  N  N236  1  0.533020  0.818960  0.088420  1.0  -0.437
  N  N237  1  0.411580  0.033020  0.681040  1.0  -0.4384
  N  N238  1  0.911580  0.533020  0.181040  1.0  -0.4384
  N  N239  1  0.411580  0.966980  0.318960  1.0  -0.4381
  N  N240  1  0.911580  0.466980  0.818960  1.0  -0.4381
  N  N241  1  0.588420  0.966980  0.681040  1.0  -0.4373
  N  N242  1  0.088420  0.466980  0.181040  1.0  -0.4373
  N  N243  1  0.588420  0.033020  0.318960  1.0  -0.4377
  N  N244  1  0.088420  0.533020  0.818960  1.0  -0.4377
  N  N245  1  0.681040  0.411580  0.033020  1.0  -0.4376
  N  N246  1  0.181040  0.911580  0.533020  1.0  -0.4376
  N  N247  1  0.318960  0.411580  0.966980  1.0  -0.4379
  N  N248  1  0.818960  0.911580  0.466980  1.0  -0.4379
  N  N249  1  0.681040  0.588420  0.966980  1.0  -0.4379
  N  N250  1  0.181040  0.088420  0.466980  1.0  -0.4379
  N  N251  1  0.318960  0.588420  0.033020  1.0  -0.4373
  N  N252  1  0.818960  0.088420  0.533020  1.0  -0.4373
  N  N253  1  0.681040  0.033020  0.411580  1.0  -0.4378
  N  N254  1  0.181040  0.533020  0.911580  1.0  -0.4378
  N  N255  1  0.318960  0.966980  0.411580  1.0  -0.4372
  N  N256  1  0.818960  0.466980  0.911580  1.0  -0.4372
  N  N257  1  0.681040  0.966980  0.588420  1.0  -0.4378
  N  N258  1  0.181040  0.466980  0.088420  1.0  -0.4378
  N  N259  1  0.318960  0.033020  0.588420  1.0  -0.4379
  N  N260  1  0.818960  0.533020  0.088420  1.0  -0.4379
  N  N261  1  0.033020  0.411580  0.681040  1.0  -0.4368
  N  N262  1  0.533020  0.911580  0.181040  1.0  -0.4368
  N  N263  1  0.966980  0.411580  0.318960  1.0  -0.4365
  N  N264  1  0.466980  0.911580  0.818960  1.0  -0.4365
  N  N265  1  0.966980  0.588420  0.681040  1.0  -0.4365
  N  N266  1  0.466980  0.088420  0.181040  1.0  -0.4365
  N  N267  1  0.033020  0.588420  0.318960  1.0  -0.4368
  N  N268  1  0.533020  0.088420  0.818960  1.0  -0.4368
  N  N269  1  0.411580  0.681040  0.033020  1.0  -0.4384
  N  N270  1  0.911580  0.181040  0.533020  1.0  -0.4384
  N  N271  1  0.411580  0.318960  0.966980  1.0  -0.4384
  N  N272  1  0.911580  0.818960  0.466980  1.0  -0.4384
  N  N273  1  0.588420  0.681040  0.966980  1.0  -0.4381
  N  N274  1  0.088420  0.181040  0.466980  1.0  -0.4381
  N  N275  1  0.588420  0.318960  0.033020  1.0  -0.4373
  N  N276  1  0.088420  0.818960  0.533020  1.0  -0.4373
