# generated using pymatgen
data_ZnH10(CN)6
_symmetry_space_group_name_H-M   'P 1'
_cell_length_a   17.07970000
_cell_length_b   17.07970000
_cell_length_c   17.07970000
_cell_angle_alpha   90.00000000
_cell_angle_beta   90.00000000
_cell_angle_gamma   90.00000000
_symmetry_Int_Tables_number   1
_chemical_formula_structural   ZnH10(CN)6
_chemical_formula_sum   'Zn12 H120 C72 N72'
_cell_volume   4982.42436285
_cell_formula_units_Z   12
loop_
 _symmetry_equiv_pos_site_id
 _symmetry_equiv_pos_as_xyz
  1  'x, y, z'
loop_
 _atom_site_type_symbol
 _atom_site_label
 _atom_site_symmetry_multiplicity
 _atom_site_fract_x
 _atom_site_fract_y
 _atom_site_fract_z
 _atom_site_occupancy
 _atom_site_charge
  Zn  Zn1  1  0.000000  0.750000  0.500000  1.0  0.7543
  Zn  Zn2  1  0.000000  0.250000  0.500000  1.0  0.7533
  Zn  Zn3  1  0.500000  0.000000  0.750000  1.0  0.7532
  Zn  Zn4  1  0.500000  0.000000  0.250000  1.0  0.7542
  Zn  Zn5  1  0.750000  0.500000  0.000000  1.0  0.754
  Zn  Zn6  1  0.250000  0.500000  0.000000  1.0  0.7541
  Zn  Zn7  1  0.750000  0.000000  0.500000  1.0  0.7541
  Zn  Zn8  1  0.250000  0.000000  0.500000  1.0  0.754
  Zn  Zn9  1  0.000000  0.500000  0.750000  1.0  0.7542
  Zn  Zn10  1  0.000000  0.500000  0.250000  1.0  0.7531
  Zn  Zn11  1  0.500000  0.750000  0.000000  1.0  0.7541
  Zn  Zn12  1  0.500000  0.250000  0.000000  1.0  0.7538
  H  H13  1  0.151800  0.686800  0.414100  1.0  0.0938
  H  H14  1  0.880600  0.644700  0.421600  1.0  0.1328
  H  H15  1  0.651800  0.186800  0.914100  1.0  0.0938
  H  H16  1  0.380600  0.144700  0.921600  1.0  0.1328
  H  H17  1  0.848200  0.313200  0.414100  1.0  0.0937
  H  H18  1  0.119400  0.355300  0.421600  1.0  0.1329
  H  H19  1  0.348200  0.813200  0.914100  1.0  0.0937
  H  H20  1  0.619400  0.855300  0.921600  1.0  0.1329
  H  H21  1  0.848200  0.686800  0.585900  1.0  0.0932
  H  H22  1  0.119400  0.644700  0.578400  1.0  0.1345
  H  H23  1  0.348200  0.186800  0.085900  1.0  0.0932
  H  H24  1  0.619400  0.144700  0.078400  1.0  0.1345
  H  H25  1  0.151800  0.313200  0.585900  1.0  0.0938
  H  H26  1  0.880600  0.355300  0.578400  1.0  0.1338
  H  H27  1  0.651800  0.813200  0.085900  1.0  0.0938
  H  H28  1  0.380600  0.855300  0.078400  1.0  0.1342
  H  H29  1  0.414100  0.151800  0.686800  1.0  0.095
  H  H30  1  0.421600  0.880600  0.644700  1.0  0.1356
  H  H31  1  0.914100  0.651800  0.186800  1.0  0.095
  H  H32  1  0.921600  0.380600  0.144700  1.0  0.1356
  H  H33  1  0.414100  0.848200  0.313200  1.0  0.0945
  H  H34  1  0.421600  0.119400  0.355300  1.0  0.1348
  H  H35  1  0.914100  0.348200  0.813200  1.0  0.0945
  H  H36  1  0.921600  0.619400  0.855300  1.0  0.1346
  H  H37  1  0.585900  0.848200  0.686800  1.0  0.0948
  H  H38  1  0.578400  0.119400  0.644700  1.0  0.1363
  H  H39  1  0.085900  0.348200  0.186800  1.0  0.0948
  H  H40  1  0.078400  0.619400  0.144700  1.0  0.1363
  H  H41  1  0.585900  0.151800  0.313200  1.0  0.0952
  H  H42  1  0.578400  0.880600  0.355300  1.0  0.1374
  H  H43  1  0.085900  0.651800  0.813200  1.0  0.0952
  H  H44  1  0.078400  0.380600  0.855300  1.0  0.1378
  H  H45  1  0.686800  0.414100  0.151800  1.0  0.094
  H  H46  1  0.644700  0.421600  0.880600  1.0  0.1362
  H  H47  1  0.186800  0.914100  0.651800  1.0  0.094
  H  H48  1  0.144700  0.921600  0.380600  1.0  0.1362
  H  H49  1  0.313200  0.414100  0.848200  1.0  0.0948
  H  H50  1  0.355300  0.421600  0.119400  1.0  0.1361
  H  H51  1  0.813200  0.914100  0.348200  1.0  0.0948
  H  H52  1  0.855300  0.921600  0.619400  1.0  0.1356
  H  H53  1  0.686800  0.585900  0.848200  1.0  0.0952
  H  H54  1  0.644700  0.578400  0.119400  1.0  0.1368
  H  H55  1  0.186800  0.085900  0.348200  1.0  0.0952
  H  H56  1  0.144700  0.078400  0.619400  1.0  0.1368
  H  H57  1  0.313200  0.585900  0.151800  1.0  0.0932
  H  H58  1  0.355300  0.578400  0.880600  1.0  0.1358
  H  H59  1  0.813200  0.085900  0.651800  1.0  0.0932
  H  H60  1  0.855300  0.078400  0.380600  1.0  0.1361
  H  H61  1  0.686800  0.151800  0.414100  1.0  0.0952
  H  H62  1  0.644700  0.880600  0.421600  1.0  0.1353
  H  H63  1  0.186800  0.651800  0.914100  1.0  0.0952
  H  H64  1  0.144700  0.380600  0.921600  1.0  0.1353
  H  H65  1  0.313200  0.848200  0.414100  1.0  0.0944
  H  H66  1  0.355300  0.119400  0.421600  1.0  0.1347
  H  H67  1  0.813200  0.348200  0.914100  1.0  0.0944
  H  H68  1  0.855300  0.619400  0.921600  1.0  0.1343
  H  H69  1  0.686800  0.848200  0.585900  1.0  0.0945
  H  H70  1  0.644700  0.119400  0.578400  1.0  0.1369
  H  H71  1  0.186800  0.348200  0.085900  1.0  0.0945
  H  H72  1  0.144700  0.619400  0.078400  1.0  0.1369
  H  H73  1  0.313200  0.151800  0.585900  1.0  0.0946
  H  H74  1  0.355300  0.880600  0.578400  1.0  0.1362
  H  H75  1  0.813200  0.651800  0.085900  1.0  0.0946
  H  H76  1  0.855300  0.380600  0.078400  1.0  0.1367
  H  H77  1  0.151800  0.414100  0.686800  1.0  0.0937
  H  H78  1  0.880600  0.421600  0.644700  1.0  0.1353
  H  H79  1  0.651800  0.914100  0.186800  1.0  0.0937
  H  H80  1  0.380600  0.921600  0.144700  1.0  0.1353
  H  H81  1  0.848200  0.414100  0.313200  1.0  0.0934
  H  H82  1  0.119400  0.421600  0.355300  1.0  0.1358
  H  H83  1  0.348200  0.914100  0.813200  1.0  0.0934
  H  H84  1  0.619400  0.921600  0.855300  1.0  0.1354
  H  H85  1  0.848200  0.585900  0.686800  1.0  0.0935
  H  H86  1  0.119400  0.578400  0.644700  1.0  0.136
  H  H87  1  0.348200  0.085900  0.186800  1.0  0.0935
  H  H88  1  0.619400  0.078400  0.144700  1.0  0.136
  H  H89  1  0.151800  0.585900  0.313200  1.0  0.0937
  H  H90  1  0.880600  0.578400  0.355300  1.0  0.1351
  H  H91  1  0.651800  0.085900  0.813200  1.0  0.0937
  H  H92  1  0.380600  0.078400  0.855300  1.0  0.1355
  H  H93  1  0.414100  0.686800  0.151800  1.0  0.094
  H  H94  1  0.421600  0.644700  0.880600  1.0  0.1338
  H  H95  1  0.914100  0.186800  0.651800  1.0  0.094
  H  H96  1  0.921600  0.144700  0.380600  1.0  0.1335
  H  H97  1  0.414100  0.313200  0.848200  1.0  0.0953
  H  H98  1  0.421600  0.355300  0.119400  1.0  0.134
  H  H99  1  0.914100  0.813200  0.348200  1.0  0.0953
  H  H100  1  0.921600  0.855300  0.619400  1.0  0.1339
  H  H101  1  0.585900  0.686800  0.848200  1.0  0.095
  H  H102  1  0.578400  0.644700  0.119400  1.0  0.1366
  H  H103  1  0.085900  0.186800  0.348200  1.0  0.095
  H  H104  1  0.078400  0.144700  0.619400  1.0  0.1366
  H  H105  1  0.585900  0.313200  0.151800  1.0  0.0939
  H  H106  1  0.578400  0.355300  0.880600  1.0  0.1346
  H  H107  1  0.085900  0.813200  0.651800  1.0  0.0939
  H  H108  1  0.078400  0.855300  0.380600  1.0  0.135
  H  H109  1  0.877200  0.668850  0.331150  1.0  0.1298
  H  H110  1  0.377200  0.168850  0.831150  1.0  0.1298
  H  H111  1  0.122800  0.331150  0.331150  1.0  0.1275
  H  H112  1  0.622800  0.831150  0.831150  1.0  0.1285
  H  H113  1  0.122800  0.668850  0.668850  1.0  0.1288
  H  H114  1  0.622800  0.168850  0.168850  1.0  0.1288
  H  H115  1  0.877200  0.331150  0.668850  1.0  0.1303
  H  H116  1  0.377200  0.831150  0.168850  1.0  0.1303
  H  H117  1  0.331150  0.877200  0.668850  1.0  0.13
  H  H118  1  0.831150  0.377200  0.168850  1.0  0.13
  H  H119  1  0.331150  0.122800  0.331150  1.0  0.1288
  H  H120  1  0.831150  0.622800  0.831150  1.0  0.1297
  H  H121  1  0.668850  0.122800  0.668850  1.0  0.1294
  H  H122  1  0.168850  0.622800  0.168850  1.0  0.1294
  H  H123  1  0.668850  0.877200  0.331150  1.0  0.1283
  H  H124  1  0.168850  0.377200  0.831150  1.0  0.1283
  H  H125  1  0.668850  0.331150  0.877200  1.0  0.1289
  H  H126  1  0.168850  0.831150  0.377200  1.0  0.1289
  H  H127  1  0.331150  0.331150  0.122800  1.0  0.1291
  H  H128  1  0.831150  0.831150  0.622800  1.0  0.1304
  H  H129  1  0.668850  0.668850  0.122800  1.0  0.1282
  H  H130  1  0.168850  0.168850  0.622800  1.0  0.1282
  H  H131  1  0.331150  0.668850  0.877200  1.0  0.1297
  H  H132  1  0.831150  0.168850  0.377200  1.0  0.1302
  C  C133  1  0.106580  0.663260  0.391840  1.0  0.1173
  C  C134  1  0.606580  0.163260  0.891840  1.0  0.1173
  C  C135  1  0.893420  0.336740  0.391840  1.0  0.1153
  C  C136  1  0.393420  0.836740  0.891840  1.0  0.1146
  C  C137  1  0.893420  0.663260  0.608160  1.0  0.1159
  C  C138  1  0.393420  0.163260  0.108160  1.0  0.1156
  C  C139  1  0.106580  0.336740  0.608160  1.0  0.1163
  C  C140  1  0.606580  0.836740  0.108160  1.0  0.1163
  C  C141  1  0.391840  0.106580  0.663260  1.0  0.1143
  C  C142  1  0.891840  0.606580  0.163260  1.0  0.1143
  C  C143  1  0.391840  0.893420  0.336740  1.0  0.1149
  C  C144  1  0.891840  0.393420  0.836740  1.0  0.1149
  C  C145  1  0.608160  0.893420  0.663260  1.0  0.1142
  C  C146  1  0.108160  0.393420  0.163260  1.0  0.1143
  C  C147  1  0.608160  0.106580  0.336740  1.0  0.1128
  C  C148  1  0.108160  0.606580  0.836740  1.0  0.1128
  C  C149  1  0.663260  0.391840  0.106580  1.0  0.1145
  C  C150  1  0.163260  0.891840  0.606580  1.0  0.1145
  C  C151  1  0.336740  0.391840  0.893420  1.0  0.1151
  C  C152  1  0.836740  0.891840  0.393420  1.0  0.1144
  C  C153  1  0.663260  0.608160  0.893420  1.0  0.1153
  C  C154  1  0.163260  0.108160  0.393420  1.0  0.1158
  C  C155  1  0.336740  0.608160  0.106580  1.0  0.1101
  C  C156  1  0.836740  0.108160  0.606580  1.0  0.1101
  C  C157  1  0.986700  0.633820  0.366180  1.0  0.4207
  C  C158  1  0.898600  0.631200  0.368790  1.0  -0.454
  C  C159  1  0.486700  0.133820  0.866180  1.0  0.4207
  C  C160  1  0.398600  0.131200  0.868790  1.0  -0.454
  C  C161  1  0.013300  0.366180  0.366180  1.0  0.42
  C  C162  1  0.101400  0.368800  0.368790  1.0  -0.4557
  C  C163  1  0.513300  0.866180  0.866180  1.0  0.42
  C  C164  1  0.601400  0.868800  0.868790  1.0  -0.4557
  C  C165  1  0.013300  0.633820  0.633820  1.0  0.4212
  C  C166  1  0.101400  0.631200  0.631210  1.0  -0.4554
  C  C167  1  0.513300  0.133820  0.133820  1.0  0.4212
  C  C168  1  0.601400  0.131200  0.131210  1.0  -0.4554
  C  C169  1  0.986700  0.366180  0.633820  1.0  0.4236
  C  C170  1  0.898600  0.368800  0.631210  1.0  -0.4538
  C  C171  1  0.486700  0.866180  0.133820  1.0  0.4236
  C  C172  1  0.398600  0.868800  0.131210  1.0  -0.4538
  C  C173  1  0.366180  0.986700  0.633820  1.0  0.4232
  C  C174  1  0.368790  0.898600  0.631200  1.0  -0.4556
  C  C175  1  0.866180  0.486700  0.133820  1.0  0.4232
  C  C176  1  0.868790  0.398600  0.131200  1.0  -0.4556
  C  C177  1  0.366180  0.013300  0.366180  1.0  0.4213
  C  C178  1  0.368790  0.101400  0.368800  1.0  -0.4552
  C  C179  1  0.866180  0.513300  0.866180  1.0  0.4213
  C  C180  1  0.868790  0.601400  0.868800  1.0  -0.4552
  C  C181  1  0.633820  0.013300  0.633820  1.0  0.426
  C  C182  1  0.631210  0.101400  0.631200  1.0  -0.4551
  C  C183  1  0.133820  0.513300  0.133820  1.0  0.426
  C  C184  1  0.131210  0.601400  0.131200  1.0  -0.4551
  C  C185  1  0.633820  0.986700  0.366180  1.0  0.4238
  C  C186  1  0.631210  0.898600  0.368800  1.0  -0.4555
  C  C187  1  0.133820  0.486700  0.866180  1.0  0.4238
  C  C188  1  0.131210  0.398600  0.868800  1.0  -0.4555
  C  C189  1  0.633820  0.366180  0.986700  1.0  0.4226
  C  C190  1  0.631200  0.368790  0.898600  1.0  -0.4571
  C  C191  1  0.133820  0.866180  0.486700  1.0  0.4226
  C  C192  1  0.131200  0.868790  0.398600  1.0  -0.4571
  C  C193  1  0.366180  0.366180  0.013300  1.0  0.4205
  C  C194  1  0.368800  0.368790  0.101400  1.0  -0.4557
  C  C195  1  0.866180  0.866180  0.513300  1.0  0.4205
  C  C196  1  0.868790  0.868790  0.601400  1.0  -0.4555
  C  C197  1  0.633820  0.633820  0.013300  1.0  0.4264
  C  C198  1  0.631200  0.631210  0.101400  1.0  -0.4566
  C  C199  1  0.133820  0.133820  0.513300  1.0  0.4264
  C  C200  1  0.131200  0.131210  0.601400  1.0  -0.4566
  C  C201  1  0.366180  0.633820  0.986700  1.0  0.4235
  C  C202  1  0.368800  0.631210  0.898600  1.0  -0.4576
  C  C203  1  0.866180  0.133820  0.486700  1.0  0.4235
  C  C204  1  0.868790  0.131210  0.398600  1.0  -0.4573
  N  N205  1  0.030590  0.680370  0.411200  1.0  -0.4369
  N  N206  1  0.106580  0.608160  0.336740  1.0  -0.2266
  N  N207  1  0.530590  0.180370  0.911200  1.0  -0.4369
  N  N208  1  0.606580  0.108160  0.836740  1.0  -0.2266
  N  N209  1  0.969410  0.319630  0.411200  1.0  -0.4341
  N  N210  1  0.893420  0.391840  0.336740  1.0  -0.2273
  N  N211  1  0.469410  0.819630  0.911200  1.0  -0.4369
  N  N212  1  0.393420  0.891840  0.836740  1.0  -0.2273
  N  N213  1  0.969410  0.680370  0.588800  1.0  -0.4327
  N  N214  1  0.893420  0.608160  0.663260  1.0  -0.2276
  N  N215  1  0.469410  0.180370  0.088800  1.0  -0.4337
  N  N216  1  0.393420  0.108160  0.163260  1.0  -0.2276
  N  N217  1  0.030590  0.319630  0.588800  1.0  -0.4335
  N  N218  1  0.106580  0.391840  0.663260  1.0  -0.226
  N  N219  1  0.530590  0.819630  0.088800  1.0  -0.4335
  N  N220  1  0.606580  0.891840  0.163260  1.0  -0.226
  N  N221  1  0.411200  0.030590  0.680370  1.0  -0.4376
  N  N222  1  0.336740  0.106580  0.608160  1.0  -0.2327
  N  N223  1  0.911200  0.530590  0.180370  1.0  -0.4376
  N  N224  1  0.836740  0.606580  0.108160  1.0  -0.2327
  N  N225  1  0.411200  0.969410  0.319630  1.0  -0.437
  N  N226  1  0.336740  0.893420  0.391840  1.0  -0.2289
  N  N227  1  0.911200  0.469410  0.819630  1.0  -0.437
  N  N228  1  0.836740  0.393420  0.891840  1.0  -0.2319
  N  N229  1  0.588800  0.969410  0.680370  1.0  -0.4338
  N  N230  1  0.663260  0.893420  0.608160  1.0  -0.2275
  N  N231  1  0.088800  0.469410  0.180370  1.0  -0.4339
  N  N232  1  0.163260  0.393420  0.108160  1.0  -0.2275
  N  N233  1  0.588800  0.030590  0.319630  1.0  -0.4338
  N  N234  1  0.663260  0.106580  0.391840  1.0  -0.229
  N  N235  1  0.088800  0.530590  0.819630  1.0  -0.4338
  N  N236  1  0.163260  0.606580  0.891840  1.0  -0.229
  N  N237  1  0.680370  0.411200  0.030590  1.0  -0.4375
  N  N238  1  0.608160  0.336740  0.106580  1.0  -0.2292
  N  N239  1  0.180370  0.911200  0.530590  1.0  -0.4375
  N  N240  1  0.108160  0.836740  0.606580  1.0  -0.2292
  N  N241  1  0.319630  0.411200  0.969410  1.0  -0.4368
  N  N242  1  0.391840  0.336740  0.893420  1.0  -0.2243
  N  N243  1  0.819630  0.911200  0.469410  1.0  -0.4386
  N  N244  1  0.891840  0.836740  0.393420  1.0  -0.2243
  N  N245  1  0.680370  0.588800  0.969410  1.0  -0.4379
  N  N246  1  0.608160  0.663260  0.893420  1.0  -0.2238
  N  N247  1  0.180370  0.088800  0.469410  1.0  -0.4379
  N  N248  1  0.108160  0.163260  0.393420  1.0  -0.2238
  N  N249  1  0.319630  0.588800  0.030590  1.0  -0.435
  N  N250  1  0.391840  0.663260  0.106580  1.0  -0.2242
  N  N251  1  0.819630  0.088800  0.530590  1.0  -0.435
  N  N252  1  0.891840  0.163260  0.606580  1.0  -0.2242
  N  N253  1  0.680370  0.030590  0.411200  1.0  -0.3844
  N  N254  1  0.180370  0.530590  0.911200  1.0  -0.3844
  N  N255  1  0.319630  0.969410  0.411200  1.0  -0.3829
  N  N256  1  0.819630  0.469410  0.911200  1.0  -0.3836
  N  N257  1  0.680370  0.969410  0.588800  1.0  -0.3843
  N  N258  1  0.180370  0.469410  0.088800  1.0  -0.3843
  N  N259  1  0.319630  0.030590  0.588800  1.0  -0.3823
  N  N260  1  0.819630  0.530590  0.088800  1.0  -0.3823
  N  N261  1  0.030590  0.411200  0.680370  1.0  -0.3843
  N  N262  1  0.530590  0.911200  0.180370  1.0  -0.3843
  N  N263  1  0.969410  0.411200  0.319630  1.0  -0.3841
  N  N264  1  0.469410  0.911200  0.819630  1.0  -0.3831
  N  N265  1  0.969410  0.588800  0.680370  1.0  -0.3816
  N  N266  1  0.469410  0.088800  0.180370  1.0  -0.381
  N  N267  1  0.030590  0.588800  0.319630  1.0  -0.3822
  N  N268  1  0.530590  0.088800  0.819630  1.0  -0.3822
  N  N269  1  0.411200  0.680370  0.030590  1.0  -0.3861
  N  N270  1  0.911200  0.180370  0.530590  1.0  -0.3861
  N  N271  1  0.411200  0.319630  0.969410  1.0  -0.3863
  N  N272  1  0.911200  0.819630  0.469410  1.0  -0.3863
  N  N273  1  0.588800  0.680370  0.969410  1.0  -0.3848
  N  N274  1  0.088800  0.180370  0.469410  1.0  -0.3843
  N  N275  1  0.588800  0.319630  0.030590  1.0  -0.3839
  N  N276  1  0.088800  0.819630  0.530590  1.0  -0.3839
