# generated using pymatgen
data_ZnH10(C2N)4
_symmetry_space_group_name_H-M   'P 1'
_cell_length_a   17.08200000
_cell_length_b   17.08200000
_cell_length_c   17.08200000
_cell_angle_alpha   90.00000000
_cell_angle_beta   90.00000000
_cell_angle_gamma   90.00000000
_symmetry_Int_Tables_number   1
_chemical_formula_structural   ZnH10(C2N)4
_chemical_formula_sum   'Zn12 H120 C96 N48'
_cell_volume   4984.43747537
_cell_formula_units_Z   12
loop_
 _symmetry_equiv_pos_site_id
 _symmetry_equiv_pos_as_xyz
  1  'x, y, z'
loop_
 _atom_site_type_symbol
 _atom_site_label
 _atom_site_symmetry_multiplicity
 _atom_site_fract_x
 _atom_site_fract_y
 _atom_site_fract_z
 _atom_site_occupancy
 _atom_site_charge
  Zn  Zn1  1  0.000000  0.750000  0.500000  1.0  0.757
  Zn  Zn2  1  0.000000  0.250000  0.500000  1.0  0.757
  Zn  Zn3  1  0.500000  0.000000  0.750000  1.0  0.757
  Zn  Zn4  1  0.500000  0.000000  0.250000  1.0  0.757
  Zn  Zn5  1  0.750000  0.500000  0.000000  1.0  0.757
  Zn  Zn6  1  0.250000  0.500000  0.000000  1.0  0.757
  Zn  Zn7  1  0.750000  0.000000  0.500000  1.0  0.757
  Zn  Zn8  1  0.250000  0.000000  0.500000  1.0  0.757
  Zn  Zn9  1  0.000000  0.500000  0.750000  1.0  0.757
  Zn  Zn10  1  0.000000  0.500000  0.250000  1.0  0.757
  Zn  Zn11  1  0.500000  0.750000  0.000000  1.0  0.757
  Zn  Zn12  1  0.500000  0.250000  0.000000  1.0  0.757
  H  H13  1  0.150800  0.689300  0.411300  1.0  0.0945
  H  H14  1  0.880400  0.644700  0.421800  1.0  0.1251
  H  H15  1  0.650800  0.189300  0.911300  1.0  0.0945
  H  H16  1  0.380400  0.144700  0.921800  1.0  0.1251
  H  H17  1  0.849200  0.310700  0.411300  1.0  0.0942
  H  H18  1  0.119600  0.355300  0.421800  1.0  0.1248
  H  H19  1  0.349200  0.810700  0.911300  1.0  0.0942
  H  H20  1  0.619600  0.855300  0.921800  1.0  0.1248
  H  H21  1  0.849200  0.689300  0.588700  1.0  0.0943
  H  H22  1  0.119600  0.644700  0.578200  1.0  0.126
  H  H23  1  0.349200  0.189300  0.088700  1.0  0.0943
  H  H24  1  0.619600  0.144700  0.078200  1.0  0.126
  H  H25  1  0.150800  0.310700  0.588700  1.0  0.0948
  H  H26  1  0.880400  0.355300  0.578200  1.0  0.1257
  H  H27  1  0.650800  0.810700  0.088700  1.0  0.0948
  H  H28  1  0.380400  0.855300  0.078200  1.0  0.1257
  H  H29  1  0.411300  0.150800  0.689300  1.0  0.0949
  H  H30  1  0.421800  0.880400  0.644700  1.0  0.125
  H  H31  1  0.911300  0.650800  0.189300  1.0  0.0949
  H  H32  1  0.921800  0.380400  0.144700  1.0  0.125
  H  H33  1  0.411300  0.849200  0.310700  1.0  0.0949
  H  H34  1  0.421800  0.119600  0.355300  1.0  0.125
  H  H35  1  0.911300  0.349200  0.810700  1.0  0.0949
  H  H36  1  0.921800  0.619600  0.855300  1.0  0.125
  H  H37  1  0.588700  0.849200  0.689300  1.0  0.095
  H  H38  1  0.578200  0.119600  0.644700  1.0  0.1261
  H  H39  1  0.088700  0.349200  0.189300  1.0  0.095
  H  H40  1  0.078200  0.619600  0.144700  1.0  0.1261
  H  H41  1  0.588700  0.150800  0.310700  1.0  0.0952
  H  H42  1  0.578200  0.880400  0.355300  1.0  0.1269
  H  H43  1  0.088700  0.650800  0.810700  1.0  0.0952
  H  H44  1  0.078200  0.380400  0.855300  1.0  0.1269
  H  H45  1  0.689300  0.411300  0.150800  1.0  0.0948
  H  H46  1  0.644700  0.421800  0.880400  1.0  0.1275
  H  H47  1  0.189300  0.911300  0.650800  1.0  0.0948
  H  H48  1  0.144700  0.921800  0.380400  1.0  0.1275
  H  H49  1  0.310700  0.411300  0.849200  1.0  0.0954
  H  H50  1  0.355300  0.421800  0.119600  1.0  0.1275
  H  H51  1  0.810700  0.911300  0.349200  1.0  0.0954
  H  H52  1  0.855300  0.921800  0.619600  1.0  0.1275
  H  H53  1  0.689300  0.588700  0.849200  1.0  0.0962
  H  H54  1  0.644700  0.578200  0.119600  1.0  0.1284
  H  H55  1  0.189300  0.088700  0.349200  1.0  0.0962
  H  H56  1  0.144700  0.078200  0.619600  1.0  0.1284
  H  H57  1  0.310700  0.588700  0.150800  1.0  0.0944
  H  H58  1  0.355300  0.578200  0.880400  1.0  0.1268
  H  H59  1  0.810700  0.088700  0.650800  1.0  0.0944
  H  H60  1  0.855300  0.078200  0.380400  1.0  0.1268
  H  H61  1  0.689300  0.150800  0.411300  1.0  0.0954
  H  H62  1  0.644700  0.880400  0.421800  1.0  0.1268
  H  H63  1  0.189300  0.650800  0.911300  1.0  0.0954
  H  H64  1  0.144700  0.380400  0.921800  1.0  0.1268
  H  H65  1  0.310700  0.849200  0.411300  1.0  0.0948
  H  H66  1  0.355300  0.119600  0.421800  1.0  0.1263
  H  H67  1  0.810700  0.349200  0.911300  1.0  0.0948
  H  H68  1  0.855300  0.619600  0.921800  1.0  0.1263
  H  H69  1  0.689300  0.849200  0.588700  1.0  0.0952
  H  H70  1  0.644700  0.119600  0.578200  1.0  0.1275
  H  H71  1  0.189300  0.349200  0.088700  1.0  0.0952
  H  H72  1  0.144700  0.619600  0.078200  1.0  0.1275
  H  H73  1  0.310700  0.150800  0.588700  1.0  0.0949
  H  H74  1  0.355300  0.880400  0.578200  1.0  0.1272
  H  H75  1  0.810700  0.650800  0.088700  1.0  0.0949
  H  H76  1  0.855300  0.380400  0.078200  1.0  0.1272
  H  H77  1  0.150800  0.411300  0.689300  1.0  0.0939
  H  H78  1  0.880400  0.421800  0.644700  1.0  0.1267
  H  H79  1  0.650800  0.911300  0.189300  1.0  0.0939
  H  H80  1  0.380400  0.921800  0.144700  1.0  0.1267
  H  H81  1  0.849200  0.411300  0.310700  1.0  0.0939
  H  H82  1  0.119600  0.421800  0.355300  1.0  0.1265
  H  H83  1  0.349200  0.911300  0.810700  1.0  0.0939
  H  H84  1  0.619600  0.921800  0.855300  1.0  0.1265
  H  H85  1  0.849200  0.588700  0.689300  1.0  0.0938
  H  H86  1  0.119600  0.578200  0.644700  1.0  0.1264
  H  H87  1  0.349200  0.088700  0.189300  1.0  0.0938
  H  H88  1  0.619600  0.078200  0.144700  1.0  0.1264
  H  H89  1  0.150800  0.588700  0.310700  1.0  0.0944
  H  H90  1  0.880400  0.578200  0.355300  1.0  0.1266
  H  H91  1  0.650800  0.088700  0.810700  1.0  0.0944
  H  H92  1  0.380400  0.078200  0.855300  1.0  0.1266
  H  H93  1  0.411300  0.689300  0.150800  1.0  0.0948
  H  H94  1  0.421800  0.644700  0.880400  1.0  0.1237
  H  H95  1  0.911300  0.189300  0.650800  1.0  0.0948
  H  H96  1  0.921800  0.144700  0.380400  1.0  0.1237
  H  H97  1  0.411300  0.310700  0.849200  1.0  0.096
  H  H98  1  0.421800  0.355300  0.119600  1.0  0.1246
  H  H99  1  0.911300  0.810700  0.349200  1.0  0.096
  H  H100  1  0.921800  0.855300  0.619600  1.0  0.1246
  H  H101  1  0.588700  0.689300  0.849200  1.0  0.0959
  H  H102  1  0.578200  0.644700  0.119600  1.0  0.1255
  H  H103  1  0.088700  0.189300  0.349200  1.0  0.0959
  H  H104  1  0.078200  0.144700  0.619600  1.0  0.1255
  H  H105  1  0.588700  0.310700  0.150800  1.0  0.095
  H  H106  1  0.578200  0.355300  0.880400  1.0  0.1241
  H  H107  1  0.088700  0.810700  0.650800  1.0  0.095
  H  H108  1  0.078200  0.855300  0.380400  1.0  0.1241
  H  H109  1  0.878000  0.668500  0.331500  1.0  0.1275
  H  H110  1  0.378000  0.168500  0.831500  1.0  0.1275
  H  H111  1  0.122000  0.331500  0.331500  1.0  0.1263
  H  H112  1  0.622000  0.831500  0.831500  1.0  0.1263
  H  H113  1  0.122000  0.668500  0.668500  1.0  0.1261
  H  H114  1  0.622000  0.168500  0.168500  1.0  0.1261
  H  H115  1  0.878000  0.331500  0.668500  1.0  0.1275
  H  H116  1  0.378000  0.831500  0.168500  1.0  0.1275
  H  H117  1  0.331500  0.878000  0.668500  1.0  0.127
  H  H118  1  0.831500  0.378000  0.168500  1.0  0.127
  H  H119  1  0.331500  0.122000  0.331500  1.0  0.1277
  H  H120  1  0.831500  0.622000  0.831500  1.0  0.1277
  H  H121  1  0.668500  0.122000  0.668500  1.0  0.1267
  H  H122  1  0.168500  0.622000  0.168500  1.0  0.1267
  H  H123  1  0.668500  0.878000  0.331500  1.0  0.1262
  H  H124  1  0.168500  0.378000  0.831500  1.0  0.1262
  H  H125  1  0.668500  0.331500  0.878000  1.0  0.1261
  H  H126  1  0.168500  0.831500  0.378000  1.0  0.1261
  H  H127  1  0.331500  0.331500  0.122000  1.0  0.1271
  H  H128  1  0.831500  0.831500  0.622000  1.0  0.1271
  H  H129  1  0.668500  0.668500  0.122000  1.0  0.1256
  H  H130  1  0.168500  0.168500  0.622000  1.0  0.1256
  H  H131  1  0.331500  0.668500  0.878000  1.0  0.127
  H  H132  1  0.831500  0.168500  0.378000  1.0  0.127
  C  C133  1  0.105500  0.664900  0.390000  1.0  -0.0128
  C  C134  1  0.605500  0.164900  0.890000  1.0  -0.0128
  C  C135  1  0.894500  0.335100  0.390000  1.0  -0.0132
  C  C136  1  0.394500  0.835100  0.890000  1.0  -0.0132
  C  C137  1  0.894500  0.664900  0.610000  1.0  -0.0135
  C  C138  1  0.394500  0.164900  0.110000  1.0  -0.0135
  C  C139  1  0.105500  0.335100  0.610000  1.0  -0.0137
  C  C140  1  0.605500  0.835100  0.110000  1.0  -0.0137
  C  C141  1  0.390000  0.105500  0.664900  1.0  -0.0136
  C  C142  1  0.890000  0.605500  0.164900  1.0  -0.0136
  C  C143  1  0.390000  0.894500  0.335100  1.0  -0.0137
  C  C144  1  0.890000  0.394500  0.835100  1.0  -0.0137
  C  C145  1  0.610000  0.894500  0.664900  1.0  -0.0147
  C  C146  1  0.110000  0.394500  0.164900  1.0  -0.0147
  C  C147  1  0.610000  0.105500  0.335100  1.0  -0.0154
  C  C148  1  0.110000  0.605500  0.835100  1.0  -0.0154
  C  C149  1  0.664900  0.390000  0.105500  1.0  -0.0129
  C  C150  1  0.164900  0.890000  0.605500  1.0  -0.0129
  C  C151  1  0.335100  0.390000  0.894500  1.0  -0.0139
  C  C152  1  0.835100  0.890000  0.394500  1.0  -0.0139
  C  C153  1  0.664900  0.610000  0.894500  1.0  -0.013
  C  C154  1  0.164900  0.110000  0.394500  1.0  -0.013
  C  C155  1  0.335100  0.610000  0.105500  1.0  -0.0143
  C  C156  1  0.835100  0.110000  0.605500  1.0  -0.0143
  C  C157  1  0.664900  0.105500  0.390000  1.0  -0.0138
  C  C158  1  0.164900  0.605500  0.890000  1.0  -0.0138
  C  C159  1  0.335100  0.894500  0.390000  1.0  -0.0149
  C  C160  1  0.835100  0.394500  0.890000  1.0  -0.0149
  C  C161  1  0.664900  0.894500  0.610000  1.0  -0.0139
  C  C162  1  0.164900  0.394500  0.110000  1.0  -0.0139
  C  C163  1  0.335100  0.105500  0.610000  1.0  -0.0155
  C  C164  1  0.835100  0.605500  0.110000  1.0  -0.0155
  C  C165  1  0.105500  0.390000  0.664900  1.0  -0.0129
  C  C166  1  0.605500  0.890000  0.164900  1.0  -0.0129
  C  C167  1  0.894500  0.390000  0.335100  1.0  -0.0132
  C  C168  1  0.394500  0.890000  0.835100  1.0  -0.0132
  C  C169  1  0.894500  0.610000  0.664900  1.0  -0.0131
  C  C170  1  0.394500  0.110000  0.164900  1.0  -0.0131
  C  C171  1  0.105500  0.610000  0.335100  1.0  -0.0138
  C  C172  1  0.605500  0.110000  0.835100  1.0  -0.0138
  C  C173  1  0.390000  0.664900  0.105500  1.0  -0.0124
  C  C174  1  0.890000  0.164900  0.605500  1.0  -0.0124
  C  C175  1  0.390000  0.335100  0.894500  1.0  -0.0132
  C  C176  1  0.890000  0.835100  0.394500  1.0  -0.0132
  C  C177  1  0.610000  0.664900  0.894500  1.0  -0.014
  C  C178  1  0.110000  0.164900  0.394500  1.0  -0.014
  C  C179  1  0.610000  0.335100  0.105500  1.0  -0.0143
  C  C180  1  0.110000  0.835100  0.605500  1.0  -0.0143
  C  C181  1  0.986500  0.632500  0.367500  1.0  0.4305
  C  C182  1  0.898800  0.630700  0.369300  1.0  -0.446
  C  C183  1  0.486500  0.132500  0.867500  1.0  0.4305
  C  C184  1  0.398800  0.130700  0.869300  1.0  -0.446
  C  C185  1  0.013500  0.367500  0.367500  1.0  0.4309
  C  C186  1  0.101200  0.369300  0.369300  1.0  -0.4488
  C  C187  1  0.513500  0.867500  0.867500  1.0  0.4309
  C  C188  1  0.601200  0.869300  0.869300  1.0  -0.4488
  C  C189  1  0.013500  0.632500  0.632500  1.0  0.4311
  C  C190  1  0.101200  0.630700  0.630700  1.0  -0.4489
  C  C191  1  0.513500  0.132500  0.132500  1.0  0.4311
  C  C192  1  0.601200  0.130700  0.130700  1.0  -0.4489
  C  C193  1  0.986500  0.367500  0.632500  1.0  0.4312
  C  C194  1  0.898800  0.369300  0.630700  1.0  -0.4463
  C  C195  1  0.486500  0.867500  0.132500  1.0  0.4312
  C  C196  1  0.398800  0.869300  0.130700  1.0  -0.4463
  C  C197  1  0.367500  0.986500  0.632500  1.0  0.4324
  C  C198  1  0.369300  0.898800  0.630700  1.0  -0.4486
  C  C199  1  0.867500  0.486500  0.132500  1.0  0.4324
  C  C200  1  0.869300  0.398800  0.130700  1.0  -0.4486
  C  C201  1  0.367500  0.013500  0.367500  1.0  0.4314
  C  C202  1  0.369300  0.101200  0.369300  1.0  -0.4476
  C  C203  1  0.867500  0.513500  0.867500  1.0  0.4314
  C  C204  1  0.869300  0.601200  0.869300  1.0  -0.4476
  C  C205  1  0.632500  0.013500  0.632500  1.0  0.4321
  C  C206  1  0.630700  0.101200  0.630700  1.0  -0.4482
  C  C207  1  0.132500  0.513500  0.132500  1.0  0.4321
  C  C208  1  0.130700  0.601200  0.130700  1.0  -0.4482
  C  C209  1  0.632500  0.986500  0.367500  1.0  0.4322
  C  C210  1  0.630700  0.898800  0.369300  1.0  -0.4485
  C  C211  1  0.132500  0.486500  0.867500  1.0  0.4322
  C  C212  1  0.130700  0.398800  0.869300  1.0  -0.4485
  C  C213  1  0.632500  0.367500  0.986500  1.0  0.4326
  C  C214  1  0.630700  0.369300  0.898800  1.0  -0.4492
  C  C215  1  0.132500  0.867500  0.486500  1.0  0.4326
  C  C216  1  0.130700  0.869300  0.398800  1.0  -0.4492
  C  C217  1  0.367500  0.367500  0.013500  1.0  0.4315
  C  C218  1  0.369300  0.369300  0.101200  1.0  -0.4485
  C  C219  1  0.867500  0.867500  0.513500  1.0  0.4315
  C  C220  1  0.869300  0.869300  0.601200  1.0  -0.4485
  C  C221  1  0.632500  0.632500  0.013500  1.0  0.4315
  C  C222  1  0.630700  0.630700  0.101200  1.0  -0.4487
  C  C223  1  0.132500  0.132500  0.513500  1.0  0.4315
  C  C224  1  0.130700  0.130700  0.601200  1.0  -0.4487
  C  C225  1  0.367500  0.632500  0.986500  1.0  0.4319
  C  C226  1  0.369300  0.630700  0.898800  1.0  -0.4493
  C  C227  1  0.867500  0.132500  0.486500  1.0  0.4319
  C  C228  1  0.869300  0.130700  0.398800  1.0  -0.4493
  N  N229  1  0.030020  0.680660  0.410940  1.0  -0.4519
  N  N230  1  0.530020  0.180660  0.910940  1.0  -0.4519
  N  N231  1  0.969980  0.319340  0.410940  1.0  -0.4508
  N  N232  1  0.469980  0.819340  0.910940  1.0  -0.4508
  N  N233  1  0.969980  0.680660  0.589060  1.0  -0.4501
  N  N234  1  0.469980  0.180660  0.089060  1.0  -0.4501
  N  N235  1  0.030020  0.319340  0.589060  1.0  -0.451
  N  N236  1  0.530020  0.819340  0.089060  1.0  -0.451
  N  N237  1  0.410940  0.030020  0.680660  1.0  -0.4523
  N  N238  1  0.910940  0.530020  0.180660  1.0  -0.4523
  N  N239  1  0.410940  0.969980  0.319340  1.0  -0.4514
  N  N240  1  0.910940  0.469980  0.819340  1.0  -0.4514
  N  N241  1  0.589060  0.969980  0.680660  1.0  -0.4514
  N  N242  1  0.089060  0.469980  0.180660  1.0  -0.4514
  N  N243  1  0.589060  0.030020  0.319340  1.0  -0.4508
  N  N244  1  0.089060  0.530020  0.819340  1.0  -0.4508
  N  N245  1  0.680660  0.410940  0.030020  1.0  -0.4521
  N  N246  1  0.180660  0.910940  0.530020  1.0  -0.4521
  N  N247  1  0.319340  0.410940  0.969980  1.0  -0.4527
  N  N248  1  0.819340  0.910940  0.469980  1.0  -0.4527
  N  N249  1  0.680660  0.589060  0.969980  1.0  -0.4524
  N  N250  1  0.180660  0.089060  0.469980  1.0  -0.4524
  N  N251  1  0.319340  0.589060  0.030020  1.0  -0.4518
  N  N252  1  0.819340  0.089060  0.530020  1.0  -0.4518
  N  N253  1  0.680660  0.030020  0.410940  1.0  -0.4521
  N  N254  1  0.180660  0.530020  0.910940  1.0  -0.4521
  N  N255  1  0.319340  0.969980  0.410940  1.0  -0.4517
  N  N256  1  0.819340  0.469980  0.910940  1.0  -0.4517
  N  N257  1  0.680660  0.969980  0.589060  1.0  -0.4513
  N  N258  1  0.180660  0.469980  0.089060  1.0  -0.4513
  N  N259  1  0.319340  0.030020  0.589060  1.0  -0.4508
  N  N260  1  0.819340  0.530020  0.089060  1.0  -0.4508
  N  N261  1  0.030020  0.410940  0.680660  1.0  -0.4519
  N  N262  1  0.530020  0.910940  0.180660  1.0  -0.4519
  N  N263  1  0.969980  0.410940  0.319340  1.0  -0.4499
  N  N264  1  0.469980  0.910940  0.819340  1.0  -0.4499
  N  N265  1  0.969980  0.589060  0.680660  1.0  -0.4508
  N  N266  1  0.469980  0.089060  0.180660  1.0  -0.4508
  N  N267  1  0.030020  0.589060  0.319340  1.0  -0.4509
  N  N268  1  0.530020  0.089060  0.819340  1.0  -0.4509
  N  N269  1  0.410940  0.680660  0.030020  1.0  -0.4524
  N  N270  1  0.910940  0.180660  0.530020  1.0  -0.4524
  N  N271  1  0.410940  0.319340  0.969980  1.0  -0.4526
  N  N272  1  0.910940  0.819340  0.469980  1.0  -0.4526
  N  N273  1  0.589060  0.680660  0.969980  1.0  -0.4524
  N  N274  1  0.089060  0.180660  0.469980  1.0  -0.4524
  N  N275  1  0.589060  0.319340  0.030020  1.0  -0.4519
  N  N276  1  0.089060  0.819340  0.530020  1.0  -0.4519
