# generated using pymatgen
data_ZnH10(C2N)4
_symmetry_space_group_name_H-M   'P 1'
_cell_length_a   17.05500000
_cell_length_b   17.05500000
_cell_length_c   17.05500000
_cell_angle_alpha   90.00000000
_cell_angle_beta   90.00000000
_cell_angle_gamma   90.00000000
_symmetry_Int_Tables_number   1
_chemical_formula_structural   ZnH10(C2N)4
_chemical_formula_sum   'Zn12 H120 C96 N48'
_cell_volume   4960.83944137
_cell_formula_units_Z   12
loop_
 _symmetry_equiv_pos_site_id
 _symmetry_equiv_pos_as_xyz
  1  'x, y, z'
loop_
 _atom_site_type_symbol
 _atom_site_label
 _atom_site_symmetry_multiplicity
 _atom_site_fract_x
 _atom_site_fract_y
 _atom_site_fract_z
 _atom_site_occupancy
 _atom_site_charge
  Zn  Zn1  1  0.000000  0.750000  0.500000  1.0  0.7493
  Zn  Zn2  1  0.000000  0.250000  0.500000  1.0  0.7493
  Zn  Zn3  1  0.500000  0.000000  0.750000  1.0  0.7493
  Zn  Zn4  1  0.500000  0.000000  0.250000  1.0  0.7493
  Zn  Zn5  1  0.750000  0.500000  0.000000  1.0  0.7493
  Zn  Zn6  1  0.250000  0.500000  0.000000  1.0  0.7493
  Zn  Zn7  1  0.750000  0.000000  0.500000  1.0  0.7493
  Zn  Zn8  1  0.250000  0.000000  0.500000  1.0  0.7493
  Zn  Zn9  1  0.000000  0.500000  0.750000  1.0  0.7493
  Zn  Zn10  1  0.000000  0.500000  0.250000  1.0  0.7493
  Zn  Zn11  1  0.500000  0.750000  0.000000  1.0  0.7493
  Zn  Zn12  1  0.500000  0.250000  0.000000  1.0  0.7493
  H  H13  1  0.136800  0.721700  0.378800  1.0  0.0973
  H  H14  1  0.901500  0.607700  0.458400  1.0  0.1151
  H  H15  1  0.636800  0.221700  0.878800  1.0  0.0973
  H  H16  1  0.401500  0.107700  0.958400  1.0  0.1151
  H  H17  1  0.863200  0.278300  0.378800  1.0  0.0973
  H  H18  1  0.098500  0.392300  0.458400  1.0  0.115
  H  H19  1  0.363200  0.778300  0.878800  1.0  0.0973
  H  H20  1  0.598500  0.892300  0.958400  1.0  0.115
  H  H21  1  0.863200  0.721700  0.621200  1.0  0.0968
  H  H22  1  0.098500  0.607700  0.541600  1.0  0.116
  H  H23  1  0.363200  0.221700  0.121200  1.0  0.0968
  H  H24  1  0.598500  0.107700  0.041600  1.0  0.116
  H  H25  1  0.136800  0.278300  0.621200  1.0  0.0974
  H  H26  1  0.901500  0.392300  0.541600  1.0  0.1165
  H  H27  1  0.636800  0.778300  0.121200  1.0  0.0974
  H  H28  1  0.401500  0.892300  0.041600  1.0  0.1165
  H  H29  1  0.378800  0.136800  0.721700  1.0  0.0966
  H  H30  1  0.458400  0.901500  0.607700  1.0  0.1115
  H  H31  1  0.878800  0.636800  0.221700  1.0  0.0966
  H  H32  1  0.958400  0.401500  0.107700  1.0  0.1115
  H  H33  1  0.378800  0.863200  0.278300  1.0  0.0966
  H  H34  1  0.458400  0.098500  0.392300  1.0  0.1129
  H  H35  1  0.878800  0.363200  0.778300  1.0  0.0966
  H  H36  1  0.958400  0.598500  0.892300  1.0  0.1129
  H  H37  1  0.621200  0.863200  0.721700  1.0  0.0974
  H  H38  1  0.541600  0.098500  0.607700  1.0  0.1145
  H  H39  1  0.121200  0.363200  0.221700  1.0  0.0974
  H  H40  1  0.041600  0.598500  0.107700  1.0  0.1145
  H  H41  1  0.621200  0.136800  0.278300  1.0  0.0965
  H  H42  1  0.541600  0.901500  0.392300  1.0  0.1145
  H  H43  1  0.121200  0.636800  0.778300  1.0  0.0965
  H  H44  1  0.041600  0.401500  0.892300  1.0  0.1145
  H  H45  1  0.721700  0.378800  0.136800  1.0  0.0969
  H  H46  1  0.607700  0.458400  0.901500  1.0  0.1154
  H  H47  1  0.221700  0.878800  0.636800  1.0  0.0969
  H  H48  1  0.107700  0.958400  0.401500  1.0  0.1154
  H  H49  1  0.278300  0.378800  0.863200  1.0  0.0964
  H  H50  1  0.392300  0.458400  0.098500  1.0  0.1167
  H  H51  1  0.778300  0.878800  0.363200  1.0  0.0964
  H  H52  1  0.892300  0.958400  0.598500  1.0  0.1167
  H  H53  1  0.721700  0.621200  0.863200  1.0  0.0962
  H  H54  1  0.607700  0.541600  0.098500  1.0  0.1166
  H  H55  1  0.221700  0.121200  0.363200  1.0  0.0962
  H  H56  1  0.107700  0.041600  0.598500  1.0  0.1166
  H  H57  1  0.278300  0.621200  0.136800  1.0  0.0968
  H  H58  1  0.392300  0.541600  0.901500  1.0  0.115
  H  H59  1  0.778300  0.121200  0.636800  1.0  0.0968
  H  H60  1  0.892300  0.041600  0.401500  1.0  0.115
  H  H61  1  0.721700  0.136800  0.378800  1.0  0.0978
  H  H62  1  0.607700  0.901500  0.458400  1.0  0.1151
  H  H63  1  0.221700  0.636800  0.878800  1.0  0.0978
  H  H64  1  0.107700  0.401500  0.958400  1.0  0.1151
  H  H65  1  0.278300  0.863200  0.378800  1.0  0.0988
  H  H66  1  0.392300  0.098500  0.458400  1.0  0.1158
  H  H67  1  0.778300  0.363200  0.878800  1.0  0.0988
  H  H68  1  0.892300  0.598500  0.958400  1.0  0.1158
  H  H69  1  0.721700  0.863200  0.621200  1.0  0.0981
  H  H70  1  0.607700  0.098500  0.541600  1.0  0.116
  H  H71  1  0.221700  0.363200  0.121200  1.0  0.0981
  H  H72  1  0.107700  0.598500  0.041600  1.0  0.116
  H  H73  1  0.278300  0.136800  0.621200  1.0  0.0978
  H  H74  1  0.392300  0.901500  0.541600  1.0  0.1157
  H  H75  1  0.778300  0.636800  0.121200  1.0  0.0978
  H  H76  1  0.892300  0.401500  0.041600  1.0  0.1157
  H  H77  1  0.136800  0.378800  0.721700  1.0  0.0965
  H  H78  1  0.901500  0.458400  0.607700  1.0  0.1155
  H  H79  1  0.636800  0.878800  0.221700  1.0  0.0965
  H  H80  1  0.401500  0.958400  0.107700  1.0  0.1155
  H  H81  1  0.863200  0.378800  0.278300  1.0  0.0959
  H  H82  1  0.098500  0.458400  0.392300  1.0  0.1158
  H  H83  1  0.363200  0.878800  0.778300  1.0  0.0959
  H  H84  1  0.598500  0.958400  0.892300  1.0  0.1158
  H  H85  1  0.863200  0.621200  0.721700  1.0  0.096
  H  H86  1  0.098500  0.541600  0.607700  1.0  0.1162
  H  H87  1  0.363200  0.121200  0.221700  1.0  0.096
  H  H88  1  0.598500  0.041600  0.107700  1.0  0.1162
  H  H89  1  0.136800  0.621200  0.278300  1.0  0.0963
  H  H90  1  0.901500  0.541600  0.392300  1.0  0.1156
  H  H91  1  0.636800  0.121200  0.778300  1.0  0.0963
  H  H92  1  0.401500  0.041600  0.892300  1.0  0.1156
  H  H93  1  0.378800  0.721700  0.136800  1.0  0.0965
  H  H94  1  0.458400  0.607700  0.901500  1.0  0.112
  H  H95  1  0.878800  0.221700  0.636800  1.0  0.0965
  H  H96  1  0.958400  0.107700  0.401500  1.0  0.112
  H  H97  1  0.378800  0.278300  0.863200  1.0  0.0966
  H  H98  1  0.458400  0.392300  0.098500  1.0  0.1125
  H  H99  1  0.878800  0.778300  0.363200  1.0  0.0966
  H  H100  1  0.958400  0.892300  0.598500  1.0  0.1125
  H  H101  1  0.621200  0.721700  0.863200  1.0  0.0961
  H  H102  1  0.541600  0.607700  0.098500  1.0  0.1152
  H  H103  1  0.121200  0.221700  0.363200  1.0  0.0961
  H  H104  1  0.041600  0.107700  0.598500  1.0  0.1152
  H  H105  1  0.621200  0.278300  0.136800  1.0  0.0969
  H  H106  1  0.541600  0.392300  0.901500  1.0  0.1141
  H  H107  1  0.121200  0.778300  0.636800  1.0  0.0969
  H  H108  1  0.041600  0.892300  0.401500  1.0  0.1141
  H  H109  1  0.866100  0.626600  0.373400  1.0  0.1182
  H  H110  1  0.366100  0.126600  0.873400  1.0  0.1182
  H  H111  1  0.133900  0.373400  0.373400  1.0  0.1157
  H  H112  1  0.633900  0.873400  0.873400  1.0  0.1157
  H  H113  1  0.133900  0.626600  0.626600  1.0  0.1179
  H  H114  1  0.633900  0.126600  0.126600  1.0  0.1179
  H  H115  1  0.866100  0.373400  0.626600  1.0  0.116
  H  H116  1  0.366100  0.873400  0.126600  1.0  0.116
  H  H117  1  0.373400  0.866100  0.626600  1.0  0.1163
  H  H118  1  0.873400  0.366100  0.126600  1.0  0.1163
  H  H119  1  0.373400  0.133900  0.373400  1.0  0.1172
  H  H120  1  0.873400  0.633900  0.873400  1.0  0.1172
  H  H121  1  0.626600  0.133900  0.626600  1.0  0.1182
  H  H122  1  0.126600  0.633900  0.126600  1.0  0.1182
  H  H123  1  0.626600  0.866100  0.373400  1.0  0.1172
  H  H124  1  0.126600  0.366100  0.873400  1.0  0.1172
  H  H125  1  0.626600  0.373400  0.866100  1.0  0.1167
  H  H126  1  0.126600  0.873400  0.366100  1.0  0.1167
  H  H127  1  0.373400  0.373400  0.133900  1.0  0.1174
  H  H128  1  0.873400  0.873400  0.633900  1.0  0.1174
  H  H129  1  0.626600  0.626600  0.133900  1.0  0.119
  H  H130  1  0.126600  0.126600  0.633900  1.0  0.119
  H  H131  1  0.373400  0.626600  0.866100  1.0  0.1162
  H  H132  1  0.873400  0.126600  0.366100  1.0  0.1162
  C  C133  1  0.095400  0.685800  0.369000  1.0  -0.0044
  C  C134  1  0.595400  0.185800  0.869000  1.0  -0.0044
  C  C135  1  0.904600  0.314200  0.369000  1.0  -0.0053
  C  C136  1  0.404600  0.814200  0.869000  1.0  -0.0053
  C  C137  1  0.904600  0.685800  0.631000  1.0  -0.0059
  C  C138  1  0.404600  0.185800  0.131000  1.0  -0.0059
  C  C139  1  0.095400  0.314200  0.631000  1.0  -0.0052
  C  C140  1  0.595400  0.814200  0.131000  1.0  -0.0052
  C  C141  1  0.369000  0.095400  0.685800  1.0  -0.0045
  C  C142  1  0.869000  0.595400  0.185800  1.0  -0.0045
  C  C143  1  0.369000  0.904600  0.314200  1.0  -0.0049
  C  C144  1  0.869000  0.404600  0.814200  1.0  -0.0049
  C  C145  1  0.631000  0.904600  0.685800  1.0  -0.0045
  C  C146  1  0.131000  0.404600  0.185800  1.0  -0.0045
  C  C147  1  0.631000  0.095400  0.314200  1.0  -0.0045
  C  C148  1  0.131000  0.595400  0.814200  1.0  -0.0045
  C  C149  1  0.685800  0.369000  0.095400  1.0  -0.0034
  C  C150  1  0.185800  0.869000  0.595400  1.0  -0.0034
  C  C151  1  0.314200  0.369000  0.904600  1.0  -0.0047
  C  C152  1  0.814200  0.869000  0.404600  1.0  -0.0047
  C  C153  1  0.685800  0.631000  0.904600  1.0  -0.0036
  C  C154  1  0.185800  0.131000  0.404600  1.0  -0.0036
  C  C155  1  0.314200  0.631000  0.095400  1.0  -0.005
  C  C156  1  0.814200  0.131000  0.595400  1.0  -0.005
  C  C157  1  0.685800  0.095400  0.369000  1.0  -0.0045
  C  C158  1  0.185800  0.595400  0.869000  1.0  -0.0045
  C  C159  1  0.314200  0.904600  0.369000  1.0  -0.0056
  C  C160  1  0.814200  0.404600  0.869000  1.0  -0.0056
  C  C161  1  0.685800  0.904600  0.631000  1.0  -0.0049
  C  C162  1  0.185800  0.404600  0.131000  1.0  -0.0049
  C  C163  1  0.314200  0.095400  0.631000  1.0  -0.0071
  C  C164  1  0.814200  0.595400  0.131000  1.0  -0.0071
  C  C165  1  0.095400  0.369000  0.685800  1.0  -0.0043
  C  C166  1  0.595400  0.869000  0.185800  1.0  -0.0043
  C  C167  1  0.904600  0.369000  0.314200  1.0  -0.0053
  C  C168  1  0.404600  0.869000  0.814200  1.0  -0.0053
  C  C169  1  0.904600  0.631000  0.685800  1.0  -0.0053
  C  C170  1  0.404600  0.131000  0.185800  1.0  -0.0053
  C  C171  1  0.095400  0.631000  0.314200  1.0  -0.0044
  C  C172  1  0.595400  0.131000  0.814200  1.0  -0.0044
  C  C173  1  0.369000  0.685800  0.095400  1.0  -0.0042
  C  C174  1  0.869000  0.185800  0.595400  1.0  -0.0042
  C  C175  1  0.369000  0.314200  0.904600  1.0  -0.0037
  C  C176  1  0.869000  0.814200  0.404600  1.0  -0.0037
  C  C177  1  0.631000  0.685800  0.904600  1.0  -0.0034
  C  C178  1  0.131000  0.185800  0.404600  1.0  -0.0034
  C  C179  1  0.631000  0.314200  0.095400  1.0  -0.003
  C  C180  1  0.131000  0.814200  0.595400  1.0  -0.003
  C  C181  1  0.987000  0.625200  0.374800  1.0  0.4274
  C  C182  1  0.906900  0.597900  0.402100  1.0  -0.4541
  C  C183  1  0.487000  0.125200  0.874800  1.0  0.4274
  C  C184  1  0.406900  0.097900  0.902100  1.0  -0.4541
  C  C185  1  0.013000  0.374800  0.374800  1.0  0.4276
  C  C186  1  0.093100  0.402100  0.402100  1.0  -0.4545
  C  C187  1  0.513000  0.874800  0.874800  1.0  0.4276
  C  C188  1  0.593100  0.902100  0.902100  1.0  -0.4545
  C  C189  1  0.013000  0.625200  0.625200  1.0  0.4244
  C  C190  1  0.093100  0.597900  0.597900  1.0  -0.4546
  C  C191  1  0.513000  0.125200  0.125200  1.0  0.4244
  C  C192  1  0.593100  0.097900  0.097900  1.0  -0.4546
  C  C193  1  0.987000  0.374800  0.625200  1.0  0.427
  C  C194  1  0.906900  0.402100  0.597900  1.0  -0.4535
  C  C195  1  0.487000  0.874800  0.125200  1.0  0.427
  C  C196  1  0.406900  0.902100  0.097900  1.0  -0.4535
  C  C197  1  0.374800  0.987000  0.625200  1.0  0.4262
  C  C198  1  0.402100  0.906900  0.597900  1.0  -0.4548
  C  C199  1  0.874800  0.487000  0.125200  1.0  0.4262
  C  C200  1  0.902100  0.406900  0.097900  1.0  -0.4548
  C  C201  1  0.374800  0.013000  0.374800  1.0  0.4274
  C  C202  1  0.402100  0.093100  0.402100  1.0  -0.4544
  C  C203  1  0.874800  0.513000  0.874800  1.0  0.4274
  C  C204  1  0.902100  0.593100  0.902100  1.0  -0.4544
  C  C205  1  0.625200  0.013000  0.625200  1.0  0.425
  C  C206  1  0.597900  0.093100  0.597900  1.0  -0.4548
  C  C207  1  0.125200  0.513000  0.125200  1.0  0.425
  C  C208  1  0.097900  0.593100  0.097900  1.0  -0.4548
  C  C209  1  0.625200  0.987000  0.374800  1.0  0.4285
  C  C210  1  0.597900  0.906900  0.402100  1.0  -0.455
  C  C211  1  0.125200  0.487000  0.874800  1.0  0.4285
  C  C212  1  0.097900  0.406900  0.902100  1.0  -0.455
  C  C213  1  0.625200  0.374800  0.987000  1.0  0.4277
  C  C214  1  0.597900  0.402100  0.906900  1.0  -0.4551
  C  C215  1  0.125200  0.874800  0.487000  1.0  0.4277
  C  C216  1  0.097900  0.902100  0.406900  1.0  -0.4551
  C  C217  1  0.374800  0.374800  0.013000  1.0  0.4265
  C  C218  1  0.402100  0.402100  0.093100  1.0  -0.4544
  C  C219  1  0.874800  0.874800  0.513000  1.0  0.4265
  C  C220  1  0.902100  0.902100  0.593100  1.0  -0.4544
  C  C221  1  0.625200  0.625200  0.013000  1.0  0.4267
  C  C222  1  0.597900  0.597900  0.093100  1.0  -0.4552
  C  C223  1  0.125200  0.125200  0.513000  1.0  0.4267
  C  C224  1  0.097900  0.097900  0.593100  1.0  -0.4552
  C  C225  1  0.374800  0.625200  0.987000  1.0  0.4263
  C  C226  1  0.402100  0.597900  0.906900  1.0  -0.4555
  C  C227  1  0.874800  0.125200  0.487000  1.0  0.4263
  C  C228  1  0.902100  0.097900  0.406900  1.0  -0.4555
  N  N229  1  0.027070  0.682420  0.408800  1.0  -0.44
  N  N230  1  0.527070  0.182420  0.908800  1.0  -0.44
  N  N231  1  0.972930  0.317580  0.408800  1.0  -0.4373
  N  N232  1  0.472930  0.817580  0.908800  1.0  -0.4377
  N  N233  1  0.972930  0.682420  0.591200  1.0  -0.4389
  N  N234  1  0.472930  0.182420  0.091200  1.0  -0.4394
  N  N235  1  0.027070  0.317580  0.591200  1.0  -0.4381
  N  N236  1  0.527070  0.817580  0.091200  1.0  -0.4381
  N  N237  1  0.408800  0.027070  0.682420  1.0  -0.4416
  N  N238  1  0.908800  0.527070  0.182420  1.0  -0.4416
  N  N239  1  0.408800  0.972930  0.317580  1.0  -0.439
  N  N240  1  0.908800  0.472930  0.817580  1.0  -0.4394
  N  N241  1  0.591200  0.972930  0.682420  1.0  -0.4377
  N  N242  1  0.091200  0.472930  0.182420  1.0  -0.4375
  N  N243  1  0.591200  0.027070  0.317580  1.0  -0.4376
  N  N244  1  0.091200  0.527070  0.817580  1.0  -0.4376
  N  N245  1  0.682420  0.408800  0.027070  1.0  -0.4403
  N  N246  1  0.182420  0.908800  0.527070  1.0  -0.4403
  N  N247  1  0.317580  0.408800  0.972930  1.0  -0.4377
  N  N248  1  0.817580  0.908800  0.472930  1.0  -0.4382
  N  N249  1  0.682420  0.591200  0.972930  1.0  -0.4434
  N  N250  1  0.182420  0.091200  0.472930  1.0  -0.441
  N  N251  1  0.317580  0.591200  0.027070  1.0  -0.4393
  N  N252  1  0.817580  0.091200  0.527070  1.0  -0.4393
  N  N253  1  0.682420  0.027070  0.408800  1.0  -0.4386
  N  N254  1  0.182420  0.527070  0.908800  1.0  -0.4386
  N  N255  1  0.317580  0.972930  0.408800  1.0  -0.4379
  N  N256  1  0.817580  0.472930  0.908800  1.0  -0.4384
  N  N257  1  0.682420  0.972930  0.591200  1.0  -0.4394
  N  N258  1  0.182420  0.472930  0.091200  1.0  -0.4412
  N  N259  1  0.317580  0.027070  0.591200  1.0  -0.4392
  N  N260  1  0.817580  0.527070  0.091200  1.0  -0.4392
  N  N261  1  0.027070  0.408800  0.682420  1.0  -0.4395
  N  N262  1  0.527070  0.908800  0.182420  1.0  -0.4395
  N  N263  1  0.972930  0.408800  0.317580  1.0  -0.4384
  N  N264  1  0.472930  0.908800  0.817580  1.0  -0.4388
  N  N265  1  0.972930  0.591200  0.682420  1.0  -0.4379
  N  N266  1  0.472930  0.091200  0.182420  1.0  -0.4378
  N  N267  1  0.027070  0.591200  0.317580  1.0  -0.4382
  N  N268  1  0.527070  0.091200  0.817580  1.0  -0.4382
  N  N269  1  0.408800  0.682420  0.027070  1.0  -0.4415
  N  N270  1  0.908800  0.182420  0.527070  1.0  -0.4415
  N  N271  1  0.408800  0.317580  0.972930  1.0  -0.4389
  N  N272  1  0.908800  0.817580  0.472930  1.0  -0.4393
  N  N273  1  0.591200  0.682420  0.972930  1.0  -0.4389
  N  N274  1  0.091200  0.182420  0.472930  1.0  -0.4396
  N  N275  1  0.591200  0.317580  0.027070  1.0  -0.4389
  N  N276  1  0.091200  0.817580  0.527070  1.0  -0.4389
