# generated using pymatgen
data_ZnH10(CN)6
_symmetry_space_group_name_H-M   'P 1'
_cell_length_a   17.06590000
_cell_length_b   17.06590000
_cell_length_c   17.06590000
_cell_angle_alpha   90.00000000
_cell_angle_beta   90.00000000
_cell_angle_gamma   90.00000000
_symmetry_Int_Tables_number   1
_chemical_formula_structural   ZnH10(CN)6
_chemical_formula_sum   'Zn12 H120 C72 N72'
_cell_volume   4970.35706950
_cell_formula_units_Z   12
loop_
 _symmetry_equiv_pos_site_id
 _symmetry_equiv_pos_as_xyz
  1  'x, y, z'
loop_
 _atom_site_type_symbol
 _atom_site_label
 _atom_site_symmetry_multiplicity
 _atom_site_fract_x
 _atom_site_fract_y
 _atom_site_fract_z
 _atom_site_occupancy
 _atom_site_charge
  Zn  Zn1  1  0.000000  0.750000  0.500000  1.0  0.7485
  Zn  Zn2  1  0.000000  0.250000  0.500000  1.0  0.7485
  Zn  Zn3  1  0.500000  0.000000  0.750000  1.0  0.7485
  Zn  Zn4  1  0.500000  0.000000  0.250000  1.0  0.7485
  Zn  Zn5  1  0.750000  0.500000  0.000000  1.0  0.7485
  Zn  Zn6  1  0.250000  0.500000  0.000000  1.0  0.7485
  Zn  Zn7  1  0.750000  0.000000  0.500000  1.0  0.7485
  Zn  Zn8  1  0.250000  0.000000  0.500000  1.0  0.7485
  Zn  Zn9  1  0.000000  0.500000  0.750000  1.0  0.7485
  Zn  Zn10  1  0.000000  0.500000  0.250000  1.0  0.7485
  Zn  Zn11  1  0.500000  0.750000  0.000000  1.0  0.7485
  Zn  Zn12  1  0.500000  0.250000  0.000000  1.0  0.7485
  H  H13  1  0.141700  0.713400  0.387600  1.0  0.0968
  H  H14  1  0.898900  0.613500  0.452400  1.0  0.121
  H  H15  1  0.641700  0.213400  0.887600  1.0  0.0968
  H  H16  1  0.398900  0.113500  0.952400  1.0  0.1212
  H  H17  1  0.858300  0.286600  0.387600  1.0  0.097
  H  H18  1  0.101100  0.386500  0.452400  1.0  0.1214
  H  H19  1  0.358300  0.786600  0.887600  1.0  0.097
  H  H20  1  0.601100  0.886500  0.952400  1.0  0.1213
  H  H21  1  0.858300  0.713400  0.612400  1.0  0.097
  H  H22  1  0.101100  0.613500  0.547600  1.0  0.1222
  H  H23  1  0.358300  0.213400  0.112400  1.0  0.097
  H  H24  1  0.601100  0.113500  0.047600  1.0  0.122
  H  H25  1  0.141700  0.286600  0.612400  1.0  0.0972
  H  H26  1  0.898900  0.386500  0.547600  1.0  0.122
  H  H27  1  0.641700  0.786600  0.112400  1.0  0.0972
  H  H28  1  0.398900  0.886500  0.047600  1.0  0.122
  H  H29  1  0.387600  0.141700  0.713400  1.0  0.0979
  H  H30  1  0.452400  0.898900  0.613500  1.0  0.1201
  H  H31  1  0.887600  0.641700  0.213400  1.0  0.0979
  H  H32  1  0.952400  0.398900  0.113500  1.0  0.1202
  H  H33  1  0.387600  0.858300  0.286600  1.0  0.0974
  H  H34  1  0.452400  0.101100  0.386500  1.0  0.1201
  H  H35  1  0.887600  0.358300  0.786600  1.0  0.0974
  H  H36  1  0.952400  0.601100  0.886500  1.0  0.12
  H  H37  1  0.612400  0.858300  0.713400  1.0  0.0976
  H  H38  1  0.547600  0.101100  0.613500  1.0  0.1218
  H  H39  1  0.112400  0.358300  0.213400  1.0  0.0976
  H  H40  1  0.047600  0.601100  0.113500  1.0  0.1218
  H  H41  1  0.612400  0.141700  0.286600  1.0  0.0975
  H  H42  1  0.547600  0.898900  0.386500  1.0  0.1224
  H  H43  1  0.112400  0.641700  0.786600  1.0  0.0975
  H  H44  1  0.047600  0.398900  0.886500  1.0  0.1224
  H  H45  1  0.713400  0.387600  0.141700  1.0  0.0969
  H  H46  1  0.613500  0.452400  0.898900  1.0  0.1229
  H  H47  1  0.213400  0.887600  0.641700  1.0  0.0969
  H  H48  1  0.113500  0.952400  0.398900  1.0  0.1229
  H  H49  1  0.286600  0.387600  0.858300  1.0  0.0964
  H  H50  1  0.386500  0.452400  0.101100  1.0  0.1244
  H  H51  1  0.786600  0.887600  0.358300  1.0  0.0964
  H  H52  1  0.886500  0.952400  0.601100  1.0  0.1243
  H  H53  1  0.713400  0.612400  0.858300  1.0  0.0961
  H  H54  1  0.613500  0.547600  0.101100  1.0  0.1221
  H  H55  1  0.213400  0.112400  0.358300  1.0  0.0961
  H  H56  1  0.113500  0.047600  0.601100  1.0  0.1221
  H  H57  1  0.286600  0.612400  0.141700  1.0  0.0966
  H  H58  1  0.386500  0.547600  0.898900  1.0  0.1213
  H  H59  1  0.786600  0.112400  0.641700  1.0  0.0966
  H  H60  1  0.886500  0.047600  0.398900  1.0  0.1213
  H  H61  1  0.713400  0.141700  0.387600  1.0  0.0979
  H  H62  1  0.613500  0.898900  0.452400  1.0  0.1218
  H  H63  1  0.213400  0.641700  0.887600  1.0  0.0979
  H  H64  1  0.113500  0.398900  0.952400  1.0  0.1218
  H  H65  1  0.286600  0.858300  0.387600  1.0  0.0979
  H  H66  1  0.386500  0.101100  0.452400  1.0  0.1222
  H  H67  1  0.786600  0.358300  0.887600  1.0  0.0979
  H  H68  1  0.886500  0.601100  0.952400  1.0  0.1222
  H  H69  1  0.713400  0.858300  0.612400  1.0  0.0981
  H  H70  1  0.613500  0.101100  0.547600  1.0  0.1219
  H  H71  1  0.213400  0.358300  0.112400  1.0  0.0981
  H  H72  1  0.113500  0.601100  0.047600  1.0  0.1219
  H  H73  1  0.286600  0.141700  0.612400  1.0  0.0985
  H  H74  1  0.386500  0.898900  0.547600  1.0  0.122
  H  H75  1  0.786600  0.641700  0.112400  1.0  0.0985
  H  H76  1  0.886500  0.398900  0.047600  1.0  0.122
  H  H77  1  0.141700  0.387600  0.713400  1.0  0.0964
  H  H78  1  0.898900  0.452400  0.613500  1.0  0.1235
  H  H79  1  0.641700  0.887600  0.213400  1.0  0.0964
  H  H80  1  0.398900  0.952400  0.113500  1.0  0.1236
  H  H81  1  0.858300  0.387600  0.286600  1.0  0.0962
  H  H82  1  0.101100  0.452400  0.386500  1.0  0.1238
  H  H83  1  0.358300  0.887600  0.786600  1.0  0.0962
  H  H84  1  0.601100  0.952400  0.886500  1.0  0.124
  H  H85  1  0.858300  0.612400  0.713400  1.0  0.0961
  H  H86  1  0.101100  0.547600  0.613500  1.0  0.1235
  H  H87  1  0.358300  0.112400  0.213400  1.0  0.0961
  H  H88  1  0.601100  0.047600  0.113500  1.0  0.1235
  H  H89  1  0.141700  0.612400  0.286600  1.0  0.0961
  H  H90  1  0.898900  0.547600  0.386500  1.0  0.1218
  H  H91  1  0.641700  0.112400  0.786600  1.0  0.0961
  H  H92  1  0.398900  0.047600  0.886500  1.0  0.1218
  H  H93  1  0.387600  0.713400  0.141700  1.0  0.0973
  H  H94  1  0.452400  0.613500  0.898900  1.0  0.1192
  H  H95  1  0.887600  0.213400  0.641700  1.0  0.0973
  H  H96  1  0.952400  0.113500  0.398900  1.0  0.1192
  H  H97  1  0.387600  0.286600  0.858300  1.0  0.0969
  H  H98  1  0.452400  0.386500  0.101100  1.0  0.1195
  H  H99  1  0.887600  0.786600  0.358300  1.0  0.0969
  H  H100  1  0.952400  0.886500  0.601100  1.0  0.1195
  H  H101  1  0.612400  0.713400  0.858300  1.0  0.0966
  H  H102  1  0.547600  0.613500  0.101100  1.0  0.1214
  H  H103  1  0.112400  0.213400  0.358300  1.0  0.0966
  H  H104  1  0.047600  0.113500  0.601100  1.0  0.1214
  H  H105  1  0.612400  0.286600  0.141700  1.0  0.0969
  H  H106  1  0.547600  0.386500  0.898900  1.0  0.1208
  H  H107  1  0.112400  0.786600  0.641700  1.0  0.0969
  H  H108  1  0.047600  0.886500  0.398900  1.0  0.1208
  H  H109  1  0.867200  0.633800  0.366200  1.0  0.1181
  H  H110  1  0.367200  0.133800  0.866200  1.0  0.1181
  H  H111  1  0.132800  0.366200  0.366200  1.0  0.1155
  H  H112  1  0.632800  0.866200  0.866200  1.0  0.1155
  H  H113  1  0.132800  0.633800  0.633800  1.0  0.1171
  H  H114  1  0.632800  0.133800  0.133800  1.0  0.1171
  H  H115  1  0.867200  0.366200  0.633800  1.0  0.1161
  H  H116  1  0.367200  0.866200  0.133800  1.0  0.1161
  H  H117  1  0.366200  0.867200  0.633800  1.0  0.1157
  H  H118  1  0.866200  0.367200  0.133800  1.0  0.1157
  H  H119  1  0.366200  0.132800  0.366200  1.0  0.1172
  H  H120  1  0.866200  0.632800  0.866200  1.0  0.1172
  H  H121  1  0.633800  0.132800  0.633800  1.0  0.1176
  H  H122  1  0.133800  0.632800  0.133800  1.0  0.1176
  H  H123  1  0.633800  0.867200  0.366200  1.0  0.117
  H  H124  1  0.133800  0.367200  0.866200  1.0  0.117
  H  H125  1  0.633800  0.366200  0.867200  1.0  0.1166
  H  H126  1  0.133800  0.866200  0.367200  1.0  0.1166
  H  H127  1  0.366200  0.366200  0.132800  1.0  0.1172
  H  H128  1  0.866200  0.866200  0.632800  1.0  0.1172
  H  H129  1  0.633800  0.633800  0.132800  1.0  0.1186
  H  H130  1  0.133800  0.133800  0.632800  1.0  0.1186
  H  H131  1  0.366200  0.633800  0.867200  1.0  0.1157
  H  H132  1  0.866200  0.133800  0.367200  1.0  0.1157
  C  C133  1  0.098700  0.680500  0.374800  1.0  0.1234
  C  C134  1  0.598700  0.180500  0.874800  1.0  0.1234
  C  C135  1  0.901300  0.319500  0.374800  1.0  0.1208
  C  C136  1  0.401300  0.819500  0.874800  1.0  0.1208
  C  C137  1  0.901300  0.680500  0.625200  1.0  0.1228
  C  C138  1  0.401300  0.180500  0.125200  1.0  0.1234
  C  C139  1  0.098700  0.319500  0.625200  1.0  0.1237
  C  C140  1  0.598700  0.819500  0.125200  1.0  0.1237
  C  C141  1  0.374800  0.098700  0.680500  1.0  0.1232
  C  C142  1  0.874800  0.598700  0.180500  1.0  0.1232
  C  C143  1  0.374800  0.901300  0.319500  1.0  0.1233
  C  C144  1  0.874800  0.401300  0.819500  1.0  0.1233
  C  C145  1  0.625200  0.901300  0.680500  1.0  0.1231
  C  C146  1  0.125200  0.401300  0.180500  1.0  0.1231
  C  C147  1  0.625200  0.098700  0.319500  1.0  0.1219
  C  C148  1  0.125200  0.598700  0.819500  1.0  0.1219
  C  C149  1  0.680500  0.374800  0.098700  1.0  0.1184
  C  C150  1  0.180500  0.874800  0.598700  1.0  0.124
  C  C151  1  0.319500  0.374800  0.901300  1.0  0.1219
  C  C152  1  0.819500  0.874800  0.401300  1.0  0.1219
  C  C153  1  0.680500  0.625200  0.901300  1.0  0.1237
  C  C154  1  0.180500  0.125200  0.401300  1.0  0.1252
  C  C155  1  0.319500  0.625200  0.098700  1.0  0.1219
  C  C156  1  0.819500  0.125200  0.598700  1.0  0.1219
  C  C157  1  0.986200  0.627700  0.372300  1.0  0.4229
  C  C158  1  0.905900  0.603800  0.396200  1.0  -0.4561
  C  C159  1  0.486200  0.127700  0.872300  1.0  0.4229
  C  C160  1  0.405900  0.103800  0.896200  1.0  -0.4561
  C  C161  1  0.013800  0.372300  0.372300  1.0  0.4199
  C  C162  1  0.094100  0.396200  0.396200  1.0  -0.4569
  C  C163  1  0.513800  0.872300  0.872300  1.0  0.4199
  C  C164  1  0.594100  0.896200  0.896200  1.0  -0.4569
  C  C165  1  0.013800  0.627700  0.627700  1.0  0.422
  C  C166  1  0.094100  0.603800  0.603800  1.0  -0.4568
  C  C167  1  0.513800  0.127700  0.127700  1.0  0.422
  C  C168  1  0.594100  0.103800  0.103800  1.0  -0.4568
  C  C169  1  0.986200  0.372300  0.627700  1.0  0.4202
  C  C170  1  0.905900  0.396200  0.603800  1.0  -0.4552
  C  C171  1  0.486200  0.872300  0.127700  1.0  0.4202
  C  C172  1  0.405900  0.896200  0.103800  1.0  -0.4552
  C  C173  1  0.372300  0.986200  0.627700  1.0  0.4192
  C  C174  1  0.396200  0.905900  0.603800  1.0  -0.4566
  C  C175  1  0.872300  0.486200  0.127700  1.0  0.4192
  C  C176  1  0.896200  0.405900  0.103800  1.0  -0.4566
  C  C177  1  0.372300  0.013800  0.372300  1.0  0.4189
  C  C178  1  0.396200  0.094100  0.396200  1.0  -0.4573
  C  C179  1  0.872300  0.513800  0.872300  1.0  0.4189
  C  C180  1  0.896200  0.594100  0.896200  1.0  -0.4573
  C  C181  1  0.627700  0.013800  0.627700  1.0  0.4244
  C  C182  1  0.603800  0.094100  0.603800  1.0  -0.4571
  C  C183  1  0.127700  0.513800  0.127700  1.0  0.4244
  C  C184  1  0.103800  0.594100  0.103800  1.0  -0.4571
  C  C185  1  0.627700  0.986200  0.372300  1.0  0.4243
  C  C186  1  0.603800  0.905900  0.396200  1.0  -0.4567
  C  C187  1  0.127700  0.486200  0.872300  1.0  0.4243
  C  C188  1  0.103800  0.405900  0.896200  1.0  -0.4567
  C  C189  1  0.627700  0.372300  0.986200  1.0  0.4233
  C  C190  1  0.603800  0.396200  0.905900  1.0  -0.4561
  C  C191  1  0.127700  0.872300  0.486200  1.0  0.4233
  C  C192  1  0.103800  0.896200  0.405900  1.0  -0.4561
  C  C193  1  0.372300  0.372300  0.013800  1.0  0.4187
  C  C194  1  0.396200  0.396200  0.094100  1.0  -0.4556
  C  C195  1  0.872300  0.872300  0.513800  1.0  0.4187
  C  C196  1  0.896200  0.896200  0.594100  1.0  -0.4556
  C  C197  1  0.627700  0.627700  0.013800  1.0  0.423
  C  C198  1  0.603800  0.603800  0.094100  1.0  -0.4564
  C  C199  1  0.127700  0.127700  0.513800  1.0  0.423
  C  C200  1  0.103800  0.103800  0.594100  1.0  -0.4564
  C  C201  1  0.372300  0.627700  0.986200  1.0  0.4203
  C  C202  1  0.396200  0.603800  0.905900  1.0  -0.4567
  C  C203  1  0.872300  0.127700  0.486200  1.0  0.4203
  C  C204  1  0.896200  0.103800  0.405900  1.0  -0.4567
  N  N205  1  0.027600  0.682200  0.409400  1.0  -0.4379
  N  N206  1  0.098700  0.625200  0.319500  1.0  -0.2048
  N  N207  1  0.527600  0.182200  0.909400  1.0  -0.4379
  N  N208  1  0.598700  0.125200  0.819500  1.0  -0.2048
  N  N209  1  0.972400  0.317800  0.409400  1.0  -0.4331
  N  N210  1  0.901300  0.374800  0.319500  1.0  -0.2069
  N  N211  1  0.472400  0.817800  0.909400  1.0  -0.4342
  N  N212  1  0.401300  0.874800  0.819500  1.0  -0.2069
  N  N213  1  0.972400  0.682200  0.590600  1.0  -0.4325
  N  N214  1  0.901300  0.625200  0.680500  1.0  -0.2055
  N  N215  1  0.472400  0.182200  0.090600  1.0  -0.4336
  N  N216  1  0.401300  0.125200  0.180500  1.0  -0.2055
  N  N217  1  0.027600  0.317800  0.590600  1.0  -0.4325
  N  N218  1  0.098700  0.374800  0.680500  1.0  -0.2042
  N  N219  1  0.527600  0.817800  0.090600  1.0  -0.4325
  N  N220  1  0.598700  0.874800  0.180500  1.0  -0.2042
  N  N221  1  0.409400  0.027600  0.682200  1.0  -0.4344
  N  N222  1  0.319500  0.098700  0.625200  1.0  -0.2072
  N  N223  1  0.909400  0.527600  0.182200  1.0  -0.4344
  N  N224  1  0.819500  0.598700  0.125200  1.0  -0.2072
  N  N225  1  0.409400  0.972400  0.317800  1.0  -0.4341
  N  N226  1  0.319500  0.901300  0.374800  1.0  -0.2068
  N  N227  1  0.909400  0.472400  0.817800  1.0  -0.4341
  N  N228  1  0.819500  0.401300  0.874800  1.0  -0.2068
  N  N229  1  0.590600  0.972400  0.682200  1.0  -0.43
  N  N230  1  0.680500  0.901300  0.625200  1.0  -0.2048
  N  N231  1  0.090600  0.472400  0.182200  1.0  -0.4304
  N  N232  1  0.180500  0.401300  0.125200  1.0  -0.2019
  N  N233  1  0.590600  0.027600  0.317800  1.0  -0.4312
  N  N234  1  0.680500  0.098700  0.374800  1.0  -0.2101
  N  N235  1  0.090600  0.527600  0.817800  1.0  -0.4312
  N  N236  1  0.180500  0.598700  0.874800  1.0  -0.2061
  N  N237  1  0.682200  0.409400  0.027600  1.0  -0.4341
  N  N238  1  0.625200  0.319500  0.098700  1.0  -0.2032
  N  N239  1  0.182200  0.909400  0.527600  1.0  -0.4341
  N  N240  1  0.125200  0.819500  0.598700  1.0  -0.2032
  N  N241  1  0.317800  0.409400  0.972400  1.0  -0.4335
  N  N242  1  0.374800  0.319500  0.901300  1.0  -0.2025
  N  N243  1  0.817800  0.909400  0.472400  1.0  -0.4358
  N  N244  1  0.874800  0.819500  0.401300  1.0  -0.2025
  N  N245  1  0.682200  0.590600  0.972400  1.0  -0.4348
  N  N246  1  0.625200  0.680500  0.901300  1.0  -0.2031
  N  N247  1  0.182200  0.090600  0.472400  1.0  -0.4348
  N  N248  1  0.125200  0.180500  0.401300  1.0  -0.2031
  N  N249  1  0.317800  0.590600  0.027600  1.0  -0.4321
  N  N250  1  0.374800  0.680500  0.098700  1.0  -0.2069
  N  N251  1  0.817800  0.090600  0.527600  1.0  -0.4321
  N  N252  1  0.874800  0.180500  0.598700  1.0  -0.2025
  N  N253  1  0.682200  0.027600  0.409400  1.0  -0.3793
  N  N254  1  0.182200  0.527600  0.909400  1.0  -0.3793
  N  N255  1  0.317800  0.972400  0.409400  1.0  -0.3777
  N  N256  1  0.817800  0.472400  0.909400  1.0  -0.3787
  N  N257  1  0.682200  0.972400  0.590600  1.0  -0.379
  N  N258  1  0.182200  0.472400  0.090600  1.0  -0.379
  N  N259  1  0.317800  0.027600  0.590600  1.0  -0.3771
  N  N260  1  0.817800  0.527600  0.090600  1.0  -0.3771
  N  N261  1  0.027600  0.409400  0.682200  1.0  -0.3777
  N  N262  1  0.527600  0.909400  0.182200  1.0  -0.3777
  N  N263  1  0.972400  0.409400  0.317800  1.0  -0.3776
  N  N264  1  0.472400  0.909400  0.817800  1.0  -0.3776
  N  N265  1  0.972400  0.590600  0.682200  1.0  -0.3752
  N  N266  1  0.472400  0.090600  0.182200  1.0  -0.3757
  N  N267  1  0.027600  0.590600  0.317800  1.0  -0.3756
  N  N268  1  0.527600  0.090600  0.817800  1.0  -0.3756
  N  N269  1  0.409400  0.682200  0.027600  1.0  -0.3799
  N  N270  1  0.909400  0.182200  0.527600  1.0  -0.3799
  N  N271  1  0.409400  0.317800  0.972400  1.0  -0.3803
  N  N272  1  0.909400  0.817800  0.472400  1.0  -0.3803
  N  N273  1  0.590600  0.682200  0.972400  1.0  -0.3767
  N  N274  1  0.090600  0.182200  0.472400  1.0  -0.3775
  N  N275  1  0.590600  0.317800  0.027600  1.0  -0.3766
  N  N276  1  0.090600  0.817800  0.527600  1.0  -0.3766
