# generated using pymatgen
data_CuH10C16(NO)4
_symmetry_space_group_name_H-M   'P 1'
_cell_length_a   4.80130000
_cell_length_b   19.49510000
_cell_length_c   19.49510000
_cell_angle_alpha   60.66660000
_cell_angle_beta   85.29100000
_cell_angle_gamma   94.70900000
_symmetry_Int_Tables_number   1
_chemical_formula_structural   CuH10C16(NO)4
_chemical_formula_sum   'Cu3 H30 C48 N12 O12'
_cell_volume   1569.65241505
_cell_formula_units_Z   3
loop_
 _symmetry_equiv_pos_site_id
 _symmetry_equiv_pos_as_xyz
  1  'x, y, z'
loop_
 _atom_site_type_symbol
 _atom_site_label
 _atom_site_symmetry_multiplicity
 _atom_site_fract_x
 _atom_site_fract_y
 _atom_site_fract_z
 _atom_site_occupancy
 _atom_site_charge
  Cu  Cu1  1  0.500000  0.500000  0.500000  1.0  0.9031
  Cu  Cu2  1  0.000000  0.500000  0.000000  1.0  0.9031
  Cu  Cu3  1  0.000000  0.000000  0.500000  1.0  0.9031
  H  H4  1  0.517000  0.557500  0.629400  1.0  0.1034
  H  H5  1  0.184600  0.340200  0.740900  1.0  0.1272
  H  H6  1  0.708700  0.525100  0.782100  1.0  0.1221
  H  H7  1  0.228000  0.354800  0.851200  1.0  0.094
  H  H8  1  0.916300  0.409800  0.599900  1.0  0.3168
  H  H9  1  0.146400  0.629400  0.813100  1.0  0.103
  H  H10  1  0.925500  0.740900  0.918900  1.0  0.1282
  H  H11  1  0.490800  0.782100  0.692800  1.0  0.123
  H  H12  1  0.079200  0.851200  0.794000  1.0  0.0937
  H  H13  1  0.516200  0.599900  0.990300  1.0  0.3183
  H  H14  1  0.959500  0.813100  0.557500  1.0  0.1013
  H  H15  1  0.844400  0.918900  0.340200  1.0  0.1277
  H  H16  1  0.183600  0.692800  0.525100  1.0  0.1218
  H  H17  1  0.873200  0.794000  0.354800  1.0  0.0945
  H  H18  1  0.506500  0.990300  0.409800  1.0  0.3171
  H  H19  1  0.483000  0.442500  0.370600  1.0  0.1025
  H  H20  1  0.815400  0.659800  0.259100  1.0  0.1277
  H  H21  1  0.291300  0.474900  0.217900  1.0  0.1216
  H  H22  1  0.772000  0.645200  0.148800  1.0  0.0961
  H  H23  1  0.083700  0.590200  0.400100  1.0  0.3177
  H  H24  1  0.853600  0.370600  0.186900  1.0  0.1027
  H  H25  1  0.074500  0.259100  0.081100  1.0  0.1277
  H  H26  1  0.509200  0.217900  0.307200  1.0  0.1228
  H  H27  1  0.920800  0.148800  0.206000  1.0  0.0936
  H  H28  1  0.483800  0.400100  0.009700  1.0  0.3174
  H  H29  1  0.040500  0.186900  0.442500  1.0  0.103
  H  H30  1  0.155600  0.081100  0.659800  1.0  0.1278
  H  H31  1  0.816400  0.307200  0.474900  1.0  0.122
  H  H32  1  0.126800  0.206000  0.645200  1.0  0.095
  H  H33  1  0.493500  0.009700  0.590200  1.0  0.3169
  C  C34  1  0.631850  0.516920  0.639370  1.0  0.0458
  C  C35  1  0.971790  0.440690  0.826720  1.0  -0.0997
  C  C36  1  0.090140  0.377150  0.748930  1.0  -0.1242
  C  C37  1  0.803970  0.488510  0.773500  1.0  -0.1307
  C  C38  1  0.779790  0.481250  0.705580  1.0  -0.0423
  C  C39  1  0.112890  0.386200  0.813630  1.0  -0.0452
  C  C40  1  0.918560  0.425930  0.694750  1.0  0.1293
  C  C41  1  0.563620  0.653710  0.447150  1.0  0.6361
  C  C42  1  0.271220  0.639370  0.843710  1.0  0.0467
  C  C43  1  0.798510  0.826720  0.732590  1.0  -0.1002
  C  C44  1  0.839070  0.748930  0.873920  1.0  -0.1244
  C  C45  1  0.577470  0.773500  0.737990  1.0  -0.1325
  C  C46  1  0.485370  0.705580  0.813170  1.0  -0.0434
  C  C47  1  0.926520  0.813630  0.800170  1.0  -0.0451
  C  C48  1  0.613310  0.694750  0.879320  1.0  0.1289
  C  C49  1  0.010770  0.447150  0.899140  1.0  0.6349
  C  C50  1  0.114930  0.843710  0.516920  1.0  0.0439
  C  C51  1  0.531100  0.732590  0.440690  1.0  -0.1001
  C  C52  1  0.712990  0.873920  0.377150  1.0  -0.1291
  C  C53  1  0.315460  0.737990  0.488510  1.0  -0.1296
  C  C54  1  0.298540  0.813170  0.481250  1.0  -0.0429
  C  C55  1  0.726690  0.800170  0.386200  1.0  -0.042
  C  C56  1  0.492630  0.879320  0.425930  1.0  0.1289
  C  C57  1  0.909910  0.899140  0.653710  1.0  0.634
  C  C58  1  0.368150  0.483080  0.360630  1.0  0.0449
  C  C59  1  0.028210  0.559310  0.173280  1.0  -0.0999
  C  C60  1  0.909860  0.622850  0.251070  1.0  -0.1282
  C  C61  1  0.196030  0.511490  0.226500  1.0  -0.1293
  C  C62  1  0.220210  0.518750  0.294420  1.0  -0.0444
  C  C63  1  0.887110  0.613800  0.186370  1.0  -0.0464
  C  C64  1  0.081440  0.574070  0.305250  1.0  0.1287
  C  C65  1  0.436380  0.346290  0.552850  1.0  0.6362
  C  C66  1  0.728780  0.360630  0.156290  1.0  0.0468
  C  C67  1  0.201490  0.173280  0.267410  1.0  -0.1008
  C  C68  1  0.160930  0.251070  0.126080  1.0  -0.124
  C  C69  1  0.422530  0.226500  0.262010  1.0  -0.1329
  C  C70  1  0.514630  0.294420  0.186830  1.0  -0.0434
  C  C71  1  0.073480  0.186370  0.199830  1.0  -0.0475
  C  C72  1  0.386690  0.305250  0.120680  1.0  0.129
  C  C73  1  0.989230  0.552850  0.100860  1.0  0.6356
  C  C74  1  0.885070  0.156290  0.483080  1.0  0.0442
  C  C75  1  0.468900  0.267410  0.559310  1.0  -0.0983
  C  C76  1  0.287010  0.126080  0.622850  1.0  -0.1299
  C  C77  1  0.684540  0.262010  0.511490  1.0  -0.1291
  C  C78  1  0.701460  0.186830  0.518750  1.0  -0.0431
  C  C79  1  0.273310  0.199830  0.613800  1.0  -0.0417
  C  C80  1  0.507370  0.120680  0.574070  1.0  0.1297
  C  C81  1  0.090090  0.100860  0.346290  1.0  0.6346
  N  N82  1  0.677160  0.485690  0.593410  1.0  -0.281
  N  N83  1  0.850370  0.430120  0.627210  1.0  -0.1032
  N  N84  1  0.270570  0.593410  0.920900  1.0  -0.2796
  N  N85  1  0.477580  0.627210  0.942670  1.0  -0.1028
  N  N86  1  0.191470  0.920900  0.485690  1.0  -0.2809
  N  N87  1  0.420250  0.942670  0.430120  1.0  -0.1035
  N  N88  1  0.322840  0.514310  0.406590  1.0  -0.2806
  N  N89  1  0.149630  0.569880  0.372790  1.0  -0.102
  N  N90  1  0.729430  0.406590  0.079100  1.0  -0.2793
  N  N91  1  0.522420  0.372790  0.057330  1.0  -0.1051
  N  N92  1  0.808530  0.079100  0.514310  1.0  -0.281
  N  N93  1  0.579750  0.057330  0.569880  1.0  -0.1033
  O  O94  1  0.370970  0.595840  0.491730  1.0  -0.5754
  O  O95  1  0.774770  0.648110  0.409900  1.0  -0.6209
  O  O96  1  0.862700  0.491730  0.912430  1.0  -0.5752
  O  O97  1  0.184670  0.409900  0.941990  1.0  -0.6244
  O  O98  1  0.775130  0.912430  0.595840  1.0  -0.576
  O  O99  1  0.126660  0.941990  0.648110  1.0  -0.6204
  O  O100  1  0.629030  0.404160  0.508270  1.0  -0.5741
  O  O101  1  0.225230  0.351890  0.590100  1.0  -0.6233
  O  O102  1  0.137300  0.508270  0.087570  1.0  -0.574
  O  O103  1  0.815330  0.590100  0.058010  1.0  -0.6209
  O  O104  1  0.224870  0.087570  0.404160  1.0  -0.5747
  O  O105  1  0.873340  0.058010  0.351890  1.0  -0.6217
