# generated using pymatgen
data_CdNiC7N6
_symmetry_space_group_name_H-M   'P 1'
_cell_length_a   13.86800000
_cell_length_b   26.59100000
_cell_length_c   7.84000000
_cell_angle_alpha   90.00000000
_cell_angle_beta   90.00000000
_cell_angle_gamma   90.00000000
_symmetry_Int_Tables_number   1
_chemical_formula_structural   CdNiC7N6
_chemical_formula_sum   'Cd8 Ni8 C56 N48'
_cell_volume   2891.10966592
_cell_formula_units_Z   8
loop_
 _symmetry_equiv_pos_site_id
 _symmetry_equiv_pos_as_xyz
  1  'x, y, z'
loop_
 _atom_site_type_symbol
 _atom_site_label
 _atom_site_symmetry_multiplicity
 _atom_site_fract_x
 _atom_site_fract_y
 _atom_site_fract_z
 _atom_site_occupancy
 _atom_site_charge
  Cd  Cd1  1  0.675150  0.500000  0.621300  1.0  1.0332
  Cd  Cd2  1  0.754330  0.764730  0.618000  1.0  0.995
  Cd  Cd3  1  0.324850  0.000000  0.378700  1.0  1.0312
  Cd  Cd4  1  0.245670  0.264730  0.382000  1.0  0.995
  Cd  Cd5  1  0.175150  0.500000  0.878700  1.0  1.0318
  Cd  Cd6  1  0.254330  0.764730  0.882000  1.0  0.995
  Cd  Cd7  1  0.824850  0.000000  0.121300  1.0  1.0324
  Cd  Cd8  1  0.745670  0.264730  0.118000  1.0  0.995
  Ni  Ni9  1  0.732700  0.631860  0.110800  1.0  0.1865
  Ni  Ni10  1  0.267300  0.131860  0.889200  1.0  0.1863
  Ni  Ni11  1  0.962100  0.382590  0.494500  1.0  0.3698
  Ni  Ni12  1  0.037900  0.882590  0.505500  1.0  0.3689
  Ni  Ni13  1  0.462100  0.382590  0.005500  1.0  0.369
  Ni  Ni14  1  0.537900  0.882590  0.994500  1.0  0.3696
  Ni  Ni15  1  0.232700  0.631860  0.389200  1.0  0.1861
  Ni  Ni16  1  0.767300  0.131860  0.610800  1.0  0.1867
  C  C17  1  0.711000  0.584100  0.940000  1.0  0.2003
  C  C18  1  0.709000  0.584100  0.274000  1.0  0.1729
  C  C19  1  0.881000  0.434400  0.564000  1.0  0.1937
  C  C20  1  0.754000  0.681300  0.943000  1.0  0.1694
  C  C21  1  0.758000  0.678800  0.290000  1.0  0.1692
  C  C22  1  0.958000  0.829300  0.573000  1.0  0.1812
  C  C23  1  0.538000  0.446000  0.357000  1.0  0.1443
  C  C24  1  0.477000  0.464000  0.465000  1.0  0.1787
  C  C25  1  0.369000  0.467200  0.432000  1.0  0.0281
  C  C26  1  0.618000  0.824000  0.357000  1.0  0.0839
  C  C27  1  0.554000  0.795000  0.456000  1.0  0.1897
  C  C28  1  0.449000  0.796000  0.402000  1.0  0.0086
  C  C29  1  0.289000  0.084100  0.060000  1.0  0.1994
  C  C30  1  0.291000  0.084100  0.726000  1.0  0.1745
  C  C31  1  0.119000  0.934400  0.436000  1.0  0.1941
  C  C32  1  0.246000  0.181300  0.057000  1.0  0.1687
  C  C33  1  0.242000  0.178800  0.710000  1.0  0.1726
  C  C34  1  0.042000  0.329300  0.427000  1.0  0.1828
  C  C35  1  0.462000  0.946000  0.643000  1.0  0.1392
  C  C36  1  0.523000  0.964000  0.535000  1.0  0.1798
  C  C37  1  0.631000  0.967200  0.568000  1.0  0.0259
  C  C38  1  0.382000  0.324000  0.643000  1.0  0.0846
  C  C39  1  0.446000  0.295000  0.544000  1.0  0.191
  C  C40  1  0.551000  0.296000  0.598000  1.0  0.0054
  C  C41  1  0.067000  0.415000  0.593000  1.0  0.1723
  C  C42  1  0.146000  0.851200  0.605000  1.0  0.1382
  C  C43  1  0.933000  0.915000  0.407000  1.0  0.1721
  C  C44  1  0.854000  0.351200  0.395000  1.0  0.1377
  C  C45  1  0.567000  0.415000  0.907000  1.0  0.1724
  C  C46  1  0.646000  0.851200  0.895000  1.0  0.1377
  C  C47  1  0.433000  0.915000  0.093000  1.0  0.1719
  C  C48  1  0.354000  0.351200  0.105000  1.0  0.1381
  C  C49  1  0.211000  0.584100  0.560000  1.0  0.1995
  C  C50  1  0.209000  0.584100  0.226000  1.0  0.1745
  C  C51  1  0.381000  0.434400  0.936000  1.0  0.1934
  C  C52  1  0.254000  0.681300  0.557000  1.0  0.1685
  C  C53  1  0.258000  0.678800  0.210000  1.0  0.1709
  C  C54  1  0.458000  0.829300  0.927000  1.0  0.1813
  C  C55  1  0.038000  0.446000  0.143000  1.0  0.1409
  C  C56  1  0.977000  0.464000  0.035000  1.0  0.1791
  C  C57  1  0.869000  0.467200  0.068000  1.0  0.0286
  C  C58  1  0.118000  0.824000  0.143000  1.0  0.0843
  C  C59  1  0.054000  0.795000  0.044000  1.0  0.1899
  C  C60  1  0.949000  0.796000  0.098000  1.0  0.0079
  C  C61  1  0.789000  0.084100  0.440000  1.0  0.1997
  C  C62  1  0.791000  0.084100  0.774000  1.0  0.1734
  C  C63  1  0.619000  0.934400  0.064000  1.0  0.1941
  C  C64  1  0.746000  0.181300  0.443000  1.0  0.1696
  C  C65  1  0.742000  0.178800  0.790000  1.0  0.172
  C  C66  1  0.542000  0.329300  0.073000  1.0  0.1823
  C  C67  1  0.962000  0.946000  0.857000  1.0  0.1421
  C  C68  1  0.023000  0.964000  0.965000  1.0  0.1794
  C  C69  1  0.131000  0.967200  0.932000  1.0  0.0254
  C  C70  1  0.882000  0.324000  0.857000  1.0  0.0851
  C  C71  1  0.946000  0.295000  0.956000  1.0  0.1911
  C  C72  1  0.051000  0.296000  0.902000  1.0  0.0062
  N  N73  1  0.701000  0.556400  0.834000  1.0  -0.4103
  N  N74  1  0.694000  0.555700  0.383000  1.0  -0.4344
  N  N75  1  0.831600  0.467200  0.605000  1.0  -0.4585
  N  N76  1  0.639000  0.440700  0.405000  1.0  -0.2774
  N  N77  1  0.507500  0.503200  0.593000  1.0  -0.2865
  N  N78  1  0.764000  0.711200  0.838000  1.0  -0.4228
  N  N79  1  0.769000  0.707500  0.395000  1.0  -0.3983
  N  N80  1  0.908000  0.798700  0.618000  1.0  -0.4292
  N  N81  1  0.723000  0.824000  0.395000  1.0  -0.2637
  N  N82  1  0.584000  0.758700  0.575000  1.0  -0.2826
  N  N83  1  0.299000  0.056400  0.166000  1.0  -0.4081
  N  N84  1  0.306000  0.055700  0.617000  1.0  -0.4325
  N  N85  1  0.168400  0.967200  0.395000  1.0  -0.4577
  N  N86  1  0.361000  0.940700  0.595000  1.0  -0.2732
  N  N87  1  0.492500  0.003200  0.407000  1.0  -0.2852
  N  N88  1  0.236000  0.211200  0.162000  1.0  -0.4231
  N  N89  1  0.231000  0.207500  0.605000  1.0  -0.3978
  N  N90  1  0.092000  0.298700  0.382000  1.0  -0.4279
  N  N91  1  0.277000  0.324000  0.605000  1.0  -0.264
  N  N92  1  0.416000  0.258700  0.425000  1.0  -0.2827
  N  N93  1  0.131000  0.433900  0.663000  1.0  -0.4886
  N  N94  1  0.208100  0.832100  0.675000  1.0  -0.4658
  N  N95  1  0.869000  0.933900  0.337000  1.0  -0.4875
  N  N96  1  0.791900  0.332100  0.325000  1.0  -0.4652
  N  N97  1  0.631000  0.433900  0.837000  1.0  -0.4882
  N  N98  1  0.708100  0.832100  0.825000  1.0  -0.4654
  N  N99  1  0.369000  0.933900  0.163000  1.0  -0.4879
  N  N100  1  0.291900  0.332100  0.175000  1.0  -0.4655
  N  N101  1  0.201000  0.556400  0.666000  1.0  -0.4086
  N  N102  1  0.194000  0.555700  0.117000  1.0  -0.4322
  N  N103  1  0.331600  0.467200  0.895000  1.0  -0.4582
  N  N104  1  0.139000  0.440700  0.095000  1.0  -0.2764
  N  N105  1  0.007500  0.503200  0.907000  1.0  -0.2859
  N  N106  1  0.264000  0.711200  0.662000  1.0  -0.4263
  N  N107  1  0.269000  0.707500  0.105000  1.0  -0.3982
  N  N108  1  0.408000  0.798700  0.882000  1.0  -0.4291
  N  N109  1  0.223000  0.824000  0.105000  1.0  -0.2633
  N  N110  1  0.084000  0.758700  0.925000  1.0  -0.2829
  N  N111  1  0.799000  0.056400  0.334000  1.0  -0.4099
  N  N112  1  0.806000  0.055700  0.883000  1.0  -0.4347
  N  N113  1  0.668400  0.967200  0.105000  1.0  -0.4576
  N  N114  1  0.861000  0.940700  0.905000  1.0  -0.2746
  N  N115  1  0.992500  0.003200  0.093000  1.0  -0.2857
  N  N116  1  0.736000  0.211200  0.338000  1.0  -0.4223
  N  N117  1  0.731000  0.207500  0.895000  1.0  -0.3977
  N  N118  1  0.592000  0.298700  0.118000  1.0  -0.4279
  N  N119  1  0.777000  0.324000  0.895000  1.0  -0.2647
  N  N120  1  0.916000  0.258700  0.075000  1.0  -0.2826
