# generated using pymatgen
data_Eu3H12Ru4C32(N6O)4
_symmetry_space_group_name_H-M   'P 1'
_cell_length_a   25.16000000
_cell_length_b   22.20000000
_cell_length_c   13.62300000
_cell_angle_alpha   90.00000000
_cell_angle_beta   90.00000000
_cell_angle_gamma   90.00000000
_symmetry_Int_Tables_number   1
_chemical_formula_structural   Eu3H12Ru4C32(N6O)4
_chemical_formula_sum   'Eu12 H48 Ru16 C128 N96 O16'
_cell_volume   7609.15389600
_cell_formula_units_Z   4
loop_
 _symmetry_equiv_pos_site_id
 _symmetry_equiv_pos_as_xyz
  1  'x, y, z'
loop_
 _atom_site_type_symbol
 _atom_site_label
 _atom_site_symmetry_multiplicity
 _atom_site_fract_x
 _atom_site_fract_y
 _atom_site_fract_z
 _atom_site_occupancy
 _atom_site_charge
  Eu  Eu1  1  0.966950  0.171450  0.482570  1.0  2.0878
  Eu  Eu2  1  0.966950  0.671450  0.982570  1.0  2.0878
  Eu  Eu3  1  0.033050  0.828550  0.482570  1.0  2.0879
  Eu  Eu4  1  0.033050  0.328550  0.982570  1.0  2.0879
  Eu  Eu5  1  0.466950  0.328550  0.482570  1.0  2.0879
  Eu  Eu6  1  0.466950  0.828550  0.982570  1.0  2.0879
  Eu  Eu7  1  0.533050  0.671450  0.482570  1.0  2.0879
  Eu  Eu8  1  0.533050  0.171450  0.982570  1.0  2.0879
  Eu  Eu9  1  0.000000  0.500000  0.483890  1.0  1.5269
  Eu  Eu10  1  0.000000  0.000000  0.983890  1.0  1.5269
  Eu  Eu11  1  0.500000  0.000000  0.483890  1.0  1.527
  Eu  Eu12  1  0.500000  0.500000  0.983890  1.0  1.527
  H  H13  1  0.826800  0.406300  0.466100  1.0  0.0973
  H  H14  1  0.744400  0.419800  0.536500  1.0  0.1263
  H  H15  1  0.670300  0.380100  0.460300  1.0  0.1073
  H  H16  1  0.850400  0.263200  0.070300  1.0  0.0916
  H  H17  1  0.777400  0.220700  0.994600  1.0  0.1268
  H  H18  1  0.693900  0.234400  0.064800  1.0  0.109
  H  H19  1  0.826800  0.906300  0.966100  1.0  0.0973
  H  H20  1  0.744400  0.919800  0.036500  1.0  0.1263
  H  H21  1  0.670300  0.880100  0.960300  1.0  0.1073
  H  H22  1  0.850400  0.763200  0.570300  1.0  0.0916
  H  H23  1  0.777400  0.720700  0.494600  1.0  0.1268
  H  H24  1  0.693900  0.734400  0.564800  1.0  0.109
  H  H25  1  0.173200  0.593700  0.466100  1.0  0.0979
  H  H26  1  0.255600  0.580200  0.536500  1.0  0.1268
  H  H27  1  0.329700  0.619900  0.460300  1.0  0.107
  H  H28  1  0.149600  0.736800  0.070300  1.0  0.0902
  H  H29  1  0.222600  0.779300  0.994600  1.0  0.1284
  H  H30  1  0.306100  0.765600  0.064800  1.0  0.1092
  H  H31  1  0.173200  0.093700  0.966100  1.0  0.0979
  H  H32  1  0.255600  0.080200  0.036500  1.0  0.1268
  H  H33  1  0.329700  0.119900  0.960300  1.0  0.107
  H  H34  1  0.149600  0.236800  0.570300  1.0  0.0902
  H  H35  1  0.222600  0.279300  0.494600  1.0  0.1284
  H  H36  1  0.306100  0.265600  0.564800  1.0  0.1092
  H  H37  1  0.326800  0.093700  0.466100  1.0  0.0978
  H  H38  1  0.244400  0.080200  0.536500  1.0  0.1271
  H  H39  1  0.170300  0.119900  0.460300  1.0  0.1075
  H  H40  1  0.350400  0.236800  0.070300  1.0  0.0924
  H  H41  1  0.277400  0.279300  0.994600  1.0  0.1281
  H  H42  1  0.193900  0.265600  0.064800  1.0  0.1098
  H  H43  1  0.326800  0.593700  0.966100  1.0  0.0978
  H  H44  1  0.244400  0.580200  0.036500  1.0  0.1271
  H  H45  1  0.170300  0.619900  0.960300  1.0  0.1075
  H  H46  1  0.350400  0.736800  0.570300  1.0  0.0924
  H  H47  1  0.277400  0.779300  0.494600  1.0  0.1281
  H  H48  1  0.193900  0.765600  0.564800  1.0  0.1098
  H  H49  1  0.673200  0.906300  0.466100  1.0  0.098
  H  H50  1  0.755600  0.919800  0.536500  1.0  0.1262
  H  H51  1  0.829700  0.880100  0.460300  1.0  0.1072
  H  H52  1  0.649600  0.763200  0.070300  1.0  0.0927
  H  H53  1  0.722600  0.720700  0.994600  1.0  0.1275
  H  H54  1  0.806100  0.734400  0.064800  1.0  0.1093
  H  H55  1  0.673200  0.406300  0.966100  1.0  0.098
  H  H56  1  0.755600  0.419800  0.036500  1.0  0.1262
  H  H57  1  0.829700  0.380100  0.960300  1.0  0.1072
  H  H58  1  0.649600  0.263200  0.570300  1.0  0.0927
  H  H59  1  0.722600  0.220700  0.494600  1.0  0.1275
  H  H60  1  0.806100  0.234400  0.564800  1.0  0.1093
  Ru  Ru61  1  0.648850  0.301410  0.259170  1.0  0.0333
  Ru  Ru62  1  0.870550  0.348850  0.260900  1.0  -0.0217
  Ru  Ru63  1  0.648850  0.801410  0.759170  1.0  0.0333
  Ru  Ru64  1  0.870550  0.848850  0.760900  1.0  -0.0217
  Ru  Ru65  1  0.351150  0.698590  0.259170  1.0  0.0302
  Ru  Ru66  1  0.129450  0.651150  0.260900  1.0  -0.019
  Ru  Ru67  1  0.351150  0.198590  0.759170  1.0  0.0302
  Ru  Ru68  1  0.129450  0.151150  0.760900  1.0  -0.019
  Ru  Ru69  1  0.148850  0.198590  0.259170  1.0  0.0336
  Ru  Ru70  1  0.370550  0.151150  0.260900  1.0  -0.0215
  Ru  Ru71  1  0.148850  0.698590  0.759170  1.0  0.0336
  Ru  Ru72  1  0.370550  0.651150  0.760900  1.0  -0.0215
  Ru  Ru73  1  0.851150  0.801410  0.259170  1.0  0.0294
  Ru  Ru74  1  0.629450  0.848850  0.260900  1.0  -0.0197
  Ru  Ru75  1  0.851150  0.301410  0.759170  1.0  0.0294
  Ru  Ru76  1  0.629450  0.348850  0.760900  1.0  -0.0197
  C  C77  1  0.757800  0.338100  0.311900  1.0  0.3748
  C  C78  1  0.796800  0.390500  0.435500  1.0  0.1538
  C  C79  1  0.747800  0.398600  0.478000  1.0  -0.0953
  C  C80  1  0.703700  0.374600  0.432400  1.0  0.1861
  C  C81  1  0.763500  0.304300  0.219200  1.0  0.3515
  C  C82  1  0.816900  0.268200  0.097900  1.0  0.1834
  C  C83  1  0.773500  0.242700  0.052300  1.0  -0.1197
  C  C84  1  0.723800  0.250700  0.094900  1.0  0.1741
  C  C85  1  0.655300  0.220600  0.332000  1.0  0.1473
  C  C86  1  0.898000  0.260200  0.664900  1.0  0.1808
  C  C87  1  0.086400  0.177300  0.341200  1.0  0.2074
  C  C88  1  0.641100  0.380400  0.186300  1.0  0.1313
  C  C89  1  0.896300  0.273800  0.329600  1.0  0.1931
  C  C90  1  0.930000  0.336300  0.168200  1.0  0.2039
  C  C91  1  0.916600  0.397000  0.348600  1.0  0.2157
  C  C92  1  0.849000  0.424600  0.185800  1.0  0.1438
  C  C93  1  0.757800  0.838100  0.811900  1.0  0.3748
  C  C94  1  0.796800  0.890500  0.935500  1.0  0.1538
  C  C95  1  0.747800  0.898600  0.978000  1.0  -0.0953
  C  C96  1  0.703700  0.874600  0.932400  1.0  0.1861
  C  C97  1  0.763500  0.804300  0.719200  1.0  0.3515
  C  C98  1  0.816900  0.768200  0.597900  1.0  0.1834
  C  C99  1  0.773500  0.742700  0.552300  1.0  -0.1197
  C  C100  1  0.723800  0.750700  0.594900  1.0  0.1741
  C  C101  1  0.655300  0.720600  0.832000  1.0  0.1473
  C  C102  1  0.898000  0.760200  0.164900  1.0  0.1808
  C  C103  1  0.086400  0.677300  0.841200  1.0  0.2074
  C  C104  1  0.641100  0.880400  0.686300  1.0  0.1313
  C  C105  1  0.896300  0.773800  0.829600  1.0  0.1931
  C  C106  1  0.930000  0.836300  0.668200  1.0  0.2039
  C  C107  1  0.916600  0.897000  0.848600  1.0  0.2157
  C  C108  1  0.849000  0.924600  0.685800  1.0  0.1438
  C  C109  1  0.242200  0.661900  0.311900  1.0  0.3743
  C  C110  1  0.203200  0.609500  0.435500  1.0  0.1534
  C  C111  1  0.252200  0.601400  0.478000  1.0  -0.0958
  C  C112  1  0.296300  0.625400  0.432400  1.0  0.1877
  C  C113  1  0.236500  0.695700  0.219200  1.0  0.3505
  C  C114  1  0.183100  0.731800  0.097900  1.0  0.1826
  C  C115  1  0.226500  0.757300  0.052300  1.0  -0.1181
  C  C116  1  0.276200  0.749300  0.094900  1.0  0.174
  C  C117  1  0.344700  0.779400  0.332000  1.0  0.1461
  C  C118  1  0.102000  0.739800  0.664900  1.0  0.1795
  C  C119  1  0.913600  0.822700  0.341200  1.0  0.208
  C  C120  1  0.358900  0.619600  0.186300  1.0  0.1309
  C  C121  1  0.103700  0.726200  0.329600  1.0  0.1927
  C  C122  1  0.070000  0.663700  0.168200  1.0  0.203
  C  C123  1  0.083400  0.603000  0.348600  1.0  0.2119
  C  C124  1  0.151000  0.575400  0.185800  1.0  0.1404
  C  C125  1  0.242200  0.161900  0.811900  1.0  0.3743
  C  C126  1  0.203200  0.109500  0.935500  1.0  0.1534
  C  C127  1  0.252200  0.101400  0.978000  1.0  -0.0958
  C  C128  1  0.296300  0.125400  0.932400  1.0  0.1877
  C  C129  1  0.236500  0.195700  0.719200  1.0  0.3505
  C  C130  1  0.183100  0.231800  0.597900  1.0  0.1826
  C  C131  1  0.226500  0.257300  0.552300  1.0  -0.1181
  C  C132  1  0.276200  0.249300  0.594900  1.0  0.174
  C  C133  1  0.344700  0.279400  0.832000  1.0  0.1461
  C  C134  1  0.102000  0.239800  0.164900  1.0  0.1795
  C  C135  1  0.913600  0.322700  0.841200  1.0  0.208
  C  C136  1  0.358900  0.119600  0.686300  1.0  0.1309
  C  C137  1  0.103700  0.226200  0.829600  1.0  0.1927
  C  C138  1  0.070000  0.163700  0.668200  1.0  0.203
  C  C139  1  0.083400  0.103000  0.848600  1.0  0.2119
  C  C140  1  0.151000  0.075400  0.685800  1.0  0.1404
  C  C141  1  0.257800  0.161900  0.311900  1.0  0.3744
  C  C142  1  0.296800  0.109500  0.435500  1.0  0.1539
  C  C143  1  0.247800  0.101400  0.478000  1.0  -0.0959
  C  C144  1  0.203700  0.125400  0.432400  1.0  0.1877
  C  C145  1  0.263500  0.195700  0.219200  1.0  0.3512
  C  C146  1  0.316900  0.231800  0.097900  1.0  0.1832
  C  C147  1  0.273500  0.257300  0.052300  1.0  -0.1184
  C  C148  1  0.223800  0.249300  0.094900  1.0  0.1726
  C  C149  1  0.155300  0.279400  0.332000  1.0  0.1464
  C  C150  1  0.398000  0.239800  0.664900  1.0  0.1813
  C  C151  1  0.586400  0.322700  0.341200  1.0  0.2081
  C  C152  1  0.141100  0.119600  0.186300  1.0  0.1288
  C  C153  1  0.396300  0.226200  0.329600  1.0  0.1935
  C  C154  1  0.430000  0.163700  0.168200  1.0  0.2039
  C  C155  1  0.416600  0.103000  0.348600  1.0  0.2157
  C  C156  1  0.349000  0.075400  0.185800  1.0  0.1408
  C  C157  1  0.257800  0.661900  0.811900  1.0  0.3744
  C  C158  1  0.296800  0.609500  0.935500  1.0  0.1539
  C  C159  1  0.247800  0.601400  0.978000  1.0  -0.0959
  C  C160  1  0.203700  0.625400  0.932400  1.0  0.1877
  C  C161  1  0.263500  0.695700  0.719200  1.0  0.3512
  C  C162  1  0.316900  0.731800  0.597900  1.0  0.1832
  C  C163  1  0.273500  0.757300  0.552300  1.0  -0.1184
  C  C164  1  0.223800  0.749300  0.594900  1.0  0.1726
  C  C165  1  0.155300  0.779400  0.832000  1.0  0.1464
  C  C166  1  0.398000  0.739800  0.164900  1.0  0.1813
  C  C167  1  0.586400  0.822700  0.841200  1.0  0.2081
  C  C168  1  0.141100  0.619600  0.686300  1.0  0.1288
  C  C169  1  0.396300  0.726200  0.829600  1.0  0.1935
  C  C170  1  0.430000  0.663700  0.668200  1.0  0.2039
  C  C171  1  0.416600  0.603000  0.848600  1.0  0.2157
  C  C172  1  0.349000  0.575400  0.685800  1.0  0.1408
  C  C173  1  0.742200  0.838100  0.311900  1.0  0.3747
  C  C174  1  0.703200  0.890500  0.435500  1.0  0.1528
  C  C175  1  0.752200  0.898600  0.478000  1.0  -0.095
  C  C176  1  0.796300  0.874600  0.432400  1.0  0.1872
  C  C177  1  0.736500  0.804300  0.219200  1.0  0.3508
  C  C178  1  0.683100  0.768200  0.097900  1.0  0.1824
  C  C179  1  0.726500  0.742700  0.052300  1.0  -0.1192
  C  C180  1  0.776200  0.750700  0.094900  1.0  0.1737
  C  C181  1  0.844700  0.720600  0.332000  1.0  0.1477
  C  C182  1  0.602000  0.760200  0.664900  1.0  0.1793
  C  C183  1  0.413600  0.677300  0.341200  1.0  0.2077
  C  C184  1  0.858900  0.880400  0.186300  1.0  0.133
  C  C185  1  0.603700  0.773800  0.329600  1.0  0.1916
  C  C186  1  0.570000  0.836300  0.168200  1.0  0.2028
  C  C187  1  0.583400  0.897000  0.348600  1.0  0.2129
  C  C188  1  0.651000  0.924600  0.185800  1.0  0.143
  C  C189  1  0.742200  0.338100  0.811900  1.0  0.3747
  C  C190  1  0.703200  0.390500  0.935500  1.0  0.1528
  C  C191  1  0.752200  0.398600  0.978000  1.0  -0.095
  C  C192  1  0.796300  0.374600  0.932400  1.0  0.1872
  C  C193  1  0.736500  0.304300  0.719200  1.0  0.3508
  C  C194  1  0.683100  0.268200  0.597900  1.0  0.1824
  C  C195  1  0.726500  0.242700  0.552300  1.0  -0.1192
  C  C196  1  0.776200  0.250700  0.594900  1.0  0.1737
  C  C197  1  0.844700  0.220600  0.832000  1.0  0.1477
  C  C198  1  0.602000  0.260200  0.164900  1.0  0.1793
  C  C199  1  0.413600  0.177300  0.841200  1.0  0.2077
  C  C200  1  0.858900  0.380400  0.686300  1.0  0.133
  C  C201  1  0.603700  0.273800  0.829600  1.0  0.1916
  C  C202  1  0.570000  0.336300  0.668200  1.0  0.2028
  C  C203  1  0.583400  0.397000  0.848600  1.0  0.2129
  C  C204  1  0.651000  0.424600  0.685800  1.0  0.143
  N  N205  1  0.802290  0.360300  0.350500  1.0  -0.2569
  N  N206  1  0.708180  0.343000  0.347500  1.0  -0.2469
  N  N207  1  0.812220  0.299700  0.180400  1.0  -0.2514
  N  N208  1  0.718340  0.281900  0.179700  1.0  -0.3027
  N  N209  1  0.658500  0.175600  0.370900  1.0  -0.3947
  N  N210  1  0.923600  0.232200  0.609200  1.0  -0.4488
  N  N211  1  0.049700  0.166300  0.388400  1.0  -0.4969
  N  N212  1  0.636300  0.426200  0.145100  1.0  -0.3953
  N  N213  1  0.913900  0.231000  0.366300  1.0  -0.5621
  N  N214  1  0.965000  0.328800  0.116600  1.0  -0.4699
  N  N215  1  0.942100  0.425500  0.401400  1.0  -0.5645
  N  N216  1  0.837000  0.467500  0.144900  1.0  -0.4019
  N  N217  1  0.802290  0.860300  0.850500  1.0  -0.2569
  N  N218  1  0.708180  0.843000  0.847500  1.0  -0.2469
  N  N219  1  0.812220  0.799700  0.680400  1.0  -0.2514
  N  N220  1  0.718340  0.781900  0.679700  1.0  -0.3027
  N  N221  1  0.658500  0.675600  0.870900  1.0  -0.3947
  N  N222  1  0.923600  0.732200  0.109200  1.0  -0.4488
  N  N223  1  0.049700  0.666300  0.888400  1.0  -0.4969
  N  N224  1  0.636300  0.926200  0.645100  1.0  -0.3953
  N  N225  1  0.913900  0.731000  0.866300  1.0  -0.5621
  N  N226  1  0.965000  0.828800  0.616600  1.0  -0.4699
  N  N227  1  0.942100  0.925500  0.901400  1.0  -0.5645
  N  N228  1  0.837000  0.967500  0.644900  1.0  -0.4019
  N  N229  1  0.197710  0.639700  0.350500  1.0  -0.2557
  N  N230  1  0.291820  0.657000  0.347500  1.0  -0.2481
  N  N231  1  0.187780  0.700300  0.180400  1.0  -0.2507
  N  N232  1  0.281660  0.718100  0.179700  1.0  -0.3041
  N  N233  1  0.341500  0.824400  0.370900  1.0  -0.3964
  N  N234  1  0.076400  0.767800  0.609200  1.0  -0.4485
  N  N235  1  0.950300  0.833700  0.388400  1.0  -0.4971
  N  N236  1  0.363700  0.573800  0.145100  1.0  -0.3885
  N  N237  1  0.086100  0.769000  0.366300  1.0  -0.5647
  N  N238  1  0.035000  0.671200  0.116600  1.0  -0.4698
  N  N239  1  0.057900  0.574500  0.401400  1.0  -0.5589
  N  N240  1  0.163000  0.532500  0.144900  1.0  -0.4007
  N  N241  1  0.197710  0.139700  0.850500  1.0  -0.2557
  N  N242  1  0.291820  0.157000  0.847500  1.0  -0.2481
  N  N243  1  0.187780  0.200300  0.680400  1.0  -0.2507
  N  N244  1  0.281660  0.218100  0.679700  1.0  -0.3041
  N  N245  1  0.341500  0.324400  0.870900  1.0  -0.3964
  N  N246  1  0.076400  0.267800  0.109200  1.0  -0.4485
  N  N247  1  0.950300  0.333700  0.888400  1.0  -0.4971
  N  N248  1  0.363700  0.073800  0.645100  1.0  -0.3885
  N  N249  1  0.086100  0.269000  0.866300  1.0  -0.5647
  N  N250  1  0.035000  0.171200  0.616600  1.0  -0.4698
  N  N251  1  0.057900  0.074500  0.901400  1.0  -0.5589
  N  N252  1  0.163000  0.032500  0.644900  1.0  -0.4007
  N  N253  1  0.302290  0.139700  0.350500  1.0  -0.2561
  N  N254  1  0.208180  0.157000  0.347500  1.0  -0.2463
  N  N255  1  0.312220  0.200300  0.180400  1.0  -0.2517
  N  N256  1  0.218340  0.218100  0.179700  1.0  -0.3042
  N  N257  1  0.158500  0.324400  0.370900  1.0  -0.3968
  N  N258  1  0.423600  0.267800  0.609200  1.0  -0.4487
  N  N259  1  0.549700  0.333700  0.388400  1.0  -0.4972
  N  N260  1  0.136300  0.073800  0.145100  1.0  -0.3906
  N  N261  1  0.413900  0.269000  0.366300  1.0  -0.5646
  N  N262  1  0.465000  0.171200  0.116600  1.0  -0.4704
  N  N263  1  0.442100  0.074500  0.401400  1.0  -0.5619
  N  N264  1  0.337000  0.032500  0.144900  1.0  -0.4022
  N  N265  1  0.302290  0.639700  0.850500  1.0  -0.2561
  N  N266  1  0.208180  0.657000  0.847500  1.0  -0.2463
  N  N267  1  0.312220  0.700300  0.680400  1.0  -0.2517
  N  N268  1  0.218340  0.718100  0.679700  1.0  -0.3042
  N  N269  1  0.158500  0.824400  0.870900  1.0  -0.3968
  N  N270  1  0.423600  0.767800  0.109200  1.0  -0.4487
  N  N271  1  0.549700  0.833700  0.888400  1.0  -0.4972
  N  N272  1  0.136300  0.573800  0.645100  1.0  -0.3906
  N  N273  1  0.413900  0.769000  0.866300  1.0  -0.5646
  N  N274  1  0.465000  0.671200  0.616600  1.0  -0.4704
  N  N275  1  0.442100  0.574500  0.901400  1.0  -0.5619
  N  N276  1  0.337000  0.532500  0.644900  1.0  -0.4022
  N  N277  1  0.697710  0.860300  0.350500  1.0  -0.2558
  N  N278  1  0.791820  0.843000  0.347500  1.0  -0.2488
  N  N279  1  0.687780  0.799700  0.180400  1.0  -0.251
  N  N280  1  0.781660  0.781900  0.179700  1.0  -0.3028
  N  N281  1  0.841500  0.675600  0.370900  1.0  -0.3942
  N  N282  1  0.576400  0.732200  0.609200  1.0  -0.4478
  N  N283  1  0.450300  0.666300  0.388400  1.0  -0.4971
  N  N284  1  0.863700  0.926200  0.145100  1.0  -0.3932
  N  N285  1  0.586100  0.731000  0.366300  1.0  -0.562
  N  N286  1  0.535000  0.828800  0.116600  1.0  -0.4693
  N  N287  1  0.557900  0.925500  0.401400  1.0  -0.5616
  N  N288  1  0.663000  0.967500  0.144900  1.0  -0.4009
  N  N289  1  0.697710  0.360300  0.850500  1.0  -0.2558
  N  N290  1  0.791820  0.343000  0.847500  1.0  -0.2488
  N  N291  1  0.687780  0.299700  0.680400  1.0  -0.251
  N  N292  1  0.781660  0.281900  0.679700  1.0  -0.3028
  N  N293  1  0.841500  0.175600  0.870900  1.0  -0.3942
  N  N294  1  0.576400  0.232200  0.109200  1.0  -0.4478
  N  N295  1  0.450300  0.166300  0.888400  1.0  -0.4971
  N  N296  1  0.863700  0.426200  0.645100  1.0  -0.3932
  N  N297  1  0.586100  0.231000  0.866300  1.0  -0.562
  N  N298  1  0.535000  0.328800  0.616600  1.0  -0.4693
  N  N299  1  0.557900  0.425500  0.901400  1.0  -0.5616
  N  N300  1  0.663000  0.467500  0.644900  1.0  -0.4009
  O  O301  1  0.998900  0.068300  0.509000  1.0  -0.6793
  O  O302  1  0.046900  0.418400  0.075500  1.0  -0.683
  O  O303  1  0.998900  0.568300  0.009000  1.0  -0.6793
  O  O304  1  0.046900  0.918400  0.575500  1.0  -0.6828
  O  O305  1  0.001100  0.931700  0.509000  1.0  -0.6784
  O  O306  1  0.953100  0.581600  0.075500  1.0  -0.6824
  O  O307  1  0.001100  0.431700  0.009000  1.0  -0.6784
  O  O308  1  0.953100  0.081600  0.575500  1.0  -0.6822
  O  O309  1  0.498900  0.431700  0.509000  1.0  -0.6787
  O  O310  1  0.546900  0.081600  0.075500  1.0  -0.6825
  O  O311  1  0.498900  0.931700  0.009000  1.0  -0.6787
  O  O312  1  0.546900  0.581600  0.575500  1.0  -0.6823
  O  O313  1  0.501100  0.568300  0.509000  1.0  -0.6793
  O  O314  1  0.453100  0.918400  0.075500  1.0  -0.6831
  O  O315  1  0.501100  0.068300  0.009000  1.0  -0.6793
  O  O316  1  0.453100  0.418400  0.575500  1.0  -0.6829
