# generated using pymatgen
data_ErH3(C3O2)3
_symmetry_space_group_name_H-M   'P 1'
_cell_length_a   10.81580000
_cell_length_b   10.93310000
_cell_length_c   15.55140000
_cell_angle_alpha   90.00000000
_cell_angle_beta   90.00000000
_cell_angle_gamma   100.55700000
_symmetry_Int_Tables_number   1
_chemical_formula_structural   ErH3(C3O2)3
_chemical_formula_sum   'Er4 H12 C36 O24'
_cell_volume   1807.82873287
_cell_formula_units_Z   4
loop_
 _symmetry_equiv_pos_site_id
 _symmetry_equiv_pos_as_xyz
  1  'x, y, z'
loop_
 _atom_site_type_symbol
 _atom_site_label
 _atom_site_symmetry_multiplicity
 _atom_site_fract_x
 _atom_site_fract_y
 _atom_site_fract_z
 _atom_site_occupancy
 _atom_site_charge
  Er  Er1  1  0.643030  0.397230  0.898010  1.0  1.5021
  Er  Er2  1  0.856970  0.102770  0.398010  1.0  1.5019
  Er  Er3  1  0.356970  0.602770  0.101990  1.0  1.5018
  Er  Er4  1  0.143030  0.897230  0.601990  1.0  1.5021
  H  H5  1  0.100200  0.409900  0.953600  1.0  0.1173
  H  H6  1  0.948000  0.181100  0.765600  1.0  0.1177
  H  H7  1  0.315700  0.221800  0.814100  1.0  0.1001
  H  H8  1  0.399800  0.090100  0.453600  1.0  0.1174
  H  H9  1  0.552000  0.318900  0.265600  1.0  0.1177
  H  H10  1  0.184300  0.278200  0.314100  1.0  0.0988
  H  H11  1  0.899800  0.590100  0.046400  1.0  0.1173
  H  H12  1  0.052000  0.818900  0.234400  1.0  0.1175
  H  H13  1  0.684300  0.778200  0.185900  1.0  0.0986
  H  H14  1  0.600200  0.909900  0.546400  1.0  0.1175
  H  H15  1  0.448000  0.681100  0.734400  1.0  0.1178
  H  H16  1  0.815700  0.721800  0.685900  1.0  0.1005
  C  C17  1  0.339700  0.384500  0.944400  1.0  0.8052
  C  C18  1  0.877700  0.335900  0.877500  1.0  0.6684
  C  C19  1  0.143000  0.096100  0.708200  1.0  0.669
  C  C20  1  0.227100  0.324900  0.892000  1.0  -0.1783
  C  C21  1  0.108600  0.354400  0.909600  1.0  0.0478
  C  C22  1  0.004700  0.301700  0.862200  1.0  -0.1485
  C  C23  1  0.018100  0.217500  0.797200  1.0  0.0453
  C  C24  1  0.133900  0.186800  0.778800  1.0  -0.1517
  C  C25  1  0.237400  0.241400  0.826400  1.0  0.0432
  C  C26  1  0.160300  0.115500  0.444400  1.0  0.8046
  C  C27  1  0.622300  0.164100  0.377500  1.0  0.6692
  C  C28  1  0.357000  0.403900  0.208200  1.0  0.6661
  C  C29  1  0.272900  0.175100  0.392000  1.0  -0.1781
  C  C30  1  0.391400  0.145600  0.409600  1.0  0.0478
  C  C31  1  0.495300  0.198300  0.362200  1.0  -0.1483
  C  C32  1  0.481900  0.282500  0.297200  1.0  0.0457
  C  C33  1  0.366100  0.313200  0.278800  1.0  -0.152
  C  C34  1  0.262600  0.258600  0.326400  1.0  0.0425
  C  C35  1  0.660300  0.615500  0.055600  1.0  0.8043
  C  C36  1  0.122300  0.664100  0.122500  1.0  0.669
  C  C37  1  0.857000  0.903900  0.291800  1.0  0.666
  C  C38  1  0.772900  0.675100  0.108000  1.0  -0.1784
  C  C39  1  0.891400  0.645600  0.090400  1.0  0.0473
  C  C40  1  0.995300  0.698300  0.137800  1.0  -0.1481
  C  C41  1  0.981900  0.782500  0.202800  1.0  0.0458
  C  C42  1  0.866100  0.813200  0.221200  1.0  -0.1523
  C  C43  1  0.762600  0.758600  0.173600  1.0  0.0424
  C  C44  1  0.839700  0.884500  0.555600  1.0  0.8042
  C  C45  1  0.377700  0.835900  0.622500  1.0  0.6683
  C  C46  1  0.643000  0.596100  0.791800  1.0  0.6693
  C  C47  1  0.727100  0.824900  0.608000  1.0  -0.1776
  C  C48  1  0.608600  0.854400  0.590400  1.0  0.0474
  C  C49  1  0.504700  0.801700  0.637800  1.0  -0.1486
  C  C50  1  0.518100  0.717500  0.702800  1.0  0.046
  C  C51  1  0.633900  0.686800  0.721200  1.0  -0.1516
  C  C52  1  0.737400  0.741400  0.673600  1.0  0.043
  O  O53  1  0.437800  0.336900  0.937100  1.0  -0.6959
  O  O54  1  0.329400  0.475000  0.989700  1.0  -0.6154
  O  O55  1  0.863500  0.409400  0.936500  1.0  -0.5702
  O  O56  1  0.787900  0.288300  0.829500  1.0  -0.6239
  O  O57  1  0.048200  0.059000  0.662400  1.0  -0.5642
  O  O58  1  0.243500  0.053400  0.699000  1.0  -0.5624
  O  O59  1  0.062200  0.163100  0.437100  1.0  -0.7022
  O  O60  1  0.170600  0.025000  0.489700  1.0  -0.6149
  O  O61  1  0.636500  0.090600  0.436500  1.0  -0.5662
  O  O62  1  0.712100  0.211700  0.329500  1.0  -0.6248
  O  O63  1  0.451800  0.441000  0.162400  1.0  -0.5645
  O  O64  1  0.256500  0.446600  0.199000  1.0  -0.5637
  O  O65  1  0.562200  0.663100  0.062900  1.0  -0.7017
  O  O66  1  0.670600  0.525000  0.010300  1.0  -0.6151
  O  O67  1  0.136500  0.590600  0.063500  1.0  -0.5712
  O  O68  1  0.212100  0.711700  0.170500  1.0  -0.6214
  O  O69  1  0.951800  0.941000  0.337600  1.0  -0.5655
  O  O70  1  0.756500  0.946600  0.301000  1.0  -0.5667
  O  O71  1  0.937800  0.836900  0.562900  1.0  -0.6936
  O  O72  1  0.829400  0.975000  0.510300  1.0  -0.6153
  O  O73  1  0.363500  0.909400  0.563500  1.0  -0.5744
  O  O74  1  0.287900  0.788300  0.670500  1.0  -0.6158
  O  O75  1  0.548200  0.559000  0.837600  1.0  -0.5654
  O  O76  1  0.743500  0.553400  0.801000  1.0  -0.5661
