# generated using pymatgen
data_HoH3(C3O2)3
_symmetry_space_group_name_H-M   'P 1'
_cell_length_a   10.84400000
_cell_length_b   10.96100000
_cell_length_c   15.58500000
_cell_angle_alpha   90.00000000
_cell_angle_beta   90.00000000
_cell_angle_gamma   100.55700000
_symmetry_Int_Tables_number   1
_chemical_formula_structural   HoH3(C3O2)3
_chemical_formula_sum   'Ho4 H12 C36 O24'
_cell_volume   1821.09380699
_cell_formula_units_Z   4
loop_
 _symmetry_equiv_pos_site_id
 _symmetry_equiv_pos_as_xyz
  1  'x, y, z'
loop_
 _atom_site_type_symbol
 _atom_site_label
 _atom_site_symmetry_multiplicity
 _atom_site_fract_x
 _atom_site_fract_y
 _atom_site_fract_z
 _atom_site_occupancy
 _atom_site_charge
  Ho  Ho1  1  0.857070  0.103000  0.897970  1.0  2.132
  Ho  Ho2  1  0.642930  0.397000  0.397970  1.0  2.1329
  Ho  Ho3  1  0.142930  0.897000  0.102030  1.0  2.1335
  Ho  Ho4  1  0.357070  0.603000  0.602030  1.0  2.1325
  H  H5  1  0.398800  0.088200  0.953300  1.0  0.1091
  H  H6  1  0.552400  0.320000  0.766100  1.0  0.1063
  H  H7  1  0.184200  0.277700  0.814600  1.0  0.09
  H  H8  1  0.101200  0.411800  0.453300  1.0  0.1088
  H  H9  1  0.947600  0.180000  0.266100  1.0  0.1062
  H  H10  1  0.315800  0.222300  0.314600  1.0  0.0914
  H  H11  1  0.601200  0.911800  0.046700  1.0  0.1093
  H  H12  1  0.447600  0.680000  0.233900  1.0  0.1063
  H  H13  1  0.815800  0.722300  0.185400  1.0  0.0918
  H  H14  1  0.898800  0.588200  0.546700  1.0  0.1092
  H  H15  1  0.052400  0.820000  0.733900  1.0  0.106
  H  H16  1  0.684200  0.777700  0.685400  1.0  0.0899
  C  C17  1  0.160700  0.116400  0.943500  1.0  0.8492
  C  C18  1  0.622300  0.165500  0.878200  1.0  0.6883
  C  C19  1  0.357100  0.404200  0.709400  1.0  0.6432
  C  C20  1  0.273900  0.175200  0.892400  1.0  -0.1982
  C  C21  1  0.390700  0.144500  0.910000  1.0  0.0363
  C  C22  1  0.495300  0.199100  0.862100  1.0  -0.1551
  C  C23  1  0.482500  0.283300  0.797500  1.0  0.0337
  C  C24  1  0.366200  0.313100  0.779500  1.0  -0.1664
  C  C25  1  0.262400  0.258400  0.826900  1.0  0.0267
  C  C26  1  0.339300  0.383600  0.443500  1.0  0.8529
  C  C27  1  0.877700  0.334500  0.378200  1.0  0.6887
  C  C28  1  0.142900  0.095800  0.209400  1.0  0.6444
  C  C29  1  0.226100  0.324800  0.392400  1.0  -0.1975
  C  C30  1  0.109300  0.355500  0.410000  1.0  0.0354
  C  C31  1  0.004700  0.300900  0.362100  1.0  -0.1552
  C  C32  1  0.017500  0.216700  0.297500  1.0  0.0332
  C  C33  1  0.133800  0.186900  0.279500  1.0  -0.1668
  C  C34  1  0.237600  0.241600  0.326900  1.0  0.028
  C  C35  1  0.839300  0.883600  0.056500  1.0  0.8514
  C  C36  1  0.377700  0.834500  0.121800  1.0  0.6886
  C  C37  1  0.642900  0.595800  0.290600  1.0  0.6451
  C  C38  1  0.726100  0.824800  0.107600  1.0  -0.197
  C  C39  1  0.609300  0.855500  0.090000  1.0  0.0356
  C  C40  1  0.504700  0.800900  0.137900  1.0  -0.1553
  C  C41  1  0.517500  0.716700  0.202500  1.0  0.0331
  C  C42  1  0.633800  0.686900  0.220500  1.0  -0.1665
  C  C43  1  0.737600  0.741600  0.173100  1.0  0.028
  C  C44  1  0.660700  0.616400  0.556500  1.0  0.8485
  C  C45  1  0.122300  0.665500  0.621800  1.0  0.6882
  C  C46  1  0.857100  0.904200  0.790600  1.0  0.6431
  C  C47  1  0.773900  0.675200  0.607600  1.0  -0.1982
  C  C48  1  0.890700  0.644500  0.590000  1.0  0.0362
  C  C49  1  0.995300  0.699100  0.637900  1.0  -0.155
  C  C50  1  0.982500  0.783300  0.702500  1.0  0.033
  C  C51  1  0.866200  0.813100  0.720500  1.0  -0.1669
  C  C52  1  0.762400  0.758400  0.673100  1.0  0.0269
  O  O53  1  0.063500  0.163200  0.937900  1.0  -0.7837
  O  O54  1  0.170700  0.025400  0.989400  1.0  -0.7432
  O  O55  1  0.636300  0.090600  0.935600  1.0  -0.6401
  O  O56  1  0.711500  0.212400  0.829800  1.0  -0.7317
  O  O57  1  0.451100  0.440500  0.663200  1.0  -0.6549
  O  O58  1  0.256800  0.446400  0.699400  1.0  -0.6442
  O  O59  1  0.436500  0.336800  0.437900  1.0  -0.7814
  O  O60  1  0.329300  0.474600  0.489400  1.0  -0.7448
  O  O61  1  0.863700  0.409400  0.435600  1.0  -0.6416
  O  O62  1  0.788500  0.287600  0.329800  1.0  -0.7324
  O  O63  1  0.048900  0.059500  0.163200  1.0  -0.6546
  O  O64  1  0.243200  0.053600  0.199400  1.0  -0.6409
  O  O65  1  0.936500  0.836800  0.062100  1.0  -0.7806
  O  O66  1  0.829300  0.974600  0.010600  1.0  -0.7452
  O  O67  1  0.363700  0.909400  0.064400  1.0  -0.6423
  O  O68  1  0.288500  0.787600  0.170200  1.0  -0.7292
  O  O69  1  0.548900  0.559500  0.336800  1.0  -0.6556
  O  O70  1  0.743200  0.553600  0.300600  1.0  -0.6445
  O  O71  1  0.563500  0.663200  0.562100  1.0  -0.7849
  O  O72  1  0.670700  0.525400  0.510600  1.0  -0.7443
  O  O73  1  0.136300  0.590600  0.564400  1.0  -0.6413
  O  O74  1  0.211500  0.712400  0.670200  1.0  -0.7318
  O  O75  1  0.951100  0.940500  0.836800  1.0  -0.6555
  O  O76  1  0.756800  0.946400  0.800600  1.0  -0.6465
