# generated using pymatgen
data_TbH3(C3O2)3
_symmetry_space_group_name_H-M   'P 1'
_cell_length_a   10.87240000
_cell_length_b   15.62180000
_cell_length_c   10.99240000
_cell_angle_alpha   90.00000000
_cell_angle_beta   100.70200000
_cell_angle_gamma   90.00000000
_symmetry_Int_Tables_number   1
_chemical_formula_structural   TbH3(C3O2)3
_chemical_formula_sum   'Tb4 H12 C36 O24'
_cell_volume   1834.54584696
_cell_formula_units_Z   4
loop_
 _symmetry_equiv_pos_site_id
 _symmetry_equiv_pos_as_xyz
  1  'x, y, z'
loop_
 _atom_site_type_symbol
 _atom_site_label
 _atom_site_symmetry_multiplicity
 _atom_site_fract_x
 _atom_site_fract_y
 _atom_site_fract_z
 _atom_site_occupancy
 _atom_site_charge
  Tb  Tb1  1  0.142430  0.101750  0.395620  1.0  2.1707
  Tb  Tb2  1  0.357570  0.601750  0.104380  1.0  2.1775
  Tb  Tb3  1  0.857570  0.898250  0.604380  1.0  2.1774
  Tb  Tb4  1  0.642430  0.398250  0.895620  1.0  2.1707
  H  H5  1  0.814400  0.184900  0.221100  1.0  0.088
  H  H6  1  0.599600  0.046900  0.409300  1.0  0.0927
  H  H7  1  0.447600  0.233600  0.179300  1.0  0.0976
  H  H8  1  0.685600  0.684900  0.278900  1.0  0.0888
  H  H9  1  0.900400  0.546900  0.090700  1.0  0.0927
  H  H10  1  0.052400  0.733600  0.320700  1.0  0.0967
  H  H11  1  0.185600  0.815100  0.778900  1.0  0.0887
  H  H12  1  0.400400  0.953100  0.590700  1.0  0.093
  H  H13  1  0.552400  0.766400  0.820700  1.0  0.0965
  H  H14  1  0.314400  0.315100  0.721100  1.0  0.0876
  H  H15  1  0.099600  0.453100  0.909300  1.0  0.092
  H  H16  1  0.947600  0.266400  0.679300  1.0  0.0974
  C  C17  1  0.837800  0.056100  0.381400  1.0  0.807
  C  C18  1  0.725100  0.107900  0.323500  1.0  -0.1887
  C  C19  1  0.736500  0.172800  0.240400  1.0  0.0221
  C  C20  1  0.607700  0.090100  0.353300  1.0  0.0307
  C  C21  1  0.503500  0.137300  0.298800  1.0  -0.1777
  C  C22  1  0.632700  0.219700  0.185700  1.0  -0.1718
  C  C23  1  0.517200  0.201800  0.215600  1.0  0.0285
  C  C24  1  0.642900  0.289700  0.095300  1.0  0.6512
  C  C25  1  0.377300  0.122600  0.331400  1.0  0.6616
  C  C26  1  0.662200  0.556100  0.118600  1.0  0.8062
  C  C27  1  0.774900  0.607900  0.176500  1.0  -0.1894
  C  C28  1  0.763500  0.672800  0.259600  1.0  0.0217
  C  C29  1  0.892300  0.590100  0.146700  1.0  0.0305
  C  C30  1  0.996500  0.637300  0.201200  1.0  -0.1776
  C  C31  1  0.867300  0.719700  0.314300  1.0  -0.173
  C  C32  1  0.982800  0.701800  0.284400  1.0  0.0289
  C  C33  1  0.857100  0.789700  0.404700  1.0  0.6516
  C  C34  1  0.122700  0.622600  0.168600  1.0  0.6599
  C  C35  1  0.162200  0.943900  0.618600  1.0  0.8063
  C  C36  1  0.274900  0.892100  0.676500  1.0  -0.189
  C  C37  1  0.263500  0.827200  0.759600  1.0  0.0217
  C  C38  1  0.392300  0.909900  0.646700  1.0  0.0307
  C  C39  1  0.496500  0.862700  0.701200  1.0  -0.1775
  C  C40  1  0.367300  0.780300  0.814300  1.0  -0.1732
  C  C41  1  0.482800  0.798200  0.784400  1.0  0.029
  C  C42  1  0.357100  0.710300  0.904700  1.0  0.6519
  C  C43  1  0.622700  0.877400  0.668600  1.0  0.6601
  C  C44  1  0.337800  0.443900  0.881400  1.0  0.8073
  C  C45  1  0.225100  0.392100  0.823500  1.0  -0.1889
  C  C46  1  0.236500  0.327200  0.740400  1.0  0.0222
  C  C47  1  0.107700  0.409900  0.853300  1.0  0.0308
  C  C48  1  0.003500  0.362700  0.798800  1.0  -0.1778
  C  C49  1  0.132700  0.280300  0.685700  1.0  -0.1728
  C  C50  1  0.017200  0.298200  0.715600  1.0  0.0283
  C  C51  1  0.142900  0.210300  0.595300  1.0  0.6511
  C  C52  1  0.877300  0.377400  0.831400  1.0  0.6614
  O  O53  1  0.935000  0.062000  0.335400  1.0  -0.7659
  O  O54  1  0.548900  0.336100  0.058800  1.0  -0.652
  O  O55  1  0.742300  0.298800  0.053000  1.0  -0.6503
  O  O56  1  0.289000  0.169900  0.285200  1.0  -0.7008
  O  O57  1  0.365000  0.064600  0.406800  1.0  -0.6103
  O  O58  1  0.828200  0.010900  0.473200  1.0  -0.732
  O  O59  1  0.565000  0.562000  0.164600  1.0  -0.7653
  O  O60  1  0.951100  0.836100  0.441200  1.0  -0.6529
  O  O61  1  0.757700  0.798800  0.447000  1.0  -0.6502
  O  O62  1  0.211000  0.669900  0.214800  1.0  -0.7028
  O  O63  1  0.135000  0.564600  0.093200  1.0  -0.6099
  O  O64  1  0.671800  0.510900  0.026800  1.0  -0.7317
  O  O65  1  0.065000  0.938000  0.664600  1.0  -0.7658
  O  O66  1  0.451100  0.663900  0.941200  1.0  -0.6525
  O  O67  1  0.257700  0.701200  0.947000  1.0  -0.6528
  O  O68  1  0.711000  0.830100  0.714800  1.0  -0.7021
  O  O69  1  0.635000  0.935400  0.593200  1.0  -0.6096
  O  O70  1  0.171800  0.989100  0.526800  1.0  -0.7311
  O  O71  1  0.435000  0.438000  0.835400  1.0  -0.7663
  O  O72  1  0.048900  0.163900  0.558800  1.0  -0.6526
  O  O73  1  0.242300  0.201200  0.553000  1.0  -0.6517
  O  O74  1  0.789000  0.330100  0.785200  1.0  -0.7005
  O  O75  1  0.865000  0.435400  0.906800  1.0  -0.6105
  O  O76  1  0.328200  0.489100  0.973200  1.0  -0.7317
