# generated using pymatgen
data_YbH3(C3O2)3
_symmetry_space_group_name_H-M   'P 1'
_cell_length_a   10.78200000
_cell_length_b   10.88100000
_cell_length_c   15.51000000
_cell_angle_alpha   90.00000000
_cell_angle_beta   90.00000000
_cell_angle_gamma   100.26000000
_symmetry_Int_Tables_number   1
_chemical_formula_structural   YbH3(C3O2)3
_chemical_formula_sum   'Yb4 H12 C36 O24'
_cell_volume   1790.52043677
_cell_formula_units_Z   4
loop_
 _symmetry_equiv_pos_site_id
 _symmetry_equiv_pos_as_xyz
  1  'x, y, z'
loop_
 _atom_site_type_symbol
 _atom_site_label
 _atom_site_symmetry_multiplicity
 _atom_site_fract_x
 _atom_site_fract_y
 _atom_site_fract_z
 _atom_site_occupancy
 _atom_site_charge
  Yb  Yb1  1  0.143970  0.398560  0.898000  1.0  1.4958
  Yb  Yb2  1  0.356030  0.101440  0.398000  1.0  1.4952
  Yb  Yb3  1  0.856030  0.601440  0.102000  1.0  1.4951
  Yb  Yb4  1  0.643970  0.898560  0.602000  1.0  1.4958
  H  H5  1  0.448200  0.183500  0.765000  1.0  0.1177
  H  H6  1  0.818700  0.222900  0.813600  1.0  0.1041
  H  H7  1  0.601400  0.412200  0.954200  1.0  0.1187
  H  H8  1  0.051800  0.316500  0.265000  1.0  0.1175
  H  H9  1  0.681300  0.277100  0.313600  1.0  0.1028
  H  H10  1  0.898600  0.087800  0.454200  1.0  0.1198
  H  H11  1  0.551800  0.816500  0.235000  1.0  0.1173
  H  H12  1  0.181300  0.777100  0.186400  1.0  0.1029
  H  H13  1  0.398600  0.587800  0.045800  1.0  0.1195
  H  H14  1  0.948200  0.683500  0.735000  1.0  0.1177
  H  H15  1  0.318700  0.722900  0.686400  1.0  0.1046
  H  H16  1  0.101400  0.912200  0.545800  1.0  0.119
  C  C17  1  0.378600  0.336200  0.877600  1.0  0.656
  C  C18  1  0.505200  0.302900  0.862200  1.0  -0.1501
  C  C19  1  0.518300  0.219800  0.796800  1.0  0.0417
  C  C20  1  0.636000  0.189700  0.778100  1.0  -0.1544
  C  C21  1  0.740300  0.243100  0.825700  1.0  0.0414
  C  C22  1  0.728100  0.326900  0.891700  1.0  -0.1773
  C  C23  1  0.609900  0.356500  0.910000  1.0  0.0427
  C  C24  1  0.644500  0.097800  0.707600  1.0  0.6418
  C  C25  1  0.842000  0.385500  0.943000  1.0  0.7973
  C  C26  1  0.121400  0.163800  0.377600  1.0  0.6565
  C  C27  1  0.994800  0.197100  0.362200  1.0  -0.1496
  C  C28  1  0.981700  0.280200  0.296800  1.0  0.0422
  C  C29  1  0.864000  0.310300  0.278100  1.0  -0.1542
  C  C30  1  0.759700  0.256900  0.325700  1.0  0.04
  C  C31  1  0.771900  0.173100  0.391700  1.0  -0.1775
  C  C32  1  0.890100  0.143500  0.410000  1.0  0.0437
  C  C33  1  0.855500  0.402200  0.207600  1.0  0.6402
  C  C34  1  0.658000  0.114500  0.443000  1.0  0.7956
  C  C35  1  0.621400  0.663800  0.122400  1.0  0.6564
  C  C36  1  0.494800  0.697100  0.137800  1.0  -0.1494
  C  C37  1  0.481700  0.780200  0.203200  1.0  0.0425
  C  C38  1  0.364000  0.810300  0.221900  1.0  -0.1546
  C  C39  1  0.259700  0.756900  0.174300  1.0  0.0401
  C  C40  1  0.271900  0.673100  0.108300  1.0  -0.1775
  C  C41  1  0.390100  0.643500  0.090000  1.0  0.0438
  C  C42  1  0.355500  0.902200  0.292400  1.0  0.6403
  C  C43  1  0.158000  0.614500  0.057000  1.0  0.7955
  C  C44  1  0.878600  0.836200  0.622400  1.0  0.6559
  C  C45  1  0.005200  0.802900  0.637800  1.0  -0.15
  C  C46  1  0.018300  0.719800  0.703200  1.0  0.0422
  C  C47  1  0.136000  0.689700  0.721900  1.0  -0.1543
  C  C48  1  0.240300  0.743100  0.674300  1.0  0.0412
  C  C49  1  0.228100  0.826900  0.608300  1.0  -0.1769
  C  C50  1  0.109900  0.856500  0.590000  1.0  0.0431
  C  C51  1  0.144500  0.597800  0.792400  1.0  0.6421
  C  C52  1  0.342000  0.885500  0.557000  1.0  0.7962
  O  O53  1  0.288300  0.290300  0.829900  1.0  -0.6124
  O  O54  1  0.364000  0.411800  0.936800  1.0  -0.5314
  O  O55  1  0.745300  0.055000  0.697100  1.0  -0.5625
  O  O56  1  0.550000  0.061100  0.661400  1.0  -0.569
  O  O57  1  0.830900  0.477200  0.988900  1.0  -0.6163
  O  O58  1  0.939600  0.338200  0.936800  1.0  -0.6844
  O  O59  1  0.211700  0.209700  0.329900  1.0  -0.6139
  O  O60  1  0.136000  0.088200  0.436800  1.0  -0.5313
  O  O61  1  0.754700  0.445000  0.197100  1.0  -0.5637
  O  O62  1  0.950000  0.438900  0.161400  1.0  -0.5687
  O  O63  1  0.669100  0.022800  0.488900  1.0  -0.6149
  O  O64  1  0.560400  0.161800  0.436800  1.0  -0.687
  O  O65  1  0.711700  0.709700  0.170100  1.0  -0.6095
  O  O66  1  0.636000  0.588200  0.063200  1.0  -0.5314
  O  O67  1  0.254700  0.945000  0.302900  1.0  -0.5642
  O  O68  1  0.450000  0.938900  0.338600  1.0  -0.5695
  O  O69  1  0.169100  0.522800  0.011100  1.0  -0.6151
  O  O70  1  0.060400  0.661800  0.063200  1.0  -0.6854
  O  O71  1  0.788300  0.790300  0.670100  1.0  -0.6049
  O  O72  1  0.864000  0.911800  0.563200  1.0  -0.5306
  O  O73  1  0.245300  0.555000  0.802900  1.0  -0.5635
  O  O74  1  0.050000  0.561100  0.838600  1.0  -0.5685
  O  O75  1  0.330900  0.977200  0.511100  1.0  -0.6158
  O  O76  1  0.439600  0.838200  0.563200  1.0  -0.6819
