# generated using pymatgen
data_YH3(C3O2)3
_symmetry_space_group_name_H-M   'P 1'
_cell_length_a   10.83880000
_cell_length_b   10.94210000
_cell_length_c   15.59180000
_cell_angle_alpha   90.00000000
_cell_angle_beta   90.00000000
_cell_angle_gamma   100.51300000
_symmetry_Int_Tables_number   1
_chemical_formula_structural   YH3(C3O2)3
_chemical_formula_sum   'Y4 H12 C36 O24'
_cell_volume   1818.13440704
_cell_formula_units_Z   4
loop_
 _symmetry_equiv_pos_site_id
 _symmetry_equiv_pos_as_xyz
  1  'x, y, z'
loop_
 _atom_site_type_symbol
 _atom_site_label
 _atom_site_symmetry_multiplicity
 _atom_site_fract_x
 _atom_site_fract_y
 _atom_site_fract_z
 _atom_site_occupancy
 _atom_site_charge
  Y  Y1  1  0.143380  0.397350  0.897910  1.0  2.0377
  Y  Y2  1  0.356620  0.102650  0.397910  1.0  2.0373
  Y  Y3  1  0.856620  0.602650  0.102090  1.0  2.0371
  Y  Y4  1  0.643380  0.897350  0.602090  1.0  2.0377
  H  H5  1  0.601200  0.411200  0.952800  1.0  0.1075
  H  H6  1  0.448500  0.181300  0.766500  1.0  0.1088
  H  H7  1  0.815800  0.221200  0.814900  1.0  0.0932
  H  H8  1  0.898800  0.088800  0.452800  1.0  0.108
  H  H9  1  0.051500  0.318700  0.266500  1.0  0.1085
  H  H10  1  0.684200  0.278800  0.314900  1.0  0.0916
  H  H11  1  0.398800  0.588800  0.047200  1.0  0.1084
  H  H12  1  0.551500  0.818700  0.233500  1.0  0.1081
  H  H13  1  0.184200  0.778800  0.185100  1.0  0.0915
  H  H14  1  0.101200  0.911200  0.547200  1.0  0.1081
  H  H15  1  0.948500  0.681300  0.733500  1.0  0.1088
  H  H16  1  0.315800  0.721200  0.685100  1.0  0.0936
  C  C17  1  0.840100  0.384200  0.943800  1.0  0.8438
  C  C18  1  0.378300  0.335800  0.878200  1.0  0.6903
  C  C19  1  0.643700  0.096000  0.709100  1.0  0.6671
  C  C20  1  0.726800  0.324400  0.891900  1.0  -0.2167
  C  C21  1  0.609100  0.354700  0.909500  1.0  0.0411
  C  C22  1  0.503900  0.300600  0.862600  1.0  -0.1659
  C  C23  1  0.518400  0.217800  0.798100  1.0  0.0371
  C  C24  1  0.634200  0.187300  0.779000  1.0  -0.1712
  C  C25  1  0.737800  0.241200  0.826800  1.0  0.0373
  C  C26  1  0.659900  0.115800  0.443800  1.0  0.8414
  C  C27  1  0.121700  0.164200  0.378200  1.0  0.6895
  C  C28  1  0.856300  0.404000  0.209100  1.0  0.6665
  C  C29  1  0.773200  0.175600  0.391900  1.0  -0.2174
  C  C30  1  0.890900  0.145300  0.409500  1.0  0.0418
  C  C31  1  0.996100  0.199400  0.362600  1.0  -0.1656
  C  C32  1  0.981600  0.282200  0.298100  1.0  0.038
  C  C33  1  0.865800  0.312700  0.279000  1.0  -0.1712
  C  C34  1  0.762200  0.258800  0.326800  1.0  0.0358
  C  C35  1  0.159900  0.615800  0.056200  1.0  0.8407
  C  C36  1  0.621700  0.664200  0.121800  1.0  0.6892
  C  C37  1  0.356300  0.904000  0.290900  1.0  0.6661
  C  C38  1  0.273200  0.675600  0.108100  1.0  -0.2178
  C  C39  1  0.390900  0.645300  0.090500  1.0  0.0419
  C  C40  1  0.496100  0.699400  0.137400  1.0  -0.1655
  C  C41  1  0.481600  0.782200  0.201900  1.0  0.038
  C  C42  1  0.365800  0.812700  0.221000  1.0  -0.1716
  C  C43  1  0.262200  0.758800  0.173200  1.0  0.0361
  C  C44  1  0.340100  0.884200  0.556200  1.0  0.8423
  C  C45  1  0.878300  0.835800  0.621800  1.0  0.6901
  C  C46  1  0.143700  0.596000  0.790900  1.0  0.6674
  C  C47  1  0.226800  0.824400  0.608100  1.0  -0.2166
  C  C48  1  0.109100  0.854700  0.590500  1.0  0.0415
  C  C49  1  0.003900  0.800600  0.637400  1.0  -0.1662
  C  C50  1  0.018400  0.717800  0.701900  1.0  0.0377
  C  C51  1  0.134200  0.687300  0.721000  1.0  -0.171
  C  C52  1  0.237800  0.741200  0.673200  1.0  0.0376
  O  O53  1  0.937400  0.337900  0.937080  1.0  -0.7523
  O  O54  1  0.828800  0.474100  0.989960  1.0  -0.7178
  O  O55  1  0.364200  0.409500  0.936270  1.0  -0.6308
  O  O56  1  0.288500  0.287700  0.830120  1.0  -0.717
  O  O57  1  0.549400  0.059700  0.662800  1.0  -0.6462
  O  O58  1  0.743300  0.054500  0.699120  1.0  -0.6421
  O  O59  1  0.562600  0.162100  0.437080  1.0  -0.7569
  O  O60  1  0.671200  0.025900  0.489960  1.0  -0.7171
  O  O61  1  0.135800  0.090500  0.436270  1.0  -0.6295
  O  O62  1  0.211500  0.212300  0.330120  1.0  -0.7155
  O  O63  1  0.950600  0.440300  0.162800  1.0  -0.6466
  O  O64  1  0.756700  0.445500  0.199120  1.0  -0.6416
  O  O65  1  0.062600  0.662100  0.062920  1.0  -0.7568
  O  O66  1  0.171200  0.525900  0.010040  1.0  -0.7179
  O  O67  1  0.635800  0.590500  0.063730  1.0  -0.631
  O  O68  1  0.711500  0.712300  0.169880  1.0  -0.7112
  O  O69  1  0.450600  0.940300  0.337200  1.0  -0.6475
  O  O70  1  0.256700  0.945500  0.300880  1.0  -0.6451
  O  O71  1  0.437400  0.837900  0.562920  1.0  -0.7519
  O  O72  1  0.328800  0.974100  0.510040  1.0  -0.7179
  O  O73  1  0.864200  0.909500  0.563730  1.0  -0.6321
  O  O74  1  0.788500  0.787700  0.669880  1.0  -0.7095
  O  O75  1  0.049400  0.559700  0.837200  1.0  -0.647
  O  O76  1  0.243300  0.554500  0.800880  1.0  -0.6461
