# generated using pymatgen
data_V5B2(PO5)4
_symmetry_space_group_name_H-M   'P 1'
_cell_length_a   14.20600000
_cell_length_b   33.30800000
_cell_length_c   11.58700000
_cell_angle_alpha   90.00000000
_cell_angle_beta   90.00000000
_cell_angle_gamma   90.00000000
_symmetry_Int_Tables_number   1
_chemical_formula_structural   V5B2(PO5)4
_chemical_formula_sum   'V40 B16 P32 O160'
_cell_volume   5482.66074198
_cell_formula_units_Z   8
loop_
 _symmetry_equiv_pos_site_id
 _symmetry_equiv_pos_as_xyz
  1  'x, y, z'
loop_
 _atom_site_type_symbol
 _atom_site_label
 _atom_site_symmetry_multiplicity
 _atom_site_fract_x
 _atom_site_fract_y
 _atom_site_fract_z
 _atom_site_occupancy
 _atom_site_charge
  V  V1  1  0.799700  0.139900  0.836000  1.0  1.2198
  V  V2  1  0.957600  0.108600  0.683700  1.0  1.2229
  V  V3  1  0.799700  0.639900  0.336000  1.0  1.2199
  V  V4  1  0.957600  0.608600  0.183700  1.0  1.2228
  V  V5  1  0.299700  0.139900  0.336000  1.0  1.2198
  V  V6  1  0.457600  0.108600  0.183700  1.0  1.2229
  V  V7  1  0.299700  0.639900  0.836000  1.0  1.2199
  V  V8  1  0.457600  0.608600  0.683700  1.0  1.2228
  V  V9  1  0.200300  0.860100  0.836000  1.0  1.2212
  V  V10  1  0.042400  0.891400  0.683700  1.0  1.2189
  V  V11  1  0.200300  0.360100  0.336000  1.0  1.2212
  V  V12  1  0.042400  0.391400  0.183700  1.0  1.2189
  V  V13  1  0.700300  0.860100  0.336000  1.0  1.2212
  V  V14  1  0.542400  0.891400  0.183700  1.0  1.2189
  V  V15  1  0.700300  0.360100  0.836000  1.0  1.2212
  V  V16  1  0.542400  0.391400  0.683700  1.0  1.2189
  V  V17  1  0.049700  0.110100  0.086000  1.0  1.2223
  V  V18  1  0.207600  0.141400  0.933700  1.0  1.2189
  V  V19  1  0.049700  0.610100  0.586000  1.0  1.2223
  V  V20  1  0.207600  0.641400  0.433700  1.0  1.2189
  V  V21  1  0.549700  0.110100  0.586000  1.0  1.2223
  V  V22  1  0.707600  0.141400  0.433700  1.0  1.2189
  V  V23  1  0.549700  0.610100  0.086000  1.0  1.2223
  V  V24  1  0.707600  0.641400  0.933700  1.0  1.2189
  V  V25  1  0.450300  0.389900  0.086000  1.0  1.2188
  V  V26  1  0.292400  0.358600  0.933700  1.0  1.2235
  V  V27  1  0.450300  0.889900  0.586000  1.0  1.2188
  V  V28  1  0.292400  0.858600  0.433700  1.0  1.2235
  V  V29  1  0.950300  0.389900  0.586000  1.0  1.2188
  V  V30  1  0.792400  0.358600  0.433700  1.0  1.2235
  V  V31  1  0.950300  0.889900  0.086000  1.0  1.2188
  V  V32  1  0.792400  0.858600  0.933700  1.0  1.2235
  V  V33  1  0.500000  0.000000  0.902000  1.0  1.2992
  V  V34  1  0.500000  0.500000  0.402000  1.0  1.2992
  V  V35  1  0.000000  0.000000  0.402000  1.0  1.2992
  V  V36  1  0.000000  0.500000  0.902000  1.0  1.2992
  V  V37  1  0.750000  0.250000  0.152000  1.0  1.2952
  V  V38  1  0.750000  0.750000  0.652000  1.0  1.2952
  V  V39  1  0.250000  0.250000  0.652000  1.0  1.2952
  V  V40  1  0.250000  0.750000  0.152000  1.0  1.2952
  B  B41  1  0.003600  0.166600  0.878300  1.0  0.9027
  B  B42  1  0.003600  0.666667  0.378300  1.0  0.9035
  B  B43  1  0.503600  0.166600  0.378300  1.0  0.9027
  B  B44  1  0.503600  0.666667  0.878300  1.0  0.9035
  B  B45  1  0.996400  0.833400  0.878300  1.0  0.9038
  B  B46  1  0.996400  0.333400  0.378300  1.0  0.9038
  B  B47  1  0.496400  0.833400  0.378300  1.0  0.9038
  B  B48  1  0.496400  0.333400  0.878300  1.0  0.9038
  B  B49  1  0.253600  0.083400  0.128300  1.0  0.9024
  B  B50  1  0.253600  0.583400  0.628300  1.0  0.9024
  B  B51  1  0.753600  0.083400  0.628300  1.0  0.9024
  B  B52  1  0.753600  0.583400  0.128300  1.0  0.9024
  B  B53  1  0.246400  0.416600  0.128300  1.0  0.9041
  B  B54  1  0.246400  0.916600  0.628300  1.0  0.9041
  B  B55  1  0.746400  0.416600  0.628300  1.0  0.9041
  B  B56  1  0.746400  0.916600  0.128300  1.0  0.9041
  P  P57  1  0.644100  0.073400  0.809500  1.0  1.8104
  P  P58  1  0.121300  0.173400  0.704300  1.0  1.6448
  P  P59  1  0.644100  0.573400  0.309500  1.0  1.8104
  P  P60  1  0.121300  0.673400  0.204300  1.0  1.6453
  P  P61  1  0.144100  0.073400  0.309500  1.0  1.8104
  P  P62  1  0.621300  0.173400  0.204300  1.0  1.6448
  P  P63  1  0.144100  0.573400  0.809500  1.0  1.8104
  P  P64  1  0.621300  0.673400  0.704300  1.0  1.6453
  P  P65  1  0.355900  0.926600  0.809500  1.0  1.8111
  P  P66  1  0.878700  0.826600  0.704300  1.0  1.6443
  P  P67  1  0.355900  0.426600  0.309500  1.0  1.8111
  P  P68  1  0.878700  0.326600  0.204300  1.0  1.6443
  P  P69  1  0.855900  0.926600  0.309500  1.0  1.8111
  P  P70  1  0.378700  0.826600  0.204300  1.0  1.6443
  P  P71  1  0.855900  0.426600  0.809500  1.0  1.8111
  P  P72  1  0.378700  0.326600  0.704300  1.0  1.6443
  P  P73  1  0.894100  0.176600  0.059500  1.0  1.8109
  P  P74  1  0.371300  0.076600  0.954300  1.0  1.6447
  P  P75  1  0.894100  0.676600  0.559500  1.0  1.8106
  P  P76  1  0.371300  0.576600  0.454300  1.0  1.6447
  P  P77  1  0.394100  0.176600  0.559500  1.0  1.8109
  P  P78  1  0.871300  0.076600  0.454300  1.0  1.6447
  P  P79  1  0.394100  0.676600  0.059500  1.0  1.8106
  P  P80  1  0.871300  0.576600  0.954300  1.0  1.6447
  P  P81  1  0.605900  0.323400  0.059500  1.0  1.8108
  P  P82  1  0.128700  0.423400  0.954300  1.0  1.6445
  P  P83  1  0.605900  0.823400  0.559500  1.0  1.8108
  P  P84  1  0.128700  0.923400  0.454300  1.0  1.6445
  P  P85  1  0.105900  0.323400  0.559500  1.0  1.8108
  P  P86  1  0.628700  0.423400  0.454300  1.0  1.6445
  P  P87  1  0.105900  0.823400  0.059500  1.0  1.8108
  P  P88  1  0.628700  0.923400  0.954300  1.0  1.6445
  O  O89  1  0.935300  0.143900  0.815900  1.0  -0.716
  O  O90  1  0.706600  0.099800  0.885000  1.0  -0.8089
  O  O91  1  0.706100  0.055300  0.710300  1.0  -0.515
  O  O92  1  0.605100  0.039000  0.878600  1.0  -0.8743
  O  O93  1  0.818600  0.150300  0.003000  1.0  -0.7935
  O  O94  1  0.060700  0.143800  0.634800  1.0  -0.8308
  O  O95  1  0.057500  0.193200  0.799400  1.0  -0.5052
  O  O96  1  0.157000  0.205400  0.624600  1.0  -0.7801
  O  O97  1  0.949900  0.099700  0.516500  1.0  -0.7928
  O  O98  1  0.819900  0.108700  0.693400  1.0  -0.8338
  O  O99  1  0.935300  0.643900  0.315900  1.0  -0.7166
  O  O100  1  0.706600  0.599800  0.385000  1.0  -0.8089
  O  O101  1  0.706100  0.555300  0.210300  1.0  -0.515
  O  O102  1  0.605100  0.539000  0.378600  1.0  -0.8743
  O  O103  1  0.818600  0.650300  0.503000  1.0  -0.7939
  O  O104  1  0.060700  0.643800  0.134800  1.0  -0.8308
  O  O105  1  0.057500  0.693200  0.299400  1.0  -0.5064
  O  O106  1  0.157000  0.705400  0.124600  1.0  -0.7801
  O  O107  1  0.949900  0.599700  0.016500  1.0  -0.7928
  O  O108  1  0.819900  0.608700  0.193400  1.0  -0.8338
  O  O109  1  0.435300  0.143900  0.315900  1.0  -0.716
  O  O110  1  0.206600  0.099800  0.385000  1.0  -0.8089
  O  O111  1  0.206100  0.055300  0.210300  1.0  -0.515
  O  O112  1  0.105100  0.039000  0.378600  1.0  -0.8743
  O  O113  1  0.318600  0.150300  0.503000  1.0  -0.7935
  O  O114  1  0.560700  0.143800  0.134800  1.0  -0.8308
  O  O115  1  0.557500  0.193200  0.299400  1.0  -0.5052
  O  O116  1  0.657000  0.205400  0.124600  1.0  -0.7801
  O  O117  1  0.449900  0.099700  0.016500  1.0  -0.7928
  O  O118  1  0.319900  0.108700  0.193400  1.0  -0.8338
  O  O119  1  0.435300  0.643900  0.815900  1.0  -0.7166
  O  O120  1  0.206600  0.599800  0.885000  1.0  -0.8089
  O  O121  1  0.206100  0.555300  0.710300  1.0  -0.515
  O  O122  1  0.105100  0.539000  0.878600  1.0  -0.8743
  O  O123  1  0.318600  0.650300  0.003000  1.0  -0.7939
  O  O124  1  0.560700  0.643800  0.634800  1.0  -0.8308
  O  O125  1  0.557500  0.693200  0.799400  1.0  -0.5064
  O  O126  1  0.657000  0.705400  0.624600  1.0  -0.7801
  O  O127  1  0.449900  0.599700  0.516500  1.0  -0.7928
  O  O128  1  0.319900  0.608700  0.693400  1.0  -0.8338
  O  O129  1  0.064700  0.856100  0.815900  1.0  -0.7148
  O  O130  1  0.293400  0.900200  0.885000  1.0  -0.8091
  O  O131  1  0.293900  0.944700  0.710300  1.0  -0.5131
  O  O132  1  0.394900  0.961000  0.878600  1.0  -0.8754
  O  O133  1  0.181400  0.849700  0.003000  1.0  -0.7936
  O  O134  1  0.939300  0.856200  0.634800  1.0  -0.8295
  O  O135  1  0.942500  0.806800  0.799400  1.0  -0.506
  O  O136  1  0.843000  0.794600  0.624600  1.0  -0.7804
  O  O137  1  0.050100  0.900300  0.516500  1.0  -0.7933
  O  O138  1  0.180100  0.891300  0.693400  1.0  -0.8326
  O  O139  1  0.064700  0.356100  0.315900  1.0  -0.7148
  O  O140  1  0.293400  0.400200  0.385000  1.0  -0.8091
  O  O141  1  0.293900  0.444700  0.210300  1.0  -0.5131
  O  O142  1  0.394900  0.461000  0.378600  1.0  -0.8754
  O  O143  1  0.181400  0.349700  0.503000  1.0  -0.7936
  O  O144  1  0.939300  0.356200  0.134800  1.0  -0.8295
  O  O145  1  0.942500  0.306800  0.299400  1.0  -0.506
  O  O146  1  0.843000  0.294600  0.124600  1.0  -0.7804
  O  O147  1  0.050100  0.400300  0.016500  1.0  -0.7933
  O  O148  1  0.180100  0.391300  0.193400  1.0  -0.8326
  O  O149  1  0.564700  0.856100  0.315900  1.0  -0.7148
  O  O150  1  0.793400  0.900200  0.385000  1.0  -0.8091
  O  O151  1  0.793900  0.944700  0.210300  1.0  -0.5131
  O  O152  1  0.894900  0.961000  0.378600  1.0  -0.8754
  O  O153  1  0.681400  0.849700  0.503000  1.0  -0.7936
  O  O154  1  0.439300  0.856200  0.134800  1.0  -0.8295
  O  O155  1  0.442500  0.806800  0.299400  1.0  -0.506
  O  O156  1  0.343000  0.794600  0.124600  1.0  -0.7804
  O  O157  1  0.550100  0.900300  0.016500  1.0  -0.7933
  O  O158  1  0.680100  0.891300  0.193400  1.0  -0.8326
  O  O159  1  0.564700  0.356100  0.815900  1.0  -0.7148
  O  O160  1  0.793400  0.400200  0.885000  1.0  -0.8091
  O  O161  1  0.793900  0.444700  0.710300  1.0  -0.5131
  O  O162  1  0.894900  0.461000  0.878600  1.0  -0.8754
  O  O163  1  0.681400  0.349700  0.003000  1.0  -0.7936
  O  O164  1  0.439300  0.356200  0.634800  1.0  -0.8295
  O  O165  1  0.442500  0.306800  0.799400  1.0  -0.506
  O  O166  1  0.343000  0.294600  0.624600  1.0  -0.7804
  O  O167  1  0.550100  0.400300  0.516500  1.0  -0.7933
  O  O168  1  0.680100  0.391300  0.693400  1.0  -0.8326
  O  O169  1  0.185300  0.106100  0.065900  1.0  -0.7158
  O  O170  1  0.956600  0.150200  0.135000  1.0  -0.8089
  O  O171  1  0.956100  0.194700  0.960300  1.0  -0.5135
  O  O172  1  0.855100  0.211000  0.128600  1.0  -0.8751
  O  O173  1  0.068600  0.099700  0.253000  1.0  -0.7924
  O  O174  1  0.310700  0.106200  0.884800  1.0  -0.8294
  O  O175  1  0.307500  0.056800  0.049400  1.0  -0.5061
  O  O176  1  0.407000  0.044600  0.874600  1.0  -0.7809
  O  O177  1  0.199900  0.150300  0.766500  1.0  -0.7932
  O  O178  1  0.069900  0.141300  0.943400  1.0  -0.8336
  O  O179  1  0.185300  0.606100  0.565900  1.0  -0.7158
  O  O180  1  0.956600  0.650200  0.635000  1.0  -0.8089
  O  O181  1  0.956100  0.694700  0.460300  1.0  -0.5132
  O  O182  1  0.855100  0.711000  0.628600  1.0  -0.8751
  O  O183  1  0.068600  0.599700  0.753000  1.0  -0.7924
  O  O184  1  0.310700  0.606200  0.384800  1.0  -0.8294
  O  O185  1  0.307500  0.556800  0.549400  1.0  -0.5061
  O  O186  1  0.407000  0.544600  0.374600  1.0  -0.7809
  O  O187  1  0.199900  0.650300  0.266500  1.0  -0.7932
  O  O188  1  0.069900  0.641300  0.443400  1.0  -0.8317
  O  O189  1  0.685300  0.106100  0.565900  1.0  -0.7158
  O  O190  1  0.456600  0.150200  0.635000  1.0  -0.8089
  O  O191  1  0.456100  0.194700  0.460300  1.0  -0.5135
  O  O192  1  0.355100  0.211000  0.628600  1.0  -0.8751
  O  O193  1  0.568600  0.099700  0.753000  1.0  -0.7924
  O  O194  1  0.810700  0.106200  0.384800  1.0  -0.8294
  O  O195  1  0.807500  0.056800  0.549400  1.0  -0.5061
  O  O196  1  0.907000  0.044600  0.374600  1.0  -0.7809
  O  O197  1  0.699900  0.150300  0.266500  1.0  -0.7932
  O  O198  1  0.569900  0.141300  0.443400  1.0  -0.8336
  O  O199  1  0.685300  0.606100  0.065900  1.0  -0.7158
  O  O200  1  0.456600  0.650200  0.135000  1.0  -0.8089
  O  O201  1  0.456100  0.694700  0.960300  1.0  -0.5132
  O  O202  1  0.355100  0.711000  0.128600  1.0  -0.8751
  O  O203  1  0.568600  0.599700  0.253000  1.0  -0.7924
  O  O204  1  0.810700  0.606200  0.884800  1.0  -0.8294
  O  O205  1  0.807500  0.556800  0.049400  1.0  -0.5061
  O  O206  1  0.907000  0.544600  0.874600  1.0  -0.7809
  O  O207  1  0.699900  0.650300  0.766500  1.0  -0.7932
  O  O208  1  0.569900  0.641300  0.943400  1.0  -0.8317
  O  O209  1  0.314700  0.393900  0.065900  1.0  -0.7152
  O  O210  1  0.543400  0.349800  0.135000  1.0  -0.8089
  O  O211  1  0.543900  0.305300  0.960300  1.0  -0.515
  O  O212  1  0.644900  0.289000  0.128600  1.0  -0.8746
  O  O213  1  0.431400  0.400300  0.253000  1.0  -0.7948
  O  O214  1  0.189300  0.393800  0.884800  1.0  -0.8297
  O  O215  1  0.192500  0.443200  0.049400  1.0  -0.5052
  O  O216  1  0.093000  0.455400  0.874600  1.0  -0.7796
  O  O217  1  0.300100  0.349700  0.766500  1.0  -0.7927
  O  O218  1  0.430100  0.358700  0.943400  1.0  -0.8328
  O  O219  1  0.314700  0.893900  0.565900  1.0  -0.7152
  O  O220  1  0.543400  0.849800  0.635000  1.0  -0.8089
  O  O221  1  0.543900  0.805300  0.460300  1.0  -0.515
  O  O222  1  0.644900  0.789000  0.628600  1.0  -0.8746
  O  O223  1  0.431400  0.900300  0.753000  1.0  -0.7948
  O  O224  1  0.189300  0.893800  0.384800  1.0  -0.8297
  O  O225  1  0.192500  0.943200  0.549400  1.0  -0.5052
  O  O226  1  0.093000  0.955400  0.374600  1.0  -0.7796
  O  O227  1  0.300100  0.849700  0.266500  1.0  -0.7927
  O  O228  1  0.430100  0.858700  0.443400  1.0  -0.8328
  O  O229  1  0.814700  0.393900  0.565900  1.0  -0.7152
  O  O230  1  0.043400  0.349800  0.635000  1.0  -0.8089
  O  O231  1  0.043900  0.305300  0.460300  1.0  -0.515
  O  O232  1  0.144900  0.289000  0.628600  1.0  -0.8746
  O  O233  1  0.931400  0.400300  0.753000  1.0  -0.7948
  O  O234  1  0.689300  0.393800  0.384800  1.0  -0.8297
  O  O235  1  0.692500  0.443200  0.549400  1.0  -0.5052
  O  O236  1  0.593000  0.455400  0.374600  1.0  -0.7796
  O  O237  1  0.800100  0.349700  0.266500  1.0  -0.7927
  O  O238  1  0.930100  0.358700  0.443400  1.0  -0.8328
  O  O239  1  0.814700  0.893900  0.065900  1.0  -0.7152
  O  O240  1  0.043400  0.849800  0.135000  1.0  -0.8089
  O  O241  1  0.043900  0.805300  0.960300  1.0  -0.515
  O  O242  1  0.144900  0.789000  0.128600  1.0  -0.8746
  O  O243  1  0.931400  0.900300  0.253000  1.0  -0.7948
  O  O244  1  0.689300  0.893800  0.884800  1.0  -0.8297
  O  O245  1  0.692500  0.943200  0.049400  1.0  -0.5052
  O  O246  1  0.593000  0.955400  0.874600  1.0  -0.7796
  O  O247  1  0.800100  0.849700  0.766500  1.0  -0.7927
  O  O248  1  0.930100  0.858700  0.943400  1.0  -0.8328
