# generated using pymatgen
data_EuH3(C3O2)3
_symmetry_space_group_name_H-M   'P 1'
_cell_length_a   10.36270000
_cell_length_b   10.36270000
_cell_length_c   14.33200000
_cell_angle_alpha   90.00000000
_cell_angle_beta   90.00000000
_cell_angle_gamma   90.00000000
_symmetry_Int_Tables_number   1
_chemical_formula_structural   EuH3(C3O2)3
_chemical_formula_sum   'Eu4 H12 C36 O24'
_cell_volume   1539.04972109
_cell_formula_units_Z   4
loop_
 _symmetry_equiv_pos_site_id
 _symmetry_equiv_pos_as_xyz
  1  'x, y, z'
loop_
 _atom_site_type_symbol
 _atom_site_label
 _atom_site_symmetry_multiplicity
 _atom_site_fract_x
 _atom_site_fract_y
 _atom_site_fract_z
 _atom_site_occupancy
 _atom_site_charge
  Eu  Eu1  1  0.141790  0.858210  0.625000  1.0  2.2176
  Eu  Eu2  1  0.858210  0.141790  0.125000  1.0  2.2179
  Eu  Eu3  1  0.141790  0.141790  0.875000  1.0  2.2173
  Eu  Eu4  1  0.858210  0.858210  0.375000  1.0  2.2179
  H  H5  1  0.445300  0.940300  0.382200  1.0  0.1079
  H  H6  1  0.554700  0.059700  0.882200  1.0  0.1077
  H  H7  1  0.059700  0.445300  0.632200  1.0  0.1078
  H  H8  1  0.940300  0.554700  0.132200  1.0  0.1078
  H  H9  1  0.554700  0.940300  0.617800  1.0  0.1075
  H  H10  1  0.445300  0.059700  0.117800  1.0  0.1077
  H  H11  1  0.940300  0.445300  0.367800  1.0  0.1074
  H  H12  1  0.059700  0.554700  0.867800  1.0  0.1076
  H  H13  1  0.111800  0.000000  0.250000  1.0  0.066
  H  H14  1  0.888200  0.000000  0.750000  1.0  0.0665
  H  H15  1  0.000000  0.111800  0.500000  1.0  0.0657
  H  H16  1  0.000000  0.888200  0.000000  1.0  0.0659
  C  C17  1  0.193100  0.921600  0.414700  1.0  0.7871
  C  C18  1  0.266100  0.959100  0.328200  1.0  -0.1879
  C  C19  1  0.400700  0.963000  0.328400  1.0  0.0359
  C  C20  1  0.806900  0.078400  0.914700  1.0  0.7844
  C  C21  1  0.733900  0.040900  0.828200  1.0  -0.1875
  C  C22  1  0.599300  0.037000  0.828400  1.0  0.0343
  C  C23  1  0.078400  0.193100  0.664700  1.0  0.786
  C  C24  1  0.040900  0.266100  0.578200  1.0  -0.1884
  C  C25  1  0.037000  0.400700  0.578400  1.0  0.0359
  C  C26  1  0.921600  0.806900  0.164700  1.0  0.7851
  C  C27  1  0.959100  0.733900  0.078200  1.0  -0.1869
  C  C28  1  0.963000  0.599300  0.078400  1.0  0.0354
  C  C29  1  0.806900  0.921600  0.585300  1.0  0.7843
  C  C30  1  0.733900  0.959100  0.671800  1.0  -0.188
  C  C31  1  0.599300  0.963000  0.671600  1.0  0.0351
  C  C32  1  0.193100  0.078400  0.085300  1.0  0.7855
  C  C33  1  0.266100  0.040900  0.171800  1.0  -0.1868
  C  C34  1  0.400700  0.037000  0.171600  1.0  0.0351
  C  C35  1  0.921600  0.193100  0.335300  1.0  0.7849
  C  C36  1  0.959100  0.266100  0.421800  1.0  -0.1871
  C  C37  1  0.963000  0.400700  0.421600  1.0  0.036
  C  C38  1  0.078400  0.806900  0.835300  1.0  0.7856
  C  C39  1  0.040900  0.733900  0.921800  1.0  -0.1871
  C  C40  1  0.037000  0.599300  0.921600  1.0  0.0356
  C  C41  1  0.468700  0.000000  0.250000  1.0  -0.1917
  C  C42  1  0.615100  0.000000  0.250000  1.0  0.8157
  C  C43  1  0.201500  0.000000  0.250000  1.0  0.0576
  C  C44  1  0.531300  0.000000  0.750000  1.0  -0.1922
  C  C45  1  0.384900  0.000000  0.750000  1.0  0.8172
  C  C46  1  0.798500  0.000000  0.750000  1.0  0.0593
  C  C47  1  0.000000  0.468700  0.500000  1.0  -0.1917
  C  C48  1  0.000000  0.615100  0.500000  1.0  0.8132
  C  C49  1  0.000000  0.201500  0.500000  1.0  0.0582
  C  C50  1  0.000000  0.531300  0.000000  1.0  -0.1923
  C  C51  1  0.000000  0.384900  0.000000  1.0  0.8127
  C  C52  1  0.000000  0.798500  0.000000  1.0  0.0573
  O  O53  1  0.253400  0.917800  0.489300  1.0  -0.6818
  O  O54  1  0.078000  0.900600  0.408600  1.0  -0.7939
  O  O55  1  0.668400  0.934500  0.308900  1.0  -0.7498
  O  O56  1  0.746600  0.082200  0.989300  1.0  -0.6817
  O  O57  1  0.922000  0.099400  0.908600  1.0  -0.7946
  O  O58  1  0.331600  0.065500  0.808900  1.0  -0.7502
  O  O59  1  0.082200  0.253400  0.739300  1.0  -0.6831
  O  O60  1  0.099400  0.078000  0.658600  1.0  -0.7903
  O  O61  1  0.065500  0.668400  0.558900  1.0  -0.7475
  O  O62  1  0.917800  0.746600  0.239300  1.0  -0.6848
  O  O63  1  0.900600  0.922000  0.158600  1.0  -0.7934
  O  O64  1  0.934500  0.331600  0.058900  1.0  -0.7481
  O  O65  1  0.746600  0.917800  0.510700  1.0  -0.6797
  O  O66  1  0.922000  0.900600  0.591400  1.0  -0.7942
  O  O67  1  0.331600  0.934500  0.691100  1.0  -0.749
  O  O68  1  0.253400  0.082200  0.010700  1.0  -0.6791
  O  O69  1  0.078000  0.099400  0.091400  1.0  -0.7937
  O  O70  1  0.668400  0.065500  0.191100  1.0  -0.7499
  O  O71  1  0.917800  0.253400  0.260700  1.0  -0.6833
  O  O72  1  0.900600  0.078000  0.341400  1.0  -0.7918
  O  O73  1  0.934500  0.668400  0.441100  1.0  -0.7471
  O  O74  1  0.082200  0.746600  0.760700  1.0  -0.6809
  O  O75  1  0.099400  0.922000  0.841400  1.0  -0.7913
  O  O76  1  0.065500  0.331600  0.941100  1.0  -0.747
