# generated using pymatgen
data_Co2H22C36N4O9
_symmetry_space_group_name_H-M   'P 1'
_cell_length_a   8.32000000
_cell_length_b   11.37500000
_cell_length_c   12.93470000
_cell_angle_alpha   104.39500000
_cell_angle_beta   108.76100000
_cell_angle_gamma   90.00000000
_symmetry_Int_Tables_number   1
_chemical_formula_structural   Co2H22C36N4O9
_chemical_formula_sum   'Co2 H22 C36 N4 O9'
_cell_volume   1118.43472706
_cell_formula_units_Z   1
loop_
 _symmetry_equiv_pos_site_id
 _symmetry_equiv_pos_as_xyz
  1  'x, y, z'
loop_
 _atom_site_type_symbol
 _atom_site_label
 _atom_site_symmetry_multiplicity
 _atom_site_fract_x
 _atom_site_fract_y
 _atom_site_fract_z
 _atom_site_occupancy
 _atom_site_charge
  Co  Co1  1  0.322910  0.063440  0.629600  1.0  0.9264
  Co  Co2  1  0.693310  0.936560  0.370400  1.0  0.9249
  H  H3  1  0.139800  0.186300  0.040400  1.0  0.1242
  H  H4  1  0.097700  0.281900  0.211600  1.0  0.1057
  H  H5  1  0.191800  0.205100  0.363600  1.0  0.0949
  H  H6  1  0.146600  0.802200  0.471600  1.0  0.0891
  H  H7  1  0.145800  0.606800  0.477800  1.0  0.101
  H  H8  1  0.487200  0.698900  0.786200  1.0  0.1185
  H  H9  1  0.493300  0.901200  0.777600  1.0  0.1133
  H  H10  1  0.066200  0.474600  0.574800  1.0  0.1096
  H  H11  1  0.044100  0.273900  0.582800  1.0  0.0931
  H  H12  1  0.554100  0.274200  0.681000  1.0  0.1094
  H  H13  1  0.576000  0.474900  0.673200  1.0  0.1111
  H  H14  1  0.099400  0.813700  0.959600  1.0  0.126
  H  H15  1  0.886100  0.718100  0.788400  1.0  0.1047
  H  H16  1  0.828200  0.794900  0.636400  1.0  0.0944
  H  H17  1  0.675000  0.197800  0.528400  1.0  0.0894
  H  H18  1  0.668000  0.393200  0.522200  1.0  0.1007
  H  H19  1  0.701000  0.301100  0.213800  1.0  0.1214
  H  H20  1  0.715700  0.098800  0.222400  1.0  0.1133
  H  H21  1  0.491400  0.525400  0.425200  1.0  0.1094
  H  H22  1  0.461300  0.726100  0.417200  1.0  0.0921
  H  H23  1  0.873100  0.725800  0.319000  1.0  0.1101
  H  H24  1  0.902800  0.525100  0.326800  1.0  0.1125
  C  C25  1  0.340500  0.005700  0.390200  1.0  0.7179
  C  C26  1  0.280000  0.052300  0.287600  1.0  -0.12
  C  C27  1  0.316000  0.001300  0.192400  1.0  -0.1316
  C  C28  1  0.254800  0.049200  0.096400  1.0  0.2118
  C  C29  1  0.176400  0.153300  0.102200  1.0  -0.1909
  C  C30  1  0.151900  0.210300  0.205600  1.0  -0.0867
  C  C31  1  0.204900  0.163600  0.295600  1.0  -0.0953
  C  C32  1  0.218300  0.782500  0.535600  1.0  0.1781
  C  C33  1  0.217600  0.665500  0.539200  1.0  -0.1905
  C  C34  1  0.320600  0.629300  0.631800  1.0  0.0776
  C  C35  1  0.419900  0.718900  0.721200  1.0  -0.1619
  C  C36  1  0.422100  0.841500  0.716600  1.0  0.1525
  C  C37  1  0.323300  0.494700  0.623200  1.0  0.088
  C  C38  1  0.164000  0.434500  0.596200  1.0  -0.1667
  C  C39  1  0.150700  0.314200  0.600800  1.0  0.1944
  C  C40  1  0.456300  0.314400  0.659800  1.0  0.1521
  C  C41  1  0.469300  0.434600  0.655000  1.0  -0.1744
  C  C42  1  0.394200  0.882700  0.171000  1.0  0.6861
  C  C43  1  0.950300  0.994300  0.609800  1.0  0.7165
  C  C44  1  0.992400  0.947700  0.712400  1.0  -0.1209
  C  C45  1  0.123600  0.998700  0.807600  1.0  -0.1335
  C  C46  1  0.158400  0.950800  0.903600  1.0  0.2136
  C  C47  1  0.074200  0.846700  0.897800  1.0  -0.1936
  C  C48  1  0.946300  0.789700  0.794400  1.0  -0.089
  C  C49  1  0.909300  0.836400  0.704400  1.0  -0.0949
  C  C50  1  0.682700  0.217500  0.464400  1.0  0.1786
  C  C51  1  0.678400  0.334500  0.460800  1.0  -0.1911
  C  C52  1  0.688800  0.370700  0.368200  1.0  0.0785
  C  C53  1  0.698700  0.281100  0.278800  1.0  -0.1643
  C  C54  1  0.705500  0.158500  0.283400  1.0  0.1459
  C  C55  1  0.700100  0.505300  0.376800  1.0  0.0876
  C  C56  1  0.567800  0.565500  0.403800  1.0  -0.1655
  C  C57  1  0.549900  0.685800  0.399200  1.0  0.1959
  C  C58  1  0.796500  0.685600  0.340200  1.0  0.1507
  C  C59  1  0.814300  0.565400  0.345000  1.0  -0.1737
  C  C60  1  0.223200  0.117300  0.829000  1.0  0.6826
  N  N61  1  0.296700  0.254200  0.632600  1.0  -0.3265
  N  N62  1  0.318700  0.871700  0.621000  1.0  -0.3672
  N  N63  1  0.664100  0.745800  0.367400  1.0  -0.3253
  N  N64  1  0.697700  0.128300  0.379000  1.0  -0.3669
  O  O65  1  0.267280  0.034800  0.456760  1.0  -0.602
  O  O66  1  0.464590  0.949500  0.404380  1.0  -0.5991
  O  O67  1  0.294530  0.790000  0.136460  1.0  -0.5685
  O  O68  1  0.556930  0.888800  0.197460  1.0  -0.6313
  O  O69  1  0.810520  0.965200  0.543240  1.0  -0.6028
  O  O70  1  0.060210  0.050500  0.595620  1.0  -0.5977
  O  O71  1  0.158070  0.210000  0.863540  1.0  -0.5675
  O  O72  1  0.359470  0.111200  0.802540  1.0  -0.6322
  O  O73  1  0.298200  0.000000  0.000000  1.0  -0.2719
