# generated using pymatgen
data_Ni2H22C36N4O9
_symmetry_space_group_name_H-M   'P 1'
_cell_length_a   8.24200000
_cell_length_b   11.25900000
_cell_length_c   12.89810000
_cell_angle_alpha   104.23900000
_cell_angle_beta   108.63300000
_cell_angle_gamma   90.00000000
_symmetry_Int_Tables_number   1
_chemical_formula_structural   Ni2H22C36N4O9
_chemical_formula_sum   'Ni2 H22 C36 N4 O9'
_cell_volume   1095.28957115
_cell_formula_units_Z   1
loop_
 _symmetry_equiv_pos_site_id
 _symmetry_equiv_pos_as_xyz
  1  'x, y, z'
loop_
 _atom_site_type_symbol
 _atom_site_label
 _atom_site_symmetry_multiplicity
 _atom_site_fract_x
 _atom_site_fract_y
 _atom_site_fract_z
 _atom_site_occupancy
 _atom_site_charge
  Ni  Ni1  1  0.491440  0.436740  0.371300  1.0  0.8368
  Ni  Ni2  1  0.120140  0.563260  0.628700  1.0  0.8403
  H  H3  1  0.998500  0.700700  0.356800  1.0  0.0886
  H  H4  1  0.926400  0.787900  0.205200  1.0  0.1066
  H  H5  1  0.707500  0.693300  0.039800  1.0  0.1161
  H  H6  1  0.320300  0.598000  0.223400  1.0  0.0888
  H  H7  1  0.314200  0.795600  0.216800  1.0  0.1135
  H  H8  1  0.661800  0.889500  0.528600  1.0  0.1247
  H  H9  1  0.648500  0.689400  0.529000  1.0  0.0781
  H  H10  1  0.736200  0.255300  0.464000  1.0  0.0698
  H  H11  1  0.739000  0.054200  0.469600  1.0  0.0889
  H  H12  1  0.253100  0.993000  0.261800  1.0  0.1273
  H  H13  1  0.264600  0.197000  0.258200  1.0  0.0822
  H  H14  1  0.641700  0.299300  0.643200  1.0  0.0887
  H  H15  1  0.721200  0.212100  0.794800  1.0  0.1059
  H  H16  1  0.667700  0.306700  0.960200  1.0  0.1156
  H  H17  1  0.096900  0.402000  0.776600  1.0  0.0899
  H  H18  1  0.097400  0.204400  0.783200  1.0  0.1136
  H  H19  1  0.133200  0.110500  0.471400  1.0  0.1261
  H  H20  1  0.119500  0.310600  0.471000  1.0  0.0787
  H  H21  1  0.272200  0.744700  0.536000  1.0  0.0699
  H  H22  1  0.269400  0.945800  0.530400  1.0  0.0887
  H  H23  1  0.991300  0.007000  0.738200  1.0  0.1294
  H  H24  1  0.006400  0.803000  0.741800  1.0  0.0841
  C  C25  1  0.643200  0.555300  0.096600  1.0  0.2093
  C  C26  1  0.683900  0.500300  0.188600  1.0  -0.071
  C  C27  1  0.816300  0.558800  0.287000  1.0  -0.1436
  C  C28  1  0.907600  0.664100  0.291400  1.0  -0.0404
  C  C29  1  0.865900  0.715800  0.200200  1.0  -0.1071
  C  C30  1  0.734300  0.660200  0.101800  1.0  -0.1671
  C  C31  1  0.585400  0.382700  0.177600  1.0  0.6847
  C  C32  1  0.860400  0.509600  0.391200  1.0  0.7071
  C  C33  1  0.389800  0.657500  0.285800  1.0  0.1719
  C  C34  1  0.387900  0.775600  0.280200  1.0  -0.1677
  C  C35  1  0.496400  0.868800  0.369600  1.0  0.1042
  C  C36  1  0.592000  0.831900  0.464800  1.0  -0.2161
  C  C37  1  0.583000  0.711200  0.464200  1.0  0.1696
  C  C38  1  0.637000  0.203000  0.423000  1.0  0.1762
  C  C39  1  0.639300  0.080700  0.426400  1.0  -0.1758
  C  C40  1  0.500600  0.999000  0.368400  1.0  0.0613
  C  C41  1  0.352900  0.044400  0.303400  1.0  -0.1739
  C  C42  1  0.360700  0.168300  0.303000  1.0  0.151
  C  C43  1  0.546600  0.444700  0.903400  1.0  0.2172
  C  C44  1  0.495300  0.499700  0.811400  1.0  -0.0698
  C  C45  1  0.529300  0.441200  0.713000  1.0  -0.1404
  C  C46  1  0.616200  0.335900  0.708600  1.0  -0.0416
  C  C47  1  0.665700  0.284200  0.799800  1.0  -0.1096
  C  C48  1  0.632500  0.339800  0.898200  1.0  -0.1608
  C  C49  1  0.407800  0.617300  0.822400  1.0  0.6842
  C  C50  1  0.469200  0.490400  0.608800  1.0  0.7074
  C  C51  1  0.104000  0.342500  0.714200  1.0  0.172
  C  C52  1  0.107700  0.224400  0.719800  1.0  -0.164
  C  C53  1  0.126800  0.131200  0.630400  1.0  0.1038
  C  C54  1  0.127200  0.168100  0.535200  1.0  -0.2155
  C  C55  1  0.118800  0.288800  0.535800  1.0  0.1699
  C  C56  1  0.214000  0.797000  0.577000  1.0  0.1742
  C  C57  1  0.212900  0.919300  0.573600  1.0  -0.1717
  C  C58  1  0.132200  0.001000  0.631600  1.0  0.0615
  C  C59  1  0.049500  0.955600  0.696600  1.0  -0.1717
  C  C60  1  0.057700  0.831700  0.697000  1.0  0.1493
  N  N61  1  0.486020  0.620700  0.376240  1.0  -0.3248
  N  N62  1  0.499310  0.248900  0.364020  1.0  -0.3053
  N  N63  1  0.109780  0.379300  0.623760  1.0  -0.3247
  N  N64  1  0.135290  0.751100  0.635980  1.0  -0.3061
  O  O65  1  0.444710  0.386100  0.197220  1.0  -0.6207
  O  O66  1  0.644050  0.284400  0.138900  1.0  -0.5432
  O  O67  1  0.753520  0.448000  0.408240  1.0  -0.5842
  O  O68  1  0.013370  0.537600  0.456940  1.0  -0.596
  O  O69  1  0.247490  0.613900  0.802780  1.0  -0.6233
  O  O70  1  0.505150  0.715600  0.861100  1.0  -0.5422
  O  O71  1  0.345280  0.552000  0.591760  1.0  -0.5823
  O  O72  1  0.556430  0.462400  0.543060  1.0  -0.5963
  O  O73  1  0.503600  0.500000  0.000000  1.0  -0.2699
