# generated using pymatgen
data_CdP2H21C21N10ClO6
_symmetry_space_group_name_H-M   'P 1'
_cell_length_a   12.59710000
_cell_length_b   12.59710000
_cell_length_c   24.47560000
_cell_angle_alpha   104.05100000
_cell_angle_beta   104.05200000
_cell_angle_gamma   93.23980000
_symmetry_Int_Tables_number   1
_chemical_formula_structural   CdP2H21C21N10ClO6
_chemical_formula_sum   'Cd4 P8 H84 C84 N40 Cl4 O24'
_cell_volume   3627.38629572
_cell_formula_units_Z   4
loop_
 _symmetry_equiv_pos_site_id
 _symmetry_equiv_pos_as_xyz
  1  'x, y, z'
loop_
 _atom_site_type_symbol
 _atom_site_label
 _atom_site_symmetry_multiplicity
 _atom_site_fract_x
 _atom_site_fract_y
 _atom_site_fract_z
 _atom_site_occupancy
 _atom_site_charge
  Cd  Cd1  1  0.500000  0.500000  0.500000  1.0  0.9388
  Cd  Cd2  1  0.500000  0.000000  0.500000  1.0  0.9388
  Cd  Cd3  1  0.500000  0.500000  0.000000  1.0  0.9388
  Cd  Cd4  1  0.000000  0.500000  0.000000  1.0  0.9388
  P  P5  1  0.990350  0.240350  0.250000  1.0  1.3883
  P  P6  1  0.759650  0.009650  0.250000  1.0  1.3906
  P  P7  1  0.009650  0.759650  0.750000  1.0  1.3903
  P  P8  1  0.240350  0.990350  0.750000  1.0  1.3886
  P  P9  1  0.764990  0.235010  0.250000  1.0  1.2975
  P  P10  1  0.985010  0.014990  0.250000  1.0  1.2924
  P  P11  1  0.235010  0.764990  0.750000  1.0  1.2924
  P  P12  1  0.014990  0.985010  0.750000  1.0  1.2975
  H  H13  1  0.101600  0.186000  0.196600  1.0  0.3231
  H  H14  1  0.967700  0.419500  0.194200  1.0  0.1129
  H  H15  1  0.958300  0.511300  0.123600  1.0  0.071
  H  H16  1  0.717600  0.412400  0.075000  1.0  0.0681
  H  H17  1  0.125800  0.306400  0.043600  1.0  0.0724
  H  H18  1  0.774000  0.325800  0.147000  1.0  0.103
  H  H19  1  0.143100  0.207500  0.111600  1.0  0.1388
  H  H20  1  0.456700  0.260500  0.142200  1.0  0.1186
  H  H21  1  0.413100  0.352900  0.073000  1.0  0.0719
  H  H22  1  0.583400  0.201200  0.204200  1.0  0.1431
  H  H23  1  0.595000  0.010600  0.196600  1.0  0.322
  H  H24  1  0.726500  0.774700  0.194200  1.0  0.1107
  H  H25  1  0.665300  0.612300  0.123600  1.0  0.0712
  H  H26  1  0.857400  0.662600  0.075000  1.0  0.0675
  H  H27  1  0.417800  0.737200  0.043600  1.0  0.0701
  H  H28  1  0.873000  0.821200  0.147000  1.0  0.1012
  H  H29  1  0.468500  0.904100  0.111600  1.0  0.1389
  H  H30  1  0.185500  0.881700  0.142200  1.0  0.1191
  H  H31  1  0.159900  0.720100  0.073000  1.0  0.0701
  H  H32  1  0.120800  0.003000  0.204200  1.0  0.1423
  H  H33  1  0.814000  0.898400  0.303400  1.0  0.3229
  H  H34  1  0.580500  0.032300  0.305800  1.0  0.113
  H  H35  1  0.488700  0.041700  0.376400  1.0  0.0713
  H  H36  1  0.587600  0.282400  0.425000  1.0  0.0683
  H  H37  1  0.693600  0.874200  0.456400  1.0  0.0723
  H  H38  1  0.674200  0.226000  0.353000  1.0  0.102
  H  H39  1  0.792500  0.856900  0.388400  1.0  0.1396
  H  H40  1  0.739500  0.543300  0.357800  1.0  0.1185
  H  H41  1  0.647100  0.586900  0.427000  1.0  0.0713
  H  H42  1  0.798800  0.416600  0.295800  1.0  0.1416
  H  H43  1  0.989400  0.405000  0.303400  1.0  0.3218
  H  H44  1  0.225300  0.273500  0.305800  1.0  0.1128
  H  H45  1  0.387700  0.334700  0.376400  1.0  0.0717
  H  H46  1  0.337400  0.142600  0.425000  1.0  0.0688
  H  H47  1  0.262800  0.582200  0.456400  1.0  0.0703
  H  H48  1  0.178800  0.127000  0.353000  1.0  0.1014
  H  H49  1  0.095900  0.531500  0.388400  1.0  0.1394
  H  H50  1  0.118300  0.814500  0.357800  1.0  0.1189
  H  H51  1  0.279900  0.840100  0.427000  1.0  0.0713
  H  H52  1  0.997000  0.879200  0.295800  1.0  0.1431
  H  H53  1  0.898400  0.814000  0.803400  1.0  0.3231
  H  H54  1  0.032300  0.580500  0.805800  1.0  0.1124
  H  H55  1  0.041700  0.488700  0.876400  1.0  0.0708
  H  H56  1  0.282400  0.587600  0.925000  1.0  0.0683
  H  H57  1  0.874200  0.693600  0.956400  1.0  0.0722
  H  H58  1  0.226000  0.674200  0.853000  1.0  0.104
  H  H59  1  0.856900  0.792500  0.888400  1.0  0.1398
  H  H60  1  0.543300  0.739500  0.857800  1.0  0.1188
  H  H61  1  0.586900  0.647100  0.927000  1.0  0.0713
  H  H62  1  0.416600  0.798800  0.795800  1.0  0.1425
  H  H63  1  0.405000  0.989400  0.803400  1.0  0.3219
  H  H64  1  0.273500  0.225300  0.805800  1.0  0.1125
  H  H65  1  0.334700  0.387700  0.876400  1.0  0.0711
  H  H66  1  0.142600  0.337400  0.925000  1.0  0.0677
  H  H67  1  0.582200  0.262800  0.956400  1.0  0.069
  H  H68  1  0.127000  0.178800  0.853000  1.0  0.1011
  H  H69  1  0.531500  0.095900  0.888400  1.0  0.1383
  H  H70  1  0.814500  0.118300  0.857800  1.0  0.1192
  H  H71  1  0.840100  0.279900  0.927000  1.0  0.0701
  H  H72  1  0.879200  0.997000  0.795800  1.0  0.1433
  H  H73  1  0.186000  0.101600  0.696600  1.0  0.3232
  H  H74  1  0.419500  0.967700  0.694200  1.0  0.1131
  H  H75  1  0.511300  0.958300  0.623600  1.0  0.0713
  H  H76  1  0.412400  0.717600  0.575000  1.0  0.0687
  H  H77  1  0.306400  0.125800  0.543600  1.0  0.0721
  H  H78  1  0.325800  0.774000  0.647000  1.0  0.1028
  H  H79  1  0.207500  0.143100  0.611600  1.0  0.1396
  H  H80  1  0.260500  0.456700  0.642200  1.0  0.118
  H  H81  1  0.352900  0.413100  0.573000  1.0  0.0715
  H  H82  1  0.201200  0.583400  0.704200  1.0  0.1427
  H  H83  1  0.010600  0.595000  0.696600  1.0  0.3213
  H  H84  1  0.774700  0.726500  0.694200  1.0  0.1125
  H  H85  1  0.612300  0.665300  0.623600  1.0  0.0716
  H  H86  1  0.662600  0.857400  0.575000  1.0  0.0691
  H  H87  1  0.737200  0.417800  0.543600  1.0  0.0702
  H  H88  1  0.821200  0.873000  0.647000  1.0  0.1014
  H  H89  1  0.904100  0.468500  0.611600  1.0  0.1384
  H  H90  1  0.881700  0.185500  0.642200  1.0  0.1194
  H  H91  1  0.720100  0.159900  0.573000  1.0  0.0719
  H  H92  1  0.003000  0.120800  0.704200  1.0  0.1423
  H  H93  1  0.532700  0.282700  0.565400  1.0  0.0227
  H  H94  1  0.717300  0.467300  0.934600  1.0  0.0224
  H  H95  1  0.467300  0.717300  0.434600  1.0  0.0224
  H  H96  1  0.282700  0.532700  0.065400  1.0  0.0227
  C  C97  1  0.622570  0.284170  0.155140  1.0  0.2609
  C  C98  1  0.052000  0.299080  0.159880  1.0  0.2721
  C  C99  1  0.999190  0.393790  0.163580  1.0  -0.2868
  C  C100  1  0.994600  0.448600  0.121000  1.0  0.1928
  C  C101  1  0.664520  0.382920  0.089640  1.0  0.1619
  C  C102  1  0.093180  0.328380  0.074160  1.0  0.182
  C  C103  1  0.699310  0.330310  0.132820  1.0  -0.1893
  C  C104  1  0.103370  0.267770  0.114340  1.0  -0.2514
  C  C105  1  0.512350  0.292350  0.130300  1.0  -0.2646
  C  C106  1  0.487140  0.347540  0.088280  1.0  0.181
  C  C107  1  0.032570  0.870970  0.155140  1.0  0.262
  C  C108  1  0.607880  0.860800  0.159880  1.0  0.2724
  C  C109  1  0.664390  0.769790  0.163580  1.0  -0.2884
  C  C110  1  0.626400  0.672400  0.121000  1.0  0.1913
  C  C111  1  0.925120  0.706720  0.089640  1.0  0.1602
  C  C112  1  0.480980  0.745780  0.074160  1.0  0.18
  C  C113  1  0.933510  0.802510  0.132820  1.0  -0.1872
  C  C114  1  0.510970  0.846570  0.114340  1.0  -0.2527
  C  C115  1  0.117950  0.837950  0.130300  1.0  -0.2637
  C  C116  1  0.101140  0.740740  0.088280  1.0  0.1826
  C  C117  1  0.715830  0.377430  0.344860  1.0  0.2599
  C  C118  1  0.700920  0.948000  0.340120  1.0  0.273
  C  C119  1  0.606210  0.000810  0.336420  1.0  -0.2869
  C  C120  1  0.551400  0.005400  0.379000  1.0  0.192
  C  C121  1  0.617080  0.335480  0.410360  1.0  0.1616
  C  C122  1  0.671620  0.906820  0.425840  1.0  0.1839
  C  C123  1  0.669690  0.300690  0.367180  1.0  -0.1906
  C  C124  1  0.732230  0.896630  0.385660  1.0  -0.2518
  C  C125  1  0.707650  0.487650  0.369700  1.0  -0.2641
  C  C126  1  0.652460  0.512860  0.411720  1.0  0.1794
  C  C127  1  0.129030  0.967430  0.344860  1.0  0.2619
  C  C128  1  0.139200  0.392120  0.340120  1.0  0.2727
  C  C129  1  0.230210  0.335610  0.336420  1.0  -0.286
  C  C130  1  0.327600  0.373600  0.379000  1.0  0.1909
  C  C131  1  0.293280  0.074880  0.410360  1.0  0.1609
  C  C132  1  0.254220  0.519020  0.425840  1.0  0.1793
  C  C133  1  0.197490  0.066490  0.367180  1.0  -0.1879
  C  C134  1  0.153430  0.489030  0.385660  1.0  -0.2541
  C  C135  1  0.162050  0.882050  0.369700  1.0  -0.2627
  C  C136  1  0.259260  0.898860  0.411720  1.0  0.182
  C  C137  1  0.377430  0.715830  0.844860  1.0  0.2604
  C  C138  1  0.948000  0.700920  0.840120  1.0  0.2728
  C  C139  1  0.000810  0.606210  0.836420  1.0  -0.2872
  C  C140  1  0.005400  0.551400  0.879000  1.0  0.1918
  C  C141  1  0.335480  0.617080  0.910360  1.0  0.1622
  C  C142  1  0.906820  0.671620  0.925840  1.0  0.1818
  C  C143  1  0.300690  0.669690  0.867180  1.0  -0.19
  C  C144  1  0.896630  0.732230  0.885660  1.0  -0.2536
  C  C145  1  0.487650  0.707650  0.869700  1.0  -0.2639
  C  C146  1  0.512860  0.652460  0.911720  1.0  0.1827
  C  C147  1  0.967430  0.129030  0.844860  1.0  0.2613
  C  C148  1  0.392120  0.139200  0.840120  1.0  0.2726
  C  C149  1  0.335610  0.230210  0.836420  1.0  -0.2868
  C  C150  1  0.373600  0.327600  0.879000  1.0  0.1915
  C  C151  1  0.074880  0.293280  0.910360  1.0  0.1605
  C  C152  1  0.519020  0.254220  0.925840  1.0  0.1812
  C  C153  1  0.066490  0.197490  0.867180  1.0  -0.1869
  C  C154  1  0.489030  0.153430  0.885660  1.0  -0.2513
  C  C155  1  0.882050  0.162050  0.869700  1.0  -0.2643
  C  C156  1  0.898860  0.259260  0.911720  1.0  0.1833
  C  C157  1  0.284170  0.622570  0.655140  1.0  0.2603
  C  C158  1  0.299080  0.052000  0.659880  1.0  0.2727
  C  C159  1  0.393790  0.999190  0.663580  1.0  -0.2872
  C  C160  1  0.448600  0.994600  0.621000  1.0  0.1924
  C  C161  1  0.382920  0.664520  0.589640  1.0  0.1618
  C  C162  1  0.328380  0.093180  0.574160  1.0  0.1833
  C  C163  1  0.330310  0.699310  0.632820  1.0  -0.19
  C  C164  1  0.267770  0.103370  0.614340  1.0  -0.2527
  C  C165  1  0.292350  0.512350  0.630300  1.0  -0.2639
  C  C166  1  0.347540  0.487140  0.588280  1.0  0.1801
  C  C167  1  0.870970  0.032570  0.655140  1.0  0.2626
  C  C168  1  0.860800  0.607880  0.659880  1.0  0.2735
  C  C169  1  0.769790  0.664390  0.663580  1.0  -0.2858
  C  C170  1  0.672400  0.626400  0.621000  1.0  0.1895
  C  C171  1  0.706720  0.925120  0.589640  1.0  0.1601
  C  C172  1  0.745780  0.480980  0.574160  1.0  0.1795
  C  C173  1  0.802510  0.933510  0.632820  1.0  -0.1875
  C  C174  1  0.846570  0.510970  0.614340  1.0  -0.2518
  C  C175  1  0.837950  0.117950  0.630300  1.0  -0.2642
  C  C176  1  0.740740  0.101140  0.588280  1.0  0.1801
  C  C177  1  0.512420  0.262420  0.524840  1.0  0.5698
  C  C178  1  0.737580  0.487580  0.975160  1.0  0.5721
  C  C179  1  0.487580  0.737580  0.475160  1.0  0.5721
  C  C180  1  0.262420  0.512420  0.024840  1.0  0.5698
  N  N181  1  0.864880  0.248980  0.222600  1.0  -0.6763
  N  N182  1  0.057270  0.235270  0.199060  1.0  -0.5398
  N  N183  1  0.648720  0.225560  0.197580  1.0  -0.5458
  N  N184  1  0.039040  0.417640  0.076280  1.0  -0.3429
  N  N185  1  0.560320  0.394120  0.067640  1.0  -0.3419
  N  N186  1  0.857720  0.973620  0.222600  1.0  -0.6704
  N  N187  1  0.641790  0.963790  0.199060  1.0  -0.5412
  N  N188  1  0.048860  0.972020  0.197580  1.0  -0.5466
  N  N189  1  0.537240  0.658640  0.076280  1.0  -0.3403
  N  N190  1  0.007320  0.673520  0.067640  1.0  -0.342
  N  N191  1  0.751020  0.135120  0.277400  1.0  -0.6715
  N  N192  1  0.764730  0.942730  0.300940  1.0  -0.5398
  N  N193  1  0.774440  0.351280  0.302420  1.0  -0.5447
  N  N194  1  0.582360  0.960960  0.423720  1.0  -0.3384
  N  N195  1  0.605880  0.439680  0.432360  1.0  -0.3419
  N  N196  1  0.026380  0.142280  0.277400  1.0  -0.6756
  N  N197  1  0.036210  0.358210  0.300940  1.0  -0.5396
  N  N198  1  0.027980  0.951140  0.302420  1.0  -0.5465
  N  N199  1  0.341360  0.462760  0.423720  1.0  -0.3401
  N  N200  1  0.326480  0.992680  0.432360  1.0  -0.3406
  N  N201  1  0.135120  0.751020  0.777400  1.0  -0.6762
  N  N202  1  0.942730  0.764730  0.800940  1.0  -0.539
  N  N203  1  0.351280  0.774440  0.802420  1.0  -0.5474
  N  N204  1  0.960960  0.582360  0.923720  1.0  -0.3418
  N  N205  1  0.439680  0.605880  0.932360  1.0  -0.3404
  N  N206  1  0.142280  0.026380  0.777400  1.0  -0.6717
  N  N207  1  0.358210  0.036210  0.800940  1.0  -0.5406
  N  N208  1  0.951140  0.027980  0.802420  1.0  -0.5448
  N  N209  1  0.462760  0.341360  0.923720  1.0  -0.3389
  N  N210  1  0.992680  0.326480  0.932360  1.0  -0.341
  N  N211  1  0.248980  0.864880  0.722600  1.0  -0.6705
  N  N212  1  0.235270  0.057270  0.699060  1.0  -0.5389
  N  N213  1  0.225560  0.648720  0.697580  1.0  -0.5454
  N  N214  1  0.417640  0.039040  0.576280  1.0  -0.3398
  N  N215  1  0.394120  0.560320  0.567640  1.0  -0.3408
  N  N216  1  0.973620  0.857720  0.722600  1.0  -0.6745
  N  N217  1  0.963790  0.641790  0.699060  1.0  -0.5428
  N  N218  1  0.972020  0.048860  0.697580  1.0  -0.5456
  N  N219  1  0.658640  0.537240  0.576280  1.0  -0.34
  N  N220  1  0.673520  0.007320  0.567640  1.0  -0.3428
  Cl  Cl221  1  0.885910  0.635910  0.271820  1.0  1.3752
  Cl  Cl222  1  0.364090  0.114090  0.228180  1.0  1.3794
  Cl  Cl223  1  0.114090  0.364090  0.728180  1.0  1.3784
  Cl  Cl224  1  0.635910  0.885910  0.771820  1.0  1.3763
  O  O225  1  0.460880  0.324880  0.501560  1.0  -0.6255
  O  O226  1  0.540680  0.176680  0.501560  1.0  -0.6238
  O  O227  1  0.675120  0.539120  0.998440  1.0  -0.625
  O  O228  1  0.823320  0.459320  0.998440  1.0  -0.6261
  O  O229  1  0.539120  0.675120  0.498440  1.0  -0.6244
  O  O230  1  0.459320  0.823320  0.498440  1.0  -0.6248
  O  O231  1  0.324880  0.460880  0.001560  1.0  -0.6246
  O  O232  1  0.176680  0.540680  0.001560  1.0  -0.6258
  O  O233  1  0.992100  0.658300  0.259600  1.0  -0.6378
  O  O234  1  0.938400  0.565800  0.303400  1.0  -0.5702
  O  O235  1  0.767500  0.601300  0.259600  1.0  -0.6319
  O  O236  1  0.865000  0.737600  0.303400  1.0  -0.5728
  O  O237  1  0.341700  0.007900  0.240400  1.0  -0.6408
  O  O238  1  0.434200  0.061600  0.196600  1.0  -0.5693
  O  O239  1  0.398700  0.232500  0.240400  1.0  -0.6424
  O  O240  1  0.262400  0.135000  0.196600  1.0  -0.5734
  O  O241  1  0.007900  0.341700  0.740400  1.0  -0.6373
  O  O242  1  0.061600  0.434200  0.696600  1.0  -0.5696
  O  O243  1  0.232500  0.398700  0.740400  1.0  -0.6165
  O  O244  1  0.135000  0.262400  0.696600  1.0  -0.5715
  O  O245  1  0.658300  0.992100  0.759600  1.0  -0.641
  O  O246  1  0.565800  0.938400  0.803400  1.0  -0.5701
  O  O247  1  0.601300  0.767500  0.759600  1.0  -0.6421
  O  O248  1  0.737600  0.865000  0.803400  1.0  -0.5741
