# generated using pymatgen
data_CoP2H21C21N10ClO6
_symmetry_space_group_name_H-M   'P 1'
_cell_length_a   12.48530000
_cell_length_b   12.48530000
_cell_length_c   23.93670000
_cell_angle_alpha   104.35400000
_cell_angle_beta   104.35400000
_cell_angle_gamma   92.83300000
_symmetry_Int_Tables_number   1
_chemical_formula_structural   CoP2H21C21N10ClO6
_chemical_formula_sum   'Co4 P8 H84 C84 N40 Cl4 O24'
_cell_volume   3477.46188475
_cell_formula_units_Z   4
loop_
 _symmetry_equiv_pos_site_id
 _symmetry_equiv_pos_as_xyz
  1  'x, y, z'
loop_
 _atom_site_type_symbol
 _atom_site_label
 _atom_site_symmetry_multiplicity
 _atom_site_fract_x
 _atom_site_fract_y
 _atom_site_fract_z
 _atom_site_occupancy
 _atom_site_charge
  Co  Co1  1  0.500000  0.000000  0.000000  1.0  0.548
  Co  Co2  1  0.500000  0.500000  0.000000  1.0  0.5483
  Co  Co3  1  0.000000  0.500000  0.500000  1.0  0.548
  Co  Co4  1  0.500000  0.500000  0.500000  1.0  0.5482
  P  P5  1  0.758820  0.008820  0.750000  1.0  1.3617
  P  P6  1  0.991180  0.241180  0.750000  1.0  1.3614
  P  P7  1  0.241180  0.991180  0.250000  1.0  1.3614
  P  P8  1  0.008820  0.758820  0.250000  1.0  1.3617
  P  P9  1  0.763580  0.236420  0.750000  1.0  1.3695
  P  P10  1  0.986420  0.013580  0.750000  1.0  1.3654
  P  P11  1  0.236420  0.763580  0.250000  1.0  1.3654
  P  P12  1  0.013580  0.986420  0.250000  1.0  1.3695
  H  H13  1  0.814700  0.897300  0.805600  1.0  0.3726
  H  H14  1  0.581800  0.040000  0.809000  1.0  0.1099
  H  H15  1  0.489400  0.051600  0.880800  1.0  0.0659
  H  H16  1  0.582000  0.286800  0.927000  1.0  0.0763
  H  H17  1  0.687700  0.872300  0.960000  1.0  0.0699
  H  H18  1  0.675100  0.229300  0.857000  1.0  0.1106
  H  H19  1  0.788100  0.854700  0.891600  1.0  0.1287
  H  H20  1  0.733900  0.548700  0.858600  1.0  0.1174
  H  H21  1  0.640300  0.595100  0.929000  1.0  0.076
  H  H22  1  0.801100  0.405700  0.796800  1.0  0.2784
  H  H23  1  0.990900  0.408300  0.805600  1.0  0.3713
  H  H24  1  0.227200  0.269000  0.809000  1.0  0.1096
  H  H25  1  0.391400  0.329200  0.880800  1.0  0.0657
  H  H26  1  0.345000  0.140200  0.927000  1.0  0.0768
  H  H27  1  0.272300  0.587700  0.960000  1.0  0.0697
  H  H28  1  0.181900  0.127700  0.857000  1.0  0.1113
  H  H29  1  0.103500  0.536900  0.891600  1.0  0.128
  H  H30  1  0.124700  0.809900  0.858600  1.0  0.1183
  H  H31  1  0.288700  0.833900  0.929000  1.0  0.0747
  H  H32  1  0.995700  0.891100  0.796800  1.0  0.2794
  H  H33  1  0.102700  0.185300  0.694400  1.0  0.3719
  H  H34  1  0.960000  0.418200  0.691000  1.0  0.1097
  H  H35  1  0.948400  0.510600  0.619200  1.0  0.0663
  H  H36  1  0.713200  0.418000  0.573000  1.0  0.0761
  H  H37  1  0.127700  0.312300  0.540000  1.0  0.0696
  H  H38  1  0.770700  0.324900  0.643000  1.0  0.112
  H  H39  1  0.145300  0.211900  0.608400  1.0  0.1281
  H  H40  1  0.451300  0.266100  0.641400  1.0  0.1181
  H  H41  1  0.404900  0.359700  0.571000  1.0  0.077
  H  H42  1  0.594300  0.198900  0.703200  1.0  0.2821
  H  H43  1  0.591700  0.009100  0.694400  1.0  0.3716
  H  H44  1  0.731000  0.772800  0.691000  1.0  0.1089
  H  H45  1  0.670800  0.608600  0.619200  1.0  0.0661
  H  H46  1  0.859800  0.655000  0.573000  1.0  0.0757
  H  H47  1  0.412300  0.727700  0.540000  1.0  0.0689
  H  H48  1  0.872300  0.818100  0.643000  1.0  0.1108
  H  H49  1  0.463100  0.896500  0.608400  1.0  0.1279
  H  H50  1  0.190100  0.875300  0.641400  1.0  0.118
  H  H51  1  0.166100  0.711300  0.571000  1.0  0.0732
  H  H52  1  0.108900  0.004300  0.703200  1.0  0.2812
  H  H53  1  0.185300  0.102700  0.194400  1.0  0.3726
  H  H54  1  0.418200  0.960000  0.191000  1.0  0.1103
  H  H55  1  0.510600  0.948400  0.119200  1.0  0.066
  H  H56  1  0.418000  0.713200  0.073000  1.0  0.0759
  H  H57  1  0.312300  0.127700  0.040000  1.0  0.0706
  H  H58  1  0.324900  0.770700  0.143000  1.0  0.1119
  H  H59  1  0.211900  0.145300  0.108400  1.0  0.1284
  H  H60  1  0.266100  0.451300  0.141400  1.0  0.1172
  H  H61  1  0.359700  0.404900  0.071000  1.0  0.0759
  H  H62  1  0.198900  0.594300  0.203200  1.0  0.2786
  H  H63  1  0.009100  0.591700  0.194400  1.0  0.37
  H  H64  1  0.772800  0.731000  0.191000  1.0  0.1096
  H  H65  1  0.608600  0.670800  0.119200  1.0  0.0663
  H  H66  1  0.655000  0.859800  0.073000  1.0  0.0766
  H  H67  1  0.727700  0.412300  0.040000  1.0  0.0689
  H  H68  1  0.818100  0.872300  0.143000  1.0  0.1105
  H  H69  1  0.896500  0.463100  0.108400  1.0  0.128
  H  H70  1  0.875300  0.190100  0.141400  1.0  0.1181
  H  H71  1  0.711300  0.166100  0.071000  1.0  0.0749
  H  H72  1  0.004300  0.108900  0.203200  1.0  0.2805
  H  H73  1  0.897300  0.814700  0.305600  1.0  0.3725
  H  H74  1  0.040000  0.581800  0.309000  1.0  0.1096
  H  H75  1  0.051600  0.489400  0.380800  1.0  0.0658
  H  H76  1  0.286800  0.582000  0.427000  1.0  0.0762
  H  H77  1  0.872300  0.687700  0.460000  1.0  0.0697
  H  H78  1  0.229300  0.675100  0.357000  1.0  0.1127
  H  H79  1  0.854700  0.788100  0.391600  1.0  0.1288
  H  H80  1  0.548700  0.733900  0.358600  1.0  0.1178
  H  H81  1  0.595100  0.640300  0.429000  1.0  0.076
  H  H82  1  0.405700  0.801100  0.296800  1.0  0.2802
  H  H83  1  0.408300  0.990900  0.305600  1.0  0.3717
  H  H84  1  0.269000  0.227200  0.309000  1.0  0.1087
  H  H85  1  0.329200  0.391400  0.380800  1.0  0.0667
  H  H86  1  0.140200  0.345000  0.427000  1.0  0.0757
  H  H87  1  0.587700  0.272300  0.460000  1.0  0.0687
  H  H88  1  0.127700  0.181900  0.357000  1.0  0.1109
  H  H89  1  0.536900  0.103500  0.391600  1.0  0.1278
  H  H90  1  0.809900  0.124700  0.358600  1.0  0.1188
  H  H91  1  0.833900  0.288700  0.429000  1.0  0.0731
  H  H92  1  0.891100  0.995700  0.296800  1.0  0.2824
  H  H93  1  0.535200  0.285200  0.070400  1.0  0.0514
  H  H94  1  0.714800  0.464800  0.429600  1.0  0.0506
  H  H95  1  0.464800  0.714800  0.929600  1.0  0.0506
  H  H96  1  0.285200  0.535200  0.570400  1.0  0.0514
  C  C97  1  0.713380  0.381920  0.846540  1.0  0.2747
  C  C98  1  0.699660  0.948700  0.842480  1.0  0.2654
  C  C99  1  0.606280  0.006480  0.839760  1.0  -0.3065
  C  C100  1  0.551220  0.012820  0.883240  1.0  0.1764
  C  C101  1  0.612410  0.340410  0.912620  1.0  0.1443
  C  C102  1  0.667490  0.907890  0.929780  1.0  0.1742
  C  C103  1  0.667750  0.304550  0.870100  1.0  -0.2239
  C  C104  1  0.728480  0.896480  0.888760  1.0  -0.2418
  C  C105  1  0.702600  0.493000  0.871200  1.0  -0.2427
  C  C106  1  0.646100  0.520100  0.913800  1.0  0.1694
  C  C107  1  0.133160  0.964620  0.846540  1.0  0.2781
  C  C108  1  0.142820  0.393780  0.842480  1.0  0.2646
  C  C109  1  0.233480  0.333280  0.839760  1.0  -0.3047
  C  C110  1  0.332020  0.370420  0.883240  1.0  0.1756
  C  C111  1  0.300210  0.072210  0.912620  1.0  0.1437
  C  C112  1  0.262290  0.521890  0.929780  1.0  0.1737
  C  C113  1  0.202350  0.065550  0.870100  1.0  -0.2234
  C  C114  1  0.160280  0.492280  0.888760  1.0  -0.245
  C  C115  1  0.168600  0.878200  0.871200  1.0  -0.2429
  C  C116  1  0.267700  0.893700  0.913800  1.0  0.1701
  C  C117  1  0.618080  0.286620  0.653460  1.0  0.2759
  C  C118  1  0.051300  0.300340  0.657520  1.0  0.2655
  C  C119  1  0.993520  0.393720  0.660240  1.0  -0.3065
  C  C120  1  0.987180  0.448780  0.616760  1.0  0.1767
  C  C121  1  0.659590  0.387590  0.587380  1.0  0.1442
  C  C122  1  0.092110  0.332510  0.570220  1.0  0.1726
  C  C123  1  0.695450  0.332250  0.629900  1.0  -0.2238
  C  C124  1  0.103520  0.271520  0.611240  1.0  -0.2418
  C  C125  1  0.507000  0.297400  0.628800  1.0  -0.2409
  C  C126  1  0.479900  0.353900  0.586200  1.0  0.1716
  C  C127  1  0.035380  0.866840  0.653460  1.0  0.2763
  C  C128  1  0.606220  0.857180  0.657520  1.0  0.2649
  C  C129  1  0.666667  0.766520  0.660240  1.0  -0.309
  C  C130  1  0.629580  0.667980  0.616760  1.0  0.1768
  C  C131  1  0.927790  0.699790  0.587380  1.0  0.1445
  C  C132  1  0.478110  0.737710  0.570220  1.0  0.1708
  C  C133  1  0.934450  0.797650  0.629900  1.0  -0.2202
  C  C134  1  0.507720  0.839720  0.611240  1.0  -0.2417
  C  C135  1  0.121800  0.831400  0.628800  1.0  -0.2407
  C  C136  1  0.106300  0.732300  0.586200  1.0  0.1732
  C  C137  1  0.286620  0.618080  0.153460  1.0  0.2762
  C  C138  1  0.300340  0.051300  0.157520  1.0  0.265
  C  C139  1  0.393720  0.993520  0.160240  1.0  -0.3062
  C  C140  1  0.448780  0.987180  0.116760  1.0  0.1765
  C  C141  1  0.387590  0.659590  0.087380  1.0  0.1433
  C  C142  1  0.332510  0.092110  0.070220  1.0  0.1742
  C  C143  1  0.332250  0.695450  0.129900  1.0  -0.226
  C  C144  1  0.271520  0.103520  0.111240  1.0  -0.2412
  C  C145  1  0.297400  0.507000  0.128800  1.0  -0.2427
  C  C146  1  0.353900  0.479900  0.086200  1.0  0.1693
  C  C147  1  0.866840  0.035380  0.153460  1.0  0.2773
  C  C148  1  0.857180  0.606220  0.157520  1.0  0.2645
  C  C149  1  0.766520  0.666667  0.160240  1.0  -0.3053
  C  C150  1  0.667980  0.629580  0.116760  1.0  0.1764
  C  C151  1  0.699790  0.927790  0.087380  1.0  0.1443
  C  C152  1  0.737710  0.478110  0.070220  1.0  0.1728
  C  C153  1  0.797650  0.934450  0.129900  1.0  -0.222
  C  C154  1  0.839720  0.507720  0.111240  1.0  -0.2428
  C  C155  1  0.831400  0.121800  0.128800  1.0  -0.2435
  C  C156  1  0.732300  0.106300  0.086200  1.0  0.1694
  C  C157  1  0.381920  0.713380  0.346540  1.0  0.2751
  C  C158  1  0.948700  0.699660  0.342480  1.0  0.2656
  C  C159  1  0.006480  0.606280  0.339760  1.0  -0.307
  C  C160  1  0.012820  0.551220  0.383240  1.0  0.1773
  C  C161  1  0.340410  0.612410  0.412620  1.0  0.145
  C  C162  1  0.907890  0.667490  0.429780  1.0  0.1722
  C  C163  1  0.304550  0.667750  0.370100  1.0  -0.2241
  C  C164  1  0.896480  0.728480  0.388760  1.0  -0.243
  C  C165  1  0.493000  0.702600  0.371200  1.0  -0.24
  C  C166  1  0.520100  0.646100  0.413800  1.0  0.1728
  C  C167  1  0.964620  0.133160  0.346540  1.0  0.2773
  C  C168  1  0.393780  0.142820  0.342480  1.0  0.2649
  C  C169  1  0.333280  0.233480  0.339760  1.0  -0.3069
  C  C170  1  0.370420  0.332020  0.383240  1.0  0.1778
  C  C171  1  0.072210  0.300210  0.412620  1.0  0.1441
  C  C172  1  0.521890  0.262290  0.429780  1.0  0.1719
  C  C173  1  0.065550  0.202350  0.370100  1.0  -0.2205
  C  C174  1  0.492280  0.160280  0.388760  1.0  -0.2427
  C  C175  1  0.878200  0.168600  0.371200  1.0  -0.2421
  C  C176  1  0.893700  0.267700  0.413800  1.0  0.1728
  C  C177  1  0.514380  0.264380  0.028760  1.0  0.4801
  C  C178  1  0.735620  0.485620  0.471240  1.0  0.481
  C  C179  1  0.485620  0.735620  0.971240  1.0  0.481
  C  C180  1  0.264380  0.514380  0.528760  1.0  0.4801
  N  N181  1  0.749810  0.135870  0.777940  1.0  -0.643
  N  N182  1  0.764560  0.942040  0.802660  1.0  -0.5434
  N  N183  1  0.772280  0.354700  0.803700  1.0  -0.5209
  N  N184  1  0.580400  0.967060  0.929100  1.0  -0.3339
  N  N185  1  0.598480  0.446840  0.935140  1.0  -0.2876
  N  N186  1  0.028130  0.142070  0.777940  1.0  -0.643
  N  N187  1  0.038100  0.360620  0.802660  1.0  -0.5441
  N  N188  1  0.031420  0.949000  0.803700  1.0  -0.5209
  N  N189  1  0.348700  0.462040  0.929100  1.0  -0.3333
  N  N190  1  0.336660  0.988300  0.935140  1.0  -0.2863
  N  N191  1  0.864130  0.250190  0.722060  1.0  -0.643
  N  N192  1  0.057960  0.235440  0.697340  1.0  -0.5445
  N  N193  1  0.645300  0.227720  0.696300  1.0  -0.5197
  N  N194  1  0.032940  0.419600  0.570900  1.0  -0.3367
  N  N195  1  0.553160  0.401520  0.564860  1.0  -0.2871
  N  N196  1  0.857930  0.971870  0.722060  1.0  -0.6414
  N  N197  1  0.639380  0.961900  0.697340  1.0  -0.5449
  N  N198  1  0.051000  0.968580  0.696300  1.0  -0.5192
  N  N199  1  0.537960  0.651300  0.570900  1.0  -0.3352
  N  N200  1  0.011700  0.663340  0.564860  1.0  -0.288
  N  N201  1  0.250190  0.864130  0.222060  1.0  -0.6417
  N  N202  1  0.235440  0.057960  0.197340  1.0  -0.5438
  N  N203  1  0.227720  0.645300  0.196300  1.0  -0.5216
  N  N204  1  0.419600  0.032940  0.070900  1.0  -0.3352
  N  N205  1  0.401520  0.553160  0.064860  1.0  -0.2863
  N  N206  1  0.971870  0.857930  0.222060  1.0  -0.6419
  N  N207  1  0.961900  0.639380  0.197340  1.0  -0.5452
  N  N208  1  0.968580  0.051000  0.196300  1.0  -0.5203
  N  N209  1  0.651300  0.537960  0.070900  1.0  -0.3326
  N  N210  1  0.663340  0.011700  0.064860  1.0  -0.2886
  N  N211  1  0.135870  0.749810  0.277940  1.0  -0.6445
  N  N212  1  0.942040  0.764560  0.302660  1.0  -0.5439
  N  N213  1  0.354700  0.772280  0.303700  1.0  -0.5209
  N  N214  1  0.967060  0.580400  0.429100  1.0  -0.336
  N  N215  1  0.446840  0.598480  0.435140  1.0  -0.286
  N  N216  1  0.142070  0.028130  0.277940  1.0  -0.6427
  N  N217  1  0.360620  0.038100  0.302660  1.0  -0.5454
  N  N218  1  0.949000  0.031420  0.303700  1.0  -0.5182
  N  N219  1  0.462040  0.348700  0.429100  1.0  -0.3352
  N  N220  1  0.988300  0.336660  0.435140  1.0  -0.2873
  Cl  Cl221  1  0.363060  0.113060  0.726120  1.0  1.4053
  Cl  Cl222  1  0.886940  0.636940  0.773880  1.0  1.4009
  Cl  Cl223  1  0.636940  0.886940  0.273880  1.0  1.4017
  Cl  Cl224  1  0.113060  0.363060  0.226120  1.0  1.4047
  O  O225  1  0.523980  0.166480  0.002480  1.0  -0.6223
  O  O226  1  0.478500  0.336000  0.002480  1.0  -0.621
  O  O227  1  0.833520  0.476020  0.497520  1.0  -0.6221
  O  O228  1  0.664000  0.521500  0.497520  1.0  -0.622
  O  O229  1  0.476020  0.833520  0.997520  1.0  -0.6215
  O  O230  1  0.521500  0.664000  0.997520  1.0  -0.623
  O  O231  1  0.166480  0.523980  0.502480  1.0  -0.6217
  O  O232  1  0.336000  0.478500  0.502480  1.0  -0.6205
  O  O233  1  0.391200  0.234600  0.737400  1.0  -0.6448
  O  O234  1  0.436900  0.070500  0.694200  1.0  -0.6093
  O  O235  1  0.346200  0.002800  0.737400  1.0  -0.646
  O  O236  1  0.257300  0.123700  0.694200  1.0  -0.6097
  O  O237  1  0.765400  0.608800  0.762600  1.0  -0.6401
  O  O238  1  0.929500  0.563100  0.805800  1.0  -0.609
  O  O239  1  0.997200  0.653800  0.762600  1.0  -0.6454
  O  O240  1  0.876300  0.742700  0.805800  1.0  -0.6104
  O  O241  1  0.608800  0.765400  0.262600  1.0  -0.648
  O  O242  1  0.563100  0.929500  0.305800  1.0  -0.6101
  O  O243  1  0.653800  0.997200  0.262600  1.0  -0.6458
  O  O244  1  0.742700  0.876300  0.305800  1.0  -0.6097
  O  O245  1  0.234600  0.391200  0.237400  1.0  -0.6331
  O  O246  1  0.070500  0.436900  0.194200  1.0  -0.6091
  O  O247  1  0.002800  0.346200  0.237400  1.0  -0.644
  O  O248  1  0.123700  0.257300  0.194200  1.0  -0.6107
