# generated using pymatgen
data_CoH8C16(NO2)2
_symmetry_space_group_name_H-M   'P 1'
_cell_length_a   22.03060000
_cell_length_b   22.03060000
_cell_length_c   22.03060000
_cell_angle_alpha   109.47100000
_cell_angle_beta   109.47100000
_cell_angle_gamma   109.47100000
_symmetry_Int_Tables_number   1
_chemical_formula_structural   CoH8C16(NO2)2
_chemical_formula_sum   'Co12 H96 C192 N24 O48'
_cell_volume   8231.15220823
_cell_formula_units_Z   12
loop_
 _symmetry_equiv_pos_site_id
 _symmetry_equiv_pos_as_xyz
  1  'x, y, z'
loop_
 _atom_site_type_symbol
 _atom_site_label
 _atom_site_symmetry_multiplicity
 _atom_site_fract_x
 _atom_site_fract_y
 _atom_site_fract_z
 _atom_site_occupancy
 _atom_site_charge
  Co  Co1  1  0.407600  0.907600  0.500000  1.0  1.0186
  Co  Co2  1  0.592400  0.092400  0.500000  1.0  1.0191
  Co  Co3  1  0.500000  0.592400  0.092400  1.0  1.0182
  Co  Co4  1  0.500000  0.407600  0.907600  1.0  1.0191
  Co  Co5  1  0.907600  0.500000  0.407600  1.0  1.0193
  Co  Co6  1  0.092400  0.500000  0.592400  1.0  1.019
  Co  Co7  1  0.092400  0.592400  0.500000  1.0  1.0191
  Co  Co8  1  0.907600  0.407600  0.500000  1.0  1.0186
  Co  Co9  1  0.407600  0.500000  0.907600  1.0  1.0193
  Co  Co10  1  0.592400  0.500000  0.092400  1.0  1.019
  Co  Co11  1  0.500000  0.092400  0.592400  1.0  1.0182
  Co  Co12  1  0.500000  0.907600  0.407600  1.0  1.0191
  H  H13  1  0.801000  0.562700  0.112100  1.0  0.1276
  H  H14  1  0.908500  0.573000  0.107100  1.0  0.1017
  H  H15  1  0.450600  0.688900  0.887900  1.0  0.1293
  H  H16  1  0.465900  0.801400  0.892900  1.0  0.1036
  H  H17  1  0.549400  0.437300  0.238300  1.0  0.1297
  H  H18  1  0.534100  0.427000  0.335500  1.0  0.1024
  H  H19  1  0.199000  0.311100  0.761700  1.0  0.1301
  H  H20  1  0.091500  0.198600  0.664500  1.0  0.1044
  H  H21  1  0.238300  0.549400  0.437300  1.0  0.1305
  H  H22  1  0.335500  0.534100  0.427000  1.0  0.1024
  H  H23  1  0.761700  0.199000  0.311100  1.0  0.1311
  H  H24  1  0.664500  0.091500  0.198600  1.0  0.1022
  H  H25  1  0.112100  0.801000  0.562700  1.0  0.1282
  H  H26  1  0.107100  0.908500  0.573000  1.0  0.1032
  H  H27  1  0.887900  0.450600  0.688900  1.0  0.1286
  H  H28  1  0.892900  0.465900  0.801400  1.0  0.1025
  H  H29  1  0.688900  0.887900  0.450600  1.0  0.1293
  H  H30  1  0.801400  0.892900  0.465900  1.0  0.1039
  H  H31  1  0.562700  0.112100  0.801000  1.0  0.1277
  H  H32  1  0.573000  0.107100  0.908500  1.0  0.1022
  H  H33  1  0.311100  0.761700  0.199000  1.0  0.1313
  H  H34  1  0.198600  0.664500  0.091500  1.0  0.1024
  H  H35  1  0.437300  0.238300  0.549400  1.0  0.1304
  H  H36  1  0.427000  0.335500  0.534100  1.0  0.1016
  H  H37  1  0.437300  0.199000  0.887900  1.0  0.1284
  H  H38  1  0.427000  0.091500  0.892900  1.0  0.1014
  H  H39  1  0.311100  0.549400  0.112100  1.0  0.1298
  H  H40  1  0.198600  0.534100  0.107100  1.0  0.1024
  H  H41  1  0.562700  0.450600  0.761700  1.0  0.1294
  H  H42  1  0.573000  0.465900  0.664500  1.0  0.1033
  H  H43  1  0.688900  0.801000  0.238300  1.0  0.1329
  H  H44  1  0.801400  0.908500  0.335500  1.0  0.1045
  H  H45  1  0.450600  0.761700  0.562700  1.0  0.1305
  H  H46  1  0.465900  0.664500  0.573000  1.0  0.1022
  H  H47  1  0.801000  0.238300  0.688900  1.0  0.1312
  H  H48  1  0.908500  0.335500  0.801400  1.0  0.1024
  H  H49  1  0.199000  0.887900  0.437300  1.0  0.1287
  H  H50  1  0.091500  0.892900  0.427000  1.0  0.1036
  H  H51  1  0.549400  0.112100  0.311100  1.0  0.1282
  H  H52  1  0.534100  0.107100  0.198600  1.0  0.1028
  H  H53  1  0.112100  0.311100  0.549400  1.0  0.1289
  H  H54  1  0.107100  0.198600  0.534100  1.0  0.1023
  H  H55  1  0.887900  0.437300  0.199000  1.0  0.1277
  H  H56  1  0.892900  0.427000  0.091500  1.0  0.1017
  H  H57  1  0.238300  0.688900  0.801000  1.0  0.131
  H  H58  1  0.335500  0.801400  0.908500  1.0  0.1039
  H  H59  1  0.761700  0.562700  0.450600  1.0  0.1301
  H  H60  1  0.664500  0.573000  0.465900  1.0  0.1031
  H  H61  1  0.199000  0.437300  0.887900  1.0  0.128
  H  H62  1  0.091500  0.427000  0.892900  1.0  0.1027
  H  H63  1  0.549400  0.311100  0.112100  1.0  0.1292
  H  H64  1  0.534100  0.198600  0.107100  1.0  0.1025
  H  H65  1  0.450600  0.562700  0.761700  1.0  0.1291
  H  H66  1  0.465900  0.573000  0.664500  1.0  0.1024
  H  H67  1  0.801000  0.688900  0.238300  1.0  0.1306
  H  H68  1  0.908500  0.801400  0.335500  1.0  0.1036
  H  H69  1  0.761700  0.450600  0.562700  1.0  0.1307
  H  H70  1  0.664500  0.465900  0.573000  1.0  0.1027
  H  H71  1  0.238300  0.801000  0.688900  1.0  0.1311
  H  H72  1  0.335500  0.908500  0.801400  1.0  0.1033
  H  H73  1  0.887900  0.199000  0.437300  1.0  0.1299
  H  H74  1  0.892900  0.091500  0.427000  1.0  0.1021
  H  H75  1  0.112100  0.549400  0.311100  1.0  0.1286
  H  H76  1  0.107100  0.534100  0.198600  1.0  0.1032
  H  H77  1  0.311100  0.112100  0.549400  1.0  0.1296
  H  H78  1  0.198600  0.107100  0.534100  1.0  0.1041
  H  H79  1  0.437300  0.887900  0.199000  1.0  0.1273
  H  H80  1  0.427000  0.892900  0.091500  1.0  0.102
  H  H81  1  0.688900  0.238300  0.801000  1.0  0.1312
  H  H82  1  0.801400  0.335500  0.908500  1.0  0.1026
  H  H83  1  0.562700  0.761700  0.450600  1.0  0.1305
  H  H84  1  0.573000  0.664500  0.465900  1.0  0.1017
  H  H85  1  0.562700  0.801000  0.112100  1.0  0.1283
  H  H86  1  0.573000  0.908500  0.107100  1.0  0.1009
  H  H87  1  0.688900  0.450600  0.887900  1.0  0.1294
  H  H88  1  0.801400  0.465900  0.892900  1.0  0.1023
  H  H89  1  0.437300  0.549400  0.238300  1.0  0.1299
  H  H90  1  0.427000  0.534100  0.335500  1.0  0.1026
  H  H91  1  0.311100  0.199000  0.761700  1.0  0.1307
  H  H92  1  0.198600  0.091500  0.664500  1.0  0.1041
  H  H93  1  0.549400  0.238300  0.437300  1.0  0.1305
  H  H94  1  0.534100  0.335500  0.427000  1.0  0.102
  H  H95  1  0.199000  0.761700  0.311100  1.0  0.1309
  H  H96  1  0.091500  0.664500  0.198600  1.0  0.1027
  H  H97  1  0.801000  0.112100  0.562700  1.0  0.1284
  H  H98  1  0.908500  0.107100  0.573000  1.0  0.1039
  H  H99  1  0.450600  0.887900  0.688900  1.0  0.1285
  H  H100  1  0.465900  0.892900  0.801400  1.0  0.1026
  H  H101  1  0.887900  0.688900  0.450600  1.0  0.1282
  H  H102  1  0.892900  0.801400  0.465900  1.0  0.1029
  H  H103  1  0.112100  0.562700  0.801000  1.0  0.1281
  H  H104  1  0.107100  0.573000  0.908500  1.0  0.1019
  H  H105  1  0.761700  0.311100  0.199000  1.0  0.1309
  H  H106  1  0.664500  0.198600  0.091500  1.0  0.1045
  H  H107  1  0.238300  0.437300  0.549400  1.0  0.1301
  H  H108  1  0.335500  0.427000  0.534100  1.0  0.1026
  C  C109  1  0.800200  0.543700  0.067100  1.0  -0.1063
  C  C110  1  0.865200  0.554700  0.063700  1.0  -0.0521
  C  C111  1  0.476600  0.733100  0.932900  1.0  -0.0984
  C  C112  1  0.491000  0.801500  0.936300  1.0  -0.0482
  C  C113  1  0.523400  0.456300  0.256500  1.0  -0.1049
  C  C114  1  0.509000  0.445300  0.310500  1.0  -0.0506
  C  C115  1  0.199800  0.266900  0.743500  1.0  -0.1011
  C  C116  1  0.134800  0.198500  0.689500  1.0  -0.0534
  C  C117  1  0.256500  0.523400  0.456300  1.0  -0.102
  C  C118  1  0.310500  0.509000  0.445300  1.0  -0.0486
  C  C119  1  0.743500  0.199800  0.266900  1.0  -0.1007
  C  C120  1  0.689500  0.134800  0.198500  1.0  -0.0484
  C  C121  1  0.067100  0.800200  0.543700  1.0  -0.1037
  C  C122  1  0.063700  0.865200  0.554700  1.0  -0.0519
  C  C123  1  0.932900  0.476600  0.733100  1.0  -0.0999
  C  C124  1  0.936300  0.491000  0.801500  1.0  -0.0479
  C  C125  1  0.733100  0.932900  0.476600  1.0  -0.1008
  C  C126  1  0.801500  0.936300  0.491000  1.0  -0.0537
  C  C127  1  0.543700  0.067100  0.800200  1.0  -0.1036
  C  C128  1  0.554700  0.063700  0.865200  1.0  -0.0499
  C  C129  1  0.266900  0.743500  0.199800  1.0  -0.1023
  C  C130  1  0.198500  0.689500  0.134800  1.0  -0.052
  C  C131  1  0.456300  0.256500  0.523400  1.0  -0.1039
  C  C132  1  0.445300  0.310500  0.509000  1.0  -0.0515
  C  C133  1  0.456300  0.199800  0.932900  1.0  -0.1009
  C  C134  1  0.445300  0.134800  0.936300  1.0  -0.0495
  C  C135  1  0.266900  0.523400  0.067100  1.0  -0.1
  C  C136  1  0.198500  0.509000  0.063700  1.0  -0.0454
  C  C137  1  0.543700  0.476600  0.743500  1.0  -0.1028
  C  C138  1  0.554700  0.491000  0.689500  1.0  -0.0489
  C  C139  1  0.733100  0.800200  0.256500  1.0  -0.1027
  C  C140  1  0.801500  0.865200  0.310500  1.0  -0.0502
  C  C141  1  0.476600  0.743500  0.543700  1.0  -0.1058
  C  C142  1  0.491000  0.689500  0.554700  1.0  -0.053
  C  C143  1  0.800200  0.256500  0.733100  1.0  -0.1004
  C  C144  1  0.865200  0.310500  0.801500  1.0  -0.0514
  C  C145  1  0.199800  0.932900  0.456300  1.0  -0.1043
  C  C146  1  0.134800  0.936300  0.445300  1.0  -0.0553
  C  C147  1  0.523400  0.067100  0.266900  1.0  -0.1004
  C  C148  1  0.509000  0.063700  0.198500  1.0  -0.048
  C  C149  1  0.067100  0.266900  0.523400  1.0  -0.0997
  C  C150  1  0.063700  0.198500  0.509000  1.0  -0.0494
  C  C151  1  0.932900  0.456300  0.199800  1.0  -0.1063
  C  C152  1  0.936300  0.445300  0.134800  1.0  -0.0499
  C  C153  1  0.256500  0.733100  0.800200  1.0  -0.1011
  C  C154  1  0.310500  0.801500  0.865200  1.0  -0.0497
  C  C155  1  0.743500  0.543700  0.476600  1.0  -0.1043
  C  C156  1  0.689500  0.554700  0.491000  1.0  -0.0517
  C  C157  1  0.199800  0.456300  0.932900  1.0  -0.103
  C  C158  1  0.134800  0.445300  0.936300  1.0  -0.0531
  C  C159  1  0.523400  0.266900  0.067100  1.0  -0.1009
  C  C160  1  0.509000  0.198500  0.063700  1.0  -0.0481
  C  C161  1  0.476600  0.543700  0.743500  1.0  -0.1074
  C  C162  1  0.491000  0.554700  0.689500  1.0  -0.0496
  C  C163  1  0.800200  0.733100  0.256500  1.0  -0.1008
  C  C164  1  0.865200  0.801500  0.310500  1.0  -0.0513
  C  C165  1  0.743500  0.476600  0.543700  1.0  -0.103
  C  C166  1  0.689500  0.491000  0.554700  1.0  -0.046
  C  C167  1  0.256500  0.800200  0.733100  1.0  -0.0988
  C  C168  1  0.310500  0.865200  0.801500  1.0  -0.0496
  C  C169  1  0.932900  0.199800  0.456300  1.0  -0.1058
  C  C170  1  0.936300  0.134800  0.445300  1.0  -0.052
  C  C171  1  0.067100  0.523400  0.266900  1.0  -0.1
  C  C172  1  0.063700  0.509000  0.198500  1.0  -0.0472
  C  C173  1  0.266900  0.067100  0.523400  1.0  -0.101
  C  C174  1  0.198500  0.063700  0.509000  1.0  -0.0527
  C  C175  1  0.456300  0.932900  0.199800  1.0  -0.1034
  C  C176  1  0.445300  0.936300  0.134800  1.0  -0.0509
  C  C177  1  0.733100  0.256500  0.800200  1.0  -0.1024
  C  C178  1  0.801500  0.310500  0.865200  1.0  -0.0526
  C  C179  1  0.543700  0.743500  0.476600  1.0  -0.1035
  C  C180  1  0.554700  0.689500  0.491000  1.0  -0.0505
  C  C181  1  0.543700  0.800200  0.067100  1.0  -0.1028
  C  C182  1  0.554700  0.865200  0.063700  1.0  -0.0481
  C  C183  1  0.733100  0.476600  0.932900  1.0  -0.099
  C  C184  1  0.801500  0.491000  0.936300  1.0  -0.0483
  C  C185  1  0.456300  0.523400  0.256500  1.0  -0.1034
  C  C186  1  0.445300  0.509000  0.310500  1.0  -0.0495
  C  C187  1  0.266900  0.199800  0.743500  1.0  -0.1009
  C  C188  1  0.198500  0.134800  0.689500  1.0  -0.051
  C  C189  1  0.523400  0.256500  0.456300  1.0  -0.1041
  C  C190  1  0.509000  0.310500  0.445300  1.0  -0.052
  C  C191  1  0.199800  0.743500  0.266900  1.0  -0.1038
  C  C192  1  0.134800  0.689500  0.198500  1.0  -0.0519
  C  C193  1  0.800200  0.067100  0.543700  1.0  -0.1051
  C  C194  1  0.865200  0.063700  0.554700  1.0  -0.0548
  C  C195  1  0.476600  0.932900  0.733100  1.0  -0.0991
  C  C196  1  0.491000  0.936300  0.801500  1.0  -0.0486
  C  C197  1  0.932900  0.733100  0.476600  1.0  -0.0997
  C  C198  1  0.936300  0.801500  0.491000  1.0  -0.0516
  C  C199  1  0.067100  0.543700  0.800200  1.0  -0.1062
  C  C200  1  0.063700  0.554700  0.865200  1.0  -0.0498
  C  C201  1  0.743500  0.266900  0.199800  1.0  -0.1002
  C  C202  1  0.689500  0.198500  0.134800  1.0  -0.0484
  C  C203  1  0.256500  0.456300  0.523400  1.0  -0.104
  C  C204  1  0.310500  0.445300  0.509000  1.0  -0.0526
  C  C205  1  0.664000  0.480000  0.000000  1.0  0.7211
  C  C206  1  0.735100  0.503100  0.000000  1.0  -0.1189
  C  C207  1  0.867600  0.539800  0.000000  1.0  -0.0622
  C  C208  1  0.938400  0.557000  0.000000  1.0  0.4613
  C  C209  1  0.480000  0.664000  0.000000  1.0  0.7229
  C  C210  1  0.503100  0.735100  0.000000  1.0  -0.1185
  C  C211  1  0.539800  0.867600  0.000000  1.0  -0.0607
  C  C212  1  0.557000  0.938400  0.000000  1.0  0.4593
  C  C213  1  0.520000  0.520000  0.184000  1.0  0.7202
  C  C214  1  0.496900  0.496900  0.232000  1.0  -0.1246
  C  C215  1  0.460200  0.460200  0.327800  1.0  -0.0624
  C  C216  1  0.443000  0.443000  0.381400  1.0  0.4632
  C  C217  1  0.336000  0.336000  0.816000  1.0  0.7156
  C  C218  1  0.264900  0.264900  0.768000  1.0  -0.1227
  C  C219  1  0.132400  0.132400  0.672200  1.0  -0.0474
  C  C220  1  0.061600  0.061600  0.618600  1.0  0.4688
  C  C221  1  0.184000  0.520000  0.520000  1.0  0.7182
  C  C222  1  0.232000  0.496900  0.496900  1.0  -0.1235
  C  C223  1  0.327800  0.460200  0.460200  1.0  -0.0627
  C  C224  1  0.381400  0.443000  0.443000  1.0  0.4661
  C  C225  1  0.816000  0.336000  0.336000  1.0  0.7175
  C  C226  1  0.768000  0.264900  0.264900  1.0  -0.1232
  C  C227  1  0.672200  0.132400  0.132400  1.0  -0.0559
  C  C228  1  0.618600  0.061600  0.061600  1.0  0.4652
  C  C229  1  0.000000  0.664000  0.480000  1.0  0.7209
  C  C230  1  0.000000  0.735100  0.503100  1.0  -0.118
  C  C231  1  0.000000  0.867600  0.539800  1.0  -0.055
  C  C232  1  0.000000  0.938400  0.557000  1.0  0.4659
  C  C233  1  0.000000  0.480000  0.664000  1.0  0.7231
  C  C234  1  0.000000  0.503100  0.735100  1.0  -0.1193
  C  C235  1  0.000000  0.539800  0.867600  1.0  -0.0624
  C  C236  1  0.000000  0.557000  0.938400  1.0  0.4597
  C  C237  1  0.664000  0.000000  0.480000  1.0  0.7214
  C  C238  1  0.735100  0.000000  0.503100  1.0  -0.1197
  C  C239  1  0.867600  0.000000  0.539800  1.0  -0.0571
  C  C240  1  0.938400  0.000000  0.557000  1.0  0.4664
  C  C241  1  0.480000  0.000000  0.664000  1.0  0.7231
  C  C242  1  0.503100  0.000000  0.735100  1.0  -0.1208
  C  C243  1  0.539800  0.000000  0.867600  1.0  -0.0589
  C  C244  1  0.557000  0.000000  0.938400  1.0  0.4585
  C  C245  1  0.336000  0.816000  0.336000  1.0  0.7163
  C  C246  1  0.264900  0.768000  0.264900  1.0  -0.1215
  C  C247  1  0.132400  0.672200  0.132400  1.0  -0.0577
  C  C248  1  0.061600  0.618600  0.061600  1.0  0.4655
  C  C249  1  0.520000  0.184000  0.520000  1.0  0.7182
  C  C250  1  0.496900  0.232000  0.496900  1.0  -0.1226
  C  C251  1  0.460200  0.327800  0.460200  1.0  -0.0626
  C  C252  1  0.443000  0.381400  0.443000  1.0  0.4622
  C  C253  1  0.520000  0.336000  0.000000  1.0  0.7229
  C  C254  1  0.496900  0.264900  0.000000  1.0  -0.1184
  C  C255  1  0.460200  0.132400  0.000000  1.0  -0.0624
  C  C256  1  0.443000  0.061600  0.000000  1.0  0.4614
  C  C257  1  0.336000  0.520000  0.000000  1.0  0.7223
  C  C258  1  0.264900  0.496900  0.000000  1.0  -0.1172
  C  C259  1  0.132400  0.460200  0.000000  1.0  -0.0619
  C  C260  1  0.061600  0.443000  0.000000  1.0  0.4605
  C  C261  1  0.480000  0.480000  0.816000  1.0  0.7211
  C  C262  1  0.503100  0.503100  0.768000  1.0  -0.124
  C  C263  1  0.539800  0.539800  0.672200  1.0  -0.0612
  C  C264  1  0.557000  0.557000  0.618600  1.0  0.4639
  C  C265  1  0.664000  0.664000  0.184000  1.0  0.7159
  C  C266  1  0.735100  0.735100  0.232000  1.0  -0.123
  C  C267  1  0.867600  0.867600  0.327800  1.0  -0.0517
  C  C268  1  0.938400  0.938400  0.381400  1.0  0.4637
  C  C269  1  0.480000  0.816000  0.480000  1.0  0.718
  C  C270  1  0.503100  0.768000  0.503100  1.0  -0.1214
  C  C271  1  0.539800  0.672200  0.539800  1.0  -0.0617
  C  C272  1  0.557000  0.618600  0.557000  1.0  0.4643
  C  C273  1  0.664000  0.184000  0.664000  1.0  0.7158
  C  C274  1  0.735100  0.232000  0.735100  1.0  -0.1223
  C  C275  1  0.867600  0.327800  0.867600  1.0  -0.0567
  C  C276  1  0.938400  0.381400  0.938400  1.0  0.465
  C  C277  1  0.336000  0.000000  0.520000  1.0  0.7233
  C  C278  1  0.264900  0.000000  0.496900  1.0  -0.1184
  C  C279  1  0.132400  0.000000  0.460200  1.0  -0.0605
  C  C280  1  0.061600  0.000000  0.443000  1.0  0.4606
  C  C281  1  0.520000  0.000000  0.336000  1.0  0.724
  C  C282  1  0.496900  0.000000  0.264900  1.0  -0.122
  C  C283  1  0.460200  0.000000  0.132400  1.0  -0.0618
  C  C284  1  0.443000  0.000000  0.061600  1.0  0.4606
  C  C285  1  0.000000  0.336000  0.520000  1.0  0.7206
  C  C286  1  0.000000  0.264900  0.496900  1.0  -0.1167
  C  C287  1  0.000000  0.132400  0.460200  1.0  -0.0584
  C  C288  1  0.000000  0.061600  0.443000  1.0  0.4627
  C  C289  1  0.000000  0.520000  0.336000  1.0  0.7241
  C  C290  1  0.000000  0.496900  0.264900  1.0  -0.1193
  C  C291  1  0.000000  0.460200  0.132400  1.0  -0.0625
  C  C292  1  0.000000  0.443000  0.061600  1.0  0.4609
  C  C293  1  0.184000  0.664000  0.664000  1.0  0.7184
  C  C294  1  0.232000  0.735100  0.735100  1.0  -0.1242
  C  C295  1  0.327800  0.867600  0.867600  1.0  -0.0571
  C  C296  1  0.381400  0.938400  0.938400  1.0  0.4655
  C  C297  1  0.816000  0.480000  0.480000  1.0  0.7191
  C  C298  1  0.768000  0.503100  0.503100  1.0  -0.1225
  C  C299  1  0.672200  0.539800  0.539800  1.0  -0.0614
  C  C300  1  0.618600  0.557000  0.557000  1.0  0.4625
  N  N301  1  0.000000  0.601100  0.064700  1.0  -0.4905
  N  N302  1  0.536400  0.935300  0.935300  1.0  -0.4911
  N  N303  1  0.463600  0.398900  0.398900  1.0  -0.4887
  N  N304  1  0.000000  0.064700  0.601100  1.0  -0.4865
  N  N305  1  0.398900  0.463600  0.398900  1.0  -0.4901
  N  N306  1  0.601100  0.000000  0.064700  1.0  -0.49
  N  N307  1  0.064700  0.000000  0.601100  1.0  -0.4872
  N  N308  1  0.935300  0.536400  0.935300  1.0  -0.4916
  N  N309  1  0.935300  0.935300  0.536400  1.0  -0.4895
  N  N310  1  0.601100  0.064700  0.000000  1.0  -0.4895
  N  N311  1  0.064700  0.601100  0.000000  1.0  -0.4886
  N  N312  1  0.398900  0.398900  0.463600  1.0  -0.4941
  N  N313  1  0.398900  0.000000  0.935300  1.0  -0.4918
  N  N314  1  0.064700  0.463600  0.064700  1.0  -0.4943
  N  N315  1  0.601100  0.536400  0.601100  1.0  -0.4929
  N  N316  1  0.935300  0.000000  0.398900  1.0  -0.4861
  N  N317  1  0.536400  0.601100  0.601100  1.0  -0.491
  N  N318  1  0.000000  0.398900  0.935300  1.0  -0.4922
  N  N319  1  0.000000  0.935300  0.398900  1.0  -0.4881
  N  N320  1  0.463600  0.064700  0.064700  1.0  -0.495
  N  N321  1  0.064700  0.064700  0.463600  1.0  -0.4887
  N  N322  1  0.935300  0.398900  0.000000  1.0  -0.4908
  N  N323  1  0.398900  0.935300  0.000000  1.0  -0.4928
  N  N324  1  0.601100  0.601100  0.536400  1.0  -0.4948
  O  O325  1  0.663000  0.499200  0.056800  1.0  -0.5927
  O  O326  1  0.442400  0.606200  0.943200  1.0  -0.5878
  O  O327  1  0.557600  0.500800  0.163800  1.0  -0.5894
  O  O328  1  0.337000  0.393800  0.836200  1.0  -0.5905
  O  O329  1  0.163800  0.557600  0.500800  1.0  -0.5871
  O  O330  1  0.836200  0.337000  0.393800  1.0  -0.59
  O  O331  1  0.056800  0.663000  0.499200  1.0  -0.5946
  O  O332  1  0.943200  0.442400  0.606200  1.0  -0.5878
  O  O333  1  0.606200  0.943200  0.442400  1.0  -0.5874
  O  O334  1  0.499200  0.056800  0.663000  1.0  -0.5948
  O  O335  1  0.393800  0.836200  0.337000  1.0  -0.5897
  O  O336  1  0.500800  0.163800  0.557600  1.0  -0.591
  O  O337  1  0.500800  0.337000  0.943200  1.0  -0.5916
  O  O338  1  0.393800  0.557600  0.056800  1.0  -0.5897
  O  O339  1  0.499200  0.442400  0.836200  1.0  -0.591
  O  O340  1  0.606200  0.663000  0.163800  1.0  -0.5896
  O  O341  1  0.442400  0.836200  0.499200  1.0  -0.5893
  O  O342  1  0.663000  0.163800  0.606200  1.0  -0.5878
  O  O343  1  0.337000  0.943200  0.500800  1.0  -0.5943
  O  O344  1  0.557600  0.056800  0.393800  1.0  -0.5904
  O  O345  1  0.056800  0.393800  0.557600  1.0  -0.5907
  O  O346  1  0.943200  0.500800  0.337000  1.0  -0.5924
  O  O347  1  0.163800  0.606200  0.663000  1.0  -0.5894
  O  O348  1  0.836200  0.499200  0.442400  1.0  -0.5894
  O  O349  1  0.337000  0.500800  0.943200  1.0  -0.5911
  O  O350  1  0.557600  0.393800  0.056800  1.0  -0.5882
  O  O351  1  0.442400  0.499200  0.836200  1.0  -0.5895
  O  O352  1  0.663000  0.606200  0.163800  1.0  -0.5898
  O  O353  1  0.836200  0.442400  0.499200  1.0  -0.5891
  O  O354  1  0.163800  0.663000  0.606200  1.0  -0.5876
  O  O355  1  0.943200  0.337000  0.500800  1.0  -0.5939
  O  O356  1  0.056800  0.557600  0.393800  1.0  -0.5892
  O  O357  1  0.393800  0.056800  0.557600  1.0  -0.5902
  O  O358  1  0.500800  0.943200  0.337000  1.0  -0.5927
  O  O359  1  0.606200  0.163800  0.663000  1.0  -0.588
  O  O360  1  0.499200  0.836200  0.442400  1.0  -0.5872
  O  O361  1  0.499200  0.663000  0.056800  1.0  -0.5935
  O  O362  1  0.606200  0.442400  0.943200  1.0  -0.5873
  O  O363  1  0.500800  0.557600  0.163800  1.0  -0.591
  O  O364  1  0.393800  0.337000  0.836200  1.0  -0.5911
  O  O365  1  0.557600  0.163800  0.500800  1.0  -0.591
  O  O366  1  0.337000  0.836200  0.393800  1.0  -0.5906
  O  O367  1  0.663000  0.056800  0.499200  1.0  -0.5959
  O  O368  1  0.442400  0.943200  0.606200  1.0  -0.5887
  O  O369  1  0.943200  0.606200  0.442400  1.0  -0.5883
  O  O370  1  0.056800  0.499200  0.663000  1.0  -0.5944
  O  O371  1  0.836200  0.393800  0.337000  1.0  -0.5924
  O  O372  1  0.163800  0.500800  0.557600  1.0  -0.5904
