# generated using pymatgen
data_Ni2H14C26N2O9
_symmetry_space_group_name_H-M   'P 1'
_cell_length_a   10.76470000
_cell_length_b   10.76470000
_cell_length_c   26.75780000
_cell_angle_alpha   90.00000000
_cell_angle_beta   90.00000000
_cell_angle_gamma   120.00000000
_symmetry_Int_Tables_number   1
_chemical_formula_structural   Ni2H14C26N2O9
_chemical_formula_sum   'Ni6 H42 C78 N6 O27'
_cell_volume   2685.25106227
_cell_formula_units_Z   3
loop_
 _symmetry_equiv_pos_site_id
 _symmetry_equiv_pos_as_xyz
  1  'x, y, z'
loop_
 _atom_site_type_symbol
 _atom_site_label
 _atom_site_symmetry_multiplicity
 _atom_site_fract_x
 _atom_site_fract_y
 _atom_site_fract_z
 _atom_site_occupancy
 _atom_site_charge
  Ni  Ni1  1  0.218770  0.051080  0.866680  1.0  0.8626
  Ni  Ni2  1  0.832310  0.781230  0.200010  1.0  0.8671
  Ni  Ni3  1  0.948920  0.167690  0.533350  1.0  0.862
  Ni  Ni4  1  0.167690  0.948920  0.133320  1.0  0.8675
  Ni  Ni5  1  0.051080  0.218770  0.799990  1.0  0.8655
  Ni  Ni6  1  0.781230  0.832310  0.466650  1.0  0.865
  H  H7  1  0.015000  0.467200  0.828900  1.0  0.09
  H  H8  1  0.304400  0.817000  0.757000  1.0  0.1192
  H  H9  1  0.205800  0.425200  0.711600  1.0  0.0905
  H  H10  1  0.521400  0.872900  0.723600  1.0  0.1198
  H  H11  1  0.686800  0.977200  0.660900  1.0  0.1085
  H  H12  1  0.446000  0.645200  0.571000  1.0  0.0961
  H  H13  1  0.278400  0.539000  0.634000  1.0  0.1183
  H  H14  1  0.452200  0.985000  0.162230  1.0  0.0901
  H  H15  1  0.512600  0.695600  0.090330  1.0  0.1196
  H  H16  1  0.219400  0.794200  0.044930  1.0  0.0905
  H  H17  1  0.351500  0.478600  0.056930  1.0  0.1205
  H  H18  1  0.290400  0.313200  0.994230  1.0  0.1097
  H  H19  1  0.199200  0.554000  0.904330  1.0  0.096
  H  H20  1  0.260600  0.721600  0.967330  1.0  0.1184
  H  H21  1  0.532800  0.547800  0.495570  1.0  0.0906
  H  H22  1  0.183000  0.487400  0.423670  1.0  0.1207
  H  H23  1  0.574800  0.780600  0.378270  1.0  0.0899
  H  H24  1  0.127100  0.648500  0.390270  1.0  0.1198
  H  H25  1  0.022800  0.709600  0.327570  1.0  0.1109
  H  H26  1  0.354800  0.800800  0.237670  1.0  0.0954
  H  H27  1  0.461000  0.739400  0.300670  1.0  0.1197
  H  H28  1  0.547800  0.532800  0.171100  1.0  0.0896
  H  H29  1  0.487400  0.183000  0.243000  1.0  0.1196
  H  H30  1  0.780600  0.574800  0.288400  1.0  0.0907
  H  H31  1  0.648500  0.127100  0.276400  1.0  0.1201
  H  H32  1  0.709600  0.022800  0.339100  1.0  0.1084
  H  H33  1  0.800800  0.354800  0.429000  1.0  0.0961
  H  H34  1  0.739400  0.461000  0.366000  1.0  0.118
  H  H35  1  0.467200  0.015000  0.837770  1.0  0.0899
  H  H36  1  0.817000  0.304400  0.909670  1.0  0.1188
  H  H37  1  0.425200  0.205800  0.955070  1.0  0.0907
  H  H38  1  0.872900  0.521400  0.943070  1.0  0.1204
  H  H39  1  0.977200  0.686800  0.005770  1.0  0.1093
  H  H40  1  0.645200  0.446000  0.095670  1.0  0.0962
  H  H41  1  0.539000  0.278400  0.032670  1.0  0.1181
  H  H42  1  0.985000  0.452200  0.504430  1.0  0.0898
  H  H43  1  0.695600  0.512600  0.576330  1.0  0.1194
  H  H44  1  0.794200  0.219400  0.621730  1.0  0.0904
  H  H45  1  0.478600  0.351500  0.609730  1.0  0.1198
  H  H46  1  0.313200  0.290400  0.672430  1.0  0.1102
  H  H47  1  0.554000  0.199200  0.762330  1.0  0.0957
  H  H48  1  0.721600  0.260600  0.699330  1.0  0.1194
  C  C49  1  0.081200  0.508800  0.803090  1.0  0.1846
  C  C50  1  0.153100  0.655700  0.798600  1.0  -0.1985
  C  C51  1  0.252100  0.717700  0.760230  1.0  -0.0595
  C  C52  1  0.273200  0.631900  0.726670  1.0  0.0397
  C  C53  1  0.194000  0.484200  0.734190  1.0  0.1914
  C  C54  1  0.379900  0.695000  0.685320  1.0  0.047
  C  C55  1  0.505000  0.827100  0.692810  1.0  -0.1435
  C  C56  1  0.604000  0.889800  0.655080  1.0  -0.0257
  C  C57  1  0.583000  0.825600  0.608630  1.0  -0.1183
  C  C58  1  0.460500  0.691900  0.601520  1.0  -0.0257
  C  C59  1  0.359800  0.627700  0.639450  1.0  -0.1083
  C  C60  1  0.130800  0.749000  0.836030  1.0  0.7371
  C  C61  1  0.689000  0.898070  0.566980  1.0  0.7412
  C  C62  1  0.427600  0.918800  0.136420  1.0  0.1851
  C  C63  1  0.502600  0.846900  0.131930  1.0  -0.2019
  C  C64  1  0.465600  0.747900  0.093560  1.0  -0.0595
  C  C65  1  0.358700  0.726800  0.060000  1.0  0.0403
  C  C66  1  0.290200  0.806000  0.067520  1.0  0.1923
  C  C67  1  0.315100  0.620100  0.018650  1.0  0.046
  C  C68  1  0.322100  0.495000  0.026140  1.0  -0.1426
  C  C69  1  0.285800  0.396000  0.988410  1.0  -0.0238
  C  C70  1  0.242600  0.417000  0.941960  1.0  -0.1188
  C  C71  1  0.231400  0.539500  0.934850  1.0  -0.0253
  C  C72  1  0.267900  0.640200  0.972780  1.0  -0.108
  C  C73  1  0.618200  0.869200  0.169360  1.0  0.7365
  C  C74  1  0.209070  0.311000  0.900310  1.0  0.7422
  C  C75  1  0.491200  0.572400  0.469760  1.0  0.1865
  C  C76  1  0.344300  0.497400  0.465270  1.0  -0.198
  C  C77  1  0.282300  0.534400  0.426900  1.0  -0.0594
  C  C78  1  0.368100  0.641300  0.393340  1.0  0.0444
  C  C79  1  0.515800  0.709800  0.400860  1.0  0.1909
  C  C80  1  0.305000  0.684900  0.351990  1.0  0.0477
  C  C81  1  0.172900  0.677900  0.359480  1.0  -0.1442
  C  C82  1  0.110200  0.714200  0.321750  1.0  -0.0242
  C  C83  1  0.174400  0.757400  0.275300  1.0  -0.1206
  C  C84  1  0.308100  0.768600  0.268190  1.0  -0.025
  C  C85  1  0.372300  0.732100  0.306120  1.0  -0.106
  C  C86  1  0.251000  0.381800  0.502700  1.0  0.7364
  C  C87  1  0.101930  0.790930  0.233650  1.0  0.7414
  C  C88  1  0.572400  0.491200  0.196910  1.0  0.1847
  C  C89  1  0.497400  0.344300  0.201400  1.0  -0.2006
  C  C90  1  0.534400  0.282300  0.239770  1.0  -0.058
  C  C91  1  0.641300  0.368100  0.273330  1.0  0.0387
  C  C92  1  0.709800  0.515800  0.265810  1.0  0.191
  C  C93  1  0.684900  0.305000  0.314680  1.0  0.0473
  C  C94  1  0.677900  0.172900  0.307190  1.0  -0.1441
  C  C95  1  0.714200  0.110200  0.344920  1.0  -0.0266
  C  C96  1  0.757400  0.174400  0.391370  1.0  -0.1186
  C  C97  1  0.768600  0.308100  0.398480  1.0  -0.025
  C  C98  1  0.732100  0.372300  0.360550  1.0  -0.107
  C  C99  1  0.381800  0.251000  0.163970  1.0  0.7349
  C  C100  1  0.790930  0.101930  0.433020  1.0  0.7422
  C  C101  1  0.508800  0.081200  0.863580  1.0  0.1851
  C  C102  1  0.655700  0.153100  0.868070  1.0  -0.2019
  C  C103  1  0.717700  0.252100  0.906440  1.0  -0.0589
  C  C104  1  0.631900  0.273200  0.940000  1.0  0.0397
  C  C105  1  0.484200  0.194000  0.932480  1.0  0.1917
  C  C106  1  0.695000  0.379900  0.981350  1.0  0.0464
  C  C107  1  0.827100  0.505000  0.973860  1.0  -0.1433
  C  C108  1  0.889800  0.604000  0.011590  1.0  -0.024
  C  C109  1  0.825600  0.583000  0.058040  1.0  -0.1187
  C  C110  1  0.691900  0.460500  0.065150  1.0  -0.0259
  C  C111  1  0.627700  0.359800  0.027220  1.0  -0.1069
  C  C112  1  0.749000  0.130800  0.830640  1.0  0.7349
  C  C113  1  0.898070  0.689000  0.099690  1.0  0.7422
  C  C114  1  0.918800  0.427600  0.530240  1.0  0.1855
  C  C115  1  0.846900  0.502600  0.534730  1.0  -0.1964
  C  C116  1  0.747900  0.465600  0.573100  1.0  -0.0609
  C  C117  1  0.726800  0.358700  0.606660  1.0  0.0435
  C  C118  1  0.806000  0.290200  0.599140  1.0  0.1899
  C  C119  1  0.620100  0.315100  0.648010  1.0  0.0481
  C  C120  1  0.495000  0.322100  0.640520  1.0  -0.1439
  C  C121  1  0.396000  0.285800  0.678250  1.0  -0.0247
  C  C122  1  0.417000  0.242600  0.724700  1.0  -0.1206
  C  C123  1  0.539500  0.231400  0.731810  1.0  -0.0257
  C  C124  1  0.640200  0.267900  0.693880  1.0  -0.1064
  C  C125  1  0.869200  0.618200  0.497300  1.0  0.7353
  C  C126  1  0.311000  0.209070  0.766350  1.0  0.7419
  N  N127  1  0.101580  0.422100  0.772190  1.0  -0.3135
  N  N128  1  0.320520  0.898420  0.105520  1.0  -0.3123
  N  N129  1  0.577900  0.679480  0.438860  1.0  -0.3147
  N  N130  1  0.679480  0.577900  0.227810  1.0  -0.3142
  N  N131  1  0.422100  0.101580  0.894480  1.0  -0.3148
  N  N132  1  0.898420  0.320520  0.561140  1.0  -0.3156
  O  O133  1  0.052700  0.687160  0.872530  1.0  -0.5365
  O  O134  1  0.196860  0.880120  0.826630  1.0  -0.5857
  O  O135  1  0.795760  0.016740  0.577110  1.0  -0.5866
  O  O136  1  0.661590  0.834240  0.525460  1.0  -0.6032
  O  O137  1  0.634460  0.947300  0.205860  1.0  -0.539
  O  O138  1  0.683260  0.803140  0.159960  1.0  -0.5835
  O  O139  1  0.220980  0.204240  0.910440  1.0  -0.5867
  O  O140  1  0.172650  0.338410  0.858790  1.0  -0.6049
  O  O141  1  0.312840  0.365540  0.539200  1.0  -0.5338
  O  O142  1  0.119880  0.316740  0.493300  1.0  -0.5824
  O  O143  1  0.983260  0.779020  0.243780  1.0  -0.5856
  O  O144  1  0.165760  0.827350  0.192130  1.0  -0.6053
  O  O145  1  0.365540  0.312840  0.127470  1.0  -0.532
  O  O146  1  0.316740  0.119880  0.173370  1.0  -0.5852
  O  O147  1  0.779020  0.983260  0.422890  1.0  -0.5869
  O  O148  1  0.827350  0.165760  0.474540  1.0  -0.6047
  O  O149  1  0.687160  0.052700  0.794140  1.0  -0.5332
  O  O150  1  0.880120  0.196860  0.840040  1.0  -0.5836
  O  O151  1  0.016740  0.795760  0.089560  1.0  -0.5866
  O  O152  1  0.834240  0.661590  0.141210  1.0  -0.6065
  O  O153  1  0.947300  0.634460  0.460800  1.0  -0.5322
  O  O154  1  0.803140  0.683260  0.506700  1.0  -0.5829
  O  O155  1  0.204240  0.220980  0.756220  1.0  -0.5855
  O  O156  1  0.338410  0.172650  0.807870  1.0  -0.6065
  O  O157  1  0.023710  0.023710  0.833330  1.0  -0.4969
  O  O158  1  0.000000  0.976290  0.166670  1.0  -0.4963
  O  O159  1  0.976290  0.000000  0.500000  1.0  -0.496
