# generated using pymatgen
data_CoH7C13NO4
_symmetry_space_group_name_H-M   'P 1'
_cell_length_a   11.07780000
_cell_length_b   11.07780000
_cell_length_c   27.87930000
_cell_angle_alpha   90.00000000
_cell_angle_beta   90.00000000
_cell_angle_gamma   120.00000000
_symmetry_Int_Tables_number   1
_chemical_formula_structural   CoH7C13NO4
_chemical_formula_sum   'Co6 H42 C78 N6 O24'
_cell_volume   2962.91734966
_cell_formula_units_Z   6
loop_
 _symmetry_equiv_pos_site_id
 _symmetry_equiv_pos_as_xyz
  1  'x, y, z'
loop_
 _atom_site_type_symbol
 _atom_site_label
 _atom_site_symmetry_multiplicity
 _atom_site_fract_x
 _atom_site_fract_y
 _atom_site_fract_z
 _atom_site_occupancy
 _atom_site_charge
  Co  Co1  1  0.920150  0.170750  0.029200  1.0  0.8964
  Co  Co2  1  0.250600  0.079850  0.362530  1.0  0.8959
  Co  Co3  1  0.829250  0.749400  0.695860  1.0  0.8932
  Co  Co4  1  0.749400  0.829250  0.970800  1.0  0.8964
  Co  Co5  1  0.170750  0.920150  0.637470  1.0  0.8959
  Co  Co6  1  0.079850  0.250600  0.304140  1.0  0.8948
  H  H7  1  0.935700  0.441400  0.000300  1.0  0.081
  H  H8  1  0.657400  0.502400  0.072300  1.0  0.1104
  H  H9  1  0.745100  0.207800  0.110600  1.0  0.0763
  H  H10  1  0.689000  0.245400  0.184600  1.0  0.1089
  H  H11  1  0.544700  0.197100  0.250300  1.0  0.0936
  H  H12  1  0.301100  0.297100  0.174500  1.0  0.1018
  H  H13  1  0.444700  0.347300  0.108900  1.0  0.1185
  H  H14  1  0.505700  0.064300  0.333630  1.0  0.0809
  H  H15  1  0.845000  0.342600  0.405630  1.0  0.1104
  H  H16  1  0.462700  0.254900  0.443930  1.0  0.0761
  H  H17  1  0.556400  0.311000  0.517930  1.0  0.109
  H  H18  1  0.652400  0.455300  0.583630  1.0  0.0945
  H  H19  1  0.996000  0.698900  0.507830  1.0  0.101
  H  H20  1  0.902600  0.555300  0.442230  1.0  0.119
  H  H21  1  0.558600  0.494300  0.666970  1.0  0.0818
  H  H22  1  0.497600  0.155000  0.738970  1.0  0.1107
  H  H23  1  0.792200  0.537300  0.777270  1.0  0.0766
  H  H24  1  0.754600  0.443600  0.851270  1.0  0.1088
  H  H25  1  0.802900  0.347600  0.916970  1.0  0.0939
  H  H26  1  0.702900  0.004000  0.841170  1.0  0.1011
  H  H27  1  0.652700  0.097400  0.775570  1.0  0.1194
  H  H28  1  0.494300  0.558600  0.999700  1.0  0.0812
  H  H29  1  0.155000  0.497600  0.927700  1.0  0.1108
  H  H30  1  0.537300  0.792200  0.889400  1.0  0.0764
  H  H31  1  0.443600  0.754600  0.815400  1.0  0.1099
  H  H32  1  0.347600  0.802900  0.749700  1.0  0.094
  H  H33  1  0.004000  0.702900  0.825500  1.0  0.1024
  H  H34  1  0.097400  0.652700  0.891100  1.0  0.1179
  H  H35  1  0.441400  0.935700  0.666370  1.0  0.0808
  H  H36  1  0.502400  0.657400  0.594370  1.0  0.1105
  H  H37  1  0.207800  0.745100  0.556070  1.0  0.0767
  H  H38  1  0.245400  0.689000  0.482070  1.0  0.1101
  H  H39  1  0.197100  0.544700  0.416370  1.0  0.0946
  H  H40  1  0.297100  0.301100  0.492170  1.0  0.1008
  H  H41  1  0.347300  0.444700  0.557770  1.0  0.1187
  H  H42  1  0.064300  0.505700  0.333030  1.0  0.082
  H  H43  1  0.342600  0.845000  0.261030  1.0  0.1102
  H  H44  1  0.254900  0.462700  0.222730  1.0  0.0771
  H  H45  1  0.311000  0.556400  0.148730  1.0  0.1089
  H  H46  1  0.455300  0.652400  0.083030  1.0  0.0939
  H  H47  1  0.698900  0.996000  0.158830  1.0  0.1008
  H  H48  1  0.555300  0.902600  0.224430  1.0  0.1182
  C  C49  1  0.870900  0.416600  0.024960  1.0  0.2045
  C  C50  1  0.800900  0.490900  0.030230  1.0  -0.1961
  C  C51  1  0.705700  0.454600  0.067940  1.0  0.003
  C  C52  1  0.683700  0.347900  0.098590  1.0  -0.0442
  C  C53  1  0.758600  0.279400  0.089990  1.0  0.1534
  C  C54  1  0.586500  0.307500  0.140040  1.0  0.0595
  C  C55  1  0.612500  0.258500  0.182540  1.0  -0.1446
  C  C56  1  0.525400  0.228900  0.222030  1.0  -0.0195
  C  C57  1  0.411000  0.246300  0.219690  1.0  -0.1539
  C  C58  1  0.380400  0.288800  0.176790  1.0  -0.0311
  C  C59  1  0.466600  0.319000  0.137440  1.0  -0.1335
  C  C60  1  0.826800  0.604900  0.995010  1.0  0.6982
  C  C61  1  0.320800  0.224300  0.263630  1.0  0.7106
  C  C62  1  0.545700  0.129100  0.358290  1.0  0.2038
  C  C63  1  0.690000  0.199100  0.363560  1.0  -0.1985
  C  C64  1  0.748900  0.294300  0.401270  1.0  0.003
  C  C65  1  0.664200  0.316300  0.431920  1.0  -0.0444
  C  C66  1  0.520800  0.241400  0.423320  1.0  0.1559
  C  C67  1  0.721000  0.413500  0.473370  1.0  0.0598
  C  C68  1  0.646000  0.387500  0.515870  1.0  -0.143
  C  C69  1  0.703500  0.474600  0.555360  1.0  -0.0199
  C  C70  1  0.835300  0.589000  0.553020  1.0  -0.1512
  C  C71  1  0.908400  0.619600  0.510120  1.0  -0.0309
  C  C72  1  0.852400  0.533400  0.470770  1.0  -0.1341
  C  C73  1  0.778100  0.173200  0.328340  1.0  0.7007
  C  C74  1  0.903500  0.679200  0.596960  1.0  0.7125
  C  C75  1  0.583400  0.454300  0.691630  1.0  0.2039
  C  C76  1  0.509100  0.310000  0.696900  1.0  -0.1983
  C  C77  1  0.545400  0.251100  0.734610  1.0  0.007
  C  C78  1  0.652100  0.335800  0.765260  1.0  -0.0463
  C  C79  1  0.720600  0.479200  0.756660  1.0  0.1526
  C  C80  1  0.692500  0.279000  0.806710  1.0  0.059
  C  C81  1  0.741500  0.354000  0.849210  1.0  -0.1448
  C  C82  1  0.771100  0.296500  0.888700  1.0  -0.0195
  C  C83  1  0.753700  0.164700  0.886360  1.0  -0.1542
  C  C84  1  0.711200  0.091600  0.843460  1.0  -0.0295
  C  C85  1  0.681000  0.147600  0.804110  1.0  -0.1328
  C  C86  1  0.395100  0.221900  0.661680  1.0  0.6988
  C  C87  1  0.775700  0.096500  0.930300  1.0  0.7126
  C  C88  1  0.454300  0.583400  0.975040  1.0  0.2053
  C  C89  1  0.310000  0.509100  0.969770  1.0  -0.1971
  C  C90  1  0.251100  0.545400  0.932060  1.0  0.0038
  C  C91  1  0.335800  0.652100  0.901410  1.0  -0.0441
  C  C92  1  0.479200  0.720600  0.910010  1.0  0.1537
  C  C93  1  0.279000  0.692500  0.859960  1.0  0.0589
  C  C94  1  0.354000  0.741500  0.817460  1.0  -0.1441
  C  C95  1  0.296500  0.771100  0.777970  1.0  -0.0192
  C  C96  1  0.164700  0.753700  0.780310  1.0  -0.1548
  C  C97  1  0.091600  0.711200  0.823210  1.0  -0.0314
  C  C98  1  0.147600  0.681000  0.862560  1.0  -0.1351
  C  C99  1  0.221900  0.395100  0.004990  1.0  0.6986
  C  C100  1  0.096500  0.775700  0.736370  1.0  0.7107
  C  C101  1  0.416600  0.870900  0.641710  1.0  0.2036
  C  C102  1  0.490900  0.800900  0.636440  1.0  -0.1986
  C  C103  1  0.454600  0.705700  0.598730  1.0  0.0036
  C  C104  1  0.347900  0.683700  0.568080  1.0  -0.0436
  C  C105  1  0.279400  0.758600  0.576680  1.0  0.1565
  C  C106  1  0.307500  0.586500  0.526630  1.0  0.0592
  C  C107  1  0.258500  0.612500  0.484130  1.0  -0.1428
  C  C108  1  0.228900  0.525400  0.444640  1.0  -0.0203
  C  C109  1  0.246300  0.411000  0.446980  1.0  -0.1522
  C  C110  1  0.288800  0.380400  0.489880  1.0  -0.03
  C  C111  1  0.319000  0.466600  0.529230  1.0  -0.1352
  C  C112  1  0.604900  0.826800  0.671660  1.0  0.7026
  C  C113  1  0.224300  0.320800  0.403040  1.0  0.7124
  C  C114  1  0.129100  0.545700  0.308370  1.0  0.2046
  C  C115  1  0.199100  0.690000  0.303100  1.0  -0.1973
  C  C116  1  0.294300  0.748900  0.265390  1.0  0.0033
  C  C117  1  0.316300  0.664200  0.234740  1.0  -0.0463
  C  C118  1  0.241400  0.520800  0.243340  1.0  0.1535
  C  C119  1  0.413500  0.721000  0.193290  1.0  0.0585
  C  C120  1  0.387500  0.646000  0.150790  1.0  -0.1452
  C  C121  1  0.474600  0.703500  0.111300  1.0  -0.0196
  C  C122  1  0.589000  0.835300  0.113640  1.0  -0.1541
  C  C123  1  0.619600  0.908400  0.156540  1.0  -0.0303
  C  C124  1  0.533400  0.852400  0.195890  1.0  -0.1343
  C  C125  1  0.173200  0.778100  0.338320  1.0  0.6994
  C  C126  1  0.679200  0.903500  0.069700  1.0  0.712
  N  N127  1  0.849000  0.311300  0.053700  1.0  -0.3354
  N  N128  1  0.462300  0.151000  0.387030  1.0  -0.3346
  N  N129  1  0.688700  0.537700  0.720370  1.0  -0.3341
  N  N130  1  0.537700  0.688700  0.946300  1.0  -0.335
  N  N131  1  0.311300  0.849000  0.612970  1.0  -0.3342
  N  N132  1  0.151000  0.462300  0.279630  1.0  -0.3334
  O  O133  1  0.903600  0.622600  0.960220  1.0  -0.585
  O  O134  1  0.768400  0.675400  0.005300  1.0  -0.6066
  O  O135  1  0.353500  0.185500  0.301210  1.0  -0.5657
  O  O136  1  0.224000  0.248900  0.258840  1.0  -0.5987
  O  O137  1  0.719000  0.096400  0.293550  1.0  -0.5905
  O  O138  1  0.907000  0.231600  0.338630  1.0  -0.6064
  O  O139  1  0.832000  0.646500  0.634540  1.0  -0.5659
  O  O140  1  0.024900  0.776000  0.592170  1.0  -0.5997
  O  O141  1  0.377400  0.281000  0.626890  1.0  -0.5906
  O  O142  1  0.324600  0.093000  0.671970  1.0  -0.6091
  O  O143  1  0.814500  0.168000  0.967880  1.0  -0.5656
  O  O144  1  0.751100  0.975100  0.925510  1.0  -0.6023
  O  O145  1  0.281000  0.377400  0.039780  1.0  -0.5845
  O  O146  1  0.093000  0.324600  0.994700  1.0  -0.6067
  O  O147  1  0.168000  0.814500  0.698790  1.0  -0.5646
  O  O148  1  0.975100  0.751100  0.741160  1.0  -0.5993
  O  O149  1  0.622600  0.903600  0.706450  1.0  -0.5919
  O  O150  1  0.675400  0.768400  0.661370  1.0  -0.606
  O  O151  1  0.185500  0.353500  0.365460  1.0  -0.5648
  O  O152  1  0.248900  0.224000  0.407830  1.0  -0.5992
  O  O153  1  0.096400  0.719000  0.373110  1.0  -0.5905
  O  O154  1  0.231600  0.907000  0.328030  1.0  -0.6094
  O  O155  1  0.646500  0.832000  0.032120  1.0  -0.5649
  O  O156  1  0.776000  0.024900  0.074490  1.0  -0.6011
