# generated using pymatgen
data_Mn2H30C35O11
_symmetry_space_group_name_H-M   'P 1'
_cell_length_a   16.46740000
_cell_length_b   18.17050000
_cell_length_c   20.44560000
_cell_angle_alpha   64.16700000
_cell_angle_beta   70.66800000
_cell_angle_gamma   70.11900000
_symmetry_Int_Tables_number   1
_chemical_formula_structural   Mn2H30C35O11
_chemical_formula_sum   'Mn8 H120 C140 O44'
_cell_volume   5055.93561027
_cell_formula_units_Z   4
loop_
 _symmetry_equiv_pos_site_id
 _symmetry_equiv_pos_as_xyz
  1  'x, y, z'
loop_
 _atom_site_type_symbol
 _atom_site_label
 _atom_site_symmetry_multiplicity
 _atom_site_fract_x
 _atom_site_fract_y
 _atom_site_fract_z
 _atom_site_occupancy
 _atom_site_charge
  Mn  Mn1  1  0.640440  0.738870  0.579560  1.0  1.1911
  Mn  Mn2  1  0.878690  0.668670  0.586380  1.0  1.1356
  Mn  Mn3  1  0.090310  0.720520  0.621490  1.0  1.1502
  Mn  Mn4  1  0.326140  0.698100  0.549530  1.0  1.1267
  Mn  Mn5  1  0.359560  0.261130  0.420440  1.0  1.1923
  Mn  Mn6  1  0.121310  0.331330  0.413620  1.0  1.136
  Mn  Mn7  1  0.909690  0.279480  0.378510  1.0  1.1502
  Mn  Mn8  1  0.673860  0.301900  0.450470  1.0  1.1287
  H  H9  1  0.849400  0.404000  0.707300  1.0  0.1033
  H  H10  1  0.822200  0.278000  0.792200  1.0  0.1214
  H  H11  1  0.602800  0.518800  0.776600  1.0  0.1035
  H  H12  1  0.575400  0.392900  0.867600  1.0  0.1208
  H  H13  1  0.841300  0.804200  0.722700  1.0  0.0964
  H  H14  1  0.618500  0.190600  0.061600  1.0  0.1202
  H  H15  1  0.583700  0.117900  0.131900  1.0  0.126
  H  H16  1  0.685600  0.109400  0.099400  1.0  0.1163
  H  H17  1  0.418200  0.813300  0.401000  1.0  0.0975
  H  H18  1  0.586900  0.255900  0.973900  1.0  0.0745
  H  H19  1  0.553600  0.263800  0.906600  1.0  0.0762
  H  H20  1  0.437200  0.903500  0.279200  1.0  0.1153
  H  H21  1  0.658700  0.846400  0.093400  1.0  0.1133
  H  H22  1  0.590900  0.858000  0.049000  1.0  0.115
  H  H23  1  0.691500  0.850800  0.010800  1.0  0.1161
  H  H24  1  0.819800  0.870200  0.802500  1.0  0.1214
  H  H25  1  0.581200  0.860700  0.739900  1.0  0.0996
  H  H26  1  0.677900  0.749300  0.386500  1.0  0.0998
  H  H27  1  0.699000  0.838300  0.262900  1.0  0.1129
  H  H28  1  0.574700  0.127800  0.821500  1.0  0.12
  H  H29  1  0.524200  0.201900  0.850400  1.0  0.1175
  H  H30  1  0.626100  0.189300  0.816300  1.0  0.1242
  H  H31  1  0.557100  0.922000  0.823500  1.0  0.117
  H  H32  1  0.561200  0.018600  0.866700  1.0  0.0675
  H  H33  1  0.562400  0.933300  0.935500  1.0  0.0612
  H  H34  1  0.684500  0.974700  0.154200  1.0  0.0704
  H  H35  1  0.697200  0.894500  0.136900  1.0  0.0635
  H  H36  1  0.322800  0.302400  0.816300  1.0  0.0948
  H  H37  1  0.100700  0.223500  0.024800  1.0  0.1161
  H  H38  1  0.068100  0.152100  0.097900  1.0  0.1211
  H  H39  1  0.169600  0.147300  0.065800  1.0  0.1181
  H  H40  1  0.191800  0.017000  0.115300  1.0  0.0625
  H  H41  1  0.213900  0.932700  0.102400  1.0  0.0686
  H  H42  1  0.068600  0.278800  0.933700  1.0  0.0862
  H  H43  1  0.058000  0.276000  0.861000  1.0  0.0695
  H  H44  1  0.150000  0.870200  0.082500  1.0  0.1125
  H  H45  1  0.085100  0.874200  0.039000  1.0  0.1166
  H  H46  1  0.186600  0.863800  0.003400  1.0  0.1238
  H  H47  1  0.087300  0.119600  0.795500  1.0  0.1191
  H  H48  1  0.031300  0.200500  0.812900  1.0  0.1087
  H  H49  1  0.134200  0.187300  0.784900  1.0  0.1242
  H  H50  1  0.050200  0.017400  0.858000  1.0  0.0629
  H  H51  1  0.079400  0.930600  0.920200  1.0  0.0661
  H  H52  1  0.057200  0.921800  0.813500  1.0  0.1129
  H  H53  1  0.313400  0.922300  0.749000  1.0  0.1136
  H  H54  1  0.011300  0.869300  0.291500  1.0  0.1141
  H  H55  1  0.242700  0.936300  0.210200  1.0  0.1143
  H  H56  1  0.077800  0.852800  0.737100  1.0  0.1053
  H  H57  1  0.333400  0.855500  0.670900  1.0  0.1109
  H  H58  1  0.043900  0.797900  0.405500  1.0  0.1062
  H  H59  1  0.275400  0.865100  0.325900  1.0  0.1011
  H  H60  1  0.082400  0.394000  0.791500  1.0  0.1096
  H  H61  1  0.118500  0.516200  0.706600  1.0  0.08
  H  H62  1  0.359700  0.426200  0.734900  1.0  0.1023
  H  H63  1  0.907600  0.575700  0.819700  1.0  0.1446
  H  H64  1  0.847900  0.609800  0.762100  1.0  0.1476
  H  H65  1  0.921300  0.526400  0.768800  1.0  0.157
  H  H66  1  0.835300  0.893800  0.375200  1.0  0.1575
  H  H67  1  0.791500  0.836100  0.365400  1.0  0.1449
  H  H68  1  0.735900  0.891900  0.413100  1.0  0.149
  H  H69  1  0.150600  0.596000  0.292700  1.0  0.1038
  H  H70  1  0.177800  0.722000  0.207800  1.0  0.1216
  H  H71  1  0.397200  0.481200  0.223400  1.0  0.1034
  H  H72  1  0.424600  0.607100  0.132400  1.0  0.1216
  H  H73  1  0.158700  0.195800  0.277300  1.0  0.0962
  H  H74  1  0.381500  0.809400  0.938400  1.0  0.1205
  H  H75  1  0.416300  0.882100  0.868100  1.0  0.1256
  H  H76  1  0.314400  0.890600  0.900600  1.0  0.1158
  H  H77  1  0.581800  0.186700  0.599000  1.0  0.0976
  H  H78  1  0.413100  0.744100  0.026100  1.0  0.0775
  H  H79  1  0.446400  0.736200  0.093400  1.0  0.0752
  H  H80  1  0.562800  0.096500  0.720800  1.0  0.116
  H  H81  1  0.341300  0.153600  0.906600  1.0  0.1134
  H  H82  1  0.409100  0.142000  0.951000  1.0  0.1143
  H  H83  1  0.308500  0.149200  0.989200  1.0  0.1143
  H  H84  1  0.180200  0.129800  0.197500  1.0  0.1214
  H  H85  1  0.418800  0.139300  0.260100  1.0  0.0992
  H  H86  1  0.322100  0.250700  0.613500  1.0  0.1
  H  H87  1  0.301000  0.161700  0.737100  1.0  0.1125
  H  H88  1  0.425300  0.872200  0.178500  1.0  0.1204
  H  H89  1  0.475800  0.798100  0.149600  1.0  0.1146
  H  H90  1  0.373900  0.810700  0.183700  1.0  0.1225
  H  H91  1  0.442900  0.078000  0.176500  1.0  0.118
  H  H92  1  0.438800  0.981400  0.133300  1.0  0.0665
  H  H93  1  0.437600  0.066700  0.064500  1.0  0.0614
  H  H94  1  0.315500  0.025300  0.845800  1.0  0.07
  H  H95  1  0.302800  0.105500  0.863100  1.0  0.0626
  H  H96  1  0.677200  0.697600  0.183700  1.0  0.0954
  H  H97  1  0.899300  0.776500  0.975200  1.0  0.1177
  H  H98  1  0.931900  0.847900  0.902100  1.0  0.1213
  H  H99  1  0.830400  0.852700  0.934200  1.0  0.1177
  H  H100  1  0.808200  0.983000  0.884700  1.0  0.0631
  H  H101  1  0.786100  0.067300  0.897600  1.0  0.0698
  H  H102  1  0.931400  0.721200  0.066300  1.0  0.0857
  H  H103  1  0.942000  0.724000  0.139000  1.0  0.0701
  H  H104  1  0.850000  0.129800  0.917500  1.0  0.1119
  H  H105  1  0.914900  0.125800  0.961000  1.0  0.117
  H  H106  1  0.813400  0.136200  0.996600  1.0  0.1229
  H  H107  1  0.912700  0.880400  0.204500  1.0  0.1201
  H  H108  1  0.968700  0.799500  0.187100  1.0  0.1121
  H  H109  1  0.865800  0.812700  0.215100  1.0  0.1219
  H  H110  1  0.949800  0.982600  0.142000  1.0  0.0599
  H  H111  1  0.920600  0.069400  0.079800  1.0  0.0677
  H  H112  1  0.942800  0.078200  0.186500  1.0  0.1132
  H  H113  1  0.686600  0.077700  0.251000  1.0  0.112
  H  H114  1  0.988700  0.130700  0.708500  1.0  0.114
  H  H115  1  0.757300  0.063700  0.789800  1.0  0.1159
  H  H116  1  0.922200  0.147200  0.262900  1.0  0.105
  H  H117  1  0.666667  0.144500  0.329100  1.0  0.1115
  H  H118  1  0.956100  0.202100  0.594500  1.0  0.1054
  H  H119  1  0.724600  0.134900  0.674100  1.0  0.1003
  H  H120  1  0.917600  0.606000  0.208500  1.0  0.1084
  H  H121  1  0.881500  0.483800  0.293400  1.0  0.0802
  H  H122  1  0.640300  0.573800  0.265100  1.0  0.1036
  H  H123  1  0.092400  0.424300  0.180300  1.0  0.1448
  H  H124  1  0.152100  0.390200  0.237900  1.0  0.1485
  H  H125  1  0.078700  0.473600  0.231200  1.0  0.1568
  H  H126  1  0.164700  0.106200  0.624800  1.0  0.1569
  H  H127  1  0.208500  0.163900  0.634600  1.0  0.1447
  H  H128  1  0.264100  0.108100  0.586900  1.0  0.1479
  C  C129  1  0.532300  0.720700  0.488600  1.0  0.7213
  C  C130  1  0.794000  0.401600  0.739100  1.0  -0.0116
  C  C131  1  0.778200  0.326900  0.789700  1.0  -0.211
  C  C132  1  0.647500  0.470100  0.780900  1.0  0.0074
  C  C133  1  0.695100  0.323000  0.838700  1.0  0.3026
  C  C134  1  0.630200  0.394700  0.834700  1.0  -0.2977
  C  C135  1  0.784200  0.829000  0.742000  1.0  -0.0096
  C  C136  1  0.628500  0.130800  0.087100  1.0  -0.3605
  C  C137  1  0.474900  0.818700  0.373400  1.0  0.0058
  C  C138  1  0.599600  0.234200  0.934900  1.0  0.1057
  C  C139  1  0.486100  0.872200  0.300400  1.0  -0.2341
  C  C140  1  0.744000  0.559800  0.674700  1.0  0.7467
  C  C141  1  0.644000  0.871700  0.045400  1.0  -0.3552
  C  C142  1  0.771400  0.867900  0.790100  1.0  -0.2519
  C  C143  1  0.629500  0.862100  0.753100  1.0  0.0129
  C  C144  1  0.629300  0.780300  0.364800  1.0  -0.035
  C  C145  1  0.642100  0.833700  0.290500  1.0  -0.2657
  C  C146  1  0.728500  0.475100  0.733800  1.0  -0.181
  C  C147  1  0.578900  0.161100  0.845600  1.0  -0.3474
  C  C148  1  0.713400  0.826000  0.721700  1.0  -0.2088
  C  C149  1  0.570700  0.879800  0.257900  1.0  0.2967
  C  C150  1  0.614400  0.899700  0.802300  1.0  -0.2808
  C  C151  1  0.726700  0.785800  0.666400  1.0  0.7488
  C  C152  1  0.686900  0.903700  0.820200  1.0  0.2931
  C  C153  1  0.594600  0.976900  0.903700  1.0  0.1107
  C  C154  1  0.624700  0.090800  0.037700  1.0  0.1155
  C  C155  1  0.629700  0.966300  0.018400  1.0  0.1191
  C  C156  1  0.545900  0.772900  0.406500  1.0  -0.2013
  C  C157  1  0.605800  0.140500  0.967500  1.0  -0.1538
  C  C158  1  0.638300  0.002900  0.062300  1.0  -0.1372
  C  C159  1  0.657500  0.947700  0.137800  1.0  0.1067
  C  C160  1  0.606900  0.016800  0.948900  1.0  -0.1342
  C  C161  1  0.597500  0.104100  0.922600  1.0  0.0999
  C  C162  1  0.279200  0.347100  0.795300  1.0  -0.2077
  C  C163  1  0.198000  0.337000  0.814300  1.0  0.3246
  C  C164  1  0.113100  0.164200  0.053200  1.0  -0.3576
  C  C165  1  0.166900  0.980800  0.107700  1.0  0.0873
  C  C166  1  0.114700  0.116200  0.007100  1.0  0.1053
  C  C167  1  0.094100  0.251200  0.897700  1.0  0.1094
  C  C168  1  0.132300  0.028000  0.037300  1.0  -0.1428
  C  C169  1  0.137800  0.889400  0.034100  1.0  -0.3545
  C  C170  1  0.100000  0.158900  0.935400  1.0  -0.1478
  C  C171  1  0.086600  0.159600  0.814600  1.0  -0.3558
  C  C172  1  0.124800  0.983900  0.998700  1.0  0.1179
  C  C173  1  0.097700  0.114400  0.895000  1.0  0.1009
  C  C174  1  0.105800  0.027200  0.927800  1.0  -0.1285
  C  C175  1  0.096100  0.983000  0.886000  1.0  0.1063
  C  C176  1  0.184000  0.927500  0.790400  1.0  0.3085
  C  C177  1  0.124100  0.910300  0.238300  1.0  0.2952
  C  C178  1  0.113300  0.907400  0.785600  1.0  -0.2923
  C  C179  1  0.265600  0.907800  0.746800  1.0  -0.2542
  C  C180  1  0.064800  0.868300  0.298400  1.0  -0.2385
  C  C181  1  0.202500  0.908500  0.249700  1.0  -0.2595
  C  C182  1  0.126000  0.866200  0.739700  1.0  0.0123
  C  C183  1  0.277800  0.867400  0.700500  1.0  -0.017
  C  C184  1  0.084200  0.826100  0.366400  1.0  -0.0127
  C  C185  1  0.222000  0.865900  0.319100  1.0  -0.0079
  C  C186  1  0.208000  0.843700  0.697000  1.0  -0.2127
  C  C187  1  0.162500  0.823600  0.379600  1.0  -0.1757
  C  C188  1  0.242600  0.485500  0.713200  1.0  -0.1365
  C  C189  1  0.182500  0.783100  0.455400  1.0  0.7298
  C  C190  1  0.265500  0.567200  0.657300  1.0  0.705
  C  C191  1  0.140000  0.399600  0.780700  1.0  -0.1847
  C  C192  1  0.161600  0.473300  0.730100  1.0  -0.003
  C  C193  1  0.219700  0.796600  0.650200  1.0  0.7538
  C  C194  1  0.301900  0.421300  0.745700  1.0  -0.0319
  C  C195  1  0.972000  0.631100  0.713000  1.0  0.7776
  C  C196  1  0.906200  0.581200  0.771200  1.0  -0.5249
  C  C197  1  0.820500  0.789200  0.466600  1.0  0.7775
  C  C198  1  0.793400  0.858900  0.399100  1.0  -0.5273
  C  C199  1  0.467700  0.279300  0.511400  1.0  0.7215
  C  C200  1  0.206000  0.598400  0.260900  1.0  -0.0146
  C  C201  1  0.221800  0.673100  0.210300  1.0  -0.2184
  C  C202  1  0.352500  0.529900  0.219100  1.0  0.0077
  C  C203  1  0.304900  0.677000  0.161300  1.0  0.3021
  C  C204  1  0.369800  0.605300  0.165300  1.0  -0.2962
  C  C205  1  0.215800  0.171000  0.258000  1.0  -0.0071
  C  C206  1  0.371500  0.869200  0.912900  1.0  -0.3591
  C  C207  1  0.525100  0.181300  0.626600  1.0  0.0037
  C  C208  1  0.400400  0.765800  0.065100  1.0  0.1029
  C  C209  1  0.513900  0.127800  0.699600  1.0  -0.2333
  C  C210  1  0.256000  0.440200  0.325300  1.0  0.7465
  C  C211  1  0.356000  0.128300  0.954600  1.0  -0.3553
  C  C212  1  0.228600  0.132100  0.209900  1.0  -0.2509
  C  C213  1  0.370500  0.137900  0.246900  1.0  0.012
  C  C214  1  0.370700  0.219700  0.635200  1.0  -0.0255
  C  C215  1  0.357900  0.166300  0.709500  1.0  -0.2629
  C  C216  1  0.271500  0.524900  0.266200  1.0  -0.1818
  C  C217  1  0.421100  0.838900  0.154400  1.0  -0.3481
  C  C218  1  0.286600  0.174000  0.278300  1.0  -0.2094
  C  C219  1  0.429300  0.120200  0.742100  1.0  0.2953
  C  C220  1  0.385600  0.100300  0.197700  1.0  -0.2811
  C  C221  1  0.273300  0.214200  0.333600  1.0  0.7477
  C  C222  1  0.313100  0.096300  0.179800  1.0  0.2932
  C  C223  1  0.405400  0.023100  0.096300  1.0  0.1135
  C  C224  1  0.375300  0.909200  0.962300  1.0  0.115
  C  C225  1  0.370300  0.033700  0.981600  1.0  0.1191
  C  C226  1  0.454100  0.227100  0.593500  1.0  -0.2021
  C  C227  1  0.394200  0.859500  0.032500  1.0  -0.1529
  C  C228  1  0.361700  0.997100  0.937700  1.0  -0.1383
  C  C229  1  0.342500  0.052300  0.862200  1.0  0.1114
  C  C230  1  0.393100  0.983200  0.051100  1.0  -0.1342
  C  C231  1  0.402500  0.895900  0.077400  1.0  0.1001
  C  C232  1  0.720800  0.652900  0.204700  1.0  -0.2088
  C  C233  1  0.802000  0.663000  0.185700  1.0  0.3287
  C  C234  1  0.886900  0.835800  0.946800  1.0  -0.3553
  C  C235  1  0.833100  0.019200  0.892300  1.0  0.0748
  C  C236  1  0.885300  0.883800  0.992900  1.0  0.1037
  C  C237  1  0.905900  0.748800  0.102300  1.0  0.109
  C  C238  1  0.867700  0.972000  0.962700  1.0  -0.1435
  C  C239  1  0.862200  0.110600  0.965900  1.0  -0.3547
  C  C240  1  0.900000  0.841100  0.064600  1.0  -0.1478
  C  C241  1  0.913400  0.840400  0.185400  1.0  -0.3566
  C  C242  1  0.875200  0.016100  0.001300  1.0  0.1177
  C  C243  1  0.902300  0.885600  0.105000  1.0  0.1023
  C  C244  1  0.894200  0.972800  0.072200  1.0  -0.1283
  C  C245  1  0.903900  0.017000  0.114000  1.0  0.1088
  C  C246  1  0.816000  0.072500  0.209600  1.0  0.314
  C  C247  1  0.875900  0.089700  0.761700  1.0  0.2942
  C  C248  1  0.886700  0.092600  0.214400  1.0  -0.2896
  C  C249  1  0.734400  0.092200  0.253200  1.0  -0.2555
  C  C250  1  0.935200  0.131700  0.701600  1.0  -0.2361
  C  C251  1  0.797500  0.091500  0.750300  1.0  -0.2602
  C  C252  1  0.874000  0.133800  0.260300  1.0  0.0134
  C  C253  1  0.722200  0.132600  0.299500  1.0  -0.0214
  C  C254  1  0.915800  0.173900  0.633600  1.0  -0.0064
  C  C255  1  0.778000  0.134100  0.680900  1.0  -0.0082
  C  C256  1  0.792000  0.156300  0.303000  1.0  -0.2113
  C  C257  1  0.837500  0.176400  0.620400  1.0  -0.1593
  C  C258  1  0.757400  0.514500  0.286800  1.0  -0.1358
  C  C259  1  0.817500  0.216900  0.544600  1.0  0.7287
  C  C260  1  0.734500  0.432800  0.342700  1.0  0.7054
  C  C261  1  0.860000  0.600400  0.219300  1.0  -0.1676
  C  C262  1  0.838400  0.526700  0.269900  1.0  -0.0066
  C  C263  1  0.780300  0.203400  0.349800  1.0  0.7539
  C  C264  1  0.698100  0.578700  0.254300  1.0  -0.0299
  C  C265  1  0.028000  0.368900  0.287000  1.0  0.7788
  C  C266  1  0.093800  0.418800  0.228800  1.0  -0.5272
  C  C267  1  0.179500  0.210800  0.533400  1.0  0.779
  C  C268  1  0.206600  0.141100  0.600900  1.0  -0.5278
  O  O269  1  0.597900  0.690800  0.518500  1.0  -0.6445
  O  O270  1  0.456800  0.711100  0.523300  1.0  -0.6519
  O  O271  1  0.824400  0.562600  0.646000  1.0  -0.6588
  O  O272  1  0.664900  0.799300  0.639300  1.0  -0.6549
  O  O273  1  0.802800  0.741900  0.652600  1.0  -0.6396
  O  O274  1  0.678800  0.616100  0.659100  1.0  -0.6214
  O  O275  1  0.573800  0.935000  0.186400  1.0  -0.272
  O  O276  1  0.680900  0.941300  0.867900  1.0  -0.2742
  O  O277  1  0.685700  0.243700  0.887000  1.0  -0.2837
  O  O278  1  0.098800  0.952700  0.171300  1.0  -0.2754
  O  O279  1  0.152100  0.777300  0.653400  1.0  -0.6903
  O  O280  1  0.183900  0.259400  0.862600  1.0  -0.2943
  O  O281  1  0.210400  0.621200  0.620600  1.0  -0.6661
  O  O282  1  0.120700  0.752200  0.507000  1.0  -0.648
  O  O283  1  0.292600  0.780200  0.609500  1.0  -0.6057
  O  O284  1  0.339200  0.577700  0.648200  1.0  -0.5847
  O  O285  1  0.179500  0.966400  0.836000  1.0  -0.2795
  O  O286  1  0.254000  0.781100  0.464700  1.0  -0.6322
  O  O287  1  0.981200  0.644500  0.644900  1.0  -0.6959
  O  O288  1  0.016100  0.658300  0.731900  1.0  -0.5772
  O  O289  1  0.773200  0.736700  0.507500  1.0  -0.676
  O  O290  1  0.891300  0.780900  0.482500  1.0  -0.5926
  O  O291  1  0.402100  0.309200  0.481500  1.0  -0.6445
  O  O292  1  0.543200  0.288900  0.476700  1.0  -0.6465
  O  O293  1  0.175600  0.437400  0.354000  1.0  -0.6593
  O  O294  1  0.335100  0.200700  0.360700  1.0  -0.6557
  O  O295  1  0.197200  0.258100  0.347400  1.0  -0.6389
  O  O296  1  0.321200  0.383900  0.340900  1.0  -0.6218
  O  O297  1  0.426200  0.065000  0.813600  1.0  -0.2713
  O  O298  1  0.319100  0.058700  0.132100  1.0  -0.2743
  O  O299  1  0.314300  0.756300  0.113000  1.0  -0.2825
  O  O300  1  0.901200  0.047300  0.828700  1.0  -0.2753
  O  O301  1  0.847900  0.222700  0.346600  1.0  -0.6897
  O  O302  1  0.816100  0.740600  0.137400  1.0  -0.2944
  O  O303  1  0.789600  0.378800  0.379400  1.0  -0.666
  O  O304  1  0.879300  0.247800  0.493000  1.0  -0.6465
  O  O305  1  0.707400  0.219800  0.390500  1.0  -0.6065
  O  O306  1  0.660800  0.422300  0.351800  1.0  -0.584
  O  O307  1  0.820500  0.033600  0.164000  1.0  -0.2785
  O  O308  1  0.746000  0.218900  0.535300  1.0  -0.6322
  O  O309  1  0.018800  0.355500  0.355100  1.0  -0.6952
  O  O310  1  0.983900  0.341700  0.268100  1.0  -0.5731
  O  O311  1  0.226800  0.263300  0.492500  1.0  -0.6762
  O  O312  1  0.108700  0.219100  0.517500  1.0  -0.5903
