# generated using pymatgen
data_Zn4H22C42O13
_symmetry_space_group_name_H-M   'P 1'
_cell_length_a   17.12380000
_cell_length_b   20.11500000
_cell_length_c   27.12910000
_cell_angle_alpha   90.00000000
_cell_angle_beta   90.00000000
_cell_angle_gamma   90.00000000
_symmetry_Int_Tables_number   1
_chemical_formula_structural   Zn4H22C42O13
_chemical_formula_sum   'Zn16 H88 C168 O52'
_cell_volume   9344.48927910
_cell_formula_units_Z   4
loop_
 _symmetry_equiv_pos_site_id
 _symmetry_equiv_pos_as_xyz
  1  'x, y, z'
loop_
 _atom_site_type_symbol
 _atom_site_label
 _atom_site_symmetry_multiplicity
 _atom_site_fract_x
 _atom_site_fract_y
 _atom_site_fract_z
 _atom_site_occupancy
 _atom_site_charge
  Zn  Zn1  1  0.260050  0.828620  0.590430  1.0  1.0685
  Zn  Zn2  1  0.239950  0.171380  0.090430  1.0  1.0691
  Zn  Zn3  1  0.260050  0.671380  0.590430  1.0  1.0691
  Zn  Zn4  1  0.239950  0.328620  0.090430  1.0  1.0684
  Zn  Zn5  1  0.386280  0.750000  0.649120  1.0  1.0297
  Zn  Zn6  1  0.394550  0.750000  0.532650  1.0  1.1058
  Zn  Zn7  1  0.113720  0.250000  0.149120  1.0  1.0302
  Zn  Zn8  1  0.105450  0.250000  0.032650  1.0  1.1067
  Zn  Zn9  1  0.739950  0.328620  0.409570  1.0  1.0681
  Zn  Zn10  1  0.760050  0.671380  0.909570  1.0  1.0688
  Zn  Zn11  1  0.739950  0.171380  0.409570  1.0  1.0689
  Zn  Zn12  1  0.760050  0.828620  0.909570  1.0  1.0681
  Zn  Zn13  1  0.613720  0.250000  0.350880  1.0  1.0307
  Zn  Zn14  1  0.605450  0.250000  0.467350  1.0  1.1097
  Zn  Zn15  1  0.886280  0.750000  0.850880  1.0  1.0305
  Zn  Zn16  1  0.894550  0.750000  0.967350  1.0  1.1097
  H  H17  1  0.213700  0.971000  0.478600  1.0  0.111
  H  H18  1  0.349000  0.851200  0.403000  1.0  0.0921
  H  H19  1  0.315500  0.904800  0.332100  1.0  0.1007
  H  H20  1  0.141000  0.057100  0.338500  1.0  0.0813
  H  H21  1  0.315500  0.977300  0.274800  1.0  0.0754
  H  H22  1  0.124500  0.125600  0.272300  1.0  0.0758
  H  H23  1  0.281900  0.027100  0.203800  1.0  0.1056
  H  H24  1  0.882600  0.847100  0.603300  1.0  0.0886
  H  H25  1  0.015000  0.845800  0.599600  1.0  0.0868
  H  H26  1  0.286300  0.029000  0.978600  1.0  0.1104
  H  H27  1  0.151000  0.148800  0.903000  1.0  0.0922
  H  H28  1  0.184500  0.095200  0.832100  1.0  0.1009
  H  H29  1  0.359000  0.942900  0.838500  1.0  0.0812
  H  H30  1  0.184500  0.022700  0.774800  1.0  0.075
  H  H31  1  0.375500  0.874400  0.772300  1.0  0.0761
  H  H32  1  0.218100  0.972900  0.703800  1.0  0.1055
  H  H33  1  0.617400  0.152900  0.103300  1.0  0.0885
  H  H34  1  0.485000  0.154200  0.099600  1.0  0.0865
  H  H35  1  0.213700  0.529000  0.478600  1.0  0.1107
  H  H36  1  0.349000  0.648800  0.403000  1.0  0.0923
  H  H37  1  0.315500  0.595200  0.332100  1.0  0.1012
  H  H38  1  0.141000  0.442900  0.338500  1.0  0.0813
  H  H39  1  0.315500  0.522700  0.274800  1.0  0.0765
  H  H40  1  0.124500  0.374400  0.272300  1.0  0.0757
  H  H41  1  0.281900  0.472900  0.203800  1.0  0.1057
  H  H42  1  0.882600  0.652900  0.603300  1.0  0.0884
  H  H43  1  0.015000  0.654200  0.599600  1.0  0.0868
  H  H44  1  0.286300  0.471000  0.978600  1.0  0.1109
  H  H45  1  0.151000  0.351200  0.903000  1.0  0.0917
  H  H46  1  0.184500  0.404800  0.832100  1.0  0.1007
  H  H47  1  0.359000  0.557100  0.838500  1.0  0.0817
  H  H48  1  0.184500  0.477300  0.774800  1.0  0.0754
  H  H49  1  0.375500  0.625600  0.772300  1.0  0.0758
  H  H50  1  0.218100  0.527100  0.703800  1.0  0.1055
  H  H51  1  0.617400  0.347100  0.103300  1.0  0.0887
  H  H52  1  0.485000  0.345800  0.099600  1.0  0.0866
  H  H53  1  0.637400  0.750000  0.673100  1.0  0.1154
  H  H54  1  0.622300  0.750000  0.528700  1.0  0.0962
  H  H55  1  0.764100  0.750000  0.531900  1.0  0.093
  H  H56  1  0.767500  0.750000  0.667400  1.0  0.0334
  H  H57  1  0.862600  0.250000  0.173100  1.0  0.1151
  H  H58  1  0.877700  0.250000  0.028700  1.0  0.096
  H  H59  1  0.735900  0.250000  0.031900  1.0  0.0909
  H  H60  1  0.732500  0.250000  0.167400  1.0  0.0337
  H  H61  1  0.786300  0.471000  0.521400  1.0  0.1106
  H  H62  1  0.651000  0.351200  0.597000  1.0  0.092
  H  H63  1  0.684500  0.404800  0.667900  1.0  0.1004
  H  H64  1  0.859000  0.557100  0.661500  1.0  0.0814
  H  H65  1  0.684500  0.477300  0.725200  1.0  0.0755
  H  H66  1  0.875500  0.625600  0.727700  1.0  0.0757
  H  H67  1  0.718100  0.527100  0.796200  1.0  0.1054
  H  H68  1  0.117400  0.347100  0.396700  1.0  0.0882
  H  H69  1  0.985000  0.345800  0.400400  1.0  0.0866
  H  H70  1  0.713700  0.529000  0.021400  1.0  0.1096
  H  H71  1  0.849000  0.648800  0.097000  1.0  0.0921
  H  H72  1  0.815500  0.595200  0.167900  1.0  0.1008
  H  H73  1  0.641000  0.442900  0.161500  1.0  0.0812
  H  H74  1  0.815500  0.522700  0.225200  1.0  0.0758
  H  H75  1  0.624500  0.374400  0.227700  1.0  0.0756
  H  H76  1  0.781900  0.472900  0.296200  1.0  0.1054
  H  H77  1  0.382600  0.652900  0.896700  1.0  0.0882
  H  H78  1  0.515000  0.654200  0.900400  1.0  0.0868
  H  H79  1  0.786300  0.029000  0.521400  1.0  0.1101
  H  H80  1  0.651000  0.148800  0.597000  1.0  0.0923
  H  H81  1  0.684500  0.095200  0.667900  1.0  0.1007
  H  H82  1  0.859000  0.942900  0.661500  1.0  0.0814
  H  H83  1  0.684500  0.022700  0.725200  1.0  0.0747
  H  H84  1  0.875500  0.874400  0.727700  1.0  0.076
  H  H85  1  0.718100  0.972900  0.796200  1.0  0.1052
  H  H86  1  0.117400  0.152900  0.396700  1.0  0.0883
  H  H87  1  0.985000  0.154200  0.400400  1.0  0.0865
  H  H88  1  0.713700  0.971000  0.021400  1.0  0.1101
  H  H89  1  0.849000  0.851200  0.097000  1.0  0.0922
  H  H90  1  0.815500  0.904800  0.167900  1.0  0.1001
  H  H91  1  0.641000  0.057100  0.161500  1.0  0.0808
  H  H92  1  0.815500  0.977300  0.225200  1.0  0.0753
  H  H93  1  0.624500  0.125600  0.227700  1.0  0.0756
  H  H94  1  0.781900  0.027100  0.296200  1.0  0.1051
  H  H95  1  0.382600  0.847100  0.896700  1.0  0.0881
  H  H96  1  0.515000  0.845800  0.900400  1.0  0.0868
  H  H97  1  0.362600  0.250000  0.326900  1.0  0.115
  H  H98  1  0.377700  0.250000  0.471300  1.0  0.0971
  H  H99  1  0.235900  0.250000  0.468100  1.0  0.0897
  H  H100  1  0.232500  0.250000  0.332600  1.0  0.0349
  H  H101  1  0.137400  0.750000  0.826900  1.0  0.1149
  H  H102  1  0.122300  0.750000  0.971300  1.0  0.0973
  H  H103  1  0.264100  0.750000  0.968100  1.0  0.0888
  H  H104  1  0.267500  0.750000  0.832600  1.0  0.0344
  C  C105  1  0.297900  0.865000  0.494200  1.0  0.688
  C  C106  1  0.286900  0.906600  0.448700  1.0  -0.1507
  C  C107  1  0.237900  0.958200  0.449500  1.0  -0.0621
  C  C108  1  0.315900  0.887700  0.404600  1.0  -0.0427
  C  C109  1  0.297600  0.921200  0.362100  1.0  -0.1494
  C  C110  1  0.223400  0.993300  0.404500  1.0  0.1378
  C  C111  1  0.254700  0.977000  0.362500  1.0  0.0993
  C  C112  1  0.237700  0.014700  0.317200  1.0  0.1002
  C  C113  1  0.177100  0.055300  0.312900  1.0  -0.1615
  C  C114  1  0.274400  0.007500  0.275500  1.0  -0.148
  C  C115  1  0.165300  0.095100  0.271700  1.0  -0.1373
  C  C116  1  0.258300  0.040200  0.233100  1.0  -0.0833
  C  C117  1  0.207800  0.091800  0.233300  1.0  0.0497
  C  C118  1  0.191700  0.131200  0.188300  1.0  0.732
  C  C119  1  0.908100  0.806500  0.600600  1.0  -0.2003
  C  C120  1  0.988100  0.805700  0.598500  1.0  -0.0851
  C  C121  1  0.202100  0.135000  0.994200  1.0  0.6882
  C  C122  1  0.213100  0.093400  0.948700  1.0  -0.1505
  C  C123  1  0.262100  0.041800  0.949500  1.0  -0.06
  C  C124  1  0.184100  0.112300  0.904600  1.0  -0.0431
  C  C125  1  0.202400  0.078800  0.862100  1.0  -0.1499
  C  C126  1  0.276600  0.006700  0.904500  1.0  0.1374
  C  C127  1  0.245300  0.023000  0.862500  1.0  0.1001
  C  C128  1  0.262300  0.985300  0.817200  1.0  0.0994
  C  C129  1  0.322900  0.944700  0.812900  1.0  -0.1607
  C  C130  1  0.225600  0.992500  0.775500  1.0  -0.1501
  C  C131  1  0.334700  0.904900  0.771700  1.0  -0.1377
  C  C132  1  0.241700  0.959800  0.733100  1.0  -0.0839
  C  C133  1  0.292200  0.908200  0.733300  1.0  0.0481
  C  C134  1  0.308300  0.868800  0.688300  1.0  0.7329
  C  C135  1  0.591900  0.193500  0.100600  1.0  -0.2005
  C  C136  1  0.511900  0.194300  0.098500  1.0  -0.0864
  C  C137  1  0.297900  0.635000  0.494200  1.0  0.6885
  C  C138  1  0.286900  0.593400  0.448700  1.0  -0.1511
  C  C139  1  0.237900  0.541800  0.449500  1.0  -0.0624
  C  C140  1  0.315900  0.612300  0.404600  1.0  -0.0424
  C  C141  1  0.297600  0.578800  0.362100  1.0  -0.1496
  C  C142  1  0.223400  0.506700  0.404500  1.0  0.1389
  C  C143  1  0.254700  0.523000  0.362500  1.0  0.1001
  C  C144  1  0.237700  0.485300  0.317200  1.0  0.1001
  C  C145  1  0.177100  0.444700  0.312900  1.0  -0.1619
  C  C146  1  0.274400  0.492500  0.275500  1.0  -0.1483
  C  C147  1  0.165300  0.404900  0.271700  1.0  -0.1371
  C  C148  1  0.258300  0.459800  0.233100  1.0  -0.0832
  C  C149  1  0.207800  0.408200  0.233300  1.0  0.0488
  C  C150  1  0.191700  0.368800  0.188300  1.0  0.7321
  C  C151  1  0.908100  0.693500  0.600600  1.0  -0.1994
  C  C152  1  0.988100  0.694300  0.598500  1.0  -0.0895
  C  C153  1  0.202100  0.365000  0.994200  1.0  0.6879
  C  C154  1  0.213100  0.406600  0.948700  1.0  -0.1501
  C  C155  1  0.262100  0.458200  0.949500  1.0  -0.059
  C  C156  1  0.184100  0.387700  0.904600  1.0  -0.042
  C  C157  1  0.202400  0.421200  0.862100  1.0  -0.1495
  C  C158  1  0.276600  0.493300  0.904500  1.0  0.1354
  C  C159  1  0.245300  0.477000  0.862500  1.0  0.0995
  C  C160  1  0.262300  0.514700  0.817200  1.0  0.0996
  C  C161  1  0.322900  0.555300  0.812900  1.0  -0.1602
  C  C162  1  0.225600  0.507500  0.775500  1.0  -0.1498
  C  C163  1  0.334700  0.595100  0.771700  1.0  -0.1381
  C  C164  1  0.241700  0.540200  0.733100  1.0  -0.0838
  C  C165  1  0.292200  0.591800  0.733300  1.0  0.0489
  C  C166  1  0.308300  0.631200  0.688300  1.0  0.7328
  C  C167  1  0.591900  0.306500  0.100600  1.0  -0.198
  C  C168  1  0.511900  0.305700  0.098500  1.0  -0.0885
  C  C169  1  0.529000  0.750000  0.604300  1.0  0.6811
  C  C170  1  0.618800  0.750000  0.601500  1.0  0.0378
  C  C171  1  0.661100  0.750000  0.642300  1.0  -0.1808
  C  C172  1  0.650100  0.750000  0.558100  1.0  -0.1055
  C  C173  1  0.737800  0.750000  0.561900  1.0  -0.0706
  C  C174  1  0.739700  0.750000  0.637900  1.0  -0.1027
  C  C175  1  0.780500  0.750000  0.599100  1.0  0.1975
  C  C176  1  0.865000  0.750000  0.599000  1.0  0.1409
  C  C177  1  0.028200  0.750000  0.594800  1.0  -0.0717
  C  C178  1  0.115300  0.750000  0.594100  1.0  0.7544
  C  C179  1  0.971000  0.250000  0.104300  1.0  0.6801
  C  C180  1  0.881200  0.250000  0.101500  1.0  0.0396
  C  C181  1  0.838900  0.250000  0.142300  1.0  -0.1805
  C  C182  1  0.849900  0.250000  0.058100  1.0  -0.1049
  C  C183  1  0.762200  0.250000  0.061900  1.0  -0.0696
  C  C184  1  0.760300  0.250000  0.137900  1.0  -0.1057
  C  C185  1  0.719500  0.250000  0.099100  1.0  0.1989
  C  C186  1  0.635000  0.250000  0.099000  1.0  0.139
  C  C187  1  0.471800  0.250000  0.094800  1.0  -0.0734
  C  C188  1  0.384700  0.250000  0.094100  1.0  0.7557
  C  C189  1  0.702100  0.365000  0.505800  1.0  0.688
  C  C190  1  0.713100  0.406600  0.551300  1.0  -0.1495
  C  C191  1  0.762100  0.458200  0.550500  1.0  -0.0617
  C  C192  1  0.684100  0.387700  0.595400  1.0  -0.0419
  C  C193  1  0.702400  0.421200  0.637900  1.0  -0.1499
  C  C194  1  0.776600  0.493300  0.595500  1.0  0.135
  C  C195  1  0.745300  0.477000  0.637500  1.0  0.0994
  C  C196  1  0.762300  0.514700  0.682800  1.0  0.0988
  C  C197  1  0.822900  0.555300  0.687100  1.0  -0.1607
  C  C198  1  0.725600  0.507500  0.724500  1.0  -0.1508
  C  C199  1  0.834700  0.595100  0.728300  1.0  -0.1385
  C  C200  1  0.741700  0.540200  0.766900  1.0  -0.0845
  C  C201  1  0.792200  0.591800  0.766700  1.0  0.0477
  C  C202  1  0.808300  0.631200  0.811700  1.0  0.732
  C  C203  1  0.091900  0.306500  0.399400  1.0  -0.2006
  C  C204  1  0.011900  0.305700  0.401500  1.0  -0.0864
  C  C205  1  0.797900  0.635000  0.005800  1.0  0.6884
  C  C206  1  0.786900  0.593400  0.051300  1.0  -0.1495
  C  C207  1  0.737900  0.541800  0.050500  1.0  -0.0638
  C  C208  1  0.815900  0.612300  0.095400  1.0  -0.0427
  C  C209  1  0.797600  0.578800  0.137900  1.0  -0.1501
  C  C210  1  0.723400  0.506700  0.095500  1.0  0.139
  C  C211  1  0.754700  0.523000  0.137500  1.0  0.1002
  C  C212  1  0.737700  0.485300  0.182800  1.0  0.0993
  C  C213  1  0.677100  0.444700  0.187100  1.0  -0.1623
  C  C214  1  0.774400  0.492500  0.224500  1.0  -0.148
  C  C215  1  0.665300  0.404900  0.228300  1.0  -0.1374
  C  C216  1  0.758300  0.459800  0.266900  1.0  -0.0837
  C  C217  1  0.707800  0.408200  0.266700  1.0  0.0482
  C  C218  1  0.691700  0.368800  0.311700  1.0  0.7308
  C  C219  1  0.408100  0.693500  0.899400  1.0  -0.2019
  C  C220  1  0.488100  0.694300  0.901500  1.0  -0.0865
  C  C221  1  0.702100  0.135000  0.505800  1.0  0.6883
  C  C222  1  0.713100  0.093400  0.551300  1.0  -0.1494
  C  C223  1  0.762100  0.041800  0.550500  1.0  -0.0635
  C  C224  1  0.684100  0.112300  0.595400  1.0  -0.0431
  C  C225  1  0.702400  0.078800  0.637900  1.0  -0.1505
  C  C226  1  0.776600  0.006700  0.595500  1.0  0.1377
  C  C227  1  0.745300  0.023000  0.637500  1.0  0.1003
  C  C228  1  0.762300  0.985300  0.682800  1.0  0.0986
  C  C229  1  0.822900  0.944700  0.687100  1.0  -0.1606
  C  C230  1  0.725600  0.992500  0.724500  1.0  -0.1507
  C  C231  1  0.834700  0.904900  0.728300  1.0  -0.1381
  C  C232  1  0.741700  0.959800  0.766900  1.0  -0.085
  C  C233  1  0.792200  0.908200  0.766700  1.0  0.048
  C  C234  1  0.808300  0.868800  0.811700  1.0  0.7314
  C  C235  1  0.091900  0.193500  0.399400  1.0  -0.2002
  C  C236  1  0.011900  0.194300  0.401500  1.0  -0.0896
  C  C237  1  0.797900  0.865000  0.005800  1.0  0.6877
  C  C238  1  0.786900  0.906600  0.051300  1.0  -0.1496
  C  C239  1  0.737900  0.958200  0.050500  1.0  -0.0624
  C  C240  1  0.815900  0.887700  0.095400  1.0  -0.043
  C  C241  1  0.797600  0.921200  0.137900  1.0  -0.1496
  C  C242  1  0.723400  0.993300  0.095500  1.0  0.1371
  C  C243  1  0.754700  0.977000  0.137500  1.0  0.0994
  C  C244  1  0.737700  0.014700  0.182800  1.0  0.0997
  C  C245  1  0.677100  0.055300  0.187100  1.0  -0.1622
  C  C246  1  0.774400  0.007500  0.224500  1.0  -0.1479
  C  C247  1  0.665300  0.095100  0.228300  1.0  -0.1375
  C  C248  1  0.758300  0.040200  0.266900  1.0  -0.0836
  C  C249  1  0.707800  0.091800  0.266700  1.0  0.0482
  C  C250  1  0.691700  0.131200  0.311700  1.0  0.7313
  C  C251  1  0.408100  0.806500  0.899400  1.0  -0.1997
  C  C252  1  0.488100  0.805700  0.901500  1.0  -0.0885
  C  C253  1  0.471000  0.250000  0.395700  1.0  0.6803
  C  C254  1  0.381200  0.250000  0.398500  1.0  0.039
  C  C255  1  0.338900  0.250000  0.357700  1.0  -0.1807
  C  C256  1  0.349900  0.250000  0.441900  1.0  -0.1066
  C  C257  1  0.262200  0.250000  0.438100  1.0  -0.0696
  C  C258  1  0.260300  0.250000  0.362100  1.0  -0.1056
  C  C259  1  0.219500  0.250000  0.400900  1.0  0.1987
  C  C260  1  0.135000  0.250000  0.401000  1.0  0.1388
  C  C261  1  0.971800  0.250000  0.405200  1.0  -0.0735
  C  C262  1  0.884700  0.250000  0.405900  1.0  0.7556
  C  C263  1  0.029000  0.750000  0.895700  1.0  0.6811
  C  C264  1  0.118800  0.750000  0.898500  1.0  0.0377
  C  C265  1  0.161100  0.750000  0.857700  1.0  -0.1801
  C  C266  1  0.150100  0.750000  0.941900  1.0  -0.1089
  C  C267  1  0.237800  0.750000  0.938100  1.0  -0.0709
  C  C268  1  0.239700  0.750000  0.862100  1.0  -0.1032
  C  C269  1  0.280500  0.750000  0.900900  1.0  0.1969
  C  C270  1  0.365000  0.750000  0.901000  1.0  0.1407
  C  C271  1  0.528200  0.750000  0.905200  1.0  -0.0728
  C  C272  1  0.615300  0.750000  0.905900  1.0  0.7543
  O  O273  1  0.264000  0.883800  0.532490  1.0  -0.6027
  O  O274  1  0.353000  0.823900  0.492900  1.0  -0.6393
  O  O275  1  0.231600  0.120200  0.150080  1.0  -0.6292
  O  O276  1  0.141300  0.176100  0.192940  1.0  -0.6258
  O  O277  1  0.148300  0.803800  0.592800  1.0  -0.6057
  O  O278  1  0.236000  0.116200  0.032490  1.0  -0.6032
  O  O279  1  0.147000  0.176100  0.992900  1.0  -0.6402
  O  O280  1  0.268400  0.879800  0.650080  1.0  -0.6285
  O  O281  1  0.358700  0.823900  0.692940  1.0  -0.6252
  O  O282  1  0.351700  0.196200  0.092800  1.0  -0.6051
  O  O283  1  0.264000  0.616200  0.532490  1.0  -0.6028
  O  O284  1  0.353000  0.676100  0.492900  1.0  -0.6391
  O  O285  1  0.231600  0.379800  0.150080  1.0  -0.6289
  O  O286  1  0.141300  0.323900  0.192940  1.0  -0.6254
  O  O287  1  0.148300  0.696200  0.592800  1.0  -0.6038
  O  O288  1  0.236000  0.383800  0.032490  1.0  -0.6026
  O  O289  1  0.147000  0.323900  0.992900  1.0  -0.6412
  O  O290  1  0.268400  0.620200  0.650080  1.0  -0.6284
  O  O291  1  0.358700  0.676100  0.692940  1.0  -0.6259
  O  O292  1  0.351700  0.303800  0.092800  1.0  -0.6061
  O  O293  1  0.498300  0.750000  0.644600  1.0  -0.5564
  O  O294  1  0.494600  0.750000  0.563500  1.0  -0.6689
  O  O295  1  0.323400  0.750000  0.590540  1.0  -1.2559
  O  O296  1  0.001700  0.250000  0.144600  1.0  -0.5562
  O  O297  1  0.005400  0.250000  0.063500  1.0  -0.6689
  O  O298  1  0.176600  0.250000  0.090540  1.0  -1.2555
  O  O299  1  0.736000  0.383800  0.467510  1.0  -0.6036
  O  O300  1  0.647000  0.323900  0.507100  1.0  -0.6415
  O  O301  1  0.768400  0.620200  0.849920  1.0  -0.6279
  O  O302  1  0.858700  0.676100  0.807060  1.0  -0.6257
  O  O303  1  0.851700  0.303800  0.407200  1.0  -0.6056
  O  O304  1  0.764000  0.616200  0.967510  1.0  -0.6017
  O  O305  1  0.853000  0.676100  0.007100  1.0  -0.6393
  O  O306  1  0.731600  0.379800  0.349920  1.0  -0.6278
  O  O307  1  0.641300  0.323900  0.307060  1.0  -0.6251
  O  O308  1  0.648300  0.696200  0.907200  1.0  -0.6036
  O  O309  1  0.736000  0.116200  0.467510  1.0  -0.6024
  O  O310  1  0.647000  0.176100  0.507100  1.0  -0.6404
  O  O311  1  0.768400  0.879800  0.849920  1.0  -0.6274
  O  O312  1  0.858700  0.823900  0.807060  1.0  -0.625
  O  O313  1  0.851700  0.196200  0.407200  1.0  -0.6049
  O  O314  1  0.764000  0.883800  0.967510  1.0  -0.6034
  O  O315  1  0.853000  0.823900  0.007100  1.0  -0.6397
  O  O316  1  0.731600  0.120200  0.349920  1.0  -0.6287
  O  O317  1  0.641300  0.176100  0.307060  1.0  -0.6257
  O  O318  1  0.648300  0.803800  0.907200  1.0  -0.6052
  O  O319  1  0.501700  0.250000  0.355400  1.0  -0.5556
  O  O320  1  0.505400  0.250000  0.436500  1.0  -0.6692
  O  O321  1  0.676600  0.250000  0.409460  1.0  -1.2559
  O  O322  1  0.998300  0.750000  0.855400  1.0  -0.5556
  O  O323  1  0.994600  0.750000  0.936500  1.0  -0.6687
  O  O324  1  0.823400  0.750000  0.909460  1.0  -1.2563
