# generated using pymatgen
data_Er2H9C21(NO4)3
_symmetry_space_group_name_H-M   'P 1'
_cell_length_a   8.43800000
_cell_length_b   15.93400000
_cell_length_c   27.79500000
_cell_angle_alpha   90.00000000
_cell_angle_beta   90.00000000
_cell_angle_gamma   90.00000000
_symmetry_Int_Tables_number   1
_chemical_formula_structural   Er2H9C21(NO4)3
_chemical_formula_sum   'Er8 H36 C84 N12 O48'
_cell_volume   3737.06810214
_cell_formula_units_Z   4
loop_
 _symmetry_equiv_pos_site_id
 _symmetry_equiv_pos_as_xyz
  1  'x, y, z'
loop_
 _atom_site_type_symbol
 _atom_site_label
 _atom_site_symmetry_multiplicity
 _atom_site_fract_x
 _atom_site_fract_y
 _atom_site_fract_z
 _atom_site_occupancy
 _atom_site_charge
  Er  Er1  1  0.523120  0.698890  0.918680  1.0  1.5281
  Er  Er2  1  0.976880  0.198890  0.081320  1.0  1.5283
  Er  Er3  1  0.476880  0.301110  0.418680  1.0  1.5273
  Er  Er4  1  0.023120  0.801110  0.581320  1.0  1.5279
  Er  Er5  1  0.476880  0.301110  0.081320  1.0  1.5263
  Er  Er6  1  0.023120  0.801110  0.918680  1.0  1.5275
  Er  Er7  1  0.523120  0.698890  0.581320  1.0  1.527
  Er  Er8  1  0.976880  0.198890  0.418680  1.0  1.5279
  H  H9  1  0.595200  0.817000  0.044000  1.0  0.0969
  H  H10  1  0.226700  0.974800  0.023000  1.0  0.1173
  H  H11  1  0.600300  0.038300  0.105800  1.0  0.0861
  H  H12  1  0.184000  0.906300  0.820800  1.0  0.088
  H  H13  1  0.904800  0.317000  0.956000  1.0  0.097
  H  H14  1  0.273300  0.474800  0.977000  1.0  0.1176
  H  H15  1  0.899700  0.538300  0.894200  1.0  0.0858
  H  H16  1  0.316000  0.406300  0.179200  1.0  0.0886
  H  H17  1  0.404800  0.183000  0.544000  1.0  0.0973
  H  H18  1  0.773300  0.025200  0.523000  1.0  0.1178
  H  H19  1  0.399700  0.961700  0.605800  1.0  0.0861
  H  H20  1  0.816000  0.093700  0.320800  1.0  0.0879
  H  H21  1  0.095200  0.683000  0.456000  1.0  0.0968
  H  H22  1  0.726700  0.525200  0.477000  1.0  0.1173
  H  H23  1  0.100300  0.461700  0.394200  1.0  0.0856
  H  H24  1  0.684000  0.593700  0.679200  1.0  0.0887
  H  H25  1  0.404800  0.183000  0.956000  1.0  0.0972
  H  H26  1  0.773300  0.025200  0.977000  1.0  0.1176
  H  H27  1  0.399700  0.961700  0.894200  1.0  0.0856
  H  H28  1  0.816000  0.093700  0.179200  1.0  0.0887
  H  H29  1  0.095200  0.683000  0.044000  1.0  0.0968
  H  H30  1  0.726700  0.525200  0.023000  1.0  0.1175
  H  H31  1  0.100300  0.461700  0.105800  1.0  0.0861
  H  H32  1  0.684000  0.593700  0.820800  1.0  0.0882
  H  H33  1  0.595200  0.817000  0.456000  1.0  0.0969
  H  H34  1  0.226700  0.974800  0.477000  1.0  0.1172
  H  H35  1  0.600300  0.038300  0.394200  1.0  0.0857
  H  H36  1  0.184000  0.906300  0.679200  1.0  0.0886
  H  H37  1  0.904800  0.317000  0.544000  1.0  0.0968
  H  H38  1  0.273300  0.474800  0.523000  1.0  0.1177
  H  H39  1  0.899700  0.538300  0.605800  1.0  0.0859
  H  H40  1  0.316000  0.406300  0.320800  1.0  0.0879
  H  H41  1  0.389200  0.715700  0.750000  1.0  0.1108
  H  H42  1  0.110800  0.215700  0.250000  1.0  0.1108
  H  H43  1  0.610800  0.284300  0.250000  1.0  0.1111
  H  H44  1  0.889200  0.784300  0.750000  1.0  0.1108
  C  C45  1  0.545700  0.869600  0.049700  1.0  0.2204
  C  C46  1  0.400000  0.886200  0.027600  1.0  -0.2365
  C  C47  1  0.327200  0.962400  0.036600  1.0  0.0741
  C  C48  1  0.403000  0.020600  0.066000  1.0  -0.2293
  C  C49  1  0.548000  0.998500  0.085900  1.0  0.218
  C  C50  1  0.327900  0.824200  0.994800  1.0  0.7283
  C  C51  1  0.333100  0.105900  0.074100  1.0  0.7343
  C  C52  1  0.211600  0.880200  0.791200  1.0  0.233
  C  C53  1  0.289600  0.803200  0.792800  1.0  -0.2116
  C  C54  1  0.331000  0.765800  0.839800  1.0  0.7182
  C  C55  1  0.954300  0.369600  0.950300  1.0  0.2223
  C  C56  1  0.100000  0.386200  0.972400  1.0  -0.2349
  C  C57  1  0.172800  0.462400  0.963400  1.0  0.0776
  C  C58  1  0.097000  0.520600  0.934000  1.0  -0.2269
  C  C59  1  0.952000  0.498500  0.914100  1.0  0.2185
  C  C60  1  0.172100  0.324200  0.005200  1.0  0.728
  C  C61  1  0.166900  0.605900  0.925900  1.0  0.736
  C  C62  1  0.288400  0.380200  0.208800  1.0  0.2315
  C  C63  1  0.210400  0.303200  0.207200  1.0  -0.2113
  C  C64  1  0.169000  0.265800  0.160200  1.0  0.7183
  C  C65  1  0.454300  0.130400  0.549700  1.0  0.2216
  C  C66  1  0.600000  0.113800  0.527600  1.0  -0.2378
  C  C67  1  0.672800  0.037600  0.536600  1.0  0.0767
  C  C68  1  0.597000  0.979400  0.566000  1.0  -0.2282
  C  C69  1  0.452000  0.001500  0.585900  1.0  0.2178
  C  C70  1  0.672100  0.175800  0.494800  1.0  0.7287
  C  C71  1  0.666900  0.894100  0.574100  1.0  0.7349
  C  C72  1  0.788400  0.119800  0.291200  1.0  0.2329
  C  C73  1  0.710400  0.196800  0.292800  1.0  -0.2114
  C  C74  1  0.669000  0.234200  0.339800  1.0  0.7185
  C  C75  1  0.045700  0.630400  0.450300  1.0  0.221
  C  C76  1  0.900000  0.613800  0.472400  1.0  -0.2338
  C  C77  1  0.827200  0.537600  0.463400  1.0  0.0753
  C  C78  1  0.903000  0.479400  0.434000  1.0  -0.2281
  C  C79  1  0.048000  0.501500  0.414100  1.0  0.2168
  C  C80  1  0.827900  0.675800  0.505200  1.0  0.7283
  C  C81  1  0.833100  0.394100  0.425900  1.0  0.7364
  C  C82  1  0.711600  0.619800  0.708800  1.0  0.2329
  C  C83  1  0.789600  0.696800  0.707200  1.0  -0.2121
  C  C84  1  0.831000  0.734200  0.660200  1.0  0.7184
  C  C85  1  0.454300  0.130400  0.950300  1.0  0.2224
  C  C86  1  0.600000  0.113800  0.972400  1.0  -0.2348
  C  C87  1  0.672800  0.037600  0.963400  1.0  0.0773
  C  C88  1  0.597000  0.979400  0.934000  1.0  -0.2286
  C  C89  1  0.452000  0.001500  0.914100  1.0  0.2182
  C  C90  1  0.672100  0.175800  0.005200  1.0  0.729
  C  C91  1  0.666900  0.894100  0.925900  1.0  0.7365
  C  C92  1  0.788400  0.119800  0.208800  1.0  0.2273
  C  C93  1  0.710400  0.196800  0.207200  1.0  -0.2099
  C  C94  1  0.669000  0.234200  0.160200  1.0  0.7186
  C  C95  1  0.045700  0.630400  0.049700  1.0  0.2213
  C  C96  1  0.900000  0.613800  0.027600  1.0  -0.2378
  C  C97  1  0.827200  0.537600  0.036600  1.0  0.0744
  C  C98  1  0.903000  0.479400  0.066000  1.0  -0.2289
  C  C99  1  0.048000  0.501500  0.085900  1.0  0.2177
  C  C100  1  0.827900  0.675800  0.994800  1.0  0.7294
  C  C101  1  0.833100  0.394100  0.074100  1.0  0.7345
  C  C102  1  0.711600  0.619800  0.791200  1.0  0.2299
  C  C103  1  0.789600  0.696800  0.792800  1.0  -0.2102
  C  C104  1  0.831000  0.734200  0.839800  1.0  0.7183
  C  C105  1  0.545700  0.869600  0.450300  1.0  0.2204
  C  C106  1  0.400000  0.886200  0.472400  1.0  -0.2351
  C  C107  1  0.327200  0.962400  0.463400  1.0  0.0756
  C  C108  1  0.403000  0.020600  0.434000  1.0  -0.2259
  C  C109  1  0.548000  0.998500  0.414100  1.0  0.217
  C  C110  1  0.327900  0.824200  0.505200  1.0  0.7283
  C  C111  1  0.333100  0.105900  0.425900  1.0  0.7361
  C  C112  1  0.211600  0.880200  0.708800  1.0  0.2281
  C  C113  1  0.289600  0.803200  0.707200  1.0  -0.21
  C  C114  1  0.331000  0.765800  0.660200  1.0  0.7182
  C  C115  1  0.954300  0.369600  0.549700  1.0  0.2221
  C  C116  1  0.100000  0.386200  0.527600  1.0  -0.2359
  C  C117  1  0.172800  0.462400  0.536600  1.0  0.076
  C  C118  1  0.097000  0.520600  0.566000  1.0  -0.2285
  C  C119  1  0.952000  0.498500  0.585900  1.0  0.2185
  C  C120  1  0.172100  0.324200  0.494800  1.0  0.7287
  C  C121  1  0.166900  0.605900  0.574100  1.0  0.7346
  C  C122  1  0.288400  0.380200  0.291200  1.0  0.2277
  C  C123  1  0.210400  0.303200  0.292800  1.0  -0.2096
  C  C124  1  0.169000  0.265800  0.339800  1.0  0.7185
  C  C125  1  0.331100  0.766800  0.750000  1.0  0.0774
  C  C126  1  0.168900  0.266800  0.250000  1.0  0.0776
  C  C127  1  0.668900  0.233200  0.250000  1.0  0.0783
  C  C128  1  0.831100  0.733200  0.750000  1.0  0.0783
  N  N129  1  0.618000  0.924700  0.078500  1.0  -0.3403
  N  N130  1  0.882000  0.424700  0.921500  1.0  -0.3453
  N  N131  1  0.382000  0.075300  0.578500  1.0  -0.3396
  N  N132  1  0.118000  0.575300  0.421500  1.0  -0.346
  N  N133  1  0.382000  0.075300  0.921500  1.0  -0.3459
  N  N134  1  0.118000  0.575300  0.078500  1.0  -0.3393
  N  N135  1  0.618000  0.924700  0.421500  1.0  -0.3468
  N  N136  1  0.882000  0.424700  0.578500  1.0  -0.3397
  N  N137  1  0.173000  0.919800  0.750000  1.0  -0.3776
  N  N138  1  0.327000  0.419800  0.250000  1.0  -0.382
  N  N139  1  0.827000  0.080200  0.250000  1.0  -0.3674
  N  N140  1  0.673000  0.580200  0.750000  1.0  -0.3703
  O  O141  1  0.408000  0.759600  0.984600  1.0  -0.5863
  O  O142  1  0.192400  0.838800  0.978200  1.0  -0.6262
  O  O143  1  0.423800  0.162000  0.090000  1.0  -0.6005
  O  O144  1  0.189900  0.115300  0.063800  1.0  -0.6242
  O  O145  1  0.435100  0.708500  0.840900  1.0  -0.6126
  O  O146  1  0.267500  0.792100  0.878450  1.0  -0.6851
  O  O147  1  0.092000  0.259600  0.015400  1.0  -0.5854
  O  O148  1  0.307600  0.338800  0.021800  1.0  -0.6224
  O  O149  1  0.076200  0.662000  0.910000  1.0  -0.6007
  O  O150  1  0.310100  0.615300  0.936200  1.0  -0.6237
  O  O151  1  0.064900  0.208500  0.159100  1.0  -0.6124
  O  O152  1  0.232500  0.292100  0.121550  1.0  -0.688
  O  O153  1  0.592000  0.240400  0.484600  1.0  -0.5867
  O  O154  1  0.807600  0.161200  0.478200  1.0  -0.6219
  O  O155  1  0.576200  0.838000  0.590000  1.0  -0.601
  O  O156  1  0.810100  0.884700  0.563800  1.0  -0.6236
  O  O157  1  0.564900  0.291500  0.340900  1.0  -0.6121
  O  O158  1  0.732500  0.207900  0.378450  1.0  -0.6847
  O  O159  1  0.908000  0.740400  0.515400  1.0  -0.5849
  O  O160  1  0.692400  0.661200  0.521800  1.0  -0.6268
  O  O161  1  0.923800  0.338000  0.410000  1.0  -0.601
  O  O162  1  0.689900  0.384700  0.436200  1.0  -0.6248
  O  O163  1  0.935100  0.791500  0.659100  1.0  -0.6129
  O  O164  1  0.767500  0.707900  0.621550  1.0  -0.6876
  O  O165  1  0.592000  0.240400  0.015400  1.0  -0.586
  O  O166  1  0.807600  0.161200  0.021800  1.0  -0.6225
  O  O167  1  0.576200  0.838000  0.910000  1.0  -0.6009
  O  O168  1  0.810100  0.884700  0.936200  1.0  -0.6237
  O  O169  1  0.564900  0.291500  0.159100  1.0  -0.6123
  O  O170  1  0.732500  0.207900  0.121550  1.0  -0.6883
  O  O171  1  0.908000  0.740400  0.984600  1.0  -0.5855
  O  O172  1  0.692400  0.661200  0.978200  1.0  -0.6266
  O  O173  1  0.923800  0.338000  0.090000  1.0  -0.6012
  O  O174  1  0.689900  0.384700  0.063800  1.0  -0.6248
  O  O175  1  0.935100  0.791500  0.840900  1.0  -0.6128
  O  O176  1  0.767500  0.707900  0.878450  1.0  -0.6842
  O  O177  1  0.408000  0.759600  0.515400  1.0  -0.5855
  O  O178  1  0.192400  0.838800  0.521800  1.0  -0.6261
  O  O179  1  0.423800  0.162000  0.410000  1.0  -0.6009
  O  O180  1  0.189900  0.115300  0.436200  1.0  -0.6245
  O  O181  1  0.435100  0.708500  0.659100  1.0  -0.6129
  O  O182  1  0.267500  0.792100  0.621550  1.0  -0.6876
  O  O183  1  0.092000  0.259600  0.484600  1.0  -0.5861
  O  O184  1  0.307600  0.338800  0.478200  1.0  -0.622
  O  O185  1  0.076200  0.662000  0.590000  1.0  -0.6003
  O  O186  1  0.310100  0.615300  0.563800  1.0  -0.6233
  O  O187  1  0.064900  0.208500  0.340900  1.0  -0.6122
  O  O188  1  0.232500  0.292100  0.378450  1.0  -0.6855
