# generated using pymatgen
data_Y2H9C21(NO4)3
_symmetry_space_group_name_H-M   'P 1'
_cell_length_a   8.50830000
_cell_length_b   15.70400000
_cell_length_c   28.45200000
_cell_angle_alpha   90.00000000
_cell_angle_beta   90.00000000
_cell_angle_gamma   90.00000000
_symmetry_Int_Tables_number   1
_chemical_formula_structural   Y2H9C21(NO4)3
_chemical_formula_sum   'Y8 H36 C84 N12 O48'
_cell_volume   3801.59529273
_cell_formula_units_Z   4
loop_
 _symmetry_equiv_pos_site_id
 _symmetry_equiv_pos_as_xyz
  1  'x, y, z'
loop_
 _atom_site_type_symbol
 _atom_site_label
 _atom_site_symmetry_multiplicity
 _atom_site_fract_x
 _atom_site_fract_y
 _atom_site_fract_z
 _atom_site_occupancy
 _atom_site_charge
  Y  Y1  1  0.973780  0.801420  0.584860  1.0  2.1006
  Y  Y2  1  0.526220  0.301420  0.415140  1.0  2.1001
  Y  Y3  1  0.026220  0.198580  0.084860  1.0  2.1003
  Y  Y4  1  0.473780  0.698580  0.915140  1.0  2.1001
  Y  Y5  1  0.026220  0.198580  0.415140  1.0  2.0999
  Y  Y6  1  0.473780  0.698580  0.584860  1.0  2.1003
  Y  Y7  1  0.973780  0.801420  0.915140  1.0  2.1003
  Y  Y8  1  0.526220  0.301420  0.084860  1.0  2.1002
  H  H9  1  0.898700  0.464300  0.398400  1.0  0.0744
  H  H10  1  0.277300  0.526400  0.476300  1.0  0.1095
  H  H11  1  0.902400  0.681800  0.464700  1.0  0.0806
  H  H12  1  0.326300  0.595500  0.680700  1.0  0.0746
  H  H13  1  0.601300  0.964300  0.601600  1.0  0.0745
  H  H14  1  0.222700  0.026400  0.523700  1.0  0.1088
  H  H15  1  0.597600  0.181800  0.535300  1.0  0.0799
  H  H16  1  0.173700  0.095500  0.319300  1.0  0.0751
  H  H17  1  0.101300  0.535700  0.898400  1.0  0.0739
  H  H18  1  0.722700  0.473600  0.976300  1.0  0.1089
  H  H19  1  0.097600  0.318200  0.964700  1.0  0.0795
  H  H20  1  0.673700  0.404500  0.180700  1.0  0.0748
  H  H21  1  0.398700  0.035700  0.101600  1.0  0.075
  H  H22  1  0.777300  0.973600  0.023700  1.0  0.1096
  H  H23  1  0.402400  0.818200  0.035300  1.0  0.0792
  H  H24  1  0.826300  0.904500  0.819300  1.0  0.0745
  H  H25  1  0.101300  0.535700  0.601600  1.0  0.0746
  H  H26  1  0.722700  0.473600  0.523700  1.0  0.1089
  H  H27  1  0.097600  0.318200  0.535300  1.0  0.0794
  H  H28  1  0.673700  0.404500  0.319300  1.0  0.0749
  H  H29  1  0.398700  0.035700  0.398400  1.0  0.0743
  H  H30  1  0.777300  0.973600  0.476300  1.0  0.1094
  H  H31  1  0.402400  0.818200  0.464700  1.0  0.0794
  H  H32  1  0.826300  0.904500  0.680700  1.0  0.0746
  H  H33  1  0.898700  0.464300  0.101600  1.0  0.0751
  H  H34  1  0.277300  0.526400  0.023700  1.0  0.1096
  H  H35  1  0.902400  0.681800  0.035300  1.0  0.0799
  H  H36  1  0.326300  0.595500  0.819300  1.0  0.0744
  H  H37  1  0.601300  0.964300  0.898400  1.0  0.074
  H  H38  1  0.222700  0.026400  0.976300  1.0  0.109
  H  H39  1  0.597600  0.181800  0.964700  1.0  0.0803
  H  H40  1  0.173700  0.095500  0.180700  1.0  0.0749
  H  H41  1  0.103200  0.782900  0.750000  1.0  0.1111
  H  H42  1  0.396800  0.282900  0.250000  1.0  0.111
  H  H43  1  0.896800  0.217100  0.250000  1.0  0.1111
  H  H44  1  0.603200  0.717100  0.750000  1.0  0.1109
  C  C45  1  0.951400  0.503800  0.418160  1.0  0.2375
  C  C46  1  0.099200  0.482200  0.434780  1.0  -0.272
  C  C47  1  0.175700  0.539100  0.464330  1.0  0.0909
  C  C48  1  0.102100  0.614000  0.475950  1.0  -0.2691
  C  C49  1  0.953100  0.629800  0.456730  1.0  0.251
  C  C50  1  0.172700  0.676400  0.510580  1.0  0.7835
  C  C51  1  0.170800  0.398000  0.423960  1.0  0.7936
  C  C52  1  0.295200  0.620500  0.709640  1.0  0.2537
  C  C53  1  0.210500  0.695500  0.707960  1.0  -0.2549
  C  C54  1  0.166500  0.733300  0.662010  1.0  0.7736
  C  C55  1  0.548600  0.003800  0.581840  1.0  0.2362
  C  C56  1  0.400800  0.982200  0.565220  1.0  -0.2735
  C  C57  1  0.324300  0.039100  0.535670  1.0  0.0902
  C  C58  1  0.397900  0.114000  0.524050  1.0  -0.2707
  C  C59  1  0.546900  0.129800  0.543270  1.0  0.2506
  C  C60  1  0.327300  0.176400  0.489420  1.0  0.7851
  C  C61  1  0.329200  0.898000  0.576040  1.0  0.7944
  C  C62  1  0.204800  0.120500  0.290360  1.0  0.2573
  C  C63  1  0.289500  0.195500  0.292040  1.0  -0.2564
  C  C64  1  0.333500  0.233300  0.337990  1.0  0.7753
  C  C65  1  0.048600  0.496200  0.918160  1.0  0.2362
  C  C66  1  0.900800  0.517800  0.934780  1.0  -0.2696
  C  C67  1  0.824300  0.460900  0.964330  1.0  0.0913
  C  C68  1  0.897900  0.386000  0.975950  1.0  -0.2688
  C  C69  1  0.046900  0.370200  0.956730  1.0  0.2496
  C  C70  1  0.827300  0.323600  0.010580  1.0  0.7856
  C  C71  1  0.829200  0.602000  0.923960  1.0  0.795
  C  C72  1  0.704800  0.379500  0.209640  1.0  0.2552
  C  C73  1  0.789500  0.304500  0.207960  1.0  -0.2556
  C  C74  1  0.833500  0.266700  0.162010  1.0  0.7738
  C  C75  1  0.451400  0.996200  0.081840  1.0  0.2368
  C  C76  1  0.599200  0.017800  0.065220  1.0  -0.2734
  C  C77  1  0.675700  0.960900  0.035670  1.0  0.0901
  C  C78  1  0.602100  0.886000  0.024050  1.0  -0.2696
  C  C79  1  0.453100  0.870200  0.043270  1.0  0.2497
  C  C80  1  0.672700  0.823600  0.989420  1.0  0.7832
  C  C81  1  0.670800  0.102000  0.076040  1.0  0.7936
  C  C82  1  0.795200  0.879500  0.790360  1.0  0.254
  C  C83  1  0.710500  0.804500  0.792040  1.0  -0.2538
  C  C84  1  0.666500  0.766700  0.837990  1.0  0.7735
  C  C85  1  0.048600  0.496200  0.581840  1.0  0.2365
  C  C86  1  0.900800  0.517800  0.565220  1.0  -0.2741
  C  C87  1  0.824300  0.460900  0.535670  1.0  0.0909
  C  C88  1  0.897900  0.386000  0.524050  1.0  -0.2696
  C  C89  1  0.046900  0.370200  0.543270  1.0  0.2496
  C  C90  1  0.827300  0.323600  0.489420  1.0  0.7852
  C  C91  1  0.829200  0.602000  0.576040  1.0  0.7945
  C  C92  1  0.704800  0.379500  0.290360  1.0  0.2551
  C  C93  1  0.789500  0.304500  0.292040  1.0  -0.2553
  C  C94  1  0.833500  0.266700  0.337990  1.0  0.7747
  C  C95  1  0.451400  0.996200  0.418160  1.0  0.2373
  C  C96  1  0.599200  0.017800  0.434780  1.0  -0.2707
  C  C97  1  0.675700  0.960900  0.464330  1.0  0.0911
  C  C98  1  0.602100  0.886000  0.475950  1.0  -0.2697
  C  C99  1  0.453100  0.870200  0.456730  1.0  0.2512
  C  C100  1  0.672700  0.823600  0.510580  1.0  0.7837
  C  C101  1  0.670800  0.102000  0.423960  1.0  0.7936
  C  C102  1  0.795200  0.879500  0.709640  1.0  0.2539
  C  C103  1  0.710500  0.804500  0.707960  1.0  -0.2541
  C  C104  1  0.666500  0.766700  0.662010  1.0  0.7728
  C  C105  1  0.951400  0.503800  0.081840  1.0  0.2359
  C  C106  1  0.099200  0.482200  0.065220  1.0  -0.2729
  C  C107  1  0.175700  0.539100  0.035670  1.0  0.0899
  C  C108  1  0.102100  0.614000  0.024050  1.0  -0.271
  C  C109  1  0.953100  0.629800  0.043270  1.0  0.2497
  C  C110  1  0.172700  0.676400  0.989420  1.0  0.7831
  C  C111  1  0.170800  0.398000  0.076040  1.0  0.7936
  C  C112  1  0.295200  0.620500  0.790360  1.0  0.2554
  C  C113  1  0.210500  0.695500  0.792040  1.0  -0.2548
  C  C114  1  0.166500  0.733300  0.837990  1.0  0.7741
  C  C115  1  0.548600  0.003800  0.918160  1.0  0.2364
  C  C116  1  0.400800  0.982200  0.934780  1.0  -0.2717
  C  C117  1  0.324300  0.039100  0.964330  1.0  0.0909
  C  C118  1  0.397900  0.114000  0.975950  1.0  -0.2674
  C  C119  1  0.546900  0.129800  0.956730  1.0  0.2506
  C  C120  1  0.327300  0.176400  0.010580  1.0  0.7854
  C  C121  1  0.329200  0.898000  0.923960  1.0  0.7948
  C  C122  1  0.204800  0.120500  0.209640  1.0  0.2554
  C  C123  1  0.289500  0.195500  0.207960  1.0  -0.2564
  C  C124  1  0.333500  0.233300  0.162010  1.0  0.7746
  C  C125  1  0.165000  0.732600  0.750000  1.0  0.0795
  C  C126  1  0.335000  0.232600  0.250000  1.0  0.0809
  C  C127  1  0.835000  0.267400  0.250000  1.0  0.0805
  C  C128  1  0.665000  0.767400  0.750000  1.0  0.0798
  N  N129  1  0.878900  0.576800  0.428250  1.0  -0.4352
  N  N130  1  0.621100  0.076800  0.571750  1.0  -0.4341
  N  N131  1  0.121100  0.423200  0.928250  1.0  -0.4341
  N  N132  1  0.378900  0.923200  0.071750  1.0  -0.4342
  N  N133  1  0.121100  0.423200  0.571750  1.0  -0.4331
  N  N134  1  0.378900  0.923200  0.428250  1.0  -0.4345
  N  N135  1  0.878900  0.576800  0.071750  1.0  -0.4347
  N  N136  1  0.621100  0.076800  0.928250  1.0  -0.4352
  N  N137  1  0.336800  0.580100  0.750000  1.0  -0.4083
  N  N138  1  0.163200  0.080100  0.250000  1.0  -0.4006
  N  N139  1  0.663200  0.419900  0.250000  1.0  -0.4161
  N  N140  1  0.836800  0.919900  0.750000  1.0  -0.4098
  O  O141  1  0.060900  0.789700  0.661350  1.0  -0.6786
  O  O142  1  0.229200  0.707700  0.624300  1.0  -0.7788
  O  O143  1  0.093000  0.740700  0.520720  1.0  -0.6905
  O  O144  1  0.308600  0.658800  0.525800  1.0  -0.7103
  O  O145  1  0.081300  0.340800  0.408260  1.0  -0.6962
  O  O146  1  0.316100  0.388700  0.431530  1.0  -0.7265
  O  O147  1  0.439100  0.289700  0.338650  1.0  -0.6803
  O  O148  1  0.270800  0.207700  0.375700  1.0  -0.7794
  O  O149  1  0.407000  0.240700  0.479280  1.0  -0.6917
  O  O150  1  0.191400  0.158800  0.474200  1.0  -0.7108
  O  O151  1  0.418700  0.840800  0.591740  1.0  -0.6998
  O  O152  1  0.183900  0.888700  0.568470  1.0  -0.7263
  O  O153  1  0.939100  0.210300  0.161350  1.0  -0.6783
  O  O154  1  0.770800  0.292300  0.124300  1.0  -0.7792
  O  O155  1  0.907000  0.259300  0.020720  1.0  -0.6912
  O  O156  1  0.691400  0.341200  0.025800  1.0  -0.7118
  O  O157  1  0.918700  0.659200  0.908260  1.0  -0.697
  O  O158  1  0.683900  0.611300  0.931530  1.0  -0.7266
  O  O159  1  0.560900  0.710300  0.838650  1.0  -0.6781
  O  O160  1  0.729200  0.792300  0.875700  1.0  -0.7792
  O  O161  1  0.593000  0.759300  0.979280  1.0  -0.6906
  O  O162  1  0.808600  0.841200  0.974200  1.0  -0.7095
  O  O163  1  0.581300  0.159200  0.091740  1.0  -0.6968
  O  O164  1  0.816100  0.111300  0.068470  1.0  -0.7258
  O  O165  1  0.939100  0.210300  0.338650  1.0  -0.6788
  O  O166  1  0.770800  0.292300  0.375700  1.0  -0.78
  O  O167  1  0.907000  0.259300  0.479280  1.0  -0.691
  O  O168  1  0.691400  0.341200  0.474200  1.0  -0.7111
  O  O169  1  0.918700  0.659200  0.591740  1.0  -0.6984
  O  O170  1  0.683900  0.611300  0.568470  1.0  -0.7259
  O  O171  1  0.560900  0.710300  0.661350  1.0  -0.6777
  O  O172  1  0.729200  0.792300  0.624300  1.0  -0.7785
  O  O173  1  0.593000  0.759300  0.520720  1.0  -0.6907
  O  O174  1  0.808600  0.841200  0.525800  1.0  -0.7106
  O  O175  1  0.581300  0.159200  0.408260  1.0  -0.6962
  O  O176  1  0.816100  0.111300  0.431530  1.0  -0.7267
  O  O177  1  0.060900  0.789700  0.838650  1.0  -0.679
  O  O178  1  0.229200  0.707700  0.875700  1.0  -0.7789
  O  O179  1  0.093000  0.740700  0.979280  1.0  -0.6905
  O  O180  1  0.308600  0.658800  0.974200  1.0  -0.7092
  O  O181  1  0.081300  0.340800  0.091740  1.0  -0.6981
  O  O182  1  0.316100  0.388700  0.068470  1.0  -0.7258
  O  O183  1  0.439100  0.289700  0.161350  1.0  -0.6797
  O  O184  1  0.270800  0.207700  0.124300  1.0  -0.7793
  O  O185  1  0.407000  0.240700  0.020720  1.0  -0.6917
  O  O186  1  0.191400  0.158800  0.025800  1.0  -0.7116
  O  O187  1  0.418700  0.840800  0.908260  1.0  -0.6983
  O  O188  1  0.183900  0.888700  0.931530  1.0  -0.7266
