# generated using pymatgen
data_CuH3C12NO4
_symmetry_space_group_name_H-M   'P 1'
_cell_length_a   18.81630000
_cell_length_b   18.81630000
_cell_length_c   38.07900000
_cell_angle_alpha   90.00000000
_cell_angle_beta   90.00000000
_cell_angle_gamma   120.00000000
_symmetry_Int_Tables_number   1
_chemical_formula_structural   CuH3C12NO4
_chemical_formula_sum   'Cu18 H54 C216 N18 O72'
_cell_volume   11675.74560384
_cell_formula_units_Z   18
loop_
 _symmetry_equiv_pos_site_id
 _symmetry_equiv_pos_as_xyz
  1  'x, y, z'
loop_
 _atom_site_type_symbol
 _atom_site_label
 _atom_site_symmetry_multiplicity
 _atom_site_fract_x
 _atom_site_fract_y
 _atom_site_fract_z
 _atom_site_occupancy
 _atom_site_charge
  Cu  Cu1  1  0.045980  0.522990  0.028750  1.0  0.8876
  Cu  Cu2  1  0.712650  0.856320  0.362080  1.0  0.8876
  Cu  Cu3  1  0.379310  0.189660  0.695420  1.0  0.8876
  Cu  Cu4  1  0.477010  0.522990  0.028750  1.0  0.8996
  Cu  Cu5  1  0.143680  0.856320  0.362080  1.0  0.8869
  Cu  Cu6  1  0.810340  0.189660  0.695420  1.0  0.8996
  Cu  Cu7  1  0.477010  0.954020  0.028750  1.0  0.888
  Cu  Cu8  1  0.143680  0.287350  0.362080  1.0  0.888
  Cu  Cu9  1  0.810340  0.620690  0.695420  1.0  0.888
  Cu  Cu10  1  0.522990  0.045980  0.971250  1.0  0.8872
  Cu  Cu11  1  0.189660  0.379310  0.304580  1.0  0.8872
  Cu  Cu12  1  0.856320  0.712650  0.637920  1.0  0.8872
  Cu  Cu13  1  0.522990  0.477010  0.971250  1.0  0.8978
  Cu  Cu14  1  0.189660  0.810340  0.304580  1.0  0.8978
  Cu  Cu15  1  0.856320  0.143680  0.637920  1.0  0.8863
  Cu  Cu16  1  0.954020  0.477010  0.971250  1.0  0.8881
  Cu  Cu17  1  0.620690  0.810340  0.304580  1.0  0.8881
  Cu  Cu18  1  0.287350  0.143680  0.637920  1.0  0.8881
  H  H19  1  0.091300  0.396000  0.910300  1.0  0.0927
  H  H20  1  0.757970  0.729330  0.243630  1.0  0.0927
  H  H21  1  0.424630  0.062670  0.576970  1.0  0.0941
  H  H22  1  0.604000  0.695300  0.910300  1.0  0.0925
  H  H23  1  0.270670  0.028630  0.243630  1.0  0.0925
  H  H24  1  0.937330  0.361970  0.576970  1.0  0.0919
  H  H25  1  0.304700  0.908700  0.910300  1.0  0.0939
  H  H26  1  0.971370  0.242030  0.243630  1.0  0.0939
  H  H27  1  0.638030  0.575370  0.576970  1.0  0.0931
  H  H28  1  0.396000  0.091300  0.089700  1.0  0.0931
  H  H29  1  0.062670  0.424630  0.423030  1.0  0.0942
  H  H30  1  0.729330  0.757970  0.756370  1.0  0.0931
  H  H31  1  0.695300  0.604000  0.089700  1.0  0.0937
  H  H32  1  0.361970  0.937330  0.423030  1.0  0.0928
  H  H33  1  0.028630  0.270670  0.756370  1.0  0.0937
  H  H34  1  0.908700  0.304700  0.089700  1.0  0.0931
  H  H35  1  0.575370  0.638030  0.423030  1.0  0.0922
  H  H36  1  0.242030  0.971370  0.756370  1.0  0.0931
  H  H37  1  0.908700  0.604000  0.089700  1.0  0.0926
  H  H38  1  0.575370  0.937330  0.423030  1.0  0.094
  H  H39  1  0.242030  0.270670  0.756370  1.0  0.0926
  H  H40  1  0.396000  0.304700  0.089700  1.0  0.0929
  H  H41  1  0.062670  0.638030  0.423030  1.0  0.0921
  H  H42  1  0.729330  0.971370  0.756370  1.0  0.0929
  H  H43  1  0.695300  0.091300  0.089700  1.0  0.0943
  H  H44  1  0.361970  0.424630  0.423030  1.0  0.0935
  H  H45  1  0.028630  0.757970  0.756370  1.0  0.0943
  H  H46  1  0.604000  0.908700  0.910300  1.0  0.0929
  H  H47  1  0.270670  0.242030  0.243630  1.0  0.0929
  H  H48  1  0.937330  0.575370  0.576970  1.0  0.0939
  H  H49  1  0.304700  0.396000  0.910300  1.0  0.0932
  H  H50  1  0.971370  0.729330  0.243630  1.0  0.0932
  H  H51  1  0.638030  0.062670  0.576970  1.0  0.0925
  H  H52  1  0.091300  0.695300  0.910300  1.0  0.0929
  H  H53  1  0.757970  0.028630  0.243630  1.0  0.0929
  H  H54  1  0.424630  0.361970  0.576970  1.0  0.0921
  H  H55  1  0.234600  0.469200  0.996300  1.0  0.0965
  H  H56  1  0.901270  0.802530  0.329630  1.0  0.0963
  H  H57  1  0.567930  0.135870  0.662970  1.0  0.0964
  H  H58  1  0.530800  0.765400  0.996300  1.0  0.0964
  H  H59  1  0.197470  0.098730  0.329630  1.0  0.0962
  H  H60  1  0.864130  0.432070  0.662970  1.0  0.0963
  H  H61  1  0.234600  0.765400  0.996300  1.0  0.096
  H  H62  1  0.901270  0.098730  0.329630  1.0  0.0956
  H  H63  1  0.567930  0.432070  0.662970  1.0  0.0957
  H  H64  1  0.469200  0.234600  0.003700  1.0  0.0966
  H  H65  1  0.135870  0.567930  0.337030  1.0  0.0962
  H  H66  1  0.802530  0.901270  0.670370  1.0  0.0961
  H  H67  1  0.765400  0.530800  0.003700  1.0  0.0968
  H  H68  1  0.432070  0.864130  0.337030  1.0  0.0964
  H  H69  1  0.098730  0.197470  0.670370  1.0  0.0963
  H  H70  1  0.765400  0.234600  0.003700  1.0  0.0968
  H  H71  1  0.432070  0.567930  0.337030  1.0  0.0957
  H  H72  1  0.098730  0.901270  0.670370  1.0  0.0957
  C  C73  1  0.094500  0.455500  0.973840  1.0  0.6756
  C  C74  1  0.153100  0.433700  0.956530  1.0  -0.168
  C  C75  1  0.138600  0.404700  0.921860  1.0  -0.0761
  C  C76  1  0.102800  0.311900  0.855700  1.0  0.0748
  C  C77  1  0.139100  0.385100  0.845800  1.0  0.1415
  C  C78  1  0.761170  0.788830  0.307170  1.0  0.6756
  C  C79  1  0.819770  0.767030  0.289860  1.0  -0.168
  C  C80  1  0.805270  0.738030  0.255190  1.0  -0.0761
  C  C81  1  0.769470  0.645230  0.189030  1.0  0.0748
  C  C82  1  0.805770  0.718430  0.179130  1.0  0.1415
  C  C83  1  0.427830  0.122170  0.640510  1.0  0.6756
  C  C84  1  0.486430  0.100370  0.623200  1.0  -0.168
  C  C85  1  0.471930  0.071370  0.588530  1.0  -0.0761
  C  C86  1  0.436130  0.978570  0.522370  1.0  0.082
  C  C87  1  0.472430  0.051770  0.512470  1.0  0.1441
  C  C88  1  0.544500  0.639000  0.973840  1.0  0.6753
  C  C89  1  0.566300  0.719400  0.956530  1.0  -0.1676
  C  C90  1  0.595300  0.733900  0.921860  1.0  -0.0742
  C  C91  1  0.688100  0.790900  0.855700  1.0  0.0853
  C  C92  1  0.614900  0.754000  0.845800  1.0  0.1345
  C  C93  1  0.211170  0.972330  0.307170  1.0  0.6753
  C  C94  1  0.232970  0.052730  0.289860  1.0  -0.1676
  C  C95  1  0.261970  0.067230  0.255190  1.0  -0.0742
  C  C96  1  0.354770  0.124230  0.189030  1.0  0.0853
  C  C97  1  0.281570  0.087330  0.179130  1.0  0.1345
  C  C98  1  0.877830  0.305670  0.640510  1.0  0.6753
  C  C99  1  0.899630  0.386070  0.623200  1.0  -0.1676
  C  C100  1  0.928630  0.400570  0.588530  1.0  -0.0743
  C  C101  1  0.021430  0.457570  0.522370  1.0  0.0826
  C  C102  1  0.948230  0.420670  0.512470  1.0  0.1371
  C  C103  1  0.361000  0.905500  0.973840  1.0  0.6754
  C  C104  1  0.280600  0.846900  0.956530  1.0  -0.1675
  C  C105  1  0.266100  0.861400  0.921860  1.0  -0.0732
  C  C106  1  0.209100  0.897200  0.855700  1.0  0.0783
  C  C107  1  0.246000  0.860900  0.845800  1.0  0.1523
  C  C108  1  0.027670  0.238830  0.307170  1.0  0.6754
  C  C109  1  0.947270  0.180230  0.289860  1.0  -0.1675
  C  C110  1  0.932770  0.194730  0.255190  1.0  -0.0732
  C  C111  1  0.875770  0.230530  0.189030  1.0  0.0783
  C  C112  1  0.912670  0.194230  0.179130  1.0  0.1523
  C  C113  1  0.694330  0.572170  0.640510  1.0  0.6754
  C  C114  1  0.613930  0.513570  0.623200  1.0  -0.1675
  C  C115  1  0.599430  0.528070  0.588530  1.0  -0.0732
  C  C116  1  0.542430  0.563870  0.522370  1.0  0.0773
  C  C117  1  0.579330  0.527570  0.512470  1.0  0.1455
  C  C118  1  0.455500  0.094500  0.026160  1.0  0.6752
  C  C119  1  0.433700  0.153100  0.043470  1.0  -0.1671
  C  C120  1  0.404700  0.138600  0.078140  1.0  -0.0732
  C  C121  1  0.311900  0.102800  0.144300  1.0  0.1044
  C  C122  1  0.122170  0.427830  0.359490  1.0  0.6752
  C  C123  1  0.100370  0.486430  0.376800  1.0  -0.1671
  C  C124  1  0.071370  0.471930  0.411470  1.0  -0.0733
  C  C125  1  0.978570  0.436130  0.477630  1.0  0.1098
  C  C126  1  0.788830  0.761170  0.692830  1.0  0.6752
  C  C127  1  0.767030  0.819770  0.710140  1.0  -0.1671
  C  C128  1  0.738030  0.805270  0.744810  1.0  -0.0732
  C  C129  1  0.645230  0.769470  0.810970  1.0  0.1044
  C  C130  1  0.639000  0.544500  0.026160  1.0  0.6753
  C  C131  1  0.719400  0.566300  0.043470  1.0  -0.1676
  C  C132  1  0.733900  0.595300  0.078140  1.0  -0.0759
  C  C133  1  0.790900  0.688100  0.144300  1.0  0.1097
  C  C134  1  0.305670  0.877830  0.359490  1.0  0.6753
  C  C135  1  0.386070  0.899630  0.376800  1.0  -0.1676
  C  C136  1  0.400570  0.928630  0.411470  1.0  -0.0759
  C  C137  1  0.457570  0.021430  0.477630  1.0  0.0993
  C  C138  1  0.972330  0.211170  0.692830  1.0  0.6753
  C  C139  1  0.052730  0.232970  0.710140  1.0  -0.1676
  C  C140  1  0.067230  0.261970  0.744810  1.0  -0.0759
  C  C141  1  0.124230  0.354770  0.810970  1.0  0.1097
  C  C142  1  0.905500  0.361000  0.026160  1.0  0.6754
  C  C143  1  0.846900  0.280600  0.043470  1.0  -0.1674
  C  C144  1  0.861400  0.266100  0.078140  1.0  -0.0746
  C  C145  1  0.897200  0.209100  0.144300  1.0  0.1131
  C  C146  1  0.572170  0.694330  0.359490  1.0  0.6754
  C  C147  1  0.513570  0.613930  0.376800  1.0  -0.1674
  C  C148  1  0.528070  0.599430  0.411470  1.0  -0.0746
  C  C149  1  0.563870  0.542430  0.477630  1.0  0.1133
  C  C150  1  0.238830  0.027670  0.692830  1.0  0.6754
  C  C151  1  0.180230  0.947270  0.710140  1.0  -0.1674
  C  C152  1  0.194730  0.932770  0.744810  1.0  -0.0746
  C  C153  1  0.230530  0.875770  0.810970  1.0  0.1131
  C  C154  1  0.905500  0.544500  0.026160  1.0  0.6752
  C  C155  1  0.846900  0.566300  0.043470  1.0  -0.1672
  C  C156  1  0.861400  0.595300  0.078140  1.0  -0.0745
  C  C157  1  0.897200  0.688100  0.144300  1.0  0.0718
  C  C158  1  0.860900  0.614900  0.154200  1.0  0.1458
  C  C159  1  0.572170  0.877830  0.359490  1.0  0.6752
  C  C160  1  0.513570  0.899630  0.376800  1.0  -0.1672
  C  C161  1  0.528070  0.928630  0.411470  1.0  -0.0746
  C  C162  1  0.563870  0.021430  0.477630  1.0  0.0791
  C  C163  1  0.527570  0.948230  0.487530  1.0  0.1483
  C  C164  1  0.238830  0.211170  0.692830  1.0  0.6752
  C  C165  1  0.180230  0.232970  0.710140  1.0  -0.1672
  C  C166  1  0.194730  0.261970  0.744810  1.0  -0.0745
  C  C167  1  0.230530  0.354770  0.810970  1.0  0.0718
  C  C168  1  0.194230  0.281570  0.820870  1.0  0.1458
  C  C169  1  0.455500  0.361000  0.026160  1.0  0.6754
  C  C170  1  0.433700  0.280600  0.043470  1.0  -0.1683
  C  C171  1  0.404700  0.266100  0.078140  1.0  -0.0749
  C  C172  1  0.311900  0.209100  0.144300  1.0  0.087
  C  C173  1  0.385100  0.246000  0.154200  1.0  0.1351
  C  C174  1  0.122170  0.694330  0.359490  1.0  0.6754
  C  C175  1  0.100370  0.613930  0.376800  1.0  -0.1683
  C  C176  1  0.071370  0.599430  0.411470  1.0  -0.0749
  C  C177  1  0.978570  0.542430  0.477630  1.0  0.0817
  C  C178  1  0.051770  0.579330  0.487530  1.0  0.1372
  C  C179  1  0.788830  0.027670  0.692830  1.0  0.6754
  C  C180  1  0.767030  0.947270  0.710140  1.0  -0.1683
  C  C181  1  0.738030  0.932770  0.744810  1.0  -0.0749
  C  C182  1  0.645230  0.875770  0.810970  1.0  0.087
  C  C183  1  0.718430  0.912670  0.820870  1.0  0.1351
  C  C184  1  0.639000  0.094500  0.026160  1.0  0.675
  C  C185  1  0.719400  0.153100  0.043470  1.0  -0.1676
  C  C186  1  0.733900  0.138600  0.078140  1.0  -0.0741
  C  C187  1  0.790900  0.102800  0.144300  1.0  0.0877
  C  C188  1  0.754000  0.139100  0.154200  1.0  0.1464
  C  C189  1  0.305670  0.427830  0.359490  1.0  0.675
  C  C190  1  0.386070  0.486430  0.376800  1.0  -0.1676
  C  C191  1  0.400570  0.471930  0.411470  1.0  -0.0741
  C  C192  1  0.457570  0.436130  0.477630  1.0  0.0842
  C  C193  1  0.420670  0.472430  0.487530  1.0  0.1396
  C  C194  1  0.972330  0.761170  0.692830  1.0  0.675
  C  C195  1  0.052730  0.819770  0.710140  1.0  -0.1676
  C  C196  1  0.067230  0.805270  0.744810  1.0  -0.0741
  C  C197  1  0.124230  0.769470  0.810970  1.0  0.0877
  C  C198  1  0.087330  0.805770  0.820870  1.0  0.1464
  C  C199  1  0.544500  0.905500  0.973840  1.0  0.675
  C  C200  1  0.566300  0.846900  0.956530  1.0  -0.1679
  C  C201  1  0.595300  0.861400  0.921860  1.0  -0.0738
  C  C202  1  0.688100  0.897200  0.855700  1.0  0.1051
  C  C203  1  0.211170  0.238830  0.307170  1.0  0.675
  C  C204  1  0.232970  0.180230  0.289860  1.0  -0.1679
  C  C205  1  0.261970  0.194730  0.255190  1.0  -0.0738
  C  C206  1  0.354770  0.230530  0.189030  1.0  0.1051
  C  C207  1  0.877830  0.572170  0.640510  1.0  0.675
  C  C208  1  0.899630  0.513570  0.623200  1.0  -0.1679
  C  C209  1  0.928630  0.528070  0.588530  1.0  -0.0738
  C  C210  1  0.021430  0.563870  0.522370  1.0  0.1112
  C  C211  1  0.361000  0.455500  0.973840  1.0  0.6755
  C  C212  1  0.280600  0.433700  0.956530  1.0  -0.1677
  C  C213  1  0.266100  0.404700  0.921860  1.0  -0.0751
  C  C214  1  0.209100  0.311900  0.855700  1.0  0.1159
  C  C215  1  0.027670  0.788830  0.307170  1.0  0.6755
  C  C216  1  0.947270  0.767030  0.289860  1.0  -0.1677
  C  C217  1  0.932770  0.738030  0.255190  1.0  -0.0751
  C  C218  1  0.875770  0.645230  0.189030  1.0  0.1159
  C  C219  1  0.694330  0.122170  0.640510  1.0  0.6755
  C  C220  1  0.613930  0.100370  0.623200  1.0  -0.1677
  C  C221  1  0.599430  0.071370  0.588530  1.0  -0.0752
  C  C222  1  0.542430  0.978570  0.522370  1.0  0.1089
  C  C223  1  0.094500  0.639000  0.973840  1.0  0.6753
  C  C224  1  0.153100  0.719400  0.956530  1.0  -0.1685
  C  C225  1  0.138600  0.733900  0.921860  1.0  -0.0744
  C  C226  1  0.102800  0.790900  0.855700  1.0  0.1155
  C  C227  1  0.761170  0.972330  0.307170  1.0  0.6753
  C  C228  1  0.819770  0.052730  0.289860  1.0  -0.1685
  C  C229  1  0.805270  0.067230  0.255190  1.0  -0.0744
  C  C230  1  0.769470  0.124230  0.189030  1.0  0.1155
  C  C231  1  0.427830  0.305670  0.640510  1.0  0.6753
  C  C232  1  0.486430  0.386070  0.623200  1.0  -0.1685
  C  C233  1  0.471930  0.400570  0.588530  1.0  -0.0744
  C  C234  1  0.436130  0.457570  0.522370  1.0  0.1164
  C  C235  1  0.224400  0.448800  0.973500  1.0  0.0175
  C  C236  1  0.194450  0.388900  0.904600  1.0  0.0537
  C  C237  1  0.181000  0.362000  0.867300  1.0  0.0234
  C  C238  1  0.891070  0.782130  0.306830  1.0  0.0175
  C  C239  1  0.861120  0.722230  0.237930  1.0  0.0537
  C  C240  1  0.847670  0.695330  0.200630  1.0  0.0234
  C  C241  1  0.557730  0.115470  0.640170  1.0  0.0175
  C  C242  1  0.527780  0.055570  0.571270  1.0  0.0536
  C  C243  1  0.514330  0.028670  0.533970  1.0  0.0234
  C  C244  1  0.551200  0.775600  0.973500  1.0  0.0182
  C  C245  1  0.611100  0.805550  0.904600  1.0  0.0539
  C  C246  1  0.638000  0.819000  0.867300  1.0  0.0242
  C  C247  1  0.217870  0.108930  0.306830  1.0  0.0182
  C  C248  1  0.277770  0.138880  0.237930  1.0  0.0539
  C  C249  1  0.304670  0.152330  0.200630  1.0  0.0242
  C  C250  1  0.884530  0.442270  0.640170  1.0  0.0182
  C  C251  1  0.944430  0.472220  0.571270  1.0  0.0538
  C  C252  1  0.971330  0.485670  0.533970  1.0  0.0243
  C  C253  1  0.224400  0.775600  0.973500  1.0  0.0188
  C  C254  1  0.194450  0.805550  0.904600  1.0  0.0538
  C  C255  1  0.181000  0.819000  0.867300  1.0  0.0187
  C  C256  1  0.891070  0.108930  0.306830  1.0  0.0188
  C  C257  1  0.861120  0.138880  0.237930  1.0  0.0538
  C  C258  1  0.847670  0.152330  0.200630  1.0  0.0187
  C  C259  1  0.557730  0.442270  0.640170  1.0  0.0188
  C  C260  1  0.527780  0.472220  0.571270  1.0  0.0537
  C  C261  1  0.514330  0.485670  0.533970  1.0  0.0187
  C  C262  1  0.448800  0.224400  0.026500  1.0  0.0187
  C  C263  1  0.388900  0.194450  0.095400  1.0  0.0546
  C  C264  1  0.362000  0.181000  0.132700  1.0  0.0231
  C  C265  1  0.115470  0.557730  0.359830  1.0  0.0187
  C  C266  1  0.055570  0.527780  0.428730  1.0  0.0545
  C  C267  1  0.028670  0.514330  0.466030  1.0  0.0231
  C  C268  1  0.782130  0.891070  0.693170  1.0  0.0187
  C  C269  1  0.722230  0.861120  0.762070  1.0  0.0546
  C  C270  1  0.695330  0.847670  0.799370  1.0  0.0231
  C  C271  1  0.775600  0.551200  0.026500  1.0  0.0198
  C  C272  1  0.805550  0.611100  0.095400  1.0  0.0549
  C  C273  1  0.819000  0.638000  0.132700  1.0  0.0239
  C  C274  1  0.442270  0.884530  0.359830  1.0  0.0197
  C  C275  1  0.472220  0.944430  0.428730  1.0  0.0548
  C  C276  1  0.485670  0.971330  0.466030  1.0  0.0238
  C  C277  1  0.108930  0.217870  0.693170  1.0  0.0198
  C  C278  1  0.138880  0.277770  0.762070  1.0  0.0549
  C  C279  1  0.152330  0.304670  0.799370  1.0  0.0239
  C  C280  1  0.775600  0.224400  0.026500  1.0  0.019
  C  C281  1  0.805550  0.194450  0.095400  1.0  0.0548
  C  C282  1  0.819000  0.181000  0.132700  1.0  0.0189
  C  C283  1  0.442270  0.557730  0.359830  1.0  0.019
  C  C284  1  0.472220  0.527780  0.428730  1.0  0.0547
  C  C285  1  0.485670  0.514330  0.466030  1.0  0.0189
  C  C286  1  0.108930  0.891070  0.693170  1.0  0.019
  C  C287  1  0.138880  0.861120  0.762070  1.0  0.0548
  C  C288  1  0.152330  0.847670  0.799370  1.0  0.0189
  N  N289  1  0.087330  0.281570  0.820870  1.0  -0.1188
  N  N290  1  0.754000  0.614900  0.154200  1.0  -0.1188
  N  N291  1  0.420670  0.948230  0.487530  1.0  -0.107
  N  N292  1  0.718430  0.805770  0.820870  1.0  -0.1163
  N  N293  1  0.385100  0.139100  0.154200  1.0  -0.1163
  N  N294  1  0.051770  0.472430  0.487530  1.0  -0.1091
  N  N295  1  0.194230  0.912670  0.820870  1.0  -0.1151
  N  N296  1  0.860900  0.246000  0.154200  1.0  -0.1151
  N  N297  1  0.527570  0.579330  0.487530  1.0  -0.1247
  N  N298  1  0.912670  0.718430  0.179130  1.0  -0.1216
  N  N299  1  0.579330  0.051770  0.512470  1.0  -0.112
  N  N300  1  0.246000  0.385100  0.845800  1.0  -0.1216
  N  N301  1  0.281570  0.194230  0.179130  1.0  -0.1148
  N  N302  1  0.948230  0.527570  0.512470  1.0  -0.1093
  N  N303  1  0.614900  0.860900  0.845800  1.0  -0.1148
  N  N304  1  0.805770  0.087330  0.179130  1.0  -0.1134
  N  N305  1  0.472430  0.420670  0.512470  1.0  -0.1189
  N  N306  1  0.139100  0.754000  0.845800  1.0  -0.1134
  O  O307  1  0.111500  0.483000  0.004590  1.0  -0.5758
  O  O308  1  0.031900  0.444600  0.955910  1.0  -0.5992
  O  O309  1  0.778170  0.816330  0.337920  1.0  -0.5758
  O  O310  1  0.698570  0.777930  0.289240  1.0  -0.5992
  O  O311  1  0.444830  0.149670  0.671260  1.0  -0.5758
  O  O312  1  0.365230  0.111270  0.622580  1.0  -0.5992
  O  O313  1  0.517000  0.628500  0.004590  1.0  -0.5762
  O  O314  1  0.555400  0.587300  0.955910  1.0  -0.5993
  O  O315  1  0.183670  0.961830  0.337920  1.0  -0.5762
  O  O316  1  0.222070  0.920630  0.289240  1.0  -0.5993
  O  O317  1  0.850330  0.295170  0.671260  1.0  -0.5762
  O  O318  1  0.888730  0.253970  0.622580  1.0  -0.5993
  O  O319  1  0.371500  0.888500  0.004590  1.0  -0.5773
  O  O320  1  0.412700  0.968100  0.955910  1.0  -0.6005
  O  O321  1  0.038170  0.221830  0.337920  1.0  -0.5773
  O  O322  1  0.079370  0.301430  0.289240  1.0  -0.6005
  O  O323  1  0.704830  0.555170  0.671260  1.0  -0.5773
  O  O324  1  0.746030  0.634770  0.622580  1.0  -0.6005
  O  O325  1  0.483000  0.111500  0.995410  1.0  -0.5773
  O  O326  1  0.444600  0.031900  0.044090  1.0  -0.6001
  O  O327  1  0.149670  0.444830  0.328740  1.0  -0.5773
  O  O328  1  0.111270  0.365230  0.377420  1.0  -0.6001
  O  O329  1  0.816330  0.778170  0.662080  1.0  -0.5773
  O  O330  1  0.777930  0.698570  0.710760  1.0  -0.6001
  O  O331  1  0.628500  0.517000  0.995410  1.0  -0.5762
  O  O332  1  0.587300  0.555400  0.044090  1.0  -0.5986
  O  O333  1  0.295170  0.850330  0.328740  1.0  -0.5762
  O  O334  1  0.253970  0.888730  0.377420  1.0  -0.5986
  O  O335  1  0.961830  0.183670  0.662080  1.0  -0.5762
  O  O336  1  0.920630  0.222070  0.710760  1.0  -0.5986
  O  O337  1  0.888500  0.371500  0.995410  1.0  -0.5756
  O  O338  1  0.968100  0.412700  0.044090  1.0  -0.599
  O  O339  1  0.555170  0.704830  0.328740  1.0  -0.5756
  O  O340  1  0.634770  0.746030  0.377420  1.0  -0.599
  O  O341  1  0.221830  0.038170  0.662080  1.0  -0.5756
  O  O342  1  0.301430  0.079370  0.710760  1.0  -0.599
  O  O343  1  0.888500  0.517000  0.995410  1.0  -0.5752
  O  O344  1  0.968100  0.555400  0.044090  1.0  -0.5994
  O  O345  1  0.555170  0.850330  0.328740  1.0  -0.5752
  O  O346  1  0.634770  0.888730  0.377420  1.0  -0.5994
  O  O347  1  0.221830  0.183670  0.662080  1.0  -0.5752
  O  O348  1  0.301430  0.222070  0.710760  1.0  -0.5994
  O  O349  1  0.483000  0.371500  0.995410  1.0  -0.5767
  O  O350  1  0.444600  0.412700  0.044090  1.0  -0.5984
  O  O351  1  0.149670  0.704830  0.328740  1.0  -0.5767
  O  O352  1  0.111270  0.746030  0.377420  1.0  -0.5984
  O  O353  1  0.816330  0.038170  0.662080  1.0  -0.5767
  O  O354  1  0.777930  0.079370  0.710760  1.0  -0.5984
  O  O355  1  0.628500  0.111500  0.995410  1.0  -0.5769
  O  O356  1  0.587300  0.031900  0.044090  1.0  -0.6008
  O  O357  1  0.295170  0.444830  0.328740  1.0  -0.5769
  O  O358  1  0.253970  0.365230  0.377420  1.0  -0.6008
  O  O359  1  0.961830  0.778170  0.662080  1.0  -0.5769
  O  O360  1  0.920630  0.698570  0.710760  1.0  -0.6008
  O  O361  1  0.517000  0.888500  0.004590  1.0  -0.5775
  O  O362  1  0.555400  0.968100  0.955910  1.0  -0.6002
  O  O363  1  0.183670  0.221830  0.337920  1.0  -0.5775
  O  O364  1  0.222070  0.301430  0.289240  1.0  -0.6002
  O  O365  1  0.850330  0.555170  0.671260  1.0  -0.5775
  O  O366  1  0.888730  0.634770  0.622580  1.0  -0.6002
  O  O367  1  0.371500  0.483000  0.004590  1.0  -0.5758
  O  O368  1  0.412700  0.444600  0.955910  1.0  -0.5987
  O  O369  1  0.038170  0.816330  0.337920  1.0  -0.5758
  O  O370  1  0.079370  0.777930  0.289240  1.0  -0.5987
  O  O371  1  0.704830  0.149670  0.671260  1.0  -0.5758
  O  O372  1  0.746030  0.111270  0.622580  1.0  -0.5987
  O  O373  1  0.111500  0.628500  0.004590  1.0  -0.5758
  O  O374  1  0.031900  0.587300  0.955910  1.0  -0.5995
  O  O375  1  0.778170  0.961830  0.337920  1.0  -0.5758
  O  O376  1  0.698570  0.920630  0.289240  1.0  -0.5995
  O  O377  1  0.444830  0.295170  0.671260  1.0  -0.5758
  O  O378  1  0.365230  0.253970  0.622580  1.0  -0.5995
