# generated using pymatgen
data_ZnSiH48C44N4(O4F3)2
_symmetry_space_group_name_H-M   'P 1'
_cell_length_a   15.15130000
_cell_length_b   22.04400000
_cell_length_c   22.04400000
_cell_angle_alpha   90.00000000
_cell_angle_beta   90.00000000
_cell_angle_gamma   90.00000000
_symmetry_Int_Tables_number   1
_chemical_formula_structural   ZnSiH48C44N4(O4F3)2
_chemical_formula_sum   'Zn4 Si4 H192 C176 N16 O32 F24'
_cell_volume   7362.59144972
_cell_formula_units_Z   4
loop_
 _symmetry_equiv_pos_site_id
 _symmetry_equiv_pos_as_xyz
  1  'x, y, z'
loop_
 _atom_site_type_symbol
 _atom_site_label
 _atom_site_symmetry_multiplicity
 _atom_site_fract_x
 _atom_site_fract_y
 _atom_site_fract_z
 _atom_site_occupancy
 _atom_site_charge
  Zn  Zn1  1  0.985710  0.500000  0.500000  1.0  0.7758
  Zn  Zn2  1  0.487110  0.500000  0.500000  1.0  0.7532
  Zn  Zn3  1  0.000540  0.000000  0.000000  1.0  0.6842
  Zn  Zn4  1  0.502390  0.000000  0.000000  1.0  0.7763
  Si  Si5  1  0.737100  0.500000  0.500000  1.0  1.7965
  Si  Si6  1  0.237000  0.500000  0.500000  1.0  1.765
  Si  Si7  1  0.752000  0.000000  0.000000  1.0  1.7848
  Si  Si8  1  0.248800  0.000000  0.000000  1.0  1.7618
  H  H9  1  0.880700  0.536900  0.610800  1.0  0.097
  H  H10  1  0.878500  0.613100  0.684700  1.0  0.1093
  H  H11  1  0.088300  0.694000  0.604300  1.0  0.1064
  H  H12  1  0.090500  0.617800  0.530400  1.0  0.106
  H  H13  1  0.994300  0.854500  0.727500  1.0  0.1101
  H  H14  1  0.969100  0.647400  0.770400  1.0  0.0949
  H  H15  1  0.055500  0.869100  0.624700  1.0  0.0762
  H  H16  1  0.951200  0.871900  0.637500  1.0  0.0746
  H  H17  1  0.918600  0.842000  0.545300  1.0  0.0899
  H  H18  1  0.930400  0.935100  0.545400  1.0  0.3777
  H  H19  1  0.076000  0.804000  0.508000  1.0  0.1138
  H  H20  1  0.981400  0.797800  0.476300  1.0  0.1097
  H  H21  1  0.040300  0.856900  0.464800  1.0  0.0903
  H  H22  1  0.016600  0.626200  0.863600  1.0  0.1008
  H  H23  1  0.084500  0.671800  0.896900  1.0  0.1104
  H  H24  1  0.910700  0.664500  0.960800  1.0  0.12
  H  H25  1  0.004800  0.580800  0.001700  1.0  0.2547
  H  H26  1  0.094400  0.644000  0.989500  1.0  0.1125
  H  H27  1  0.068300  0.711600  0.969800  1.0  0.1039
  H  H28  1  0.027500  0.682700  0.030200  1.0  0.085
  H  H29  1  0.095700  0.885000  0.811100  1.0  0.114
  H  H30  1  0.099300  0.959700  0.887000  1.0  0.0775
  H  H31  1  0.894600  0.889500  0.963800  1.0  0.0641
  H  H32  1  0.885300  0.814400  0.893400  1.0  0.1097
  H  H33  1  0.594700  0.536200  0.612700  1.0  0.0715
  H  H34  1  0.600500  0.604300  0.687400  1.0  0.1144
  H  H35  1  0.387600  0.688300  0.611300  1.0  0.1256
  H  H36  1  0.384700  0.609200  0.543000  1.0  0.0718
  H  H37  1  0.504100  0.730500  0.852900  1.0  0.1055
  H  H38  1  0.484300  0.773600  0.645400  1.0  0.091
  H  H39  1  0.404500  0.612100  0.834800  1.0  0.1058
  H  H40  1  0.483400  0.636600  0.876900  1.0  0.0931
  H  H41  1  0.560500  0.544400  0.842700  1.0  0.0776
  H  H42  1  0.520700  0.554700  0.941500  1.0  0.358
  H  H43  1  0.467600  0.504500  0.771200  1.0  0.1095
  H  H44  1  0.456700  0.459800  0.827900  1.0  0.0961
  H  H45  1  0.382900  0.509900  0.814300  1.0  0.1136
  H  H46  1  0.549800  0.864500  0.630200  1.0  0.0713
  H  H47  1  0.444200  0.873500  0.631900  1.0  0.0668
  H  H48  1  0.573900  0.964700  0.666000  1.0  0.0889
  H  H49  1  0.531100  0.936900  0.566800  1.0  0.3577
  H  H50  1  0.448800  0.986300  0.725600  1.0  0.123
  H  H51  1  0.466200  0.037600  0.675600  1.0  0.1071
  H  H52  1  0.390100  0.988300  0.665300  1.0  0.107
  H  H53  1  0.609200  0.814500  0.881400  1.0  0.1113
  H  H54  1  0.610100  0.886800  0.959200  1.0  0.099
  H  H55  1  0.398100  0.969500  0.883400  1.0  0.1069
  H  H56  1  0.397300  0.897300  0.805600  1.0  0.105
  H  H57  1  0.880700  0.463100  0.389200  1.0  0.0976
  H  H58  1  0.878500  0.386900  0.315300  1.0  0.1092
  H  H59  1  0.088300  0.306000  0.395700  1.0  0.1064
  H  H60  1  0.090500  0.382200  0.469600  1.0  0.1056
  H  H61  1  0.994300  0.145500  0.272500  1.0  0.1095
  H  H62  1  0.969100  0.352600  0.229600  1.0  0.0944
  H  H63  1  0.055500  0.130900  0.375300  1.0  0.0762
  H  H64  1  0.951200  0.128100  0.362500  1.0  0.0759
  H  H65  1  0.918600  0.158000  0.454700  1.0  0.0903
  H  H66  1  0.930400  0.064900  0.454600  1.0  0.3783
  H  H67  1  0.076000  0.196000  0.492000  1.0  0.1139
  H  H68  1  0.981400  0.202200  0.523700  1.0  0.1091
  H  H69  1  0.040300  0.143100  0.535200  1.0  0.0899
  H  H70  1  0.016600  0.373800  0.136400  1.0  0.0997
  H  H71  1  0.084500  0.328200  0.103100  1.0  0.1098
  H  H72  1  0.910700  0.335500  0.039200  1.0  0.1197
  H  H73  1  0.004800  0.419200  0.998300  1.0  0.2548
  H  H74  1  0.094400  0.356000  0.010500  1.0  0.1121
  H  H75  1  0.068300  0.288400  0.030200  1.0  0.1052
  H  H76  1  0.027500  0.317300  0.969800  1.0  0.0856
  H  H77  1  0.095700  0.115000  0.188900  1.0  0.1143
  H  H78  1  0.099300  0.040300  0.113000  1.0  0.0775
  H  H79  1  0.894600  0.110500  0.036200  1.0  0.0638
  H  H80  1  0.885300  0.185600  0.106600  1.0  0.1101
  H  H81  1  0.594700  0.463800  0.387300  1.0  0.0717
  H  H82  1  0.600500  0.395700  0.312600  1.0  0.1142
  H  H83  1  0.387600  0.311700  0.388700  1.0  0.1256
  H  H84  1  0.384700  0.390800  0.457000  1.0  0.0716
  H  H85  1  0.504100  0.269500  0.147100  1.0  0.1067
  H  H86  1  0.484300  0.226400  0.354600  1.0  0.0901
  H  H87  1  0.404500  0.387900  0.165200  1.0  0.106
  H  H88  1  0.483400  0.363400  0.123100  1.0  0.0937
  H  H89  1  0.560500  0.455600  0.157300  1.0  0.0782
  H  H90  1  0.520700  0.445300  0.058500  1.0  0.3574
  H  H91  1  0.467600  0.495500  0.228800  1.0  0.1111
  H  H92  1  0.456700  0.540200  0.172100  1.0  0.0974
  H  H93  1  0.382900  0.490100  0.185700  1.0  0.1131
  H  H94  1  0.549800  0.135500  0.369800  1.0  0.071
  H  H95  1  0.444200  0.126500  0.368100  1.0  0.0666
  H  H96  1  0.573900  0.035300  0.334000  1.0  0.0901
  H  H97  1  0.531100  0.063100  0.433200  1.0  0.3593
  H  H98  1  0.448800  0.013700  0.274400  1.0  0.122
  H  H99  1  0.466200  0.962400  0.324400  1.0  0.1084
  H  H100  1  0.390100  0.011700  0.334700  1.0  0.1064
  H  H101  1  0.609200  0.185500  0.118600  1.0  0.1109
  H  H102  1  0.610100  0.113200  0.040800  1.0  0.0986
  H  H103  1  0.398100  0.030500  0.116600  1.0  0.1069
  H  H104  1  0.397300  0.102700  0.194400  1.0  0.1046
  H  H105  1  0.880700  0.389200  0.536900  1.0  0.0966
  H  H106  1  0.878500  0.315300  0.613100  1.0  0.109
  H  H107  1  0.088300  0.395700  0.694000  1.0  0.1054
  H  H108  1  0.090500  0.469600  0.617800  1.0  0.1063
  H  H109  1  0.994300  0.272500  0.854500  1.0  0.1103
  H  H110  1  0.969100  0.229600  0.647400  1.0  0.0956
  H  H111  1  0.055500  0.375300  0.869100  1.0  0.0766
  H  H112  1  0.951200  0.362500  0.871900  1.0  0.0756
  H  H113  1  0.918600  0.454700  0.842000  1.0  0.0907
  H  H114  1  0.930400  0.454600  0.935100  1.0  0.3773
  H  H115  1  0.076000  0.492000  0.804000  1.0  0.1136
  H  H116  1  0.981400  0.523700  0.797800  1.0  0.1094
  H  H117  1  0.040300  0.535200  0.856900  1.0  0.0898
  H  H118  1  0.016600  0.136400  0.626200  1.0  0.0997
  H  H119  1  0.084500  0.103100  0.671800  1.0  0.109
  H  H120  1  0.910700  0.039200  0.664500  1.0  0.1202
  H  H121  1  0.004800  0.998300  0.580800  1.0  0.2546
  H  H122  1  0.094400  0.010500  0.644000  1.0  0.1128
  H  H123  1  0.068300  0.030200  0.711600  1.0  0.1118
  H  H124  1  0.027500  0.969800  0.682700  1.0  0.0851
  H  H125  1  0.095700  0.188900  0.885000  1.0  0.1148
  H  H126  1  0.099300  0.113000  0.959700  1.0  0.0768
  H  H127  1  0.894600  0.036200  0.889500  1.0  0.0653
  H  H128  1  0.885300  0.106600  0.814400  1.0  0.1101
  H  H129  1  0.594700  0.387300  0.536200  1.0  0.0699
  H  H130  1  0.600500  0.312600  0.604300  1.0  0.1145
  H  H131  1  0.387600  0.388700  0.688300  1.0  0.1252
  H  H132  1  0.384700  0.457000  0.609200  1.0  0.0723
  H  H133  1  0.504100  0.147100  0.730500  1.0  0.1052
  H  H134  1  0.484300  0.354600  0.773600  1.0  0.0917
  H  H135  1  0.404500  0.165200  0.612100  1.0  0.1048
  H  H136  1  0.483400  0.123100  0.636600  1.0  0.0939
  H  H137  1  0.560500  0.157300  0.544400  1.0  0.0788
  H  H138  1  0.520700  0.058500  0.554700  1.0  0.359
  H  H139  1  0.467600  0.228800  0.504500  1.0  0.1109
  H  H140  1  0.456700  0.172100  0.459800  1.0  0.0989
  H  H141  1  0.382900  0.185700  0.509900  1.0  0.1131
  H  H142  1  0.549800  0.369800  0.864500  1.0  0.0712
  H  H143  1  0.444200  0.368100  0.873500  1.0  0.0668
  H  H144  1  0.573900  0.334000  0.964700  1.0  0.0888
  H  H145  1  0.531100  0.433200  0.936900  1.0  0.3589
  H  H146  1  0.448800  0.274400  0.986300  1.0  0.1214
  H  H147  1  0.466200  0.324400  0.037600  1.0  0.1092
  H  H148  1  0.390100  0.334700  0.988300  1.0  0.1071
  H  H149  1  0.609200  0.118600  0.814500  1.0  0.1111
  H  H150  1  0.610100  0.040800  0.886800  1.0  0.1002
  H  H151  1  0.398100  0.116600  0.969500  1.0  0.1062
  H  H152  1  0.397300  0.194400  0.897300  1.0  0.1056
  H  H153  1  0.880700  0.610800  0.463100  1.0  0.097
  H  H154  1  0.878500  0.684700  0.386900  1.0  0.1091
  H  H155  1  0.088300  0.604300  0.306000  1.0  0.1056
  H  H156  1  0.090500  0.530400  0.382200  1.0  0.1067
  H  H157  1  0.994300  0.727500  0.145500  1.0  0.1102
  H  H158  1  0.969100  0.770400  0.352600  1.0  0.0955
  H  H159  1  0.055500  0.624700  0.130900  1.0  0.0764
  H  H160  1  0.951200  0.637500  0.128100  1.0  0.0752
  H  H161  1  0.918600  0.545300  0.158000  1.0  0.091
  H  H162  1  0.930400  0.545400  0.064900  1.0  0.3771
  H  H163  1  0.076000  0.508000  0.196000  1.0  0.1137
  H  H164  1  0.981400  0.476300  0.202200  1.0  0.1107
  H  H165  1  0.040300  0.464800  0.143100  1.0  0.0898
  H  H166  1  0.016600  0.863600  0.373800  1.0  0.0984
  H  H167  1  0.084500  0.896900  0.328200  1.0  0.1093
  H  H168  1  0.910700  0.960800  0.335500  1.0  0.1198
  H  H169  1  0.004800  0.001700  0.419200  1.0  0.2542
  H  H170  1  0.094400  0.989500  0.356000  1.0  0.1126
  H  H171  1  0.068300  0.969800  0.288400  1.0  0.1111
  H  H172  1  0.027500  0.030200  0.317300  1.0  0.0865
  H  H173  1  0.095700  0.811100  0.115000  1.0  0.1144
  H  H174  1  0.099300  0.887000  0.040300  1.0  0.0761
  H  H175  1  0.894600  0.963800  0.110500  1.0  0.0656
  H  H176  1  0.885300  0.893400  0.185600  1.0  0.1101
  H  H177  1  0.594700  0.612700  0.463800  1.0  0.0699
  H  H178  1  0.600500  0.687400  0.395700  1.0  0.1141
  H  H179  1  0.387600  0.611300  0.311700  1.0  0.1253
  H  H180  1  0.384700  0.543000  0.390800  1.0  0.0721
  H  H181  1  0.504100  0.852900  0.269500  1.0  0.1047
  H  H182  1  0.484300  0.645400  0.226400  1.0  0.0913
  H  H183  1  0.404500  0.834800  0.387900  1.0  0.105
  H  H184  1  0.483400  0.876900  0.363400  1.0  0.0951
  H  H185  1  0.560500  0.842700  0.455600  1.0  0.078
  H  H186  1  0.520700  0.941500  0.445300  1.0  0.359
  H  H187  1  0.467600  0.771200  0.495500  1.0  0.1092
  H  H188  1  0.456700  0.827900  0.540200  1.0  0.0965
  H  H189  1  0.382900  0.814300  0.490100  1.0  0.1131
  H  H190  1  0.549800  0.630200  0.135500  1.0  0.0711
  H  H191  1  0.444200  0.631900  0.126500  1.0  0.067
  H  H192  1  0.573900  0.666000  0.035300  1.0  0.0905
  H  H193  1  0.531100  0.566800  0.063100  1.0  0.3593
  H  H194  1  0.448800  0.725600  0.013700  1.0  0.1237
  H  H195  1  0.466200  0.675600  0.962400  1.0  0.109
  H  H196  1  0.390100  0.665300  0.011700  1.0  0.1076
  H  H197  1  0.609200  0.881400  0.185500  1.0  0.1108
  H  H198  1  0.610100  0.959200  0.113200  1.0  0.0989
  H  H199  1  0.398100  0.883400  0.030500  1.0  0.106
  H  H200  1  0.397300  0.805600  0.102700  1.0  0.1056
  C  C201  1  0.922900  0.568800  0.609500  1.0  0.1387
  C  C202  1  0.921500  0.614100  0.653400  1.0  -0.149
  C  C203  1  0.983200  0.660700  0.651500  1.0  0.0127
  C  C204  1  0.046200  0.662100  0.605600  1.0  -0.1372
  C  C205  1  0.047500  0.616900  0.561700  1.0  0.144
  C  C206  1  0.986400  0.708400  0.702600  1.0  -0.0338
  C  C207  1  0.987000  0.768200  0.688800  1.0  0.1681
  C  C208  1  0.991300  0.812500  0.736700  1.0  -0.1608
  C  C209  1  0.991100  0.792000  0.799200  1.0  -0.0059
  C  C210  1  0.981100  0.728900  0.808100  1.0  0.2639
  C  C211  1  0.977700  0.689300  0.762100  1.0  -0.1876
  C  C212  1  0.997900  0.850700  0.614300  1.0  0.0206
  C  C213  1  0.981000  0.856500  0.548500  1.0  0.1744
  C  C214  1  0.023300  0.826100  0.494700  1.0  -0.3217
  C  C215  1  0.021500  0.661800  0.890800  1.0  -0.0162
  C  C216  1  0.972500  0.650300  0.953700  1.0  0.0916
  C  C217  1  0.046800  0.674100  0.988700  1.0  -0.3543
  C  C218  1  0.992700  0.838400  0.846000  1.0  0.1167
  C  C219  1  0.054100  0.883900  0.843300  1.0  -0.2183
  C  C220  1  0.055100  0.929100  0.888700  1.0  0.153
  C  C221  1  0.937500  0.888200  0.932400  1.0  0.1618
  C  C222  1  0.932000  0.843100  0.891000  1.0  -0.2219
  C  C223  1  0.551500  0.567400  0.613200  1.0  0.1734
  C  C224  1  0.555600  0.607300  0.657500  1.0  -0.2263
  C  C225  1  0.493100  0.654700  0.660400  1.0  0.054
  C  C226  1  0.429700  0.656400  0.613800  1.0  -0.2386
  C  C227  1  0.431100  0.610200  0.572000  1.0  0.1628
  C  C228  1  0.492300  0.705000  0.707200  1.0  -0.0237
  C  C229  1  0.498200  0.692200  0.768800  1.0  0.2329
  C  C230  1  0.500100  0.739200  0.810800  1.0  -0.1527
  C  C231  1  0.496100  0.799100  0.791100  1.0  0.0015
  C  C232  1  0.490200  0.811900  0.729500  1.0  0.2837
  C  C233  1  0.488300  0.764900  0.687600  1.0  -0.1903
  C  C234  1  0.469000  0.610300  0.841800  1.0  0.0157
  C  C235  1  0.496700  0.547200  0.854100  1.0  0.0931
  C  C236  1  0.446300  0.501100  0.813000  1.0  -0.3403
  C  C237  1  0.500600  0.885000  0.651400  1.0  0.094
  C  C238  1  0.513100  0.954900  0.651300  1.0  0.1743
  C  C239  1  0.449200  0.995200  0.682100  1.0  -0.3504
  C  C240  1  0.503200  0.849100  0.836200  1.0  0.0312
  C  C241  1  0.566400  0.846000  0.881800  1.0  -0.145
  C  C242  1  0.566900  0.888900  0.928000  1.0  0.1469
  C  C243  1  0.441000  0.938100  0.883000  1.0  0.1397
  C  C244  1  0.440500  0.895100  0.836800  1.0  -0.1386
  C  C245  1  0.922900  0.431200  0.390500  1.0  0.1386
  C  C246  1  0.921500  0.385900  0.346600  1.0  -0.149
  C  C247  1  0.983200  0.339300  0.348500  1.0  0.0123
  C  C248  1  0.046200  0.337900  0.394400  1.0  -0.1373
  C  C249  1  0.047500  0.383100  0.438300  1.0  0.1442
  C  C250  1  0.986400  0.291600  0.297400  1.0  -0.0336
  C  C251  1  0.987000  0.231800  0.311200  1.0  0.1677
  C  C252  1  0.991300  0.187500  0.263300  1.0  -0.1606
  C  C253  1  0.991100  0.208000  0.200800  1.0  -0.006
  C  C254  1  0.981100  0.271100  0.191900  1.0  0.2639
  C  C255  1  0.977700  0.310700  0.237900  1.0  -0.1881
  C  C256  1  0.997900  0.149300  0.385700  1.0  0.0197
  C  C257  1  0.981000  0.143500  0.451500  1.0  0.1737
  C  C258  1  0.023300  0.173900  0.505300  1.0  -0.3217
  C  C259  1  0.021500  0.338200  0.109200  1.0  -0.0149
  C  C260  1  0.972500  0.349700  0.046300  1.0  0.0924
  C  C261  1  0.046800  0.325900  0.011300  1.0  -0.3551
  C  C262  1  0.992700  0.161600  0.154000  1.0  0.1177
  C  C263  1  0.054100  0.116100  0.156700  1.0  -0.2175
  C  C264  1  0.055100  0.070900  0.111300  1.0  0.1525
  C  C265  1  0.937500  0.111800  0.067600  1.0  0.1617
  C  C266  1  0.932000  0.156900  0.109000  1.0  -0.2209
  C  C267  1  0.551500  0.432600  0.386800  1.0  0.1746
  C  C268  1  0.555600  0.392700  0.342500  1.0  -0.2262
  C  C269  1  0.493100  0.345300  0.339600  1.0  0.0541
  C  C270  1  0.429700  0.343600  0.386200  1.0  -0.2389
  C  C271  1  0.431100  0.389800  0.428000  1.0  0.1632
  C  C272  1  0.492300  0.295000  0.292800  1.0  -0.0228
  C  C273  1  0.498200  0.307800  0.231200  1.0  0.2324
  C  C274  1  0.500100  0.260800  0.189200  1.0  -0.1526
  C  C275  1  0.496100  0.200900  0.208900  1.0  0.0013
  C  C276  1  0.490200  0.188100  0.270500  1.0  0.2836
  C  C277  1  0.488300  0.235100  0.312400  1.0  -0.191
  C  C278  1  0.469000  0.389700  0.158200  1.0  0.0152
  C  C279  1  0.496700  0.452800  0.145900  1.0  0.0933
  C  C280  1  0.446300  0.498900  0.187000  1.0  -0.3402
  C  C281  1  0.500600  0.115000  0.348600  1.0  0.0931
  C  C282  1  0.513100  0.045100  0.348700  1.0  0.1749
  C  C283  1  0.449200  0.004800  0.317900  1.0  -0.3499
  C  C284  1  0.503200  0.150900  0.163800  1.0  0.0308
  C  C285  1  0.566400  0.154000  0.118200  1.0  -0.1453
  C  C286  1  0.566900  0.111100  0.072000  1.0  0.146
  C  C287  1  0.441000  0.061900  0.117000  1.0  0.1404
  C  C288  1  0.440500  0.104900  0.163200  1.0  -0.1385
  C  C289  1  0.922900  0.390500  0.568800  1.0  0.1373
  C  C290  1  0.921500  0.346600  0.614100  1.0  -0.148
  C  C291  1  0.983200  0.348500  0.660700  1.0  0.0124
  C  C292  1  0.046200  0.394400  0.662100  1.0  -0.1375
  C  C293  1  0.047500  0.438300  0.616900  1.0  0.144
  C  C294  1  0.986400  0.297400  0.708400  1.0  -0.0339
  C  C295  1  0.987000  0.311200  0.768200  1.0  0.1678
  C  C296  1  0.991300  0.263300  0.812500  1.0  -0.1608
  C  C297  1  0.991100  0.200800  0.792000  1.0  -0.0058
  C  C298  1  0.981100  0.191900  0.728900  1.0  0.2639
  C  C299  1  0.977700  0.237900  0.689300  1.0  -0.1877
  C  C300  1  0.997900  0.385700  0.850700  1.0  0.0172
  C  C301  1  0.981000  0.451500  0.856500  1.0  0.1737
  C  C302  1  0.023300  0.505300  0.826100  1.0  -0.3245
  C  C303  1  0.021500  0.109200  0.661800  1.0  -0.0161
  C  C304  1  0.972500  0.046300  0.650300  1.0  0.0924
  C  C305  1  0.046800  0.011300  0.674100  1.0  -0.3542
  C  C306  1  0.992700  0.154000  0.838400  1.0  0.1187
  C  C307  1  0.054100  0.156700  0.883900  1.0  -0.2189
  C  C308  1  0.055100  0.111300  0.929100  1.0  0.1576
  C  C309  1  0.937500  0.067600  0.888200  1.0  0.16
  C  C310  1  0.932000  0.109000  0.843100  1.0  -0.2206
  C  C311  1  0.551500  0.386800  0.567400  1.0  0.1745
  C  C312  1  0.555600  0.342500  0.607300  1.0  -0.2264
  C  C313  1  0.493100  0.339600  0.654700  1.0  0.0527
  C  C314  1  0.429700  0.386200  0.656400  1.0  -0.2385
  C  C315  1  0.431100  0.428000  0.610200  1.0  0.1624
  C  C316  1  0.492300  0.292800  0.705000  1.0  -0.0224
  C  C317  1  0.498200  0.231200  0.692200  1.0  0.2321
  C  C318  1  0.500100  0.189200  0.739200  1.0  -0.1531
  C  C319  1  0.496100  0.208900  0.799100  1.0  0.0027
  C  C320  1  0.490200  0.270500  0.811900  1.0  0.283
  C  C321  1  0.488300  0.312400  0.764900  1.0  -0.1916
  C  C322  1  0.469000  0.158200  0.610300  1.0  0.014
  C  C323  1  0.496700  0.145900  0.547200  1.0  0.0934
  C  C324  1  0.446300  0.187000  0.501100  1.0  -0.338
  C  C325  1  0.500600  0.348600  0.885000  1.0  0.0943
  C  C326  1  0.513100  0.348700  0.954900  1.0  0.1745
  C  C327  1  0.449200  0.317900  0.995200  1.0  -0.3498
  C  C328  1  0.503200  0.163800  0.849100  1.0  0.0304
  C  C329  1  0.566400  0.118200  0.846000  1.0  -0.1456
  C  C330  1  0.566900  0.072000  0.888900  1.0  0.1462
  C  C331  1  0.441000  0.117000  0.938100  1.0  0.1398
  C  C332  1  0.440500  0.163200  0.895100  1.0  -0.1389
  C  C333  1  0.922900  0.609500  0.431200  1.0  0.1377
  C  C334  1  0.921500  0.653400  0.385900  1.0  -0.1493
  C  C335  1  0.983200  0.651500  0.339300  1.0  0.0123
  C  C336  1  0.046200  0.605600  0.337900  1.0  -0.1369
  C  C337  1  0.047500  0.561700  0.383100  1.0  0.1446
  C  C338  1  0.986400  0.702600  0.291600  1.0  -0.0341
  C  C339  1  0.987000  0.688800  0.231800  1.0  0.1676
  C  C340  1  0.991300  0.736700  0.187500  1.0  -0.1596
  C  C341  1  0.991100  0.799200  0.208000  1.0  -0.0061
  C  C342  1  0.981100  0.808100  0.271100  1.0  0.2637
  C  C343  1  0.977700  0.762100  0.310700  1.0  -0.1877
  C  C344  1  0.997900  0.614300  0.149300  1.0  0.0183
  C  C345  1  0.981000  0.548500  0.143500  1.0  0.1736
  C  C346  1  0.023300  0.494700  0.173900  1.0  -0.3222
  C  C347  1  0.021500  0.890800  0.338200  1.0  -0.0158
  C  C348  1  0.972500  0.953700  0.349700  1.0  0.0925
  C  C349  1  0.046800  0.988700  0.325900  1.0  -0.3541
  C  C350  1  0.992700  0.846000  0.161600  1.0  0.1193
  C  C351  1  0.054100  0.843300  0.116100  1.0  -0.2186
  C  C352  1  0.055100  0.888700  0.070900  1.0  0.1566
  C  C353  1  0.937500  0.932400  0.111800  1.0  0.1594
  C  C354  1  0.932000  0.891000  0.156900  1.0  -0.2203
  C  C355  1  0.551500  0.613200  0.432600  1.0  0.1745
  C  C356  1  0.555600  0.657500  0.392700  1.0  -0.2267
  C  C357  1  0.493100  0.660400  0.345300  1.0  0.0527
  C  C358  1  0.429700  0.613800  0.343600  1.0  -0.2383
  C  C359  1  0.431100  0.572000  0.389800  1.0  0.1618
  C  C360  1  0.492300  0.707200  0.295000  1.0  -0.0223
  C  C361  1  0.498200  0.768800  0.307800  1.0  0.2322
  C  C362  1  0.500100  0.810800  0.260800  1.0  -0.1514
  C  C363  1  0.496100  0.791100  0.200900  1.0  0.0022
  C  C364  1  0.490200  0.729500  0.188100  1.0  0.2832
  C  C365  1  0.488300  0.687600  0.235100  1.0  -0.1903
  C  C366  1  0.469000  0.841800  0.389700  1.0  0.0146
  C  C367  1  0.496700  0.854100  0.452800  1.0  0.0942
  C  C368  1  0.446300  0.813000  0.498900  1.0  -0.3391
  C  C369  1  0.500600  0.651400  0.115000  1.0  0.094
  C  C370  1  0.513100  0.651300  0.045100  1.0  0.1733
  C  C371  1  0.449200  0.682100  0.004800  1.0  -0.3509
  C  C372  1  0.503200  0.836200  0.150900  1.0  0.0301
  C  C373  1  0.566400  0.881800  0.154000  1.0  -0.1456
  C  C374  1  0.566900  0.928000  0.111100  1.0  0.1463
  C  C375  1  0.441000  0.883000  0.061900  1.0  0.1397
  C  C376  1  0.440500  0.836800  0.104900  1.0  -0.1383
  N  N377  1  0.985800  0.570210  0.563670  1.0  -0.3279
  N  N378  1  0.999200  0.930400  0.931800  1.0  -0.2867
  N  N379  1  0.490800  0.567300  0.568500  1.0  -0.3208
  N  N380  1  0.504200  0.934900  0.928600  1.0  -0.3515
  N  N381  1  0.985800  0.429790  0.436330  1.0  -0.3276
  N  N382  1  0.999200  0.069600  0.068200  1.0  -0.2883
  N  N383  1  0.490800  0.432700  0.431500  1.0  -0.3191
  N  N384  1  0.504200  0.065100  0.071400  1.0  -0.3526
  N  N385  1  0.985800  0.436330  0.570210  1.0  -0.3276
  N  N386  1  0.999200  0.068200  0.930400  1.0  -0.2881
  N  N387  1  0.490800  0.431500  0.567300  1.0  -0.3203
  N  N388  1  0.504200  0.071400  0.934900  1.0  -0.3521
  N  N389  1  0.985800  0.563670  0.429790  1.0  -0.3284
  N  N390  1  0.999200  0.931800  0.069600  1.0  -0.2879
  N  N391  1  0.490800  0.568500  0.432700  1.0  -0.3202
  N  N392  1  0.504200  0.928600  0.065100  1.0  -0.3519
  O  O393  1  0.998200  0.784500  0.629400  1.0  -0.3146
  O  O394  1  0.973500  0.918500  0.528100  1.0  -0.5481
  O  O395  1  0.972500  0.713000  0.867900  1.0  -0.295
  O  O396  1  0.999000  0.586800  0.964200  1.0  -0.5519
  O  O397  1  0.517200  0.631500  0.786900  1.0  -0.3569
  O  O398  1  0.490600  0.530200  0.920900  1.0  -0.545
  O  O399  1  0.500000  0.870100  0.714500  1.0  -0.2772
  O  O400  1  0.508600  0.966300  0.585500  1.0  -0.5313
  O  O401  1  0.998200  0.215500  0.370600  1.0  -0.3147
  O  O402  1  0.973500  0.081500  0.471900  1.0  -0.549
  O  O403  1  0.972500  0.287000  0.132100  1.0  -0.2955
  O  O404  1  0.999000  0.413200  0.035800  1.0  -0.5504
  O  O405  1  0.517200  0.368500  0.213100  1.0  -0.3556
  O  O406  1  0.490600  0.469800  0.079100  1.0  -0.5439
  O  O407  1  0.500000  0.129900  0.285500  1.0  -0.2764
  O  O408  1  0.508600  0.033700  0.414500  1.0  -0.5318
  O  O409  1  0.998200  0.370600  0.784500  1.0  -0.3152
  O  O410  1  0.973500  0.471900  0.918500  1.0  -0.5498
  O  O411  1  0.972500  0.132100  0.713000  1.0  -0.295
  O  O412  1  0.999000  0.035800  0.586800  1.0  -0.5448
  O  O413  1  0.517200  0.213100  0.631500  1.0  -0.3561
  O  O414  1  0.490600  0.079100  0.530200  1.0  -0.5497
  O  O415  1  0.500000  0.285500  0.870100  1.0  -0.277
  O  O416  1  0.508600  0.414500  0.966300  1.0  -0.536
  O  O417  1  0.998200  0.629400  0.215500  1.0  -0.3154
  O  O418  1  0.973500  0.528100  0.081500  1.0  -0.5459
  O  O419  1  0.972500  0.867900  0.287000  1.0  -0.2967
  O  O420  1  0.999000  0.964200  0.413200  1.0  -0.55
  O  O421  1  0.517200  0.786900  0.368500  1.0  -0.3558
  O  O422  1  0.490600  0.920900  0.469800  1.0  -0.5479
  O  O423  1  0.500000  0.714500  0.129900  1.0  -0.2767
  O  O424  1  0.508600  0.585500  0.033700  1.0  -0.5372
  F  F425  1  0.740500  0.483100  0.573460  1.0  -0.5264
  F  F426  1  0.232000  0.427300  0.502600  1.0  -0.4725
  F  F427  1  0.753300  0.073210  0.980970  1.0  -0.5515
  F  F428  1  0.251500  0.927700  0.990500  1.0  -0.435
  F  F429  1  0.740500  0.516900  0.426540  1.0  -0.524
  F  F430  1  0.232000  0.572700  0.497400  1.0  -0.474
  F  F431  1  0.753300  0.926790  0.019030  1.0  -0.5512
  F  F432  1  0.251500  0.072300  0.009500  1.0  -0.437
  F  F433  1  0.740500  0.426540  0.483100  1.0  -0.5225
  F  F434  1  0.232000  0.497400  0.427300  1.0  -0.474
  F  F435  1  0.753300  0.019030  0.073210  1.0  -0.5546
  F  F436  1  0.251500  0.009500  0.927700  1.0  -0.4382
  F  F437  1  0.740500  0.573460  0.516900  1.0  -0.5241
  F  F438  1  0.232000  0.502600  0.572700  1.0  -0.4736
  F  F439  1  0.753300  0.980970  0.926790  1.0  -0.5542
  F  F440  1  0.251500  0.990500  0.072300  1.0  -0.4372
  F  F441  1  0.122600  0.500000  0.500000  1.0  -0.494
  F  F442  1  0.850900  0.500000  0.500000  1.0  -0.5129
  F  F443  1  0.624000  0.500000  0.500000  1.0  -0.5084
  F  F444  1  0.347200  0.500000  0.500000  1.0  -0.4842
  F  F445  1  0.861100  0.000000  0.000000  1.0  -0.4911
  F  F446  1  0.633600  0.000000  0.000000  1.0  -0.3988
  F  F447  1  0.366900  0.000000  0.000000  1.0  -0.4669
  F  F448  1  0.142100  0.000000  0.000000  1.0  -0.473
