# generated using pymatgen
data_EuH12(C5O3)3
_symmetry_space_group_name_H-M   'P 1'
_cell_length_a   8.88530000
_cell_length_b   12.07820000
_cell_length_c   16.59030000
_cell_angle_alpha   90.00000000
_cell_angle_beta   90.00000000
_cell_angle_gamma   109.33000000
_symmetry_Int_Tables_number   1
_chemical_formula_structural   EuH12(C5O3)3
_chemical_formula_sum   'Eu4 H48 C60 O36'
_cell_volume   1680.07729586
_cell_formula_units_Z   4
loop_
 _symmetry_equiv_pos_site_id
 _symmetry_equiv_pos_as_xyz
  1  'x, y, z'
loop_
 _atom_site_type_symbol
 _atom_site_label
 _atom_site_symmetry_multiplicity
 _atom_site_fract_x
 _atom_site_fract_y
 _atom_site_fract_z
 _atom_site_occupancy
 _atom_site_charge
  Eu  Eu1  1  0.566840  0.547590  0.382470  1.0  2.1783
  Eu  Eu2  1  0.433160  0.452400  0.617530  1.0  2.1797
  Eu  Eu3  1  0.066840  0.547590  0.117530  1.0  2.1781
  Eu  Eu4  1  0.933160  0.452400  0.882470  1.0  2.1806
  H  H5  1  0.403500  0.846900  0.306100  1.0  0.1228
  H  H6  1  0.012000  0.165600  0.073900  1.0  0.1198
  H  H7  1  0.488000  0.834400  0.573900  1.0  0.121
  H  H8  1  0.379200  0.361500  0.009000  1.0  0.1286
  H  H9  1  0.672200  0.679400  0.167700  1.0  0.106
  H  H10  1  0.752500  0.704900  0.928900  1.0  0.1025
  H  H11  1  0.322400  0.141500  0.599500  1.0  0.1113
  H  H12  1  0.470800  0.780800  0.933100  1.0  0.0971
  H  H13  1  0.596500  0.153100  0.693900  1.0  0.1225
  H  H14  1  0.703300  0.004600  0.587400  1.0  0.1041
  H  H15  1  0.628000  0.965200  0.933600  1.0  0.1127
  H  H16  1  0.252500  0.704900  0.571100  1.0  0.1029
  H  H17  1  0.372000  0.034800  0.066400  1.0  0.1136
  H  H18  1  0.327800  0.320600  0.832300  1.0  0.1057
  H  H19  1  0.410700  0.224700  0.822400  1.0  0.1008
  H  H20  1  0.827800  0.320600  0.667700  1.0  0.1064
  H  H21  1  0.904400  0.974300  0.774600  1.0  0.1117
  H  H22  1  0.177600  0.858500  0.099500  1.0  0.1108
  H  H23  1  0.872000  0.034800  0.433600  1.0  0.1129
  H  H24  1  0.910700  0.224700  0.677600  1.0  0.101
  H  H25  1  0.620400  0.138000  0.033200  1.0  0.0829
  H  H26  1  0.095600  0.025700  0.225400  1.0  0.1125
  H  H27  1  0.128000  0.965200  0.566400  1.0  0.1126
  H  H28  1  0.172200  0.679400  0.332300  1.0  0.1064
  H  H29  1  0.796700  0.995400  0.087400  1.0  0.104
  H  H30  1  0.529200  0.219200  0.066900  1.0  0.0969
  H  H31  1  0.747500  0.295100  0.428900  1.0  0.103
  H  H32  1  0.379600  0.862000  0.966800  1.0  0.0825
  H  H33  1  0.296700  0.995400  0.412600  1.0  0.1035
  H  H34  1  0.120800  0.638500  0.509000  1.0  0.1282
  H  H35  1  0.595600  0.025700  0.274600  1.0  0.1126
  H  H36  1  0.970800  0.780800  0.566900  1.0  0.0974
  H  H37  1  0.589300  0.775300  0.177600  1.0  0.1008
  H  H38  1  0.988000  0.834400  0.926100  1.0  0.1201
  H  H39  1  0.620800  0.638500  0.991000  1.0  0.1277
  H  H40  1  0.879600  0.862000  0.533200  1.0  0.0823
  H  H41  1  0.512000  0.165600  0.426100  1.0  0.1197
  H  H42  1  0.677600  0.858500  0.400500  1.0  0.111
  H  H43  1  0.203300  0.004600  0.912600  1.0  0.1033
  H  H44  1  0.096500  0.153100  0.806100  1.0  0.1223
  H  H45  1  0.879200  0.361500  0.491000  1.0  0.1284
  H  H46  1  0.247500  0.295100  0.071100  1.0  0.1031
  H  H47  1  0.120400  0.138000  0.466800  1.0  0.0827
  H  H48  1  0.903500  0.846900  0.193900  1.0  0.1229
  H  H49  1  0.029200  0.219200  0.433100  1.0  0.0966
  H  H50  1  0.089300  0.775300  0.322400  1.0  0.1004
  H  H51  1  0.404400  0.974300  0.725400  1.0  0.1115
  H  H52  1  0.822400  0.141500  0.900500  1.0  0.1111
  C  C53  1  0.275000  0.835100  0.204460  1.0  0.2756
  C  C54  1  0.624700  0.197900  0.072930  1.0  -0.0632
  C  C55  1  0.496000  0.953500  0.833180  1.0  0.2687
  C  C56  1  0.130500  0.102500  0.991380  1.0  0.2266
  C  C57  1  0.121300  0.002900  0.947910  1.0  -0.1716
  C  C58  1  0.400800  0.295800  0.799250  1.0  -0.0824
  C  C59  1  0.730500  0.695300  0.556530  1.0  0.7534
  C  C60  1  0.007700  0.099400  0.044110  1.0  -0.2097
  C  C61  1  0.157600  0.359300  0.975840  1.0  0.7328
  C  C62  1  0.099200  0.704200  0.299250  1.0  -0.0815
  C  C63  1  0.230500  0.695300  0.943470  1.0  0.7511
  C  C64  1  0.121200  0.002800  0.614550  1.0  -0.2246
  C  C65  1  0.842400  0.640700  0.024160  1.0  0.7366
  C  C66  1  0.228300  0.693400  0.514100  1.0  -0.0816
  C  C67  1  0.263100  0.891300  0.134080  1.0  -0.1452
  C  C68  1  0.342400  0.640700  0.475840  1.0  0.7357
  C  C69  1  0.102300  0.115500  0.757890  1.0  -0.1721
  C  C70  1  0.492300  0.900600  0.544110  1.0  -0.209
  C  C71  1  0.657600  0.359300  0.524160  1.0  0.7331
  C  C72  1  0.375300  0.802100  0.927070  1.0  -0.0623
  C  C73  1  0.561100  0.390400  0.796620  1.0  0.767
  C  C74  1  0.878800  0.997200  0.385450  1.0  -0.2262
  C  C75  1  0.630500  0.102500  0.508620  1.0  0.2267
  C  C76  1  0.271700  0.306600  0.014100  1.0  -0.0816
  C  C77  1  0.004000  0.046500  0.333180  1.0  0.2674
  C  C78  1  0.875300  0.802100  0.572930  1.0  -0.0629
  C  C79  1  0.269500  0.304700  0.443470  1.0  0.7517
  C  C80  1  0.512700  0.991400  0.238800  1.0  -0.1692
  C  C81  1  0.378800  0.997200  0.114550  1.0  -0.2274
  C  C82  1  0.621200  0.002800  0.885450  1.0  -0.2264
  C  C83  1  0.602300  0.115500  0.742110  1.0  -0.172
  C  C84  1  0.487300  0.008600  0.761200  1.0  -0.174
  C  C85  1  0.725000  0.164900  0.795540  1.0  0.2761
  C  C86  1  0.378700  0.997100  0.447910  1.0  -0.1769
  C  C87  1  0.236900  0.108700  0.634080  1.0  -0.1415
  C  C88  1  0.775000  0.835100  0.295540  1.0  0.2759
  C  C89  1  0.869500  0.897500  0.008620  1.0  0.2267
  C  C90  1  0.124700  0.197900  0.427070  1.0  -0.0615
  C  C91  1  0.507700  0.099400  0.455890  1.0  -0.2129
  C  C92  1  0.438900  0.609600  0.203380  1.0  0.7676
  C  C93  1  0.771700  0.306600  0.485900  1.0  -0.0796
  C  C94  1  0.397700  0.884500  0.257890  1.0  -0.1722
  C  C95  1  0.728300  0.693400  0.985900  1.0  -0.0802
  C  C96  1  0.987300  0.008600  0.738800  1.0  -0.1731
  C  C97  1  0.900800  0.295800  0.700750  1.0  -0.0806
  C  C98  1  0.736900  0.108700  0.865920  1.0  -0.14
  C  C99  1  0.061100  0.390400  0.703380  1.0  0.7672
  C  C100  1  0.996000  0.953500  0.666820  1.0  0.2686
  C  C101  1  0.897700  0.884500  0.242110  1.0  -0.1721
  C  C102  1  0.225000  0.164900  0.704460  1.0  0.2762
  C  C103  1  0.369500  0.897500  0.491380  1.0  0.2265
  C  C104  1  0.599200  0.704200  0.200750  1.0  -0.0798
  C  C105  1  0.878700  0.997100  0.052090  1.0  -0.1717
  C  C106  1  0.621300  0.002900  0.552090  1.0  -0.1715
  C  C107  1  0.763100  0.891300  0.365920  1.0  -0.1416
  C  C108  1  0.938900  0.609600  0.296620  1.0  0.7676
  C  C109  1  0.012700  0.991400  0.261200  1.0  -0.1736
  C  C110  1  0.504000  0.046500  0.166820  1.0  0.2665
  C  C111  1  0.769500  0.304700  0.056530  1.0  0.7517
  C  C112  1  0.992300  0.900600  0.955890  1.0  -0.2111
  O  O113  1  0.840100  0.368650  0.114090  1.0  -0.7063
  O  O114  1  0.698000  0.680560  0.483390  1.0  -0.6901
  O  O115  1  0.351100  0.600150  0.143350  1.0  -0.7374
  O  O116  1  0.873700  0.848880  0.651020  1.0  -0.2621
  O  O117  1  0.405500  0.544780  0.264660  1.0  -0.7287
  O  O118  1  0.626300  0.151120  0.151020  1.0  -0.2611
  O  O119  1  0.594500  0.455220  0.735340  1.0  -0.7306
  O  O120  1  0.869200  0.557770  0.988040  1.0  -0.811
  O  O121  1  0.841000  0.273860  0.782020  1.0  -0.3682
  O  O122  1  0.648900  0.399850  0.856650  1.0  -0.7349
  O  O123  1  0.148900  0.399850  0.643350  1.0  -0.7357
  O  O124  1  0.126300  0.151120  0.348980  1.0  -0.2614
  O  O125  1  0.373700  0.848880  0.848980  1.0  -0.2618
  O  O126  1  0.302000  0.319440  0.516610  1.0  -0.6888
  O  O127  1  0.905500  0.544780  0.235340  1.0  -0.7293
  O  O128  1  0.340100  0.368650  0.385910  1.0  -0.7054
  O  O129  1  0.400900  0.673930  0.408550  1.0  -0.6385
  O  O130  1  0.369200  0.557770  0.511960  1.0  -0.8107
  O  O131  1  0.266300  0.197820  0.979690  1.0  -0.2418
  O  O132  1  0.659900  0.631350  0.614090  1.0  -0.7057
  O  O133  1  0.094500  0.455220  0.764660  1.0  -0.7302
  O  O134  1  0.599100  0.326070  0.591450  1.0  -0.6392
  O  O135  1  0.159000  0.726140  0.217980  1.0  -0.3685
  O  O136  1  0.130800  0.442230  0.011960  1.0  -0.8128
  O  O137  1  0.630800  0.442230  0.488040  1.0  -0.8117
  O  O138  1  0.802000  0.319440  0.983390  1.0  -0.6884
  O  O139  1  0.341000  0.273860  0.717980  1.0  -0.3688
  O  O140  1  0.851100  0.600150  0.356650  1.0  -0.7372
  O  O141  1  0.159900  0.631350  0.885910  1.0  -0.7058
  O  O142  1  0.198000  0.680560  0.016610  1.0  -0.6882
  O  O143  1  0.766300  0.197820  0.520310  1.0  -0.2413
  O  O144  1  0.733700  0.802180  0.020310  1.0  -0.2426
  O  O145  1  0.900900  0.673930  0.091450  1.0  -0.6379
  O  O146  1  0.099100  0.326070  0.908550  1.0  -0.6384
  O  O147  1  0.659000  0.726140  0.282020  1.0  -0.369
  O  O148  1  0.233700  0.802180  0.479690  1.0  -0.2414
