# generated using pymatgen
data_EuH12(C5O3)3
_symmetry_space_group_name_H-M   'P 1'
_cell_length_a   8.88410000
_cell_length_b   12.05800000
_cell_length_c   16.57630000
_cell_angle_alpha   90.00000000
_cell_angle_beta   90.00000000
_cell_angle_gamma   109.25200000
_symmetry_Int_Tables_number   1
_chemical_formula_structural   EuH12(C5O3)3
_chemical_formula_sum   'Eu4 H48 C60 O36'
_cell_volume   1676.42438160
_cell_formula_units_Z   4
loop_
 _symmetry_equiv_pos_site_id
 _symmetry_equiv_pos_as_xyz
  1  'x, y, z'
loop_
 _atom_site_type_symbol
 _atom_site_label
 _atom_site_symmetry_multiplicity
 _atom_site_fract_x
 _atom_site_fract_y
 _atom_site_fract_z
 _atom_site_occupancy
 _atom_site_charge
  Eu  Eu1  1  0.933320  0.452300  0.882540  1.0  2.1818
  Eu  Eu2  1  0.566680  0.547700  0.382540  1.0  2.1789
  Eu  Eu3  1  0.066680  0.547700  0.117460  1.0  2.1788
  Eu  Eu4  1  0.433320  0.452300  0.617460  1.0  2.1808
  H  H5  1  0.471100  0.780800  0.933700  1.0  0.0907
  H  H6  1  0.380100  0.862600  0.967100  1.0  0.0806
  H  H7  1  0.629800  0.965200  0.933100  1.0  0.1132
  H  H8  1  0.821500  0.141900  0.900600  1.0  0.1065
  H  H9  1  0.597200  0.153200  0.693700  1.0  0.121
  H  H10  1  0.405000  0.975000  0.725200  1.0  0.1091
  H  H11  1  0.910600  0.224600  0.676900  1.0  0.0974
  H  H12  1  0.828100  0.321100  0.667200  1.0  0.1
  H  H13  1  0.620400  0.638600  0.989800  1.0  0.1214
  H  H14  1  0.753600  0.705300  0.928400  1.0  0.096
  H  H15  1  0.987600  0.834500  0.925900  1.0  0.1181
  H  H16  1  0.796000  0.995900  0.086800  1.0  0.1025
  H  H17  1  0.028900  0.219200  0.433700  1.0  0.0904
  H  H18  1  0.119900  0.137400  0.467100  1.0  0.0808
  H  H19  1  0.870200  0.034800  0.433100  1.0  0.113
  H  H20  1  0.678500  0.858100  0.400600  1.0  0.1064
  H  H21  1  0.902800  0.846800  0.193700  1.0  0.1214
  H  H22  1  0.095000  0.025000  0.225200  1.0  0.1096
  H  H23  1  0.589400  0.775400  0.176900  1.0  0.0971
  H  H24  1  0.671900  0.678900  0.167200  1.0  0.0992
  H  H25  1  0.879600  0.361400  0.489800  1.0  0.1212
  H  H26  1  0.746400  0.294700  0.428400  1.0  0.0968
  H  H27  1  0.512400  0.165500  0.425900  1.0  0.1179
  H  H28  1  0.704000  0.004100  0.586800  1.0  0.1028
  H  H29  1  0.528900  0.219200  0.066300  1.0  0.0906
  H  H30  1  0.619900  0.137400  0.032900  1.0  0.0809
  H  H31  1  0.370200  0.034800  0.066900  1.0  0.1136
  H  H32  1  0.178500  0.858100  0.099400  1.0  0.1061
  H  H33  1  0.402800  0.846800  0.306300  1.0  0.1211
  H  H34  1  0.595000  0.025000  0.274800  1.0  0.1097
  H  H35  1  0.089400  0.775400  0.323100  1.0  0.0968
  H  H36  1  0.171900  0.678900  0.332800  1.0  0.0998
  H  H37  1  0.379600  0.361400  0.010200  1.0  0.1212
  H  H38  1  0.246400  0.294700  0.071600  1.0  0.0973
  H  H39  1  0.012400  0.165500  0.074100  1.0  0.1183
  H  H40  1  0.204000  0.004100  0.913200  1.0  0.1021
  H  H41  1  0.971100  0.780800  0.566300  1.0  0.091
  H  H42  1  0.880100  0.862600  0.532900  1.0  0.0801
  H  H43  1  0.129800  0.965200  0.566900  1.0  0.1129
  H  H44  1  0.321500  0.141900  0.599400  1.0  0.1067
  H  H45  1  0.097200  0.153200  0.806300  1.0  0.1206
  H  H46  1  0.905000  0.975000  0.774800  1.0  0.1093
  H  H47  1  0.410600  0.224600  0.823100  1.0  0.0973
  H  H48  1  0.328100  0.321100  0.832800  1.0  0.0992
  H  H49  1  0.120400  0.638600  0.510200  1.0  0.1215
  H  H50  1  0.253600  0.705300  0.571600  1.0  0.0971
  H  H51  1  0.487600  0.834500  0.574100  1.0  0.119
  H  H52  1  0.296000  0.995900  0.413200  1.0  0.1022
  C  C53  1  0.229600  0.695300  0.943400  1.0  0.7479
  C  C54  1  0.375900  0.802500  0.927500  1.0  -0.075
  C  C55  1  0.495200  0.953300  0.833000  1.0  0.2602
  C  C56  1  0.622000  0.003100  0.885100  1.0  -0.2292
  C  C57  1  0.736400  0.108900  0.865800  1.0  -0.1521
  C  C58  1  0.725000  0.165100  0.795600  1.0  0.27
  C  C59  1  0.602700  0.115600  0.742100  1.0  -0.1707
  C  C60  1  0.487700  0.009100  0.761100  1.0  -0.1732
  C  C61  1  0.900800  0.295700  0.700200  1.0  -0.0669
  C  C62  1  0.062500  0.390900  0.703700  1.0  0.7582
  C  C63  1  0.842200  0.640400  0.024700  1.0  0.7386
  C  C64  1  0.728100  0.693500  0.985300  1.0  -0.0932
  C  C65  1  0.869500  0.897700  0.008700  1.0  0.2411
  C  C66  1  0.992200  0.900800  0.955900  1.0  -0.2049
  C  C67  1  0.878400  0.997200  0.051800  1.0  -0.15
  C  C68  1  0.270400  0.304700  0.443400  1.0  0.7479
  C  C69  1  0.124100  0.197500  0.427500  1.0  -0.0743
  C  C70  1  0.004800  0.046700  0.333000  1.0  0.2602
  C  C71  1  0.878000  0.996900  0.385100  1.0  -0.2298
  C  C72  1  0.763600  0.891100  0.365800  1.0  -0.1526
  C  C73  1  0.775000  0.834900  0.295600  1.0  0.2696
  C  C74  1  0.897300  0.884400  0.242100  1.0  -0.171
  C  C75  1  0.012300  0.990900  0.261100  1.0  -0.1721
  C  C76  1  0.599200  0.704300  0.200200  1.0  -0.0661
  C  C77  1  0.437500  0.609100  0.203700  1.0  0.7585
  C  C78  1  0.657800  0.359600  0.524700  1.0  0.7368
  C  C79  1  0.771900  0.306500  0.485300  1.0  -0.0929
  C  C80  1  0.630500  0.102300  0.508700  1.0  0.2413
  C  C81  1  0.507800  0.099200  0.455900  1.0  -0.2058
  C  C82  1  0.621600  0.002800  0.551800  1.0  -0.1504
  C  C83  1  0.770400  0.304700  0.056600  1.0  0.7457
  C  C84  1  0.624100  0.197500  0.072500  1.0  -0.0762
  C  C85  1  0.504800  0.046700  0.167000  1.0  0.2602
  C  C86  1  0.378000  0.996900  0.114900  1.0  -0.2305
  C  C87  1  0.263600  0.891100  0.134200  1.0  -0.1529
  C  C88  1  0.275000  0.834900  0.204400  1.0  0.2696
  C  C89  1  0.397300  0.884400  0.257900  1.0  -0.1713
  C  C90  1  0.512300  0.990900  0.238900  1.0  -0.1717
  C  C91  1  0.099200  0.704300  0.299800  1.0  -0.068
  C  C92  1  0.937500  0.609100  0.296300  1.0  0.7585
  C  C93  1  0.157800  0.359600  0.975300  1.0  0.7363
  C  C94  1  0.271900  0.306500  0.014700  1.0  -0.0942
  C  C95  1  0.130500  0.102300  0.991300  1.0  0.2414
  C  C96  1  0.007800  0.099200  0.044100  1.0  -0.2059
  C  C97  1  0.121600  0.002800  0.948200  1.0  -0.1489
  C  C98  1  0.729600  0.695300  0.556600  1.0  0.7484
  C  C99  1  0.875900  0.802500  0.572500  1.0  -0.0751
  C  C100  1  0.995200  0.953300  0.667000  1.0  0.2609
  C  C101  1  0.122000  0.003100  0.614900  1.0  -0.2298
  C  C102  1  0.236400  0.108900  0.634200  1.0  -0.1521
  C  C103  1  0.225000  0.165100  0.704400  1.0  0.27
  C  C104  1  0.102700  0.115600  0.757900  1.0  -0.1713
  C  C105  1  0.987700  0.009100  0.738900  1.0  -0.1721
  C  C106  1  0.400800  0.295700  0.799800  1.0  -0.0689
  C  C107  1  0.562500  0.390900  0.796300  1.0  0.7579
  C  C108  1  0.342200  0.640400  0.475300  1.0  0.7372
  C  C109  1  0.228100  0.693500  0.514700  1.0  -0.0944
  C  C110  1  0.369500  0.897700  0.491300  1.0  0.2411
  C  C111  1  0.492200  0.900800  0.544100  1.0  -0.2057
  C  C112  1  0.378400  0.997200  0.448200  1.0  -0.1485
  O  O113  1  0.157200  0.630800  0.886100  1.0  -0.6979
  O  O114  1  0.197900  0.681100  0.016500  1.0  -0.6769
  O  O115  1  0.374200  0.849100  0.849000  1.0  -0.2646
  O  O116  1  0.841500  0.273800  0.781600  1.0  -0.3672
  O  O117  1  0.149400  0.400000  0.643100  1.0  -0.7323
  O  O118  1  0.095100  0.455200  0.765000  1.0  -0.7227
  O  O119  1  0.869600  0.557800  0.988100  1.0  -0.7903
  O  O120  1  0.901300  0.675100  0.091400  1.0  -0.6304
  O  O121  1  0.733800  0.802700  0.020400  1.0  -0.2526
  O  O122  1  0.342800  0.369200  0.386100  1.0  -0.6977
  O  O123  1  0.302100  0.318900  0.516500  1.0  -0.6775
  O  O124  1  0.125800  0.150900  0.349000  1.0  -0.2626
  O  O125  1  0.658500  0.726200  0.281600  1.0  -0.3675
  O  O126  1  0.350600  0.600000  0.143100  1.0  -0.7344
  O  O127  1  0.404900  0.544800  0.265000  1.0  -0.7207
  O  O128  1  0.630400  0.442200  0.488100  1.0  -0.7898
  O  O129  1  0.598700  0.324900  0.591400  1.0  -0.6314
  O  O130  1  0.766200  0.197300  0.520400  1.0  -0.2522
  O  O131  1  0.842800  0.369200  0.113900  1.0  -0.6981
  O  O132  1  0.802100  0.318900  0.983500  1.0  -0.676
  O  O133  1  0.625800  0.150900  0.151000  1.0  -0.2628
  O  O134  1  0.158500  0.726200  0.218400  1.0  -0.3677
  O  O135  1  0.850600  0.600000  0.356900  1.0  -0.7341
  O  O136  1  0.904900  0.544800  0.235000  1.0  -0.7214
  O  O137  1  0.130400  0.442200  0.011900  1.0  -0.7912
  O  O138  1  0.098700  0.324900  0.908600  1.0  -0.6313
  O  O139  1  0.266200  0.197300  0.979600  1.0  -0.2512
  O  O140  1  0.657200  0.630800  0.613900  1.0  -0.6983
  O  O141  1  0.697900  0.681100  0.483500  1.0  -0.676
  O  O142  1  0.874200  0.849100  0.651000  1.0  -0.2653
  O  O143  1  0.341500  0.273800  0.718400  1.0  -0.3673
  O  O144  1  0.649400  0.400000  0.856900  1.0  -0.7319
  O  O145  1  0.595100  0.455200  0.735000  1.0  -0.7231
  O  O146  1  0.369600  0.557800  0.511900  1.0  -0.7904
  O  O147  1  0.401300  0.675100  0.408600  1.0  -0.6309
  O  O148  1  0.233800  0.802700  0.479600  1.0  -0.252
