# generated using pymatgen
data_CuH10(C4N3)2
_symmetry_space_group_name_H-M   'P 1'
_cell_length_a   12.81300000
_cell_length_b   18.55700000
_cell_length_c   7.25900000
_cell_angle_alpha   90.00000000
_cell_angle_beta   111.97300000
_cell_angle_gamma   90.00000000
_symmetry_Int_Tables_number   1
_chemical_formula_structural   CuH10(C4N3)2
_chemical_formula_sum   'Cu4 H40 C32 N24'
_cell_volume   1600.60393872
_cell_formula_units_Z   4
loop_
 _symmetry_equiv_pos_site_id
 _symmetry_equiv_pos_as_xyz
  1  'x, y, z'
loop_
 _atom_site_type_symbol
 _atom_site_label
 _atom_site_symmetry_multiplicity
 _atom_site_fract_x
 _atom_site_fract_y
 _atom_site_fract_z
 _atom_site_occupancy
 _atom_site_charge
  Cu  Cu1  1  0.000000  0.000000  0.000000  1.0  0.5069
  Cu  Cu2  1  0.500000  0.500000  0.000000  1.0  0.5069
  Cu  Cu3  1  0.000000  0.000000  0.500000  1.0  0.5069
  Cu  Cu4  1  0.500000  0.500000  0.500000  1.0  0.5069
  H  H5  1  0.216200  0.100100  0.132500  1.0  0.054
  H  H6  1  0.226900  0.091900  0.675900  1.0  0.0708
  H  H7  1  0.350800  0.277500  0.558100  1.0  0.0763
  H  H8  1  0.401200  0.157600  0.637300  1.0  0.0727
  H  H9  1  0.389200  0.175600  0.414400  1.0  0.0784
  H  H10  1  0.716200  0.600100  0.132500  1.0  0.054
  H  H11  1  0.726900  0.591900  0.675900  1.0  0.0708
  H  H12  1  0.850800  0.777500  0.558100  1.0  0.0763
  H  H13  1  0.901200  0.657600  0.637300  1.0  0.0727
  H  H14  1  0.889200  0.675600  0.414400  1.0  0.0784
  H  H15  1  0.783800  0.100100  0.367500  1.0  0.0541
  H  H16  1  0.773100  0.091900  0.824100  1.0  0.0717
  H  H17  1  0.649200  0.277500  0.941900  1.0  0.0755
  H  H18  1  0.598800  0.157600  0.862700  1.0  0.0719
  H  H19  1  0.610800  0.175600  0.085600  1.0  0.0769
  H  H20  1  0.283800  0.600100  0.367500  1.0  0.0541
  H  H21  1  0.273100  0.591900  0.824100  1.0  0.0717
  H  H22  1  0.149200  0.777500  0.941900  1.0  0.0755
  H  H23  1  0.098800  0.657600  0.862700  1.0  0.0719
  H  H24  1  0.110800  0.675600  0.085600  1.0  0.0769
  H  H25  1  0.783800  0.899900  0.867500  1.0  0.054
  H  H26  1  0.773100  0.908100  0.324100  1.0  0.0716
  H  H27  1  0.649200  0.722500  0.441900  1.0  0.0752
  H  H28  1  0.598800  0.842400  0.362700  1.0  0.072
  H  H29  1  0.610800  0.824400  0.585600  1.0  0.0768
  H  H30  1  0.283800  0.399900  0.867500  1.0  0.054
  H  H31  1  0.273100  0.408100  0.324100  1.0  0.0716
  H  H32  1  0.149200  0.222500  0.441900  1.0  0.0752
  H  H33  1  0.098800  0.342400  0.362700  1.0  0.072
  H  H34  1  0.110800  0.324400  0.585600  1.0  0.0768
  H  H35  1  0.216200  0.899900  0.632500  1.0  0.0536
  H  H36  1  0.226900  0.908100  0.175900  1.0  0.0709
  H  H37  1  0.350800  0.722500  0.058100  1.0  0.0764
  H  H38  1  0.401200  0.842400  0.137300  1.0  0.0727
  H  H39  1  0.389200  0.824400  0.914400  1.0  0.0783
  H  H40  1  0.716200  0.399900  0.632500  1.0  0.0536
  H  H41  1  0.726900  0.408100  0.175900  1.0  0.0709
  H  H42  1  0.850800  0.222500  0.058100  1.0  0.0764
  H  H43  1  0.901200  0.342400  0.137300  1.0  0.0727
  H  H44  1  0.889200  0.324400  0.914400  1.0  0.0783
  C  C45  1  0.198000  0.088600  0.245000  1.0  0.1371
  C  C46  1  0.205000  0.084700  0.537000  1.0  0.0874
  C  C47  1  0.297000  0.239800  0.516000  1.0  -0.1335
  C  C48  1  0.347000  0.171300  0.504000  1.0  -0.16
  C  C49  1  0.698000  0.588600  0.245000  1.0  0.1371
  C  C50  1  0.705000  0.584700  0.537000  1.0  0.0874
  C  C51  1  0.797000  0.739800  0.516000  1.0  -0.1335
  C  C52  1  0.847000  0.671300  0.504000  1.0  -0.16
  C  C53  1  0.802000  0.088600  0.255000  1.0  0.1376
  C  C54  1  0.795000  0.084700  0.963000  1.0  0.0873
  C  C55  1  0.703000  0.239800  0.984000  1.0  -0.1366
  C  C56  1  0.653000  0.171300  0.996000  1.0  -0.1597
  C  C57  1  0.302000  0.588600  0.255000  1.0  0.1376
  C  C58  1  0.295000  0.584700  0.963000  1.0  0.0873
  C  C59  1  0.203000  0.739800  0.984000  1.0  -0.1366
  C  C60  1  0.153000  0.671300  0.996000  1.0  -0.1597
  C  C61  1  0.802000  0.911400  0.755000  1.0  0.1377
  C  C62  1  0.795000  0.915300  0.463000  1.0  0.0873
  C  C63  1  0.703000  0.760200  0.484000  1.0  -0.1365
  C  C64  1  0.653000  0.828700  0.496000  1.0  -0.1602
  C  C65  1  0.302000  0.411400  0.755000  1.0  0.1377
  C  C66  1  0.295000  0.415300  0.463000  1.0  0.0873
  C  C67  1  0.203000  0.260200  0.484000  1.0  -0.1365
  C  C68  1  0.153000  0.328700  0.496000  1.0  -0.1602
  C  C69  1  0.198000  0.911400  0.745000  1.0  0.1368
  C  C70  1  0.205000  0.915300  0.037000  1.0  0.087
  C  C71  1  0.297000  0.760200  0.016000  1.0  -0.1335
  C  C72  1  0.347000  0.828700  0.004000  1.0  -0.1599
  C  C73  1  0.698000  0.411400  0.745000  1.0  0.1368
  C  C74  1  0.705000  0.415300  0.037000  1.0  0.087
  C  C75  1  0.797000  0.260200  0.016000  1.0  -0.1335
  C  C76  1  0.847000  0.328700  0.004000  1.0  -0.1599
  N  N77  1  0.114600  0.048400  0.235000  1.0  -0.2907
  N  N78  1  0.118000  0.044800  0.423000  1.0  -0.1943
  N  N79  1  0.258000  0.112700  0.426000  1.0  -0.0499
  N  N80  1  0.614600  0.548400  0.235000  1.0  -0.2907
  N  N81  1  0.618000  0.544800  0.423000  1.0  -0.1943
  N  N82  1  0.758000  0.612700  0.426000  1.0  -0.0499
  N  N83  1  0.885400  0.048400  0.265000  1.0  -0.2918
  N  N84  1  0.882000  0.044800  0.077000  1.0  -0.1935
  N  N85  1  0.742000  0.112700  0.074000  1.0  -0.0482
  N  N86  1  0.385400  0.548400  0.265000  1.0  -0.2918
  N  N87  1  0.382000  0.544800  0.077000  1.0  -0.1935
  N  N88  1  0.242000  0.612700  0.074000  1.0  -0.0482
  N  N89  1  0.885400  0.951600  0.765000  1.0  -0.2907
  N  N90  1  0.882000  0.955200  0.577000  1.0  -0.1945
  N  N91  1  0.742000  0.887300  0.574000  1.0  -0.0473
  N  N92  1  0.385400  0.451600  0.765000  1.0  -0.2907
  N  N93  1  0.382000  0.455200  0.577000  1.0  -0.1945
  N  N94  1  0.242000  0.387300  0.574000  1.0  -0.0473
  N  N95  1  0.114600  0.951600  0.735000  1.0  -0.2899
  N  N96  1  0.118000  0.955200  0.923000  1.0  -0.1951
  N  N97  1  0.258000  0.887300  0.926000  1.0  -0.0502
  N  N98  1  0.614600  0.451600  0.735000  1.0  -0.2899
  N  N99  1  0.618000  0.455200  0.923000  1.0  -0.1951
  N  N100  1  0.758000  0.387300  0.926000  1.0  -0.0502
