# generated using pymatgen
data_CdH6(C3O)4
_symmetry_space_group_name_H-M   'P 1'
_cell_length_a   6.87110000
_cell_length_b   14.01000000
_cell_length_c   14.91500000
_cell_angle_alpha   90.00000000
_cell_angle_beta   90.00000000
_cell_angle_gamma   90.00000000
_symmetry_Int_Tables_number   1
_chemical_formula_structural   CdH6(C3O)4
_chemical_formula_sum   'Cd4 H24 C48 O16'
_cell_volume   1435.77921556
_cell_formula_units_Z   4
loop_
 _symmetry_equiv_pos_site_id
 _symmetry_equiv_pos_as_xyz
  1  'x, y, z'
loop_
 _atom_site_type_symbol
 _atom_site_label
 _atom_site_symmetry_multiplicity
 _atom_site_fract_x
 _atom_site_fract_y
 _atom_site_fract_z
 _atom_site_occupancy
 _atom_site_charge
  Cd  Cd1  1  0.608960  0.299780  0.960600  1.0  1.204
  Cd  Cd2  1  0.891040  0.700220  0.460600  1.0  1.2074
  Cd  Cd3  1  0.391040  0.799780  0.539400  1.0  1.2084
  Cd  Cd4  1  0.108960  0.200220  0.039400  1.0  1.2116
  H  H5  1  0.851900  0.244600  0.714500  1.0  0.1076
  H  H6  1  0.851100  0.290500  0.566900  1.0  0.104
  H  H7  1  0.862100  0.177700  0.453000  1.0  0.1051
  H  H8  1  0.866600  0.018900  0.485900  1.0  0.1066
  H  H9  1  0.854900  0.838900  0.746700  1.0  0.1053
  H  H10  1  0.881600  0.950100  0.861600  1.0  0.0987
  H  H11  1  0.648100  0.755400  0.214500  1.0  0.1074
  H  H12  1  0.648900  0.709500  0.066900  1.0  0.1045
  H  H13  1  0.637900  0.822300  0.953000  1.0  0.1054
  H  H14  1  0.633400  0.981100  0.985900  1.0  0.1067
  H  H15  1  0.645100  0.161100  0.246700  1.0  0.1047
  H  H16  1  0.618400  0.049900  0.361600  1.0  0.0988
  H  H17  1  0.148100  0.744600  0.785500  1.0  0.1075
  H  H18  1  0.148900  0.790500  0.933100  1.0  0.104
  H  H19  1  0.137900  0.677700  0.047000  1.0  0.105
  H  H20  1  0.133400  0.518900  0.014100  1.0  0.1076
  H  H21  1  0.145100  0.338900  0.753300  1.0  0.1051
  H  H22  1  0.118400  0.450100  0.638400  1.0  0.099
  H  H23  1  0.351900  0.255400  0.285500  1.0  0.1072
  H  H24  1  0.351100  0.209500  0.433100  1.0  0.1045
  H  H25  1  0.362100  0.322300  0.547000  1.0  0.1049
  H  H26  1  0.366600  0.481100  0.514100  1.0  0.1069
  H  H27  1  0.354900  0.661100  0.253300  1.0  0.105
  H  H28  1  0.381600  0.549900  0.138400  1.0  0.0989
  C  C29  1  0.876800  0.134600  0.865000  1.0  0.7357
  C  C30  1  0.871100  0.067700  0.785300  1.0  -0.1439
  C  C31  1  0.861800  0.099700  0.693900  1.0  0.0654
  C  C32  1  0.855700  0.198400  0.669800  1.0  -0.1261
  C  C33  1  0.855200  0.225900  0.581300  1.0  -0.0827
  C  C34  1  0.861000  0.157900  0.512500  1.0  -0.0856
  C  C35  1  0.865000  0.063300  0.532200  1.0  -0.1144
  C  C36  1  0.866900  0.030800  0.623100  1.0  0.0556
  C  C37  1  0.865000  0.931700  0.644600  1.0  -0.1433
  C  C38  1  0.872900  0.854600  0.574500  1.0  0.6993
  C  C39  1  0.863000  0.903500  0.732900  1.0  -0.0684
  C  C40  1  0.873300  0.971100  0.802600  1.0  -0.0581
  C  C41  1  0.623200  0.865400  0.365000  1.0  0.7358
  C  C42  1  0.628900  0.932300  0.285300  1.0  -0.1447
  C  C43  1  0.638200  0.900300  0.193900  1.0  0.0653
  C  C44  1  0.644300  0.801600  0.169800  1.0  -0.1262
  C  C45  1  0.644800  0.774100  0.081300  1.0  -0.082
  C  C46  1  0.639000  0.842100  0.012500  1.0  -0.0858
  C  C47  1  0.635000  0.936700  0.032200  1.0  -0.1145
  C  C48  1  0.633100  0.969200  0.123100  1.0  0.0559
  C  C49  1  0.635000  0.068300  0.144600  1.0  -0.1438
  C  C50  1  0.627100  0.145400  0.074500  1.0  0.6993
  C  C51  1  0.637000  0.096500  0.232900  1.0  -0.069
  C  C52  1  0.626700  0.028900  0.302600  1.0  -0.058
  C  C53  1  0.123200  0.634600  0.635000  1.0  0.7358
  C  C54  1  0.128900  0.567700  0.714700  1.0  -0.1443
  C  C55  1  0.138200  0.599700  0.806100  1.0  0.0654
  C  C56  1  0.144300  0.698400  0.830200  1.0  -0.1255
  C  C57  1  0.144800  0.725900  0.918700  1.0  -0.0831
  C  C58  1  0.139000  0.657900  0.987500  1.0  -0.0854
  C  C59  1  0.135000  0.563300  0.967800  1.0  -0.1157
  C  C60  1  0.133100  0.530800  0.876900  1.0  0.0556
  C  C61  1  0.135000  0.431700  0.855400  1.0  -0.1429
  C  C62  1  0.127100  0.354600  0.925500  1.0  0.6995
  C  C63  1  0.137000  0.403500  0.767100  1.0  -0.068
  C  C64  1  0.126700  0.471100  0.697400  1.0  -0.0578
  C  C65  1  0.376800  0.365400  0.135000  1.0  0.736
  C  C66  1  0.371100  0.432300  0.214700  1.0  -0.1447
  C  C67  1  0.361800  0.400300  0.306100  1.0  0.0658
  C  C68  1  0.355700  0.301600  0.330200  1.0  -0.1254
  C  C69  1  0.355200  0.274100  0.418700  1.0  -0.0826
  C  C70  1  0.361000  0.342100  0.487500  1.0  -0.0849
  C  C71  1  0.365000  0.436700  0.467800  1.0  -0.1158
  C  C72  1  0.366900  0.469200  0.376900  1.0  0.0557
  C  C73  1  0.365000  0.568300  0.355400  1.0  -0.143
  C  C74  1  0.372900  0.645400  0.425500  1.0  0.6993
  C  C75  1  0.363000  0.596500  0.267100  1.0  -0.068
  C  C76  1  0.373300  0.528900  0.197400  1.0  -0.0579
  O  O77  1  0.776900  0.209100  0.861220  1.0  -0.6355
  O  O78  1  0.983500  0.107890  0.929500  1.0  -0.6282
  O  O79  1  0.005600  0.854840  0.516610  1.0  -0.6392
  O  O80  1  0.746200  0.788600  0.578820  1.0  -0.6652
  O  O81  1  0.723100  0.790900  0.361220  1.0  -0.6355
  O  O82  1  0.516500  0.892110  0.429500  1.0  -0.6294
  O  O83  1  0.494400  0.145160  0.016610  1.0  -0.64
  O  O84  1  0.753800  0.211400  0.078820  1.0  -0.6654
  O  O85  1  0.223100  0.709100  0.638780  1.0  -0.6357
  O  O86  1  0.016500  0.607890  0.570500  1.0  -0.6293
  O  O87  1  0.994400  0.354840  0.983390  1.0  -0.6379
  O  O88  1  0.253800  0.288600  0.921180  1.0  -0.6661
  O  O89  1  0.276900  0.290900  0.138780  1.0  -0.6356
  O  O90  1  0.483500  0.392110  0.070500  1.0  -0.6287
  O  O91  1  0.505600  0.645160  0.483390  1.0  -0.6386
  O  O92  1  0.246200  0.711400  0.421180  1.0  -0.6655
