# generated using pymatgen
data_InH8C12N4Cl3
_symmetry_space_group_name_H-M   'P 1'
_cell_length_a   19.12700000
_cell_length_b   19.12700000
_cell_length_c   19.12700000
_cell_angle_alpha   109.47100000
_cell_angle_beta   109.47100000
_cell_angle_gamma   109.47100000
_symmetry_Int_Tables_number   1
_chemical_formula_structural   InH8C12N4Cl3
_chemical_formula_sum   'In6 H48 C72 N24 Cl18'
_cell_volume   5386.69306999
_cell_formula_units_Z   6
loop_
 _symmetry_equiv_pos_site_id
 _symmetry_equiv_pos_as_xyz
  1  'x, y, z'
loop_
 _atom_site_type_symbol
 _atom_site_label
 _atom_site_symmetry_multiplicity
 _atom_site_fract_x
 _atom_site_fract_y
 _atom_site_fract_z
 _atom_site_occupancy
 _atom_site_charge
  In  In1  1  0.736060  0.236060  0.500000  1.0  1.2695
  In  In2  1  0.263940  0.763940  0.500000  1.0  1.2704
  In  In3  1  0.500000  0.263940  0.763940  1.0  1.2699
  In  In4  1  0.500000  0.736060  0.236060  1.0  1.2697
  In  In5  1  0.236060  0.500000  0.736060  1.0  1.2707
  In  In6  1  0.763940  0.500000  0.263940  1.0  1.2701
  H  H7  1  0.916900  0.267200  0.605700  1.0  0.1201
  H  H8  1  0.997900  0.198700  0.605600  1.0  0.1227
  H  H9  1  0.780500  0.969900  0.433200  1.0  0.123
  H  H10  1  0.699500  0.038400  0.433300  1.0  0.1273
  H  H11  1  0.661500  0.311200  0.394300  1.0  0.1184
  H  H12  1  0.593100  0.392300  0.394400  1.0  0.125
  H  H13  1  0.536700  0.347300  0.566800  1.0  0.1239
  H  H14  1  0.605100  0.266200  0.566700  1.0  0.1283
  H  H15  1  0.338500  0.732800  0.649700  1.0  0.1196
  H  H16  1  0.406900  0.801300  0.799200  1.0  0.123
  H  H17  1  0.463300  0.030100  0.810600  1.0  0.123
  H  H18  1  0.394900  0.961600  0.661100  1.0  0.1278
  H  H19  1  0.083100  0.688800  0.350300  1.0  0.1199
  H  H20  1  0.002100  0.607700  0.200800  1.0  0.1231
  H  H21  1  0.219500  0.652700  0.189400  1.0  0.1229
  H  H22  1  0.300500  0.733800  0.338900  1.0  0.1269
  H  H23  1  0.649700  0.338500  0.732800  1.0  0.1186
  H  H24  1  0.799200  0.406900  0.801300  1.0  0.125
  H  H25  1  0.810600  0.463300  0.030100  1.0  0.1238
  H  H26  1  0.661100  0.394900  0.961600  1.0  0.1277
  H  H27  1  0.350300  0.083100  0.688800  1.0  0.1188
  H  H28  1  0.200800  0.002100  0.607700  1.0  0.1231
  H  H29  1  0.189400  0.219500  0.652700  1.0  0.1229
  H  H30  1  0.338900  0.300500  0.733800  1.0  0.128
  H  H31  1  0.605700  0.916900  0.267200  1.0  0.1197
  H  H32  1  0.605600  0.997900  0.198700  1.0  0.1229
  H  H33  1  0.433200  0.780500  0.969900  1.0  0.1231
  H  H34  1  0.433300  0.699500  0.038400  1.0  0.1271
  H  H35  1  0.394300  0.661500  0.311200  1.0  0.1185
  H  H36  1  0.394400  0.593100  0.392300  1.0  0.1227
  H  H37  1  0.566800  0.536700  0.347300  1.0  0.1229
  H  H38  1  0.566700  0.605100  0.266200  1.0  0.1279
  H  H39  1  0.311200  0.394300  0.661500  1.0  0.1193
  H  H40  1  0.392300  0.394400  0.593100  1.0  0.1239
  H  H41  1  0.347300  0.566800  0.536700  1.0  0.1223
  H  H42  1  0.266200  0.566700  0.605100  1.0  0.1274
  H  H43  1  0.267200  0.605700  0.916900  1.0  0.1186
  H  H44  1  0.198700  0.605600  0.997900  1.0  0.1221
  H  H45  1  0.969900  0.433200  0.780500  1.0  0.1223
  H  H46  1  0.038400  0.433300  0.699500  1.0  0.128
  H  H47  1  0.688800  0.350300  0.083100  1.0  0.1177
  H  H48  1  0.607700  0.200800  0.002100  1.0  0.1243
  H  H49  1  0.652700  0.189400  0.219500  1.0  0.1231
  H  H50  1  0.733800  0.338900  0.300500  1.0  0.128
  H  H51  1  0.732800  0.649700  0.338500  1.0  0.1182
  H  H52  1  0.801300  0.799200  0.406900  1.0  0.1238
  H  H53  1  0.030100  0.810600  0.463300  1.0  0.1228
  H  H54  1  0.961600  0.661100  0.394900  1.0  0.1272
  C  C55  1  0.950700  0.037300  0.534200  1.0  -0.0135
  C  C56  1  0.889200  0.206900  0.570700  1.0  0.1429
  C  C57  1  0.937300  0.166100  0.570600  1.0  -0.0275
  C  C58  1  0.896900  0.077900  0.519400  1.0  -0.0443
  C  C59  1  0.808200  0.030200  0.468200  1.0  -0.0512
  C  C60  1  0.760000  0.070900  0.468300  1.0  0.1609
  C  C61  1  0.503100  0.416500  0.465800  1.0  -0.0093
  C  C62  1  0.636200  0.318500  0.429300  1.0  0.1413
  C  C63  1  0.595500  0.366700  0.429400  1.0  -0.0332
  C  C64  1  0.558500  0.377500  0.480600  1.0  -0.0448
  C  C65  1  0.562000  0.340000  0.531800  1.0  -0.0606
  C  C66  1  0.602600  0.291700  0.531700  1.0  0.1586
  C  C67  1  0.496900  0.962700  0.913400  1.0  -0.0089
  C  C68  1  0.363800  0.793100  0.682300  1.0  0.1445
  C  C69  1  0.404500  0.833900  0.771200  1.0  -0.0287
  C  C70  1  0.441500  0.922100  0.819000  1.0  -0.0441
  C  C71  1  0.438000  0.969800  0.778000  1.0  -0.0519
  C  C72  1  0.397400  0.929100  0.689100  1.0  0.1605
  C  C73  1  0.049300  0.583500  0.086600  1.0  -0.013
  C  C74  1  0.110800  0.681500  0.317700  1.0  0.1391
  C  C75  1  0.062700  0.633300  0.228800  1.0  -0.0274
  C  C76  1  0.103100  0.622500  0.181000  1.0  -0.0445
  C  C77  1  0.191800  0.660000  0.222000  1.0  -0.0552
  C  C78  1  0.240000  0.708300  0.310900  1.0  0.1604
  C  C79  1  0.913400  0.496900  0.962700  1.0  -0.0092
  C  C80  1  0.682300  0.363800  0.793100  1.0  0.1415
  C  C81  1  0.771200  0.404500  0.833900  1.0  -0.0331
  C  C82  1  0.819000  0.441500  0.922100  1.0  -0.0421
  C  C83  1  0.778000  0.438000  0.969800  1.0  -0.0599
  C  C84  1  0.689100  0.397400  0.929100  1.0  0.1579
  C  C85  1  0.086600  0.049300  0.583500  1.0  -0.013
  C  C86  1  0.317700  0.110800  0.681500  1.0  0.1411
  C  C87  1  0.228800  0.062700  0.633300  1.0  -0.0263
  C  C88  1  0.181000  0.103100  0.622500  1.0  -0.0434
  C  C89  1  0.222000  0.191800  0.660000  1.0  -0.0532
  C  C90  1  0.310900  0.240000  0.708300  1.0  0.1594
  C  C91  1  0.534200  0.950700  0.037300  1.0  -0.0132
  C  C92  1  0.570700  0.889200  0.206900  1.0  0.1383
  C  C93  1  0.570600  0.937300  0.166100  1.0  -0.0271
  C  C94  1  0.519400  0.896900  0.077900  1.0  -0.045
  C  C95  1  0.468200  0.808200  0.030200  1.0  -0.0553
  C  C96  1  0.468300  0.760000  0.070900  1.0  0.1599
  C  C97  1  0.465800  0.503100  0.416500  1.0  -0.0112
  C  C98  1  0.429300  0.636200  0.318500  1.0  0.1431
  C  C99  1  0.429400  0.595500  0.366700  1.0  -0.0275
  C  C100  1  0.480600  0.558500  0.377500  1.0  -0.0443
  C  C101  1  0.531800  0.562000  0.340000  1.0  -0.0545
  C  C102  1  0.531700  0.602600  0.291700  1.0  0.1617
  C  C103  1  0.416500  0.465800  0.503100  1.0  -0.0095
  C  C104  1  0.318500  0.429300  0.636200  1.0  0.1406
  C  C105  1  0.366700  0.429400  0.595500  1.0  -0.0275
  C  C106  1  0.377500  0.480600  0.558500  1.0  -0.045
  C  C107  1  0.340000  0.531800  0.562000  1.0  -0.0565
  C  C108  1  0.291700  0.531700  0.602600  1.0  0.161
  C  C109  1  0.037300  0.534200  0.950700  1.0  -0.0125
  C  C110  1  0.206900  0.570700  0.889200  1.0  0.1439
  C  C111  1  0.166100  0.570600  0.937300  1.0  -0.0283
  C  C112  1  0.077900  0.519400  0.896900  1.0  -0.0447
  C  C113  1  0.030200  0.468200  0.808200  1.0  -0.0529
  C  C114  1  0.070900  0.468300  0.760000  1.0  0.1605
  C  C115  1  0.583500  0.086600  0.049300  1.0  -0.0108
  C  C116  1  0.681500  0.317700  0.110800  1.0  0.1421
  C  C117  1  0.633300  0.228800  0.062700  1.0  -0.0336
  C  C118  1  0.622500  0.181000  0.103100  1.0  -0.0441
  C  C119  1  0.660000  0.222000  0.191800  1.0  -0.0596
  C  C120  1  0.708300  0.310900  0.240000  1.0  0.1574
  C  C121  1  0.962700  0.913400  0.496900  1.0  -0.0075
  C  C122  1  0.793100  0.682300  0.363800  1.0  0.1425
  C  C123  1  0.833900  0.771200  0.404500  1.0  -0.029
  C  C124  1  0.922100  0.819000  0.441500  1.0  -0.0439
  C  C125  1  0.969800  0.778000  0.438000  1.0  -0.0535
  C  C126  1  0.929100  0.689100  0.397400  1.0  0.1605
  N  N127  1  0.910300  0.948800  0.489300  1.0  -0.2916
  N  N128  1  0.800500  0.159200  0.519500  1.0  -0.3001
  N  N129  1  0.459500  0.421000  0.510700  1.0  -0.2934
  N  N130  1  0.639700  0.281000  0.480500  1.0  -0.3013
  N  N131  1  0.540500  0.051200  0.961500  1.0  -0.2859
  N  N132  1  0.360300  0.840800  0.641300  1.0  -0.3003
  N  N133  1  0.089700  0.579000  0.038500  1.0  -0.2942
  N  N134  1  0.199500  0.719000  0.358700  1.0  -0.2995
  N  N135  1  0.961500  0.540500  0.051200  1.0  -0.285
  N  N136  1  0.641300  0.360300  0.840800  1.0  -0.3013
  N  N137  1  0.038500  0.089700  0.579000  1.0  -0.2932
  N  N138  1  0.358700  0.199500  0.719000  1.0  -0.306
  N  N139  1  0.489300  0.910300  0.948800  1.0  -0.2911
  N  N140  1  0.519500  0.800500  0.159200  1.0  -0.2952
  N  N141  1  0.510700  0.459500  0.421000  1.0  -0.2935
  N  N142  1  0.480500  0.639700  0.281000  1.0  -0.2991
  N  N143  1  0.421000  0.510700  0.459500  1.0  -0.2922
  N  N144  1  0.281000  0.480500  0.639700  1.0  -0.2965
  N  N145  1  0.948800  0.489300  0.910300  1.0  -0.2913
  N  N146  1  0.159200  0.519500  0.800500  1.0  -0.2984
  N  N147  1  0.579000  0.038500  0.089700  1.0  -0.2933
  N  N148  1  0.719000  0.358700  0.199500  1.0  -0.2992
  N  N149  1  0.051200  0.961500  0.540500  1.0  -0.2846
  N  N150  1  0.840800  0.641300  0.360300  1.0  -0.2948
  Cl  Cl151  1  0.801660  0.313900  0.655960  1.0  -0.4935
  Cl  Cl152  1  0.657940  0.145700  0.344040  1.0  -0.4942
  Cl  Cl153  1  0.342060  0.686100  0.487760  1.0  -0.4953
  Cl  Cl154  1  0.198340  0.854300  0.512240  1.0  -0.4936
  Cl  Cl155  1  0.487760  0.342060  0.686100  1.0  -0.4937
  Cl  Cl156  1  0.512240  0.198340  0.854300  1.0  -0.4934
  Cl  Cl157  1  0.655960  0.801660  0.313900  1.0  -0.4949
  Cl  Cl158  1  0.344040  0.657940  0.145700  1.0  -0.4937
  Cl  Cl159  1  0.145700  0.344040  0.657940  1.0  -0.4941
  Cl  Cl160  1  0.313900  0.655960  0.801660  1.0  -0.494
  Cl  Cl161  1  0.854300  0.512240  0.198340  1.0  -0.4951
  Cl  Cl162  1  0.686100  0.487760  0.342060  1.0  -0.4938
  Cl  Cl163  1  0.630800  0.130800  0.500000  1.0  -0.4133
  Cl  Cl164  1  0.369200  0.869200  0.500000  1.0  -0.411
  Cl  Cl165  1  0.500000  0.369200  0.869200  1.0  -0.4135
  Cl  Cl166  1  0.500000  0.630800  0.130800  1.0  -0.4096
  Cl  Cl167  1  0.130800  0.500000  0.630800  1.0  -0.412
  Cl  Cl168  1  0.869200  0.500000  0.369200  1.0  -0.412
