# generated using pymatgen
data_FeH4C8O5
_symmetry_space_group_name_H-M   'P 1'
_cell_length_a   20.53080000
_cell_length_b   9.17090000
_cell_length_c   6.88010000
_cell_angle_alpha   90.00000000
_cell_angle_beta   113.07200000
_cell_angle_gamma   90.00000000
_symmetry_Int_Tables_number   1
_chemical_formula_structural   FeH4C8O5
_chemical_formula_sum   'Fe4 H16 C32 O20'
_cell_volume   1191.80883721
_cell_formula_units_Z   4
loop_
 _symmetry_equiv_pos_site_id
 _symmetry_equiv_pos_as_xyz
  1  'x, y, z'
loop_
 _atom_site_type_symbol
 _atom_site_label
 _atom_site_symmetry_multiplicity
 _atom_site_fract_x
 _atom_site_fract_y
 _atom_site_fract_z
 _atom_site_occupancy
 _atom_site_charge
  Fe  Fe1  1  0.005400  0.003800  0.954000  1.0  1.2912
  Fe  Fe2  1  0.505400  0.503800  0.954000  1.0  1.2905
  Fe  Fe3  1  0.005400  0.996200  0.454000  1.0  1.2914
  Fe  Fe4  1  0.505400  0.496200  0.454000  1.0  1.2915
  H  H5  1  0.181400  0.204700  0.582300  1.0  0.1445
  H  H6  1  0.299000  0.284300  0.684300  1.0  0.1417
  H  H7  1  0.327200  0.254100  0.302500  1.0  0.1439
  H  H8  1  0.209600  0.174500  0.200500  1.0  0.1369
  H  H9  1  0.681400  0.704700  0.582300  1.0  0.1445
  H  H10  1  0.799000  0.784300  0.684300  1.0  0.1417
  H  H11  1  0.827200  0.754100  0.302500  1.0  0.1439
  H  H12  1  0.709600  0.674500  0.200500  1.0  0.1369
  H  H13  1  0.181400  0.795300  0.082300  1.0  0.1445
  H  H14  1  0.299000  0.715700  0.184300  1.0  0.1418
  H  H15  1  0.327200  0.745900  0.802500  1.0  0.144
  H  H16  1  0.209600  0.825500  0.700500  1.0  0.1372
  H  H17  1  0.681400  0.295300  0.082300  1.0  0.1445
  H  H18  1  0.799000  0.215700  0.184300  1.0  0.1418
  H  H19  1  0.827200  0.245900  0.802500  1.0  0.144
  H  H20  1  0.709600  0.325500  0.700500  1.0  0.1372
  C  C21  1  0.185800  0.183000  0.882900  1.0  -0.0815
  C  C22  1  0.211800  0.215000  0.732500  1.0  -0.0305
  C  C23  1  0.280300  0.261400  0.792000  1.0  -0.0483
  C  C24  1  0.322800  0.275800  0.001900  1.0  -0.0635
  C  C25  1  0.296800  0.243800  0.152300  1.0  -0.035
  C  C26  1  0.228300  0.197400  0.092800  1.0  -0.049
  C  C27  1  0.111700  0.132800  0.818700  1.0  0.7213
  C  C28  1  0.396900  0.326000  0.066100  1.0  0.7265
  C  C29  1  0.685800  0.683000  0.882900  1.0  -0.0815
  C  C30  1  0.711800  0.715000  0.732500  1.0  -0.0305
  C  C31  1  0.780300  0.761400  0.792000  1.0  -0.0483
  C  C32  1  0.822800  0.775800  0.001900  1.0  -0.0635
  C  C33  1  0.796800  0.743800  0.152300  1.0  -0.035
  C  C34  1  0.728300  0.697400  0.092800  1.0  -0.049
  C  C35  1  0.611700  0.632800  0.818700  1.0  0.7213
  C  C36  1  0.896900  0.826000  0.066100  1.0  0.7265
  C  C37  1  0.185800  0.817000  0.382900  1.0  -0.0812
  C  C38  1  0.211800  0.785000  0.232500  1.0  -0.0302
  C  C39  1  0.280300  0.738600  0.292000  1.0  -0.0485
  C  C40  1  0.322800  0.724200  0.501900  1.0  -0.064
  C  C41  1  0.296800  0.756200  0.652300  1.0  -0.0351
  C  C42  1  0.228300  0.802600  0.592800  1.0  -0.0483
  C  C43  1  0.111700  0.867200  0.318700  1.0  0.7222
  C  C44  1  0.396900  0.674000  0.566100  1.0  0.727
  C  C45  1  0.685800  0.317000  0.382900  1.0  -0.0812
  C  C46  1  0.711800  0.285000  0.232500  1.0  -0.0302
  C  C47  1  0.780300  0.238600  0.292000  1.0  -0.0485
  C  C48  1  0.822800  0.224200  0.501900  1.0  -0.064
  C  C49  1  0.796800  0.256200  0.652300  1.0  -0.0351
  C  C50  1  0.728300  0.302600  0.592800  1.0  -0.0483
  C  C51  1  0.611700  0.367200  0.318700  1.0  0.7222
  C  C52  1  0.896900  0.174000  0.566100  1.0  0.727
  O  O53  1  0.071400  0.125300  0.624100  1.0  -0.5779
  O  O54  1  0.088500  0.097300  0.958100  1.0  -0.5892
  O  O55  1  0.420100  0.361500  0.926700  1.0  -0.5752
  O  O56  1  0.437200  0.333500  0.260700  1.0  -0.6114
  O  O57  1  0.006700  0.901100  0.696000  1.0  -0.6465
  O  O58  1  0.571400  0.625300  0.624100  1.0  -0.5779
  O  O59  1  0.588500  0.597300  0.958100  1.0  -0.5892
  O  O60  1  0.920100  0.861500  0.926700  1.0  -0.5752
  O  O61  1  0.937200  0.833500  0.260700  1.0  -0.6114
  O  O62  1  0.506700  0.401100  0.696000  1.0  -0.6465
  O  O63  1  0.071400  0.874700  0.124100  1.0  -0.5778
  O  O64  1  0.088500  0.902700  0.458100  1.0  -0.5902
  O  O65  1  0.420100  0.638500  0.426700  1.0  -0.5756
  O  O66  1  0.437200  0.666500  0.760700  1.0  -0.6106
  O  O67  1  0.006700  0.098900  0.196000  1.0  -0.6441
  O  O68  1  0.571400  0.374700  0.124100  1.0  -0.5778
  O  O69  1  0.588500  0.402700  0.458100  1.0  -0.5902
  O  O70  1  0.920100  0.138500  0.426700  1.0  -0.5756
  O  O71  1  0.937200  0.166500  0.760700  1.0  -0.6106
  O  O72  1  0.506700  0.598900  0.196000  1.0  -0.6441
