# generated using pymatgen
data_FeH4C8O5
_symmetry_space_group_name_H-M   'P 1'
_cell_length_a   20.52660000
_cell_length_b   9.19250000
_cell_length_c   6.87630000
_cell_angle_alpha   90.00000000
_cell_angle_beta   113.08400000
_cell_angle_gamma   90.00000000
_symmetry_Int_Tables_number   1
_chemical_formula_structural   FeH4C8O5
_chemical_formula_sum   'Fe4 H16 C32 O20'
_cell_volume   1193.60529985
_cell_formula_units_Z   4
loop_
 _symmetry_equiv_pos_site_id
 _symmetry_equiv_pos_as_xyz
  1  'x, y, z'
loop_
 _atom_site_type_symbol
 _atom_site_label
 _atom_site_symmetry_multiplicity
 _atom_site_fract_x
 _atom_site_fract_y
 _atom_site_fract_z
 _atom_site_occupancy
 _atom_site_charge
  Fe  Fe1  1  0.995900  0.005300  0.961200  1.0  1.2442
  Fe  Fe2  1  0.495900  0.505300  0.961200  1.0  1.2448
  Fe  Fe3  1  0.995900  0.994700  0.461200  1.0  1.243
  Fe  Fe4  1  0.495900  0.494700  0.461200  1.0  1.243
  H  H5  1  0.172300  0.204100  0.594400  1.0  0.1439
  H  H6  1  0.289700  0.284300  0.696600  1.0  0.1458
  H  H7  1  0.317300  0.258300  0.314900  1.0  0.1448
  H  H8  1  0.199800  0.178000  0.212600  1.0  0.1414
  H  H9  1  0.672300  0.704100  0.594400  1.0  0.1439
  H  H10  1  0.789700  0.784300  0.696600  1.0  0.1458
  H  H11  1  0.817300  0.758300  0.314900  1.0  0.1448
  H  H12  1  0.699800  0.678000  0.212600  1.0  0.1414
  H  H13  1  0.172300  0.795900  0.094400  1.0  0.1436
  H  H14  1  0.289700  0.715700  0.196600  1.0  0.1458
  H  H15  1  0.317300  0.741700  0.814900  1.0  0.145
  H  H16  1  0.199800  0.822000  0.712600  1.0  0.1417
  H  H17  1  0.672300  0.295900  0.094400  1.0  0.1436
  H  H18  1  0.789700  0.215700  0.196600  1.0  0.1458
  H  H19  1  0.817300  0.241700  0.814900  1.0  0.145
  H  H20  1  0.699800  0.322000  0.712600  1.0  0.1417
  C  C21  1  0.176300  0.184400  0.895000  1.0  -0.0714
  C  C22  1  0.202500  0.215400  0.744600  1.0  -0.0459
  C  C23  1  0.271000  0.262200  0.804200  1.0  -0.0368
  C  C24  1  0.313200  0.278000  0.014200  1.0  -0.06
  C  C25  1  0.287000  0.247000  0.164600  1.0  -0.0385
  C  C26  1  0.218500  0.200200  0.105000  1.0  -0.0407
  C  C27  1  0.102100  0.133700  0.830400  1.0  0.726
  C  C28  1  0.387400  0.328700  0.078800  1.0  0.7345
  C  C29  1  0.676300  0.684400  0.895000  1.0  -0.0714
  C  C30  1  0.702500  0.715400  0.744600  1.0  -0.0459
  C  C31  1  0.771000  0.762200  0.804200  1.0  -0.0368
  C  C32  1  0.813200  0.778000  0.014200  1.0  -0.06
  C  C33  1  0.787000  0.747000  0.164600  1.0  -0.0385
  C  C34  1  0.718500  0.700200  0.105000  1.0  -0.0407
  C  C35  1  0.602100  0.633700  0.830400  1.0  0.726
  C  C36  1  0.887400  0.828700  0.078800  1.0  0.7345
  C  C37  1  0.176300  0.815600  0.395000  1.0  -0.0714
  C  C38  1  0.202500  0.784600  0.244600  1.0  -0.0452
  C  C39  1  0.271000  0.737800  0.304200  1.0  -0.0369
  C  C40  1  0.313200  0.722000  0.514200  1.0  -0.0603
  C  C41  1  0.287000  0.753000  0.664600  1.0  -0.0387
  C  C42  1  0.218500  0.799800  0.605000  1.0  -0.0406
  C  C43  1  0.102100  0.866300  0.330400  1.0  0.7265
  C  C44  1  0.387400  0.671300  0.578800  1.0  0.735
  C  C45  1  0.676300  0.315600  0.395000  1.0  -0.0714
  C  C46  1  0.702500  0.284600  0.244600  1.0  -0.0452
  C  C47  1  0.771000  0.237800  0.304200  1.0  -0.0369
  C  C48  1  0.813200  0.222000  0.514200  1.0  -0.0603
  C  C49  1  0.787000  0.253000  0.664600  1.0  -0.0387
  C  C50  1  0.718500  0.299800  0.605000  1.0  -0.0406
  C  C51  1  0.602100  0.366300  0.330400  1.0  0.7265
  C  C52  1  0.887400  0.171300  0.578800  1.0  0.735
  O  O53  1  0.061700  0.126700  0.635700  1.0  -0.5834
  O  O54  1  0.079000  0.097300  0.969800  1.0  -0.5851
  O  O55  1  0.410600  0.365100  0.939400  1.0  -0.5781
  O  O56  1  0.427800  0.335600  0.273500  1.0  -0.5814
  O  O57  1  0.996800  0.903100  0.703000  1.0  -0.6601
  O  O58  1  0.561700  0.626700  0.635700  1.0  -0.5834
  O  O59  1  0.579000  0.597300  0.969800  1.0  -0.5851
  O  O60  1  0.910600  0.865100  0.939400  1.0  -0.5781
  O  O61  1  0.927800  0.835600  0.273500  1.0  -0.5814
  O  O62  1  0.496800  0.403100  0.703000  1.0  -0.6601
  O  O63  1  0.061700  0.873300  0.135700  1.0  -0.5832
  O  O64  1  0.079000  0.902700  0.469800  1.0  -0.5851
  O  O65  1  0.410600  0.634900  0.439400  1.0  -0.5789
  O  O66  1  0.427800  0.664400  0.773500  1.0  -0.5824
  O  O67  1  0.996800  0.096900  0.203000  1.0  -0.6574
  O  O68  1  0.561700  0.373300  0.135700  1.0  -0.5832
  O  O69  1  0.579000  0.402700  0.469800  1.0  -0.5851
  O  O70  1  0.910600  0.134900  0.439400  1.0  -0.5789
  O  O71  1  0.927800  0.164400  0.773500  1.0  -0.5824
  O  O72  1  0.496800  0.596900  0.203000  1.0  -0.6574
