# generated using pymatgen
data_FeH5C8O5
_symmetry_space_group_name_H-M   'P 1'
_cell_length_a   11.25770000
_cell_length_b   11.25770000
_cell_length_c   15.90490000
_cell_angle_alpha   115.84750000
_cell_angle_beta   115.84750000
_cell_angle_gamma   90.86570000
_symmetry_Int_Tables_number   1
_chemical_formula_structural   FeH5C8O5
_chemical_formula_sum   'Fe4 H20 C32 O20'
_cell_volume   1579.32124073
_cell_formula_units_Z   4
loop_
 _symmetry_equiv_pos_site_id
 _symmetry_equiv_pos_as_xyz
  1  'x, y, z'
loop_
 _atom_site_type_symbol
 _atom_site_label
 _atom_site_symmetry_multiplicity
 _atom_site_fract_x
 _atom_site_fract_y
 _atom_site_fract_z
 _atom_site_occupancy
 _atom_site_charge
  Fe  Fe1  1  0.751770  0.248230  0.250000  1.0  0.8116
  Fe  Fe2  1  0.248230  0.751770  0.750000  1.0  0.8148
  Fe  Fe3  1  0.500000  0.000000  0.000000  1.0  0.8654
  Fe  Fe4  1  0.000000  0.500000  0.500000  1.0  0.864
  H  H5  1  0.920440  0.816300  0.426450  1.0  0.1539
  H  H6  1  0.867760  0.981420  0.372530  1.0  0.1524
  H  H7  1  0.572510  0.686750  0.077470  1.0  0.1538
  H  H8  1  0.625190  0.521630  0.131390  1.0  0.1537
  H  H9  1  0.199490  0.707030  0.565690  1.0  0.2233
  H  H10  1  0.183700  0.079560  0.073550  1.0  0.1532
  H  H11  1  0.018580  0.132240  0.127470  1.0  0.1521
  H  H12  1  0.313250  0.427490  0.422530  1.0  0.1531
  H  H13  1  0.478370  0.374810  0.368610  1.0  0.1542
  H  H14  1  0.292970  0.800510  0.934310  1.0  0.219
  H  H15  1  0.079560  0.183700  0.573550  1.0  0.1537
  H  H16  1  0.132240  0.018580  0.627470  1.0  0.152
  H  H17  1  0.427490  0.313250  0.922530  1.0  0.1539
  H  H18  1  0.374810  0.478370  0.868610  1.0  0.1543
  H  H19  1  0.800510  0.292970  0.434310  1.0  0.2226
  H  H20  1  0.816300  0.920440  0.926450  1.0  0.1531
  H  H21  1  0.981420  0.867760  0.872530  1.0  0.1528
  H  H22  1  0.686750  0.572510  0.577470  1.0  0.1537
  H  H23  1  0.521630  0.625190  0.631390  1.0  0.1537
  H  H24  1  0.707030  0.199490  0.065690  1.0  0.2204
  C  C25  1  0.777180  0.655260  0.283390  1.0  -0.0557
  C  C26  1  0.847900  0.789300  0.353690  1.0  -0.0287
  C  C27  1  0.817180  0.885540  0.322250  1.0  -0.0414
  C  C28  1  0.715770  0.847790  0.220530  1.0  -0.0589
  C  C29  1  0.645060  0.713760  0.150240  1.0  -0.0284
  C  C30  1  0.675770  0.617510  0.181670  1.0  -0.0361
  C  C31  1  0.810150  0.551970  0.317120  1.0  0.7384
  C  C32  1  0.682800  0.951080  0.186800  1.0  0.7414
  C  C33  1  0.344740  0.222820  0.216610  1.0  -0.0571
  C  C34  1  0.210700  0.152100  0.146310  1.0  -0.0336
  C  C35  1  0.114460  0.182820  0.177750  1.0  -0.0382
  C  C36  1  0.152210  0.284230  0.279470  1.0  -0.0602
  C  C37  1  0.286240  0.354940  0.349760  1.0  -0.0292
  C  C38  1  0.382490  0.324230  0.318330  1.0  -0.0337
  C  C39  1  0.448030  0.189850  0.182880  1.0  0.7389
  C  C40  1  0.048920  0.317200  0.313200  1.0  0.7409
  C  C41  1  0.222820  0.344740  0.716610  1.0  -0.0565
  C  C42  1  0.152100  0.210700  0.646310  1.0  -0.0297
  C  C43  1  0.182820  0.114460  0.677750  1.0  -0.0411
  C  C44  1  0.284230  0.152210  0.779470  1.0  -0.0588
  C  C45  1  0.354940  0.286240  0.849760  1.0  -0.0292
  C  C46  1  0.324230  0.382490  0.818330  1.0  -0.0355
  C  C47  1  0.189850  0.448030  0.682880  1.0  0.7397
  C  C48  1  0.317200  0.048920  0.813200  1.0  0.741
  C  C49  1  0.655260  0.777180  0.783390  1.0  -0.0566
  C  C50  1  0.789300  0.847900  0.853690  1.0  -0.0332
  C  C51  1  0.885540  0.817180  0.822250  1.0  -0.0384
  C  C52  1  0.847790  0.715770  0.720530  1.0  -0.0601
  C  C53  1  0.713760  0.645060  0.650240  1.0  -0.0292
  C  C54  1  0.617510  0.675770  0.681670  1.0  -0.0333
  C  C55  1  0.551970  0.810150  0.817120  1.0  0.7386
  C  C56  1  0.951080  0.682800  0.686800  1.0  0.7402
  O  O57  1  0.746550  0.427330  0.251270  1.0  -0.5668
  O  O58  1  0.902230  0.587390  0.412120  1.0  -0.5686
  O  O59  1  0.583670  0.917450  0.094690  1.0  -0.5681
  O  O60  1  0.753460  0.073940  0.249770  1.0  -0.5509
  O  O61  1  0.661830  0.147950  0.093350  1.0  -0.6486
  O  O62  1  0.572670  0.253450  0.248730  1.0  -0.5676
  O  O63  1  0.412610  0.097770  0.087880  1.0  -0.5647
  O  O64  1  0.082550  0.416330  0.405310  1.0  -0.5683
  O  O65  1  0.926060  0.246540  0.250230  1.0  -0.5523
  O  O66  1  0.852050  0.338170  0.406650  1.0  -0.6494
  O  O67  1  0.253450  0.572670  0.748730  1.0  -0.566
  O  O68  1  0.097770  0.412610  0.587880  1.0  -0.5657
  O  O69  1  0.416330  0.082550  0.905310  1.0  -0.5698
  O  O70  1  0.246540  0.926060  0.750230  1.0  -0.5521
  O  O71  1  0.338170  0.852050  0.906650  1.0  -0.6498
  O  O72  1  0.427330  0.746550  0.751270  1.0  -0.5649
  O  O73  1  0.587390  0.902230  0.912120  1.0  -0.5677
  O  O74  1  0.917450  0.583670  0.594690  1.0  -0.5677
  O  O75  1  0.073940  0.753460  0.749770  1.0  -0.5539
  O  O76  1  0.147950  0.661830  0.593350  1.0  -0.6482
