# generated using pymatgen
data_FeH4C8O5
_symmetry_space_group_name_H-M   'P 1'
_cell_length_a   20.46330000
_cell_length_b   9.28760000
_cell_length_c   6.88390000
_cell_angle_alpha   90.00000000
_cell_angle_beta   112.71800000
_cell_angle_gamma   90.00000000
_symmetry_Int_Tables_number   1
_chemical_formula_structural   FeH4C8O5
_chemical_formula_sum   'Fe4 H16 C32 O20'
_cell_volume   1206.81565388
_cell_formula_units_Z   4
loop_
 _symmetry_equiv_pos_site_id
 _symmetry_equiv_pos_as_xyz
  1  'x, y, z'
loop_
 _atom_site_type_symbol
 _atom_site_label
 _atom_site_symmetry_multiplicity
 _atom_site_fract_x
 _atom_site_fract_y
 _atom_site_fract_z
 _atom_site_occupancy
 _atom_site_charge
  Fe  Fe1  1  0.005000  0.010500  0.014700  1.0  1.156
  Fe  Fe2  1  0.505000  0.510500  0.014700  1.0  1.1558
  Fe  Fe3  1  0.005000  0.989500  0.514700  1.0  1.1558
  Fe  Fe4  1  0.505000  0.489500  0.514700  1.0  1.1558
  H  H5  1  0.180900  0.203400  0.653900  1.0  0.1487
  H  H6  1  0.298200  0.284800  0.756400  1.0  0.1533
  H  H7  1  0.323000  0.264500  0.371600  1.0  0.1518
  H  H8  1  0.205700  0.183100  0.269100  1.0  0.1486
  H  H9  1  0.680900  0.703400  0.653900  1.0  0.1487
  H  H10  1  0.798200  0.784800  0.756400  1.0  0.1533
  H  H11  1  0.823000  0.764500  0.371600  1.0  0.1518
  H  H12  1  0.705700  0.683100  0.269100  1.0  0.1486
  H  H13  1  0.180900  0.796600  0.153900  1.0  0.1487
  H  H14  1  0.298200  0.715200  0.256400  1.0  0.1534
  H  H15  1  0.323000  0.735500  0.871600  1.0  0.1518
  H  H16  1  0.205700  0.816900  0.769100  1.0  0.1489
  H  H17  1  0.680900  0.296600  0.153900  1.0  0.1487
  H  H18  1  0.798200  0.215200  0.256400  1.0  0.1534
  H  H19  1  0.823000  0.235500  0.871600  1.0  0.1518
  H  H20  1  0.705700  0.316900  0.769100  1.0  0.1489
  C  C21  1  0.183500  0.186500  0.953000  1.0  -0.0811
  C  C22  1  0.210500  0.216100  0.803600  1.0  -0.0389
  C  C23  1  0.278900  0.263600  0.863300  1.0  -0.0287
  C  C24  1  0.320300  0.281400  0.072500  1.0  -0.0727
  C  C25  1  0.293300  0.251700  0.222000  1.0  -0.0383
  C  C26  1  0.224900  0.204300  0.162200  1.0  -0.0339
  C  C27  1  0.108900  0.134700  0.887800  1.0  0.7299
  C  C28  1  0.395000  0.333100  0.137800  1.0  0.7374
  C  C29  1  0.683500  0.686500  0.953000  1.0  -0.0811
  C  C30  1  0.710500  0.716100  0.803600  1.0  -0.0389
  C  C31  1  0.778900  0.763600  0.863300  1.0  -0.0287
  C  C32  1  0.820300  0.781400  0.072500  1.0  -0.0727
  C  C33  1  0.793300  0.751700  0.222000  1.0  -0.0383
  C  C34  1  0.724900  0.704300  0.162200  1.0  -0.0339
  C  C35  1  0.608900  0.634700  0.887800  1.0  0.7299
  C  C36  1  0.895000  0.833100  0.137800  1.0  0.7374
  C  C37  1  0.183500  0.813500  0.453000  1.0  -0.081
  C  C38  1  0.210500  0.783900  0.303600  1.0  -0.0382
  C  C39  1  0.278900  0.736400  0.363300  1.0  -0.0292
  C  C40  1  0.320300  0.718600  0.572500  1.0  -0.0732
  C  C41  1  0.293300  0.748300  0.722000  1.0  -0.0384
  C  C42  1  0.224900  0.795700  0.662200  1.0  -0.0335
  C  C43  1  0.108900  0.865300  0.387800  1.0  0.7299
  C  C44  1  0.395000  0.666900  0.637800  1.0  0.7378
  C  C45  1  0.683500  0.313500  0.453000  1.0  -0.081
  C  C46  1  0.710500  0.283900  0.303600  1.0  -0.0382
  C  C47  1  0.778900  0.236400  0.363300  1.0  -0.0292
  C  C48  1  0.820300  0.218600  0.572500  1.0  -0.0732
  C  C49  1  0.793300  0.248300  0.722000  1.0  -0.0384
  C  C50  1  0.724900  0.295700  0.662200  1.0  -0.0335
  C  C51  1  0.608900  0.365300  0.387800  1.0  0.7299
  C  C52  1  0.895000  0.166900  0.637800  1.0  0.7378
  O  O53  1  0.069000  0.127100  0.693700  1.0  -0.5794
  O  O54  1  0.085300  0.098400  0.026400  1.0  -0.5744
  O  O55  1  0.418500  0.369500  0.999100  1.0  -0.5793
  O  O56  1  0.434800  0.340800  0.331800  1.0  -0.569
  O  O57  1  0.005200  0.903300  0.762900  1.0  -0.6322
  O  O58  1  0.569000  0.627100  0.693700  1.0  -0.5794
  O  O59  1  0.585300  0.598400  0.026400  1.0  -0.5744
  O  O60  1  0.918500  0.869500  0.999100  1.0  -0.5793
  O  O61  1  0.934800  0.840800  0.331800  1.0  -0.569
  O  O62  1  0.505200  0.403300  0.762900  1.0  -0.6322
  O  O63  1  0.069000  0.872900  0.193700  1.0  -0.5786
  O  O64  1  0.085300  0.901600  0.526400  1.0  -0.5754
  O  O65  1  0.418500  0.630500  0.499100  1.0  -0.5756
  O  O66  1  0.434800  0.659200  0.831800  1.0  -0.5701
  O  O67  1  0.005200  0.096700  0.262900  1.0  -0.6305
  O  O68  1  0.569000  0.372900  0.193700  1.0  -0.5786
  O  O69  1  0.585300  0.401600  0.526400  1.0  -0.5754
  O  O70  1  0.918500  0.130500  0.499100  1.0  -0.5756
  O  O71  1  0.934800  0.159200  0.831800  1.0  -0.5701
  O  O72  1  0.505200  0.596700  0.262900  1.0  -0.6305
