# generated using pymatgen
data_FeH5C8O5
_symmetry_space_group_name_H-M   'P 1'
_cell_length_a   6.90350000
_cell_length_b   15.99590000
_cell_length_c   14.34060000
_cell_angle_alpha   90.00000000
_cell_angle_beta   90.00000000
_cell_angle_gamma   90.00000000
_symmetry_Int_Tables_number   1
_chemical_formula_structural   FeH5C8O5
_chemical_formula_sum   'Fe4 H20 C32 O20'
_cell_volume   1583.59941224
_cell_formula_units_Z   4
loop_
 _symmetry_equiv_pos_site_id
 _symmetry_equiv_pos_as_xyz
  1  'x, y, z'
loop_
 _atom_site_type_symbol
 _atom_site_label
 _atom_site_symmetry_multiplicity
 _atom_site_fract_x
 _atom_site_fract_y
 _atom_site_fract_z
 _atom_site_occupancy
 _atom_site_charge
  Fe  Fe1  1  0.750000  0.250000  0.250000  1.0  0.6071
  Fe  Fe2  1  0.250000  0.250000  0.250000  1.0  0.6071
  Fe  Fe3  1  0.250000  0.750000  0.750000  1.0  0.6071
  Fe  Fe4  1  0.750000  0.750000  0.750000  1.0  0.6071
  H  H5  1  0.703340  0.554950  0.555150  1.0  0.1697
  H  H6  1  0.203340  0.054950  0.055150  1.0  0.1697
  H  H7  1  0.296660  0.945050  0.555150  1.0  0.1699
  H  H8  1  0.796660  0.445050  0.055150  1.0  0.1699
  H  H9  1  0.296660  0.054950  0.444850  1.0  0.1702
  H  H10  1  0.796660  0.554950  0.944850  1.0  0.1702
  H  H11  1  0.703340  0.445050  0.444850  1.0  0.1701
  H  H12  1  0.203340  0.945050  0.944850  1.0  0.1701
  H  H13  1  0.296660  0.445050  0.444850  1.0  0.17
  H  H14  1  0.796660  0.945050  0.944850  1.0  0.17
  H  H15  1  0.703340  0.054950  0.444850  1.0  0.1702
  H  H16  1  0.203340  0.554950  0.944850  1.0  0.1702
  H  H17  1  0.703340  0.945050  0.555150  1.0  0.1699
  H  H18  1  0.203340  0.445050  0.055150  1.0  0.1699
  H  H19  1  0.296660  0.554950  0.555150  1.0  0.1699
  H  H20  1  0.796660  0.054950  0.055150  1.0  0.1699
  H  H21  1  0.500000  0.250000  0.382150  1.0  0.4784
  H  H22  1  0.000000  0.750000  0.882150  1.0  0.4784
  H  H23  1  0.500000  0.750000  0.617850  1.0  0.4798
  H  H24  1  0.000000  0.250000  0.117850  1.0  0.4798
  C  C25  1  0.826270  0.532180  0.532290  1.0  -0.0241
  C  C26  1  0.326270  0.032180  0.032290  1.0  -0.0216
  C  C27  1  0.173730  0.967820  0.532290  1.0  -0.0251
  C  C28  1  0.673730  0.467820  0.032290  1.0  -0.0221
  C  C29  1  0.173730  0.032180  0.467710  1.0  -0.0258
  C  C30  1  0.673730  0.532180  0.967710  1.0  -0.0234
  C  C31  1  0.826270  0.467820  0.467710  1.0  -0.0242
  C  C32  1  0.326270  0.967820  0.967710  1.0  -0.0224
  C  C33  1  0.173730  0.467820  0.467710  1.0  -0.0262
  C  C34  1  0.673730  0.967820  0.967710  1.0  -0.0227
  C  C35  1  0.826270  0.032180  0.467710  1.0  -0.0242
  C  C36  1  0.326270  0.532180  0.967710  1.0  -0.0216
  C  C37  1  0.826270  0.967820  0.532290  1.0  -0.024
  C  C38  1  0.326270  0.467820  0.032290  1.0  -0.0219
  C  C39  1  0.173730  0.532180  0.532290  1.0  -0.0262
  C  C40  1  0.673730  0.032180  0.032290  1.0  -0.023
  C  C41  1  0.000000  0.564360  0.564590  1.0  -0.058
  C  C42  1  0.000000  0.632680  0.633140  1.0  0.7567
  C  C43  1  0.500000  0.064360  0.064590  1.0  -0.058
  C  C44  1  0.500000  0.132680  0.133140  1.0  0.7567
  C  C45  1  0.000000  0.935640  0.564590  1.0  -0.0578
  C  C46  1  0.000000  0.867320  0.633140  1.0  0.7565
  C  C47  1  0.500000  0.435640  0.064590  1.0  -0.0576
  C  C48  1  0.500000  0.367320  0.133140  1.0  0.7565
  C  C49  1  0.000000  0.064360  0.435410  1.0  -0.0582
  C  C50  1  0.000000  0.132680  0.366860  1.0  0.7563
  C  C51  1  0.500000  0.564360  0.935410  1.0  -0.0582
  C  C52  1  0.500000  0.632680  0.866860  1.0  0.7563
  C  C53  1  0.000000  0.435640  0.435410  1.0  -0.0577
  C  C54  1  0.000000  0.367320  0.366860  1.0  0.7562
  C  C55  1  0.500000  0.935640  0.935410  1.0  -0.0575
  C  C56  1  0.500000  0.867320  0.866860  1.0  0.7562
  O  O57  1  0.840820  0.662190  0.662760  1.0  -0.5516
  O  O58  1  0.340820  0.162190  0.162760  1.0  -0.5516
  O  O59  1  0.159180  0.837810  0.662760  1.0  -0.552
  O  O60  1  0.659180  0.337810  0.162760  1.0  -0.552
  O  O61  1  0.159180  0.162190  0.337240  1.0  -0.5509
  O  O62  1  0.659180  0.662190  0.837240  1.0  -0.5509
  O  O63  1  0.840820  0.337810  0.337240  1.0  -0.5512
  O  O64  1  0.340820  0.837810  0.837240  1.0  -0.5512
  O  O65  1  0.159180  0.337810  0.337240  1.0  -0.5513
  O  O66  1  0.659180  0.837810  0.837240  1.0  -0.5513
  O  O67  1  0.840820  0.162190  0.337240  1.0  -0.5513
  O  O68  1  0.340820  0.662190  0.837240  1.0  -0.5513
  O  O69  1  0.840820  0.837810  0.662760  1.0  -0.5516
  O  O70  1  0.340820  0.337810  0.162760  1.0  -0.5516
  O  O71  1  0.159180  0.662190  0.662760  1.0  -0.5517
  O  O72  1  0.659180  0.162190  0.162760  1.0  -0.5517
  O  O73  1  0.500000  0.750000  0.687580  1.0  -0.8629
  O  O74  1  0.000000  0.250000  0.187580  1.0  -0.8629
  O  O75  1  0.500000  0.250000  0.312420  1.0  -0.8627
  O  O76  1  0.000000  0.750000  0.812420  1.0  -0.8627
