# generated using pymatgen
data_FeH4C8O5
_symmetry_space_group_name_H-M   'P 1'
_cell_length_a   31.72230000
_cell_length_b   28.92340000
_cell_length_c   6.89650000
_cell_angle_alpha   90.00000000
_cell_angle_beta   90.00000000
_cell_angle_gamma   90.00000000
_symmetry_Int_Tables_number   1
_chemical_formula_structural   FeH4C8O5
_chemical_formula_sum   'Fe16 H64 C128 O80'
_cell_volume   6327.65441686
_cell_formula_units_Z   16
loop_
 _symmetry_equiv_pos_site_id
 _symmetry_equiv_pos_as_xyz
  1  'x, y, z'
loop_
 _atom_site_type_symbol
 _atom_site_label
 _atom_site_symmetry_multiplicity
 _atom_site_fract_x
 _atom_site_fract_y
 _atom_site_fract_z
 _atom_site_occupancy
 _atom_site_charge
  Fe  Fe1  1  0.750000  0.750000  0.000000  1.0  1.0987
  Fe  Fe2  1  0.250000  0.750000  0.500000  1.0  1.0987
  Fe  Fe3  1  0.250000  0.250000  0.500000  1.0  1.0987
  Fe  Fe4  1  0.750000  0.250000  0.000000  1.0  1.0987
  Fe  Fe5  1  0.250000  0.250000  0.000000  1.0  1.0987
  Fe  Fe6  1  0.750000  0.250000  0.500000  1.0  1.0987
  Fe  Fe7  1  0.750000  0.750000  0.500000  1.0  1.0987
  Fe  Fe8  1  0.250000  0.750000  0.000000  1.0  1.0987
  Fe  Fe9  1  0.500000  0.000000  0.000000  1.0  1.3123
  Fe  Fe10  1  0.000000  0.500000  0.000000  1.0  1.3123
  Fe  Fe11  1  0.500000  0.500000  0.500000  1.0  1.3123
  Fe  Fe12  1  0.000000  0.000000  0.500000  1.0  1.3123
  Fe  Fe13  1  0.500000  0.000000  0.500000  1.0  1.1833
  Fe  Fe14  1  0.000000  0.500000  0.500000  1.0  1.1833
  Fe  Fe15  1  0.500000  0.500000  0.000000  1.0  1.1833
  Fe  Fe16  1  0.000000  0.000000  0.000000  1.0  1.1833
  H  H17  1  0.595700  0.899400  0.937300  1.0  0.1526
  H  H18  1  0.650300  0.844400  0.936400  1.0  0.1523
  H  H19  1  0.650200  0.843700  0.526900  1.0  0.1527
  H  H20  1  0.595700  0.898700  0.527800  1.0  0.1521
  H  H21  1  0.095700  0.399400  0.937300  1.0  0.1526
  H  H22  1  0.150300  0.344400  0.936400  1.0  0.1523
  H  H23  1  0.150200  0.343700  0.526900  1.0  0.1527
  H  H24  1  0.095700  0.398700  0.527800  1.0  0.1521
  H  H25  1  0.404300  0.600600  0.437300  1.0  0.1526
  H  H26  1  0.349700  0.655600  0.436400  1.0  0.1523
  H  H27  1  0.349800  0.656300  0.026900  1.0  0.1529
  H  H28  1  0.404300  0.601300  0.027800  1.0  0.1523
  H  H29  1  0.904300  0.100600  0.437300  1.0  0.1526
  H  H30  1  0.849700  0.155600  0.436400  1.0  0.1523
  H  H31  1  0.849800  0.156300  0.026900  1.0  0.1529
  H  H32  1  0.904300  0.101300  0.027800  1.0  0.1523
  H  H33  1  0.404300  0.399400  0.562700  1.0  0.1529
  H  H34  1  0.349700  0.344400  0.563600  1.0  0.1527
  H  H35  1  0.349800  0.343700  0.973100  1.0  0.1525
  H  H36  1  0.404300  0.398700  0.972200  1.0  0.1519
  H  H37  1  0.904300  0.899400  0.562700  1.0  0.1529
  H  H38  1  0.849700  0.844400  0.563600  1.0  0.1527
  H  H39  1  0.849800  0.843700  0.973100  1.0  0.1525
  H  H40  1  0.904300  0.898700  0.972200  1.0  0.1519
  H  H41  1  0.595700  0.100600  0.062700  1.0  0.1531
  H  H42  1  0.650300  0.155600  0.063600  1.0  0.1527
  H  H43  1  0.650200  0.156300  0.473100  1.0  0.1524
  H  H44  1  0.595700  0.101300  0.472200  1.0  0.1522
  H  H45  1  0.095700  0.600600  0.062700  1.0  0.1531
  H  H46  1  0.150300  0.655600  0.063600  1.0  0.1527
  H  H47  1  0.150200  0.656300  0.473100  1.0  0.1524
  H  H48  1  0.095700  0.601300  0.472200  1.0  0.1522
  H  H49  1  0.404300  0.100600  0.062700  1.0  0.1532
  H  H50  1  0.349700  0.155600  0.063600  1.0  0.1527
  H  H51  1  0.349800  0.156300  0.473100  1.0  0.1525
  H  H52  1  0.404300  0.101300  0.472200  1.0  0.1521
  H  H53  1  0.904300  0.600600  0.062700  1.0  0.1532
  H  H54  1  0.849700  0.655600  0.063600  1.0  0.1527
  H  H55  1  0.849800  0.656300  0.473100  1.0  0.1525
  H  H56  1  0.904300  0.601300  0.472200  1.0  0.1521
  H  H57  1  0.595700  0.399400  0.562700  1.0  0.153
  H  H58  1  0.650300  0.344400  0.563600  1.0  0.1527
  H  H59  1  0.650200  0.343700  0.973100  1.0  0.1524
  H  H60  1  0.595700  0.398700  0.972200  1.0  0.152
  H  H61  1  0.095700  0.899400  0.562700  1.0  0.153
  H  H62  1  0.150300  0.844400  0.563600  1.0  0.1527
  H  H63  1  0.150200  0.843700  0.973100  1.0  0.1524
  H  H64  1  0.095700  0.898700  0.972200  1.0  0.152
  H  H65  1  0.595700  0.600600  0.437300  1.0  0.1526
  H  H66  1  0.650300  0.655600  0.436400  1.0  0.1522
  H  H67  1  0.650200  0.656300  0.026900  1.0  0.1527
  H  H68  1  0.595700  0.601300  0.027800  1.0  0.1523
  H  H69  1  0.095700  0.100600  0.437300  1.0  0.1526
  H  H70  1  0.150300  0.155600  0.436400  1.0  0.1522
  H  H71  1  0.150200  0.156300  0.026900  1.0  0.1527
  H  H72  1  0.095700  0.101300  0.027800  1.0  0.1523
  H  H73  1  0.404300  0.899400  0.937300  1.0  0.1524
  H  H74  1  0.349700  0.844400  0.936400  1.0  0.1524
  H  H75  1  0.349800  0.843700  0.526900  1.0  0.1528
  H  H76  1  0.404300  0.898700  0.527800  1.0  0.1521
  H  H77  1  0.904300  0.399400  0.937300  1.0  0.1524
  H  H78  1  0.849700  0.344400  0.936400  1.0  0.1524
  H  H79  1  0.849800  0.343700  0.526900  1.0  0.1528
  H  H80  1  0.904300  0.398700  0.527800  1.0  0.1521
  C  C81  1  0.591200  0.903600  0.232600  1.0  -0.0575
  C  C82  1  0.607100  0.887800  0.060200  1.0  -0.0284
  C  C83  1  0.638900  0.855700  0.059600  1.0  -0.0312
  C  C84  1  0.654800  0.839500  0.231600  1.0  -0.06
  C  C85  1  0.638900  0.855300  0.404000  1.0  -0.0316
  C  C86  1  0.607000  0.887400  0.404500  1.0  -0.0327
  C  C87  1  0.557100  0.938000  0.233100  1.0  0.718
  C  C88  1  0.688900  0.805100  0.231000  1.0  0.7026
  C  C89  1  0.091200  0.403600  0.232600  1.0  -0.0575
  C  C90  1  0.107100  0.387800  0.060200  1.0  -0.0284
  C  C91  1  0.138900  0.355700  0.059600  1.0  -0.0312
  C  C92  1  0.154800  0.339500  0.231600  1.0  -0.06
  C  C93  1  0.138900  0.355300  0.404000  1.0  -0.0316
  C  C94  1  0.107000  0.387400  0.404500  1.0  -0.0327
  C  C95  1  0.057100  0.438000  0.233100  1.0  0.718
  C  C96  1  0.188900  0.305100  0.231000  1.0  0.7026
  C  C97  1  0.408800  0.596400  0.732600  1.0  -0.0566
  C  C98  1  0.392900  0.612200  0.560200  1.0  -0.0282
  C  C99  1  0.361100  0.644300  0.559600  1.0  -0.0309
  C  C100  1  0.345200  0.660500  0.731600  1.0  -0.0607
  C  C101  1  0.361100  0.644700  0.904000  1.0  -0.0306
  C  C102  1  0.393000  0.612600  0.904500  1.0  -0.0336
  C  C103  1  0.442900  0.562000  0.733100  1.0  0.7183
  C  C104  1  0.311100  0.694900  0.731000  1.0  0.7037
  C  C105  1  0.908800  0.096400  0.732600  1.0  -0.0566
  C  C106  1  0.892900  0.112200  0.560200  1.0  -0.0282
  C  C107  1  0.861100  0.144300  0.559600  1.0  -0.0309
  C  C108  1  0.845200  0.160500  0.731600  1.0  -0.0607
  C  C109  1  0.861100  0.144700  0.904000  1.0  -0.0306
  C  C110  1  0.893000  0.112600  0.904500  1.0  -0.0336
  C  C111  1  0.942900  0.062000  0.733100  1.0  0.7183
  C  C112  1  0.811100  0.194900  0.731000  1.0  0.7037
  C  C113  1  0.408800  0.403600  0.267400  1.0  -0.057
  C  C114  1  0.392900  0.387800  0.439800  1.0  -0.0265
  C  C115  1  0.361100  0.355700  0.440400  1.0  -0.0301
  C  C116  1  0.345200  0.339500  0.268400  1.0  -0.0603
  C  C117  1  0.361100  0.355300  0.096000  1.0  -0.0314
  C  C118  1  0.393000  0.387400  0.095500  1.0  -0.0349
  C  C119  1  0.442900  0.438000  0.266900  1.0  0.7181
  C  C120  1  0.311100  0.305100  0.269000  1.0  0.7039
  C  C121  1  0.908800  0.903600  0.267400  1.0  -0.057
  C  C122  1  0.892900  0.887800  0.439800  1.0  -0.0265
  C  C123  1  0.861100  0.855700  0.440400  1.0  -0.0301
  C  C124  1  0.845200  0.839500  0.268400  1.0  -0.0603
  C  C125  1  0.861100  0.855300  0.096000  1.0  -0.0314
  C  C126  1  0.893000  0.887400  0.095500  1.0  -0.0349
  C  C127  1  0.942900  0.938000  0.266900  1.0  0.7181
  C  C128  1  0.811100  0.805100  0.269000  1.0  0.7039
  C  C129  1  0.591200  0.096400  0.767400  1.0  -0.0573
  C  C130  1  0.607100  0.112200  0.939800  1.0  -0.0266
  C  C131  1  0.638900  0.144300  0.940400  1.0  -0.03
  C  C132  1  0.654800  0.160500  0.768400  1.0  -0.0604
  C  C133  1  0.638900  0.144700  0.596000  1.0  -0.0326
  C  C134  1  0.607000  0.112600  0.595500  1.0  -0.0345
  C  C135  1  0.557100  0.062000  0.766900  1.0  0.7185
  C  C136  1  0.688900  0.194900  0.769000  1.0  0.7027
  C  C137  1  0.091200  0.596400  0.767400  1.0  -0.0573
  C  C138  1  0.107100  0.612200  0.939800  1.0  -0.0266
  C  C139  1  0.138900  0.644300  0.940400  1.0  -0.03
  C  C140  1  0.154800  0.660500  0.768400  1.0  -0.0604
  C  C141  1  0.138900  0.644700  0.596000  1.0  -0.0326
  C  C142  1  0.107000  0.612600  0.595500  1.0  -0.0345
  C  C143  1  0.057100  0.562000  0.766900  1.0  0.7185
  C  C144  1  0.188900  0.694900  0.769000  1.0  0.7027
  C  C145  1  0.408800  0.096400  0.767400  1.0  -0.0565
  C  C146  1  0.392900  0.112200  0.939800  1.0  -0.0266
  C  C147  1  0.361100  0.144300  0.940400  1.0  -0.0299
  C  C148  1  0.345200  0.160500  0.768400  1.0  -0.0607
  C  C149  1  0.361100  0.144700  0.596000  1.0  -0.0314
  C  C150  1  0.393000  0.112600  0.595500  1.0  -0.0352
  C  C151  1  0.442900  0.062000  0.766900  1.0  0.7183
  C  C152  1  0.311100  0.194900  0.769000  1.0  0.7039
  C  C153  1  0.908800  0.596400  0.767400  1.0  -0.0565
  C  C154  1  0.892900  0.612200  0.939800  1.0  -0.0266
  C  C155  1  0.861100  0.644300  0.940400  1.0  -0.0299
  C  C156  1  0.845200  0.660500  0.768400  1.0  -0.0607
  C  C157  1  0.861100  0.644700  0.596000  1.0  -0.0314
  C  C158  1  0.893000  0.612600  0.595500  1.0  -0.0352
  C  C159  1  0.942900  0.562000  0.766900  1.0  0.7183
  C  C160  1  0.811100  0.694900  0.769000  1.0  0.7039
  C  C161  1  0.591200  0.403600  0.267400  1.0  -0.0575
  C  C162  1  0.607100  0.387800  0.439800  1.0  -0.0265
  C  C163  1  0.638900  0.355700  0.440400  1.0  -0.0303
  C  C164  1  0.654800  0.339500  0.268400  1.0  -0.06
  C  C165  1  0.638900  0.355300  0.096000  1.0  -0.0327
  C  C166  1  0.607000  0.387400  0.095500  1.0  -0.0342
  C  C167  1  0.557100  0.438000  0.266900  1.0  0.7181
  C  C168  1  0.688900  0.305100  0.269000  1.0  0.7027
  C  C169  1  0.091200  0.903600  0.267400  1.0  -0.0575
  C  C170  1  0.107100  0.887800  0.439800  1.0  -0.0265
  C  C171  1  0.138900  0.855700  0.440400  1.0  -0.0303
  C  C172  1  0.154800  0.839500  0.268400  1.0  -0.06
  C  C173  1  0.138900  0.855300  0.096000  1.0  -0.0327
  C  C174  1  0.107000  0.887400  0.095500  1.0  -0.0342
  C  C175  1  0.057100  0.938000  0.266900  1.0  0.7181
  C  C176  1  0.188900  0.805100  0.269000  1.0  0.7027
  C  C177  1  0.591200  0.596400  0.732600  1.0  -0.0574
  C  C178  1  0.607100  0.612200  0.560200  1.0  -0.0284
  C  C179  1  0.638900  0.644300  0.559600  1.0  -0.0313
  C  C180  1  0.654800  0.660500  0.731600  1.0  -0.0604
  C  C181  1  0.638900  0.644700  0.904000  1.0  -0.0313
  C  C182  1  0.607000  0.612600  0.904500  1.0  -0.0331
  C  C183  1  0.557100  0.562000  0.733100  1.0  0.7184
  C  C184  1  0.688900  0.694900  0.731000  1.0  0.7026
  C  C185  1  0.091200  0.096400  0.732600  1.0  -0.0574
  C  C186  1  0.107100  0.112200  0.560200  1.0  -0.0284
  C  C187  1  0.138900  0.144300  0.559600  1.0  -0.0313
  C  C188  1  0.154800  0.160500  0.731600  1.0  -0.0604
  C  C189  1  0.138900  0.144700  0.904000  1.0  -0.0313
  C  C190  1  0.107000  0.112600  0.904500  1.0  -0.0331
  C  C191  1  0.057100  0.062000  0.733100  1.0  0.7184
  C  C192  1  0.188900  0.194900  0.731000  1.0  0.7026
  C  C193  1  0.408800  0.903600  0.232600  1.0  -0.0571
  C  C194  1  0.392900  0.887800  0.060200  1.0  -0.0282
  C  C195  1  0.361100  0.855700  0.059600  1.0  -0.0307
  C  C196  1  0.345200  0.839500  0.231600  1.0  -0.0602
  C  C197  1  0.361100  0.855300  0.404000  1.0  -0.0309
  C  C198  1  0.393000  0.887400  0.404500  1.0  -0.0333
  C  C199  1  0.442900  0.938000  0.233100  1.0  0.7181
  C  C200  1  0.311100  0.805100  0.231000  1.0  0.7037
  C  C201  1  0.908800  0.403600  0.232600  1.0  -0.0571
  C  C202  1  0.892900  0.387800  0.060200  1.0  -0.0282
  C  C203  1  0.861100  0.355700  0.059600  1.0  -0.0307
  C  C204  1  0.845200  0.339500  0.231600  1.0  -0.0602
  C  C205  1  0.861100  0.355300  0.404000  1.0  -0.0309
  C  C206  1  0.893000  0.387400  0.404500  1.0  -0.0333
  C  C207  1  0.942900  0.438000  0.233100  1.0  0.7181
  C  C208  1  0.811100  0.305100  0.231000  1.0  0.7037
  O  O209  1  0.541400  0.951900  0.074000  1.0  -0.5502
  O  O210  1  0.543200  0.953800  0.392700  1.0  -0.5885
  O  O211  1  0.704900  0.791800  0.071600  1.0  -0.5701
  O  O212  1  0.702400  0.788600  0.390000  1.0  -0.6091
  O  O213  1  0.041400  0.451900  0.074000  1.0  -0.5502
  O  O214  1  0.043200  0.453800  0.392700  1.0  -0.5885
  O  O215  1  0.204900  0.291800  0.071600  1.0  -0.5701
  O  O216  1  0.202400  0.288600  0.390000  1.0  -0.6091
  O  O217  1  0.458600  0.548100  0.574000  1.0  -0.5504
  O  O218  1  0.456800  0.546200  0.892700  1.0  -0.589
  O  O219  1  0.295100  0.708200  0.571600  1.0  -0.5698
  O  O220  1  0.297600  0.711400  0.890000  1.0  -0.608
  O  O221  1  0.958600  0.048100  0.574000  1.0  -0.5504
  O  O222  1  0.956800  0.046200  0.892700  1.0  -0.589
  O  O223  1  0.795100  0.208200  0.571600  1.0  -0.5698
  O  O224  1  0.797600  0.211400  0.890000  1.0  -0.608
  O  O225  1  0.458600  0.451900  0.426000  1.0  -0.5503
  O  O226  1  0.456800  0.453800  0.107300  1.0  -0.5879
  O  O227  1  0.295100  0.291800  0.428400  1.0  -0.5705
  O  O228  1  0.297600  0.288600  0.110000  1.0  -0.6064
  O  O229  1  0.958600  0.951900  0.426000  1.0  -0.5503
  O  O230  1  0.956800  0.953800  0.107300  1.0  -0.5879
  O  O231  1  0.795100  0.791800  0.428400  1.0  -0.5705
  O  O232  1  0.797600  0.788600  0.110000  1.0  -0.6064
  O  O233  1  0.541400  0.048100  0.926000  1.0  -0.5504
  O  O234  1  0.543200  0.046200  0.607300  1.0  -0.5882
  O  O235  1  0.704900  0.208200  0.928400  1.0  -0.5707
  O  O236  1  0.702400  0.211400  0.610000  1.0  -0.6065
  O  O237  1  0.041400  0.548100  0.926000  1.0  -0.5504
  O  O238  1  0.043200  0.546200  0.607300  1.0  -0.5882
  O  O239  1  0.204900  0.708200  0.928400  1.0  -0.5707
  O  O240  1  0.202400  0.711400  0.610000  1.0  -0.6065
  O  O241  1  0.458600  0.048100  0.926000  1.0  -0.549
  O  O242  1  0.456800  0.046200  0.607300  1.0  -0.5883
  O  O243  1  0.295100  0.208200  0.928400  1.0  -0.5701
  O  O244  1  0.297600  0.211400  0.610000  1.0  -0.606
  O  O245  1  0.958600  0.548100  0.926000  1.0  -0.549
  O  O246  1  0.956800  0.546200  0.607300  1.0  -0.5883
  O  O247  1  0.795100  0.708200  0.928400  1.0  -0.5701
  O  O248  1  0.797600  0.711400  0.610000  1.0  -0.606
  O  O249  1  0.541400  0.451900  0.426000  1.0  -0.5487
  O  O250  1  0.543200  0.453800  0.107300  1.0  -0.5878
  O  O251  1  0.704900  0.291800  0.428400  1.0  -0.5712
  O  O252  1  0.702400  0.288600  0.110000  1.0  -0.6064
  O  O253  1  0.041400  0.951900  0.426000  1.0  -0.5487
  O  O254  1  0.043200  0.953800  0.107300  1.0  -0.5878
  O  O255  1  0.204900  0.791800  0.428400  1.0  -0.5712
  O  O256  1  0.202400  0.788600  0.110000  1.0  -0.6064
  O  O257  1  0.541400  0.548100  0.574000  1.0  -0.5485
  O  O258  1  0.543200  0.546200  0.892700  1.0  -0.5889
  O  O259  1  0.704900  0.708200  0.571600  1.0  -0.57
  O  O260  1  0.702400  0.711400  0.890000  1.0  -0.6081
  O  O261  1  0.041400  0.048100  0.574000  1.0  -0.5485
  O  O262  1  0.043200  0.046200  0.892700  1.0  -0.5889
  O  O263  1  0.204900  0.208200  0.571600  1.0  -0.57
  O  O264  1  0.202400  0.211400  0.890000  1.0  -0.6081
  O  O265  1  0.458600  0.951900  0.074000  1.0  -0.5487
  O  O266  1  0.456800  0.953800  0.392700  1.0  -0.5885
  O  O267  1  0.295100  0.791800  0.071600  1.0  -0.5698
  O  O268  1  0.297600  0.788600  0.390000  1.0  -0.6088
  O  O269  1  0.958600  0.451900  0.074000  1.0  -0.5487
  O  O270  1  0.956800  0.453800  0.392700  1.0  -0.5885
  O  O271  1  0.795100  0.291800  0.071600  1.0  -0.5698
  O  O272  1  0.797600  0.288600  0.390000  1.0  -0.6088
  O  O273  1  0.750000  0.720900  0.250000  1.0  -0.7047
  O  O274  1  0.250000  0.779100  0.750000  1.0  -0.7019
  O  O275  1  0.250000  0.220900  0.250000  1.0  -0.7047
  O  O276  1  0.750000  0.279100  0.750000  1.0  -0.7019
  O  O277  1  0.250000  0.279100  0.750000  1.0  -0.7019
  O  O278  1  0.750000  0.220900  0.250000  1.0  -0.7047
  O  O279  1  0.750000  0.779100  0.750000  1.0  -0.7019
  O  O280  1  0.250000  0.720900  0.250000  1.0  -0.7047
  O  O281  1  0.500000  0.963700  0.750000  1.0  -0.594
  O  O282  1  0.000000  0.463700  0.750000  1.0  -0.594
  O  O283  1  0.500000  0.536300  0.250000  1.0  -0.5921
  O  O284  1  0.000000  0.036300  0.250000  1.0  -0.5921
  O  O285  1  0.500000  0.463700  0.750000  1.0  -0.5942
  O  O286  1  0.000000  0.963700  0.750000  1.0  -0.5942
  O  O287  1  0.500000  0.036300  0.250000  1.0  -0.5922
  O  O288  1  0.000000  0.536300  0.250000  1.0  -0.5922
