# generated using pymatgen
data_Zn3Cr3H30C54N6O25
_symmetry_space_group_name_H-M   'P 1'
_cell_length_a   14.45800000
_cell_length_b   16.91530000
_cell_length_c   16.91530000
_cell_angle_alpha   120.00000000
_cell_angle_beta   90.00000000
_cell_angle_gamma   90.00000000
_symmetry_Int_Tables_number   1
_chemical_formula_structural   Zn3Cr3H30C54N6O25
_chemical_formula_sum   'Zn3 Cr3 H30 C54 N6 O25'
_cell_volume   3582.59950272
_cell_formula_units_Z   1
loop_
 _symmetry_equiv_pos_site_id
 _symmetry_equiv_pos_as_xyz
  1  'x, y, z'
loop_
 _atom_site_type_symbol
 _atom_site_label
 _atom_site_symmetry_multiplicity
 _atom_site_fract_x
 _atom_site_fract_y
 _atom_site_fract_z
 _atom_site_occupancy
 _atom_site_charge
  Zn  Zn1  1  0.000000  0.000000  0.652650  1.0  0.8178
  Zn  Zn2  1  0.000000  0.652650  0.000000  1.0  0.8182
  Zn  Zn3  1  0.000000  0.347350  0.347350  1.0  0.8182
  Cr  Cr4  1  0.500000  0.113410  0.000000  1.0  1.503
  Cr  Cr5  1  0.500000  0.886590  0.886590  1.0  1.5016
  Cr  Cr6  1  0.500000  0.000000  0.113410  1.0  1.4967
  H  H7  1  0.712600  0.130400  0.829400  1.0  0.1319
  H  H8  1  0.846000  0.126300  0.758100  1.0  0.0926
  H  H9  1  0.712600  0.699000  0.869600  1.0  0.1308
  H  H10  1  0.846000  0.631800  0.873700  1.0  0.0934
  H  H11  1  0.712600  0.170600  0.301000  1.0  0.1313
  H  H12  1  0.846000  0.241900  0.368200  1.0  0.0941
  H  H13  1  0.287400  0.130400  0.829400  1.0  0.1317
  H  H14  1  0.154000  0.126300  0.758100  1.0  0.0926
  H  H15  1  0.287400  0.699000  0.869600  1.0  0.1307
  H  H16  1  0.154000  0.631800  0.873700  1.0  0.0932
  H  H17  1  0.287400  0.170600  0.301000  1.0  0.1315
  H  H18  1  0.154000  0.241900  0.368200  1.0  0.0939
  H  H19  1  0.287400  0.301000  0.170600  1.0  0.1311
  H  H20  1  0.154000  0.368200  0.241900  1.0  0.0931
  H  H21  1  0.287400  0.829400  0.130400  1.0  0.1313
  H  H22  1  0.154000  0.758100  0.126300  1.0  0.0939
  H  H23  1  0.287400  0.869600  0.699000  1.0  0.1312
  H  H24  1  0.154000  0.873700  0.631800  1.0  0.0929
  H  H25  1  0.712600  0.301000  0.170600  1.0  0.131
  H  H26  1  0.846000  0.368200  0.241900  1.0  0.0934
  H  H27  1  0.712600  0.829400  0.130400  1.0  0.1311
  H  H28  1  0.846000  0.758100  0.126300  1.0  0.094
  H  H29  1  0.712600  0.869600  0.699000  1.0  0.1309
  H  H30  1  0.846000  0.873700  0.631800  1.0  0.0927
  H  H31  1  0.000000  0.184500  0.544000  1.0  0.1113
  H  H32  1  0.000000  0.359500  0.815500  1.0  0.1103
  H  H33  1  0.000000  0.456000  0.640500  1.0  0.1108
  H  H34  1  0.000000  0.640500  0.456000  1.0  0.1103
  H  H35  1  0.000000  0.544000  0.184500  1.0  0.1108
  H  H36  1  0.000000  0.815500  0.359500  1.0  0.1112
  C  C37  1  0.747800  0.076500  0.801300  1.0  -0.1572
  C  C38  1  0.827200  0.073600  0.759000  1.0  0.1507
  C  C39  1  0.747800  0.724800  0.923500  1.0  -0.1555
  C  C40  1  0.827200  0.685400  0.926400  1.0  0.1528
  C  C41  1  0.747800  0.198700  0.275200  1.0  -0.1582
  C  C42  1  0.827200  0.241000  0.314600  1.0  0.1521
  C  C43  1  0.252200  0.076500  0.801300  1.0  -0.1564
  C  C44  1  0.172800  0.073600  0.759000  1.0  0.1504
  C  C45  1  0.252200  0.724800  0.923500  1.0  -0.1552
  C  C46  1  0.172800  0.685400  0.926400  1.0  0.1521
  C  C47  1  0.252200  0.198700  0.275200  1.0  -0.1573
  C  C48  1  0.172800  0.241000  0.314600  1.0  0.1511
  C  C49  1  0.252200  0.275200  0.198700  1.0  -0.1552
  C  C50  1  0.172800  0.314600  0.241000  1.0  0.151
  C  C51  1  0.252200  0.801300  0.076500  1.0  -0.1592
  C  C52  1  0.172800  0.759000  0.073600  1.0  0.1512
  C  C53  1  0.252200  0.923500  0.724800  1.0  -0.1548
  C  C54  1  0.172800  0.926400  0.685400  1.0  0.1524
  C  C55  1  0.747800  0.275200  0.198700  1.0  -0.1556
  C  C56  1  0.827200  0.314600  0.241000  1.0  0.1508
  C  C57  1  0.747800  0.801300  0.076500  1.0  -0.1607
  C  C58  1  0.827200  0.759000  0.073600  1.0  0.1519
  C  C59  1  0.747800  0.923500  0.724800  1.0  -0.1549
  C  C60  1  0.827200  0.926400  0.685400  1.0  0.1534
  C  C61  1  0.000000  0.181380  0.701180  1.0  0.6529
  C  C62  1  0.000000  0.259700  0.682250  1.0  -0.1753
  C  C63  1  0.000000  0.244550  0.593500  1.0  0.0221
  C  C64  1  0.000000  0.519800  0.818620  1.0  0.6524
  C  C65  1  0.000000  0.422550  0.740300  1.0  -0.1745
  C  C66  1  0.000000  0.348950  0.755450  1.0  0.0209
  C  C67  1  0.000000  0.298820  0.480200  1.0  0.6528
  C  C68  1  0.000000  0.317750  0.577450  1.0  -0.1758
  C  C69  1  0.000000  0.406500  0.651050  1.0  0.0229
  C  C70  1  0.000000  0.480200  0.298820  1.0  0.6526
  C  C71  1  0.000000  0.577450  0.317750  1.0  -0.1752
  C  C72  1  0.000000  0.651050  0.406500  1.0  0.0211
  C  C73  1  0.000000  0.701180  0.181380  1.0  0.653
  C  C74  1  0.000000  0.682250  0.259700  1.0  -0.1758
  C  C75  1  0.000000  0.593500  0.244550  1.0  0.0217
  C  C76  1  0.000000  0.818620  0.519800  1.0  0.6532
  C  C77  1  0.000000  0.740300  0.422550  1.0  -0.1748
  C  C78  1  0.000000  0.755450  0.348950  1.0  0.0219
  C  C79  1  0.630500  0.000000  0.851710  1.0  0.7286
  C  C80  1  0.717800  0.000000  0.803320  1.0  -0.0653
  C  C81  1  0.630500  0.851710  0.000000  1.0  0.7292
  C  C82  1  0.717800  0.803320  0.000000  1.0  -0.0611
  C  C83  1  0.630500  0.148290  0.148290  1.0  0.7288
  C  C84  1  0.717800  0.196680  0.196680  1.0  -0.0601
  C  C85  1  0.369500  0.000000  0.851710  1.0  0.728
  C  C86  1  0.282200  0.000000  0.803320  1.0  -0.0653
  C  C87  1  0.369500  0.851710  0.000000  1.0  0.7289
  C  C88  1  0.282200  0.803320  0.000000  1.0  -0.0608
  C  C89  1  0.369500  0.148290  0.148290  1.0  0.7281
  C  C90  1  0.282200  0.196680  0.196680  1.0  -0.0599
  N  N91  1  0.880650  0.000000  0.718330  1.0  -0.2788
  N  N92  1  0.880650  0.718330  0.000000  1.0  -0.2792
  N  N93  1  0.880650  0.281670  0.281670  1.0  -0.279
  N  N94  1  0.119350  0.000000  0.718330  1.0  -0.281
  N  N95  1  0.119350  0.718330  0.000000  1.0  -0.281
  N  N96  1  0.119350  0.281670  0.281670  1.0  -0.2812
  O  O97  1  0.598650  0.076400  0.907700  1.0  -0.6198
  O  O98  1  0.598650  0.831300  0.923600  1.0  -0.6201
  O  O99  1  0.598650  0.092300  0.168700  1.0  -0.6208
  O  O100  1  0.401350  0.076400  0.907700  1.0  -0.6202
  O  O101  1  0.401350  0.831300  0.923600  1.0  -0.6199
  O  O102  1  0.401350  0.092300  0.168700  1.0  -0.621
  O  O103  1  0.401350  0.168700  0.092300  1.0  -0.62
  O  O104  1  0.401350  0.907700  0.076400  1.0  -0.621
  O  O105  1  0.401350  0.923600  0.831300  1.0  -0.6197
  O  O106  1  0.598650  0.168700  0.092300  1.0  -0.6198
  O  O107  1  0.598650  0.907700  0.076400  1.0  -0.6207
  O  O108  1  0.598650  0.923600  0.831300  1.0  -0.62
  O  O109  1  0.500000  0.000000  0.000000  1.0  -1.1286
  O  O110  1  0.000000  0.197220  0.780120  1.0  -0.5826
  O  O111  1  0.000000  0.102660  0.630270  1.0  -0.5833
  O  O112  1  0.000000  0.582900  0.802780  1.0  -0.5881
  O  O113  1  0.000000  0.527610  0.897340  1.0  -0.5802
  O  O114  1  0.000000  0.219880  0.417100  1.0  -0.5834
  O  O115  1  0.000000  0.369730  0.472390  1.0  -0.5824
  O  O116  1  0.000000  0.417100  0.219880  1.0  -0.5876
  O  O117  1  0.000000  0.472390  0.369730  1.0  -0.5797
  O  O118  1  0.000000  0.780120  0.197220  1.0  -0.5808
  O  O119  1  0.000000  0.630270  0.102660  1.0  -0.5839
  O  O120  1  0.000000  0.802780  0.582900  1.0  -0.5822
  O  O121  1  0.000000  0.897340  0.527610  1.0  -0.5832
