# generated using pymatgen
data_Zn3Cr3H45C69N9O25
_symmetry_space_group_name_H-M   'P 1'
_cell_length_a   14.64620000
_cell_length_b   16.78240000
_cell_length_c   16.78240000
_cell_angle_alpha   120.00000000
_cell_angle_beta   90.00000000
_cell_angle_gamma   90.00000000
_symmetry_Int_Tables_number   1
_chemical_formula_structural   Zn3Cr3H45C69N9O25
_chemical_formula_sum   'Zn3 Cr3 H45 C69 N9 O25'
_cell_volume   3572.43000316
_cell_formula_units_Z   1
loop_
 _symmetry_equiv_pos_site_id
 _symmetry_equiv_pos_as_xyz
  1  'x, y, z'
loop_
 _atom_site_type_symbol
 _atom_site_label
 _atom_site_symmetry_multiplicity
 _atom_site_fract_x
 _atom_site_fract_y
 _atom_site_fract_z
 _atom_site_occupancy
 _atom_site_charge
  Zn  Zn1  1  0.000000  0.341670  0.000000  1.0  0.8279
  Zn  Zn2  1  0.000000  0.658330  0.658330  1.0  0.827
  Zn  Zn3  1  0.000000  0.000000  0.341670  1.0  0.8279
  Cr  Cr4  1  0.500000  0.000000  0.885700  1.0  1.3312
  Cr  Cr5  1  0.500000  0.885700  0.000000  1.0  1.3301
  Cr  Cr6  1  0.500000  0.114300  0.114300  1.0  1.3295
  H  H7  1  0.284500  0.294800  0.133200  1.0  0.1045
  H  H8  1  0.114700  0.309700  0.130400  1.0  0.088
  H  H9  1  0.284500  0.838400  0.705200  1.0  0.1024
  H  H10  1  0.114700  0.820700  0.690300  1.0  0.0877
  H  H11  1  0.284500  0.866800  0.161600  1.0  0.104
  H  H12  1  0.114700  0.869600  0.179300  1.0  0.0892
  H  H13  1  0.715500  0.294800  0.133200  1.0  0.1043
  H  H14  1  0.885300  0.309700  0.130400  1.0  0.0867
  H  H15  1  0.715500  0.838400  0.705200  1.0  0.1025
  H  H16  1  0.885300  0.820700  0.690300  1.0  0.0865
  H  H17  1  0.715500  0.866800  0.161600  1.0  0.1037
  H  H18  1  0.885300  0.869600  0.179300  1.0  0.0891
  H  H19  1  0.715500  0.161600  0.866800  1.0  0.1024
  H  H20  1  0.885300  0.179300  0.869600  1.0  0.0882
  H  H21  1  0.715500  0.133200  0.294800  1.0  0.1046
  H  H22  1  0.885300  0.130400  0.309700  1.0  0.0875
  H  H23  1  0.715500  0.705200  0.838400  1.0  0.1036
  H  H24  1  0.885300  0.690300  0.820700  1.0  0.0867
  H  H25  1  0.284500  0.161600  0.866800  1.0  0.1026
  H  H26  1  0.114700  0.179300  0.869600  1.0  0.0881
  H  H27  1  0.284500  0.133200  0.294800  1.0  0.1044
  H  H28  1  0.114700  0.130400  0.309700  1.0  0.089
  H  H29  1  0.284500  0.705200  0.838400  1.0  0.1041
  H  H30  1  0.114700  0.690300  0.820700  1.0  0.0878
  H  H31  1  0.500000  0.000000  0.537600  1.0  0.1127
  H  H32  1  0.500000  0.537600  0.000000  1.0  0.1166
  H  H33  1  0.500000  0.462400  0.462400  1.0  0.1131
  H  H34  1  0.000000  0.637600  0.181900  1.0  0.1066
  H  H35  1  0.000000  0.544300  0.362400  1.0  0.1066
  H  H36  1  0.000000  0.818100  0.455700  1.0  0.106
  H  H37  1  0.000000  0.455700  0.818100  1.0  0.1066
  H  H38  1  0.000000  0.181900  0.637600  1.0  0.1063
  H  H39  1  0.000000  0.362400  0.544300  1.0  0.1067
  H  H40  1  0.500000  0.137400  0.815400  1.0  0.0924
  H  H41  1  0.500000  0.135400  0.672600  1.0  0.1144
  H  H42  1  0.500000  0.678000  0.862600  1.0  0.0935
  H  H43  1  0.500000  0.537200  0.864600  1.0  0.114
  H  H44  1  0.500000  0.184600  0.322000  1.0  0.092
  H  H45  1  0.500000  0.327400  0.462800  1.0  0.1096
  H  H46  1  0.500000  0.322000  0.184600  1.0  0.0928
  H  H47  1  0.500000  0.462800  0.327400  1.0  0.1145
  H  H48  1  0.500000  0.815400  0.137400  1.0  0.0923
  H  H49  1  0.500000  0.672600  0.135400  1.0  0.1128
  H  H50  1  0.500000  0.862600  0.678000  1.0  0.0924
  H  H51  1  0.500000  0.864600  0.537200  1.0  0.1143
  C  C52  1  0.250500  0.269700  0.078500  1.0  -0.0732
  C  C53  1  0.149500  0.278900  0.076200  1.0  0.1083
  C  C54  1  0.250500  0.808800  0.730300  1.0  -0.0733
  C  C55  1  0.149500  0.797300  0.721100  1.0  0.1049
  C  C56  1  0.250500  0.921500  0.191200  1.0  -0.0734
  C  C57  1  0.149500  0.923800  0.202700  1.0  0.1066
  C  C58  1  0.749500  0.269700  0.078500  1.0  -0.0738
  C  C59  1  0.850500  0.278900  0.076200  1.0  0.1084
  C  C60  1  0.749500  0.808800  0.730300  1.0  -0.0736
  C  C61  1  0.850500  0.797300  0.721100  1.0  0.1051
  C  C62  1  0.749500  0.921500  0.191200  1.0  -0.0728
  C  C63  1  0.850500  0.923800  0.202700  1.0  0.1061
  C  C64  1  0.749500  0.191200  0.921500  1.0  -0.0737
  C  C65  1  0.850500  0.202700  0.923800  1.0  0.105
  C  C66  1  0.749500  0.078500  0.269700  1.0  -0.0729
  C  C67  1  0.850500  0.076200  0.278900  1.0  0.1055
  C  C68  1  0.749500  0.730300  0.808800  1.0  -0.0732
  C  C69  1  0.850500  0.721100  0.797300  1.0  0.1082
  C  C70  1  0.250500  0.191200  0.921500  1.0  -0.0743
  C  C71  1  0.149500  0.202700  0.923800  1.0  0.1059
  C  C72  1  0.250500  0.078500  0.269700  1.0  -0.0714
  C  C73  1  0.149500  0.076200  0.278900  1.0  0.1053
  C  C74  1  0.250500  0.730300  0.808800  1.0  -0.073
  C  C75  1  0.149500  0.721100  0.797300  1.0  0.108
  C  C76  1  0.500000  0.000000  0.593600  1.0  -0.148
  C  C77  1  0.500000  0.593600  0.000000  1.0  -0.1566
  C  C78  1  0.500000  0.406400  0.406400  1.0  -0.1543
  C  C79  1  0.370200  0.148600  0.000000  1.0  0.7083
  C  C80  1  0.282300  0.195400  0.000000  1.0  -0.062
  C  C81  1  0.370200  0.851400  0.851400  1.0  0.7086
  C  C82  1  0.282300  0.804600  0.804600  1.0  -0.0624
  C  C83  1  0.370200  0.000000  0.148600  1.0  0.7076
  C  C84  1  0.282300  0.000000  0.195400  1.0  -0.0636
  C  C85  1  0.629800  0.148600  0.000000  1.0  0.7089
  C  C86  1  0.717700  0.195400  0.000000  1.0  -0.0617
  C  C87  1  0.629800  0.851400  0.851400  1.0  0.709
  C  C88  1  0.717700  0.804600  0.804600  1.0  -0.0623
  C  C89  1  0.629800  0.000000  0.148600  1.0  0.7075
  C  C90  1  0.717700  0.000000  0.195400  1.0  -0.0635
  C  C91  1  0.000000  0.478600  0.182700  1.0  0.716
  C  C92  1  0.000000  0.576400  0.259500  1.0  -0.1513
  C  C93  1  0.000000  0.649100  0.242800  1.0  0.02
  C  C94  1  0.000000  0.704100  0.521400  1.0  0.7167
  C  C95  1  0.000000  0.683100  0.423600  1.0  -0.1523
  C  C96  1  0.000000  0.593700  0.350900  1.0  0.0202
  C  C97  1  0.000000  0.817300  0.295900  1.0  0.7179
  C  C98  1  0.000000  0.740500  0.316900  1.0  -0.1512
  C  C99  1  0.000000  0.757200  0.406300  1.0  0.0205
  C  C100  1  0.000000  0.295900  0.817300  1.0  0.7181
  C  C101  1  0.000000  0.316900  0.740500  1.0  -0.1523
  C  C102  1  0.000000  0.406300  0.757200  1.0  0.0196
  C  C103  1  0.000000  0.182700  0.478600  1.0  0.7164
  C  C104  1  0.000000  0.259500  0.576400  1.0  -0.1514
  C  C105  1  0.000000  0.242800  0.649100  1.0  0.0204
  C  C106  1  0.000000  0.521400  0.704100  1.0  0.7166
  C  C107  1  0.000000  0.423600  0.683100  1.0  -0.1508
  C  C108  1  0.000000  0.350900  0.593700  1.0  0.0191
  C  C109  1  0.500000  0.081000  0.759900  1.0  0.1262
  C  C110  1  0.500000  0.079700  0.673100  1.0  -0.1379
  C  C111  1  0.500000  0.678900  0.919000  1.0  0.1236
  C  C112  1  0.500000  0.593400  0.920300  1.0  -0.1387
  C  C113  1  0.500000  0.240100  0.321100  1.0  0.1232
  C  C114  1  0.500000  0.326900  0.406600  1.0  -0.1371
  C  C115  1  0.500000  0.321100  0.240100  1.0  0.1228
  C  C116  1  0.500000  0.406600  0.326900  1.0  -0.1337
  C  C117  1  0.500000  0.759900  0.081000  1.0  0.1235
  C  C118  1  0.500000  0.673100  0.079700  1.0  -0.1337
  C  C119  1  0.500000  0.919000  0.678900  1.0  0.124
  C  C120  1  0.500000  0.920300  0.593400  1.0  -0.1432
  N  N121  1  0.500000  0.000000  0.761400  1.0  -0.348
  N  N122  1  0.500000  0.761400  0.000000  1.0  -0.3465
  N  N123  1  0.500000  0.238600  0.238600  1.0  -0.3475
  N  N124  1  0.117800  0.275700  0.000000  1.0  -0.3032
  N  N125  1  0.117800  0.724300  0.724300  1.0  -0.3014
  N  N126  1  0.117800  0.000000  0.275700  1.0  -0.3027
  N  N127  1  0.882200  0.275700  0.000000  1.0  -0.3026
  N  N128  1  0.882200  0.724300  0.724300  1.0  -0.3008
  N  N129  1  0.882200  0.000000  0.275700  1.0  -0.3019
  O  O130  1  0.402590  0.092700  0.923430  1.0  -0.637
  O  O131  1  0.402590  0.830730  0.907300  1.0  -0.6373
  O  O132  1  0.402590  0.076570  0.169270  1.0  -0.6393
  O  O133  1  0.597410  0.092700  0.923430  1.0  -0.6368
  O  O134  1  0.597410  0.830730  0.907300  1.0  -0.6374
  O  O135  1  0.597410  0.076570  0.169270  1.0  -0.639
  O  O136  1  0.597410  0.169270  0.076570  1.0  -0.6373
  O  O137  1  0.597410  0.923430  0.092700  1.0  -0.6397
  O  O138  1  0.597410  0.907300  0.830730  1.0  -0.6378
  O  O139  1  0.402590  0.169270  0.076570  1.0  -0.6372
  O  O140  1  0.402590  0.923430  0.092700  1.0  -0.6399
  O  O141  1  0.402590  0.907300  0.830730  1.0  -0.6381
  O  O142  1  0.500000  0.000000  0.000000  1.0  -0.9492
  O  O143  1  0.000000  0.415220  0.199120  1.0  -0.5224
  O  O144  1  0.000000  0.468000  0.102200  1.0  -0.6067
  O  O145  1  0.000000  0.783900  0.584780  1.0  -0.5177
  O  O146  1  0.000000  0.634200  0.532000  1.0  -0.6099
  O  O147  1  0.000000  0.800880  0.216100  1.0  -0.519
  O  O148  1  0.000000  0.897800  0.365800  1.0  -0.6091
  O  O149  1  0.000000  0.216100  0.800880  1.0  -0.5185
  O  O150  1  0.000000  0.365800  0.897800  1.0  -0.6082
  O  O151  1  0.000000  0.199120  0.415220  1.0  -0.5201
  O  O152  1  0.000000  0.102200  0.468000  1.0  -0.6112
  O  O153  1  0.000000  0.584780  0.783900  1.0  -0.5221
  O  O154  1  0.000000  0.532000  0.634200  1.0  -0.6075
