# generated using pymatgen
data_CoMo4H12C12N9O7
_symmetry_space_group_name_H-M   'P 1'
_cell_length_a   12.11300000
_cell_length_b   12.22600000
_cell_length_c   12.28900000
_cell_angle_alpha   102.17800000
_cell_angle_beta   100.54500000
_cell_angle_gamma   119.66300000
_symmetry_Int_Tables_number   1
_chemical_formula_structural   CoMo4H12C12N9O7
_chemical_formula_sum   'Co2 Mo8 H24 C24 N18 O14'
_cell_volume   1454.65518183
_cell_formula_units_Z   2
loop_
 _symmetry_equiv_pos_site_id
 _symmetry_equiv_pos_as_xyz
  1  'x, y, z'
loop_
 _atom_site_type_symbol
 _atom_site_label
 _atom_site_symmetry_multiplicity
 _atom_site_fract_x
 _atom_site_fract_y
 _atom_site_fract_z
 _atom_site_occupancy
 _atom_site_charge
  Co  Co1  1  0.688030  0.994320  0.336100  1.0  0.602
  Co  Co2  1  0.311970  0.005680  0.663900  1.0  0.5811
  Mo  Mo3  1  0.598320  0.512950  0.215580  1.0  0.7426
  Mo  Mo4  1  0.389930  0.378240  0.363340  1.0  1.2867
  Mo  Mo5  1  0.460540  0.683700  0.407330  1.0  1.3372
  Mo  Mo6  1  0.293810  0.581330  0.586830  1.0  0.737
  Mo  Mo7  1  0.401680  0.487050  0.784420  1.0  0.7395
  Mo  Mo8  1  0.610070  0.621760  0.636660  1.0  1.285
  Mo  Mo9  1  0.539460  0.316300  0.592670  1.0  1.3371
  Mo  Mo10  1  0.706190  0.418670  0.413170  1.0  0.735
  H  H11  1  0.008000  0.240000  0.862800  1.0  0.1095
  H  H12  1  0.983800  0.218700  0.979500  1.0  0.1203
  H  H13  1  0.314700  0.513000  0.091700  1.0  0.0913
  H  H14  1  0.362200  0.218700  0.028500  1.0  0.081
  H  H15  1  0.103100  0.370600  0.173100  1.0  0.0691
  H  H16  1  0.080000  0.467100  0.256700  1.0  0.0814
  H  H17  1  0.971000  0.263100  0.342400  1.0  0.0901
  H  H18  1  0.637800  0.034100  0.084900  1.0  0.0862
  H  H19  1  0.925700  0.507400  0.248800  1.0  0.0776
  H  H20  1  0.894900  0.604700  0.206800  1.0  0.0788
  H  H21  1  0.044400  0.687900  0.465900  1.0  0.0684
  H  H22  1  0.336100  0.969500  0.406700  1.0  0.0785
  H  H23  1  0.992000  0.760000  0.137200  1.0  0.1092
  H  H24  1  0.016200  0.781300  0.020500  1.0  0.1204
  H  H25  1  0.685300  0.487000  0.908300  1.0  0.0913
  H  H26  1  0.637800  0.781300  0.971500  1.0  0.0803
  H  H27  1  0.896900  0.629400  0.826900  1.0  0.069
  H  H28  1  0.920000  0.532900  0.743300  1.0  0.0816
  H  H29  1  0.029000  0.736900  0.657600  1.0  0.0901
  H  H30  1  0.362200  0.965900  0.915100  1.0  0.0879
  H  H31  1  0.074300  0.492600  0.751200  1.0  0.0743
  H  H32  1  0.105100  0.395300  0.793200  1.0  0.0801
  H  H33  1  0.955600  0.312100  0.534100  1.0  0.0703
  H  H34  1  0.663900  0.030500  0.593300  1.0  0.0752
  C  C35  1  0.029500  0.404400  0.977600  1.0  -0.022
  C  C36  1  0.014400  0.443800  0.085400  1.0  -0.0025
  C  C37  1  0.983300  0.542200  0.109300  1.0  0.0026
  C  C38  1  0.041700  0.283100  0.948100  1.0  -0.1027
  C  C39  1  0.299300  0.428000  0.064600  1.0  0.1088
  C  C40  1  0.320700  0.265500  0.029300  1.0  0.2588
  C  C41  1  0.038800  0.394200  0.181400  1.0  -0.0581
  C  C42  1  0.903000  0.225700  0.270100  1.0  0.1338
  C  C43  1  0.725700  0.105100  0.131000  1.0  0.2663
  C  C44  1  0.962100  0.583300  0.222000  1.0  -0.0522
  C  C45  1  0.101900  0.738400  0.429900  1.0  0.1578
  C  C46  1  0.257500  0.888700  0.395500  1.0  0.2788
  C  C47  1  0.970500  0.595600  0.022400  1.0  -0.0227
  C  C48  1  0.985600  0.556200  0.914600  1.0  -0.0027
  C  C49  1  0.016700  0.457800  0.890700  1.0  0.0049
  C  C50  1  0.958300  0.716900  0.051900  1.0  -0.0964
  C  C51  1  0.700700  0.572000  0.935400  1.0  0.1093
  C  C52  1  0.679300  0.734500  0.970700  1.0  0.26
  C  C53  1  0.961200  0.605800  0.818600  1.0  -0.0565
  C  C54  1  0.097000  0.774300  0.729900  1.0  0.1343
  C  C55  1  0.274300  0.894900  0.869000  1.0  0.2669
  C  C56  1  0.037900  0.416700  0.778000  1.0  -0.051
  C  C57  1  0.898100  0.261600  0.570100  1.0  0.1578
  C  C58  1  0.742500  0.111300  0.604500  1.0  0.2778
  N  N59  1  0.390100  0.400800  0.089000  1.0  -0.4125
  N  N60  1  0.179000  0.314100  0.993800  1.0  0.1225
  N  N61  1  0.192700  0.206600  0.973800  1.0  -0.38
  N  N62  1  0.783200  0.117600  0.241400  1.0  -0.4341
  N  N63  1  0.916600  0.276100  0.184800  1.0  0.1499
  N  N64  1  0.800300  0.198400  0.092100  1.0  -0.3845
  N  N65  1  0.212300  0.858700  0.487500  1.0  -0.4282
  N  N66  1  0.081200  0.696700  0.315800  1.0  0.1659
  N  N67  1  0.180800  0.794200  0.291600  1.0  -0.4103
  N  N68  1  0.609900  0.599200  0.911000  1.0  -0.4116
  N  N69  1  0.821000  0.685900  0.006200  1.0  0.122
  N  N70  1  0.807300  0.793400  0.026200  1.0  -0.3785
  N  N71  1  0.216800  0.882400  0.758600  1.0  -0.4331
  N  N72  1  0.083400  0.723900  0.815200  1.0  0.1493
  N  N73  1  0.199700  0.801600  0.907900  1.0  -0.3859
  N  N74  1  0.787700  0.141300  0.512500  1.0  -0.4281
  N  N75  1  0.918800  0.303300  0.684200  1.0  0.1658
  N  N76  1  0.819200  0.205800  0.708400  1.0  -0.4089
  O  O77  1  0.738600  0.566500  0.352500  1.0  -0.6225
  O  O78  1  0.500200  0.351000  0.284600  1.0  -0.6563
  O  O79  1  0.498000  0.560400  0.326400  1.0  -0.7304
  O  O80  1  0.356900  0.262600  0.436900  1.0  -0.6037
  O  O81  1  0.392400  0.515800  0.479400  1.0  -0.7406
  O  O82  1  0.578400  0.837500  0.402000  1.0  -0.6694
  O  O83  1  0.406000  0.730300  0.539000  1.0  -0.6676
  O  O84  1  0.261400  0.433500  0.647500  1.0  -0.625
  O  O85  1  0.499800  0.649000  0.715400  1.0  -0.656
  O  O86  1  0.502000  0.439600  0.673600  1.0  -0.7281
  O  O87  1  0.643100  0.737400  0.563100  1.0  -0.6003
  O  O88  1  0.607600  0.484200  0.520600  1.0  -0.7388
  O  O89  1  0.421600  0.162500  0.598000  1.0  -0.6689
  O  O90  1  0.594000  0.269700  0.461000  1.0  -0.6685
