# generated using pymatgen
data_CoMo4H11C12N9O8
_symmetry_space_group_name_H-M   'P 1'
_cell_length_a   10.54900000
_cell_length_b   10.84200000
_cell_length_c   13.80000000
_cell_angle_alpha   87.13500000
_cell_angle_beta   72.42800000
_cell_angle_gamma   66.41200000
_symmetry_Int_Tables_number   1
_chemical_formula_structural   CoMo4H11C12N9O8
_chemical_formula_sum   'Co2 Mo8 H22 C24 N18 O16'
_cell_volume   1374.42876057
_cell_formula_units_Z   2
loop_
 _symmetry_equiv_pos_site_id
 _symmetry_equiv_pos_as_xyz
  1  'x, y, z'
loop_
 _atom_site_type_symbol
 _atom_site_label
 _atom_site_symmetry_multiplicity
 _atom_site_fract_x
 _atom_site_fract_y
 _atom_site_fract_z
 _atom_site_occupancy
 _atom_site_charge
  Co  Co1  1  0.503620  0.318220  0.157930  1.0  0.8624
  Co  Co2  1  0.496380  0.681780  0.842070  1.0  0.864
  Mo  Mo3  1  0.974950  0.498600  0.133990  1.0  1.3815
  Mo  Mo4  1  0.675580  0.790880  0.131270  1.0  0.809
  Mo  Mo5  1  0.989960  0.770850  0.982500  1.0  0.8621
  Mo  Mo6  1  0.718560  0.516320  0.015170  1.0  2.2487
  Mo  Mo7  1  0.025050  0.501400  0.866010  1.0  1.4164
  Mo  Mo8  1  0.324420  0.209120  0.868730  1.0  0.8085
  Mo  Mo9  1  0.010040  0.229150  0.017500  1.0  0.8591
  Mo  Mo10  1  0.281440  0.483680  0.984830  1.0  2.2498
  H  H11  1  0.498600  0.586400  0.274200  1.0  0.0786
  H  H12  1  0.318000  0.745200  0.485500  1.0  0.0956
  H  H13  1  0.354700  0.820800  0.388100  1.0  0.0916
  H  H14  1  0.993200  0.228800  0.326200  1.0  0.0776
  H  H15  1  0.854100  0.306100  0.418100  1.0  0.0985
  H  H16  1  0.734300  0.040300  0.201400  1.0  0.0685
  H  H17  1  0.677000  0.391500  0.303700  1.0  0.1023
  H  H18  1  0.132300  0.026500  0.249000  1.0  0.0932
  H  H19  1  0.261300  0.907000  0.273300  1.0  0.0935
  H  H20  1  0.317400  0.138600  0.147800  1.0  0.0775
  H  H21  1  0.403500  0.224300  0.381800  1.0  0.0848
  H  H22  1  0.501400  0.413600  0.725800  1.0  0.0811
  H  H23  1  0.682000  0.254800  0.514500  1.0  0.0943
  H  H24  1  0.645300  0.179200  0.611900  1.0  0.093
  H  H25  1  0.006800  0.771200  0.673800  1.0  0.0771
  H  H26  1  0.145900  0.693900  0.581900  1.0  0.099
  H  H27  1  0.265700  0.959700  0.798600  1.0  0.0695
  H  H28  1  0.323000  0.608500  0.696300  1.0  0.101
  H  H29  1  0.867700  0.973500  0.751000  1.0  0.0945
  H  H30  1  0.738700  0.093000  0.726700  1.0  0.0924
  H  H31  1  0.682600  0.861400  0.852200  1.0  0.0834
  H  H32  1  0.596500  0.775700  0.618200  1.0  0.086
  C  C33  1  0.406600  0.585100  0.294700  1.0  0.1564
  C  C34  1  0.232500  0.528800  0.316700  1.0  -0.1042
  C  C35  1  0.287600  0.782800  0.427000  1.0  -0.0646
  C  C36  1  0.137500  0.893200  0.463400  1.0  -0.0007
  C  C37  1  0.090500  0.000200  0.402200  1.0  0.0002
  C  C38  1  0.955700  0.105400  0.439500  1.0  -0.0162
  C  C39  1  0.908000  0.222500  0.374600  1.0  -0.0666
  C  C40  1  0.744800  0.107000  0.234000  1.0  0.2507
  C  C41  1  0.711100  0.299000  0.288600  1.0  0.1629
  C  C42  1  0.189400  0.998400  0.295800  1.0  -0.0679
  C  C43  1  0.322100  0.144800  0.213500  1.0  0.1039
  C  C44  1  0.367100  0.189600  0.341500  1.0  0.2652
  C  C45  1  0.593400  0.414900  0.705300  1.0  0.1587
  C  C46  1  0.767500  0.471200  0.683300  1.0  -0.1039
  C  C47  1  0.712400  0.217200  0.573000  1.0  -0.0641
  C  C48  1  0.862500  0.106800  0.536600  1.0  -0.0026
  C  C49  1  0.909500  0.999800  0.597800  1.0  0.0002
  C  C50  1  0.044300  0.894600  0.560500  1.0  -0.0168
  C  C51  1  0.092000  0.777500  0.625400  1.0  -0.0664
  C  C52  1  0.255200  0.893000  0.766000  1.0  0.2561
  C  C53  1  0.288900  0.701000  0.711400  1.0  0.1628
  C  C54  1  0.810600  0.001600  0.704200  1.0  -0.075
  C  C55  1  0.677900  0.855200  0.786500  1.0  0.1037
  C  C56  1  0.632900  0.810400  0.658500  1.0  0.2674
  N  N57  1  0.387200  0.210000  0.242300  1.0  -0.4072
  N  N58  1  0.263200  0.087900  0.293500  1.0  0.1688
  N  N59  1  0.292200  0.116800  0.376800  1.0  -0.3602
  N  N60  1  0.661900  0.242900  0.234300  1.0  -0.4416
  N  N61  1  0.816400  0.205100  0.319100  1.0  0.1419
  N  N62  1  0.839100  0.080100  0.283600  1.0  -0.349
  N  N63  1  0.377300  0.494900  0.258100  1.0  -0.3183
  N  N64  1  0.295000  0.674000  0.363100  1.0  0.1016
  N  N65  1  0.179900  0.631900  0.386900  1.0  -0.3151
  N  N66  1  0.612800  0.790000  0.757700  1.0  -0.4085
  N  N67  1  0.736800  0.912100  0.706500  1.0  0.1646
  N  N68  1  0.707800  0.883200  0.623200  1.0  -0.3611
  N  N69  1  0.338100  0.757100  0.765700  1.0  -0.4402
  N  N70  1  0.183600  0.794900  0.680900  1.0  0.1419
  N  N71  1  0.160900  0.919900  0.716400  1.0  -0.3499
  N  N72  1  0.622700  0.505100  0.741900  1.0  -0.3173
  N  N73  1  0.705000  0.326000  0.636900  1.0  0.0998
  N  N74  1  0.820100  0.368100  0.613100  1.0  -0.3157
  O  O75  1  0.129100  0.603100  0.892300  1.0  -0.824
  O  O76  1  0.123600  0.384400  0.994900  1.0  -0.9133
  O  O77  1  0.622500  0.640200  0.130100  1.0  -0.7472
  O  O78  1  0.645200  0.609300  0.926200  1.0  -0.7824
  O  O79  1  0.630300  0.411700  0.053600  1.0  -0.7635
  O  O80  1  0.906400  0.398000  0.917800  1.0  -0.789
  O  O81  1  0.822800  0.631300  0.209500  1.0  -0.5602
  O  O82  1  0.835500  0.840900  0.106000  1.0  -0.6089
  O  O83  1  0.870900  0.396900  0.107700  1.0  -0.8179
  O  O84  1  0.876400  0.615600  0.005100  1.0  -0.9139
  O  O85  1  0.377500  0.359800  0.869900  1.0  -0.7384
  O  O86  1  0.354800  0.390700  0.073800  1.0  -0.7837
  O  O87  1  0.369700  0.588300  0.946400  1.0  -0.7627
  O  O88  1  0.093600  0.602000  0.082200  1.0  -0.7869
  O  O89  1  0.177200  0.368700  0.790500  1.0  -0.5659
  O  O90  1  0.164500  0.159100  0.894000  1.0  -0.6103
