# generated using pymatgen
data_Zn3Mo10H26C24(N9O10)2
_symmetry_space_group_name_H-M   'P 1'
_cell_length_a   26.77410000
_cell_length_b   10.05350000
_cell_length_c   22.08650000
_cell_angle_alpha   90.00000000
_cell_angle_beta   97.27500000
_cell_angle_gamma   90.00000000
_symmetry_Int_Tables_number   1
_chemical_formula_structural   Zn3Mo10H26C24(N9O10)2
_chemical_formula_sum   'Zn12 Mo40 H104 C96 N72 O80'
_cell_volume   5897.23932705
_cell_formula_units_Z   4
loop_
 _symmetry_equiv_pos_site_id
 _symmetry_equiv_pos_as_xyz
  1  'x, y, z'
loop_
 _atom_site_type_symbol
 _atom_site_label
 _atom_site_symmetry_multiplicity
 _atom_site_fract_x
 _atom_site_fract_y
 _atom_site_fract_z
 _atom_site_occupancy
 _atom_site_charge
  Zn  Zn1  1  0.100450  0.667970  0.492710  1.0  0.9478
  Zn  Zn2  1  0.600450  0.167970  0.492710  1.0  0.9478
  Zn  Zn3  1  0.899550  0.667970  0.007290  1.0  0.9452
  Zn  Zn4  1  0.399550  0.167970  0.007290  1.0  0.9452
  Zn  Zn5  1  0.899550  0.332030  0.507290  1.0  0.9453
  Zn  Zn6  1  0.399550  0.832030  0.507290  1.0  0.9453
  Zn  Zn7  1  0.100450  0.332030  0.992710  1.0  0.9481
  Zn  Zn8  1  0.600450  0.832030  0.992710  1.0  0.9481
  Zn  Zn9  1  0.500000  0.500000  0.500000  1.0  0.9896
  Zn  Zn10  1  0.000000  0.000000  0.500000  1.0  0.9896
  Zn  Zn11  1  0.500000  0.500000  0.000000  1.0  0.9896
  Zn  Zn12  1  0.000000  0.000000  0.000000  1.0  0.9896
  Mo  Mo13  1  0.201300  0.474770  0.437400  1.0  1.3131
  Mo  Mo14  1  0.307520  0.547220  0.519330  1.0  0.6957
  Mo  Mo15  1  0.391590  0.317420  0.554360  1.0  1.3885
  Mo  Mo16  1  0.294420  0.235900  0.450340  1.0  1.3008
  Mo  Mo17  1  0.476260  0.137200  0.471730  1.0  0.7555
  Mo  Mo18  1  0.701300  0.974770  0.437400  1.0  1.3131
  Mo  Mo19  1  0.807520  0.047220  0.519330  1.0  0.6957
  Mo  Mo20  1  0.891590  0.817420  0.554360  1.0  1.3885
  Mo  Mo21  1  0.794420  0.735900  0.450340  1.0  1.3008
  Mo  Mo22  1  0.976260  0.637200  0.471730  1.0  0.7555
  Mo  Mo23  1  0.798700  0.474770  0.062600  1.0  1.3069
  Mo  Mo24  1  0.692480  0.547220  0.980670  1.0  0.6986
  Mo  Mo25  1  0.608410  0.317420  0.945640  1.0  1.3901
  Mo  Mo26  1  0.705580  0.235900  0.049660  1.0  1.2953
  Mo  Mo27  1  0.523740  0.137200  0.028270  1.0  0.7567
  Mo  Mo28  1  0.298700  0.974770  0.062600  1.0  1.3069
  Mo  Mo29  1  0.192480  0.047220  0.980670  1.0  0.6986
  Mo  Mo30  1  0.108410  0.817420  0.945640  1.0  1.3901
  Mo  Mo31  1  0.205580  0.735900  0.049660  1.0  1.2953
  Mo  Mo32  1  0.023740  0.637200  0.028270  1.0  0.7567
  Mo  Mo33  1  0.798700  0.525230  0.562600  1.0  1.3055
  Mo  Mo34  1  0.692480  0.452780  0.480670  1.0  0.7
  Mo  Mo35  1  0.608410  0.682580  0.445640  1.0  1.3908
  Mo  Mo36  1  0.705580  0.764100  0.549660  1.0  1.2941
  Mo  Mo37  1  0.523740  0.862800  0.528270  1.0  0.7568
  Mo  Mo38  1  0.298700  0.025230  0.562600  1.0  1.3055
  Mo  Mo39  1  0.192480  0.952780  0.480670  1.0  0.7
  Mo  Mo40  1  0.108410  0.182580  0.445640  1.0  1.3908
  Mo  Mo41  1  0.205580  0.264100  0.549660  1.0  1.2941
  Mo  Mo42  1  0.023740  0.362800  0.528270  1.0  0.7568
  Mo  Mo43  1  0.201300  0.525230  0.937400  1.0  1.312
  Mo  Mo44  1  0.307520  0.452780  0.019330  1.0  0.6982
  Mo  Mo45  1  0.391590  0.682580  0.054360  1.0  1.3892
  Mo  Mo46  1  0.294420  0.764100  0.950340  1.0  1.3
  Mo  Mo47  1  0.476260  0.862800  0.971730  1.0  0.7554
  Mo  Mo48  1  0.701300  0.025230  0.937400  1.0  1.312
  Mo  Mo49  1  0.807520  0.952780  0.019330  1.0  0.6982
  Mo  Mo50  1  0.891590  0.182580  0.054360  1.0  1.3892
  Mo  Mo51  1  0.794420  0.264100  0.950340  1.0  1.3
  Mo  Mo52  1  0.976260  0.362800  0.971730  1.0  0.7554
  H  H53  1  0.030900  0.335600  0.717700  1.0  0.0873
  H  H54  1  0.083200  0.408400  0.725900  1.0  0.0993
  H  H55  1  0.073600  0.484900  0.865600  1.0  0.1005
  H  H56  1  0.084500  0.104600  0.888000  1.0  0.0784
  H  H57  1  0.123800  0.716900  0.770400  1.0  0.1168
  H  H58  1  0.121900  0.561900  0.761700  1.0  0.1048
  H  H59  1  0.058000  0.626700  0.624400  1.0  0.1005
  H  H60  1  0.192400  0.713400  0.592800  1.0  0.0827
  H  H61  1  0.037700  0.964500  0.767900  1.0  0.0816
  H  H62  1  0.088100  0.885300  0.766500  1.0  0.1135
  H  H63  1  0.992700  0.883200  0.633100  1.0  0.0983
  H  H64  1  0.103300  0.089900  0.588500  1.0  0.084
  H  H65  1  0.122300  0.036600  0.692300  1.0  0.3545
  H  H66  1  0.530900  0.835600  0.717700  1.0  0.0873
  H  H67  1  0.583200  0.908400  0.725900  1.0  0.0993
  H  H68  1  0.573600  0.984900  0.865600  1.0  0.1005
  H  H69  1  0.584500  0.604600  0.888000  1.0  0.0784
  H  H70  1  0.623800  0.216900  0.770400  1.0  0.1168
  H  H71  1  0.621900  0.061900  0.761700  1.0  0.1048
  H  H72  1  0.558000  0.126700  0.624400  1.0  0.1005
  H  H73  1  0.692400  0.213400  0.592800  1.0  0.0827
  H  H74  1  0.537700  0.464500  0.767900  1.0  0.0816
  H  H75  1  0.588100  0.385300  0.766500  1.0  0.1135
  H  H76  1  0.492700  0.383200  0.633100  1.0  0.0983
  H  H77  1  0.603300  0.589900  0.588500  1.0  0.084
  H  H78  1  0.622300  0.536600  0.692300  1.0  0.3545
  H  H79  1  0.969100  0.335600  0.782300  1.0  0.0878
  H  H80  1  0.916800  0.408400  0.774100  1.0  0.0993
  H  H81  1  0.926400  0.484900  0.634400  1.0  0.1003
  H  H82  1  0.915500  0.104600  0.612000  1.0  0.0793
  H  H83  1  0.876200  0.716900  0.729600  1.0  0.1175
  H  H84  1  0.878100  0.561900  0.738300  1.0  0.1043
  H  H85  1  0.942000  0.626700  0.875600  1.0  0.1002
  H  H86  1  0.807600  0.713400  0.907200  1.0  0.0825
  H  H87  1  0.962300  0.964500  0.732100  1.0  0.0814
  H  H88  1  0.911900  0.885300  0.733500  1.0  0.1134
  H  H89  1  0.007300  0.883200  0.866900  1.0  0.098
  H  H90  1  0.896700  0.089900  0.911500  1.0  0.0841
  H  H91  1  0.877700  0.036600  0.807700  1.0  0.3537
  H  H92  1  0.469100  0.835600  0.782300  1.0  0.0878
  H  H93  1  0.416800  0.908400  0.774100  1.0  0.0993
  H  H94  1  0.426400  0.984900  0.634400  1.0  0.1003
  H  H95  1  0.415500  0.604600  0.612000  1.0  0.0793
  H  H96  1  0.376200  0.216900  0.729600  1.0  0.1175
  H  H97  1  0.378100  0.061900  0.738300  1.0  0.1043
  H  H98  1  0.442000  0.126700  0.875600  1.0  0.1002
  H  H99  1  0.307600  0.213400  0.907200  1.0  0.0825
  H  H100  1  0.462300  0.464500  0.732100  1.0  0.0814
  H  H101  1  0.411900  0.385300  0.733500  1.0  0.1134
  H  H102  1  0.507300  0.383200  0.866900  1.0  0.098
  H  H103  1  0.396700  0.589900  0.911500  1.0  0.0841
  H  H104  1  0.377700  0.536600  0.807700  1.0  0.3537
  H  H105  1  0.969100  0.664400  0.282300  1.0  0.0884
  H  H106  1  0.916800  0.591600  0.274100  1.0  0.099
  H  H107  1  0.926400  0.515100  0.134400  1.0  0.1004
  H  H108  1  0.915500  0.895400  0.112000  1.0  0.0795
  H  H109  1  0.876200  0.283100  0.229600  1.0  0.117
  H  H110  1  0.878100  0.438100  0.238300  1.0  0.105
  H  H111  1  0.942000  0.373300  0.375600  1.0  0.0999
  H  H112  1  0.807600  0.286600  0.407200  1.0  0.0824
  H  H113  1  0.962300  0.035500  0.232100  1.0  0.0813
  H  H114  1  0.911900  0.114700  0.233500  1.0  0.1133
  H  H115  1  0.007300  0.116800  0.366900  1.0  0.0977
  H  H116  1  0.896700  0.910100  0.411500  1.0  0.0841
  H  H117  1  0.877700  0.963400  0.307700  1.0  0.3527
  H  H118  1  0.469100  0.164400  0.282300  1.0  0.0884
  H  H119  1  0.416800  0.091600  0.274100  1.0  0.099
  H  H120  1  0.426400  0.015100  0.134400  1.0  0.1004
  H  H121  1  0.415500  0.395400  0.112000  1.0  0.0795
  H  H122  1  0.376200  0.783100  0.229600  1.0  0.117
  H  H123  1  0.378100  0.938100  0.238300  1.0  0.105
  H  H124  1  0.442000  0.873300  0.375600  1.0  0.0999
  H  H125  1  0.307600  0.786600  0.407200  1.0  0.0824
  H  H126  1  0.462300  0.535500  0.232100  1.0  0.0813
  H  H127  1  0.411900  0.614700  0.233500  1.0  0.1133
  H  H128  1  0.507300  0.616800  0.366900  1.0  0.0977
  H  H129  1  0.396700  0.410100  0.411500  1.0  0.0841
  H  H130  1  0.377700  0.463400  0.307700  1.0  0.3527
  H  H131  1  0.030900  0.664400  0.217700  1.0  0.0877
  H  H132  1  0.083200  0.591600  0.225900  1.0  0.0992
  H  H133  1  0.073600  0.515100  0.365600  1.0  0.1007
  H  H134  1  0.084500  0.895400  0.388000  1.0  0.0785
  H  H135  1  0.123800  0.283100  0.270400  1.0  0.118
  H  H136  1  0.121900  0.438100  0.261700  1.0  0.1046
  H  H137  1  0.058000  0.373300  0.124400  1.0  0.1016
  H  H138  1  0.192400  0.286600  0.092800  1.0  0.0824
  H  H139  1  0.037700  0.035500  0.267900  1.0  0.0824
  H  H140  1  0.088100  0.114700  0.266500  1.0  0.1137
  H  H141  1  0.992700  0.116800  0.133100  1.0  0.098
  H  H142  1  0.103300  0.910100  0.088500  1.0  0.0835
  H  H143  1  0.122300  0.963400  0.192300  1.0  0.3542
  H  H144  1  0.530900  0.164400  0.217700  1.0  0.0877
  H  H145  1  0.583200  0.091600  0.225900  1.0  0.0992
  H  H146  1  0.573600  0.015100  0.365600  1.0  0.1007
  H  H147  1  0.584500  0.395400  0.388000  1.0  0.0785
  H  H148  1  0.623800  0.783100  0.270400  1.0  0.118
  H  H149  1  0.621900  0.938100  0.261700  1.0  0.1046
  H  H150  1  0.558000  0.873300  0.124400  1.0  0.1016
  H  H151  1  0.692400  0.786600  0.092800  1.0  0.0824
  H  H152  1  0.537700  0.535500  0.267900  1.0  0.0824
  H  H153  1  0.588100  0.614700  0.266500  1.0  0.1137
  H  H154  1  0.492700  0.616800  0.133100  1.0  0.098
  H  H155  1  0.603300  0.410100  0.088500  1.0  0.0835
  H  H156  1  0.622300  0.463400  0.192300  1.0  0.3542
  C  C157  1  0.026150  0.526800  0.747700  1.0  -0.0871
  C  C158  1  0.051800  0.647700  0.746700  1.0  -0.0437
  C  C159  1  0.025720  0.767600  0.747900  1.0  -0.0592
  C  C160  1  0.052300  0.395600  0.743800  1.0  -0.0645
  C  C161  1  0.073660  0.393800  0.858600  1.0  0.1535
  C  C162  1  0.079100  0.187400  0.869600  1.0  0.2891
  C  C163  1  0.108200  0.645600  0.745100  1.0  -0.0806
  C  C164  1  0.092030  0.648600  0.629400  1.0  0.1363
  C  C165  1  0.165000  0.694600  0.613400  1.0  0.2782
  C  C166  1  0.054100  0.896800  0.746100  1.0  -0.0912
  C  C167  1  0.023100  0.928700  0.634500  1.0  0.1387
  C  C168  1  0.083100  0.040100  0.611200  1.0  0.1948
  C  C169  1  0.526150  0.026800  0.747700  1.0  -0.0871
  C  C170  1  0.551800  0.147700  0.746700  1.0  -0.0437
  C  C171  1  0.525720  0.267600  0.747900  1.0  -0.0592
  C  C172  1  0.552300  0.895600  0.743800  1.0  -0.0645
  C  C173  1  0.573660  0.893800  0.858600  1.0  0.1535
  C  C174  1  0.579100  0.687400  0.869600  1.0  0.2891
  C  C175  1  0.608200  0.145600  0.745100  1.0  -0.0806
  C  C176  1  0.592030  0.148600  0.629400  1.0  0.1363
  C  C177  1  0.665000  0.194600  0.613400  1.0  0.2782
  C  C178  1  0.554100  0.396800  0.746100  1.0  -0.0912
  C  C179  1  0.523100  0.428700  0.634500  1.0  0.1387
  C  C180  1  0.583100  0.540100  0.611200  1.0  0.1948
  C  C181  1  0.973850  0.526800  0.752300  1.0  -0.0893
  C  C182  1  0.948200  0.647700  0.753300  1.0  -0.0416
  C  C183  1  0.974280  0.767600  0.752100  1.0  -0.0585
  C  C184  1  0.947700  0.395600  0.756200  1.0  -0.0643
  C  C185  1  0.926340  0.393800  0.641400  1.0  0.1534
  C  C186  1  0.920900  0.187400  0.630400  1.0  0.2895
  C  C187  1  0.891800  0.645600  0.754900  1.0  -0.0789
  C  C188  1  0.907970  0.648600  0.870600  1.0  0.1355
  C  C189  1  0.835000  0.694600  0.886600  1.0  0.2761
  C  C190  1  0.945900  0.896800  0.753900  1.0  -0.0892
  C  C191  1  0.976900  0.928700  0.865500  1.0  0.1418
  C  C192  1  0.916900  0.040100  0.888800  1.0  0.1956
  C  C193  1  0.473850  0.026800  0.752300  1.0  -0.0893
  C  C194  1  0.448200  0.147700  0.753300  1.0  -0.0416
  C  C195  1  0.474280  0.267600  0.752100  1.0  -0.0585
  C  C196  1  0.447700  0.895600  0.756200  1.0  -0.0643
  C  C197  1  0.426340  0.893800  0.641400  1.0  0.1534
  C  C198  1  0.420900  0.687400  0.630400  1.0  0.2895
  C  C199  1  0.391800  0.145600  0.754900  1.0  -0.0789
  C  C200  1  0.407970  0.148600  0.870600  1.0  0.1355
  C  C201  1  0.335000  0.194600  0.886600  1.0  0.2761
  C  C202  1  0.445900  0.396800  0.753900  1.0  -0.0892
  C  C203  1  0.476900  0.428700  0.865500  1.0  0.1418
  C  C204  1  0.416900  0.540100  0.888800  1.0  0.1956
  C  C205  1  0.973850  0.473200  0.252300  1.0  -0.0871
  C  C206  1  0.948200  0.352300  0.253300  1.0  -0.0419
  C  C207  1  0.974280  0.232400  0.252100  1.0  -0.058
  C  C208  1  0.947700  0.604400  0.256200  1.0  -0.0623
  C  C209  1  0.926340  0.606200  0.141400  1.0  0.1536
  C  C210  1  0.920900  0.812600  0.130400  1.0  0.2892
  C  C211  1  0.891800  0.354400  0.254900  1.0  -0.0789
  C  C212  1  0.907970  0.351400  0.370600  1.0  0.1355
  C  C213  1  0.835000  0.305400  0.386600  1.0  0.2764
  C  C214  1  0.945900  0.103200  0.253900  1.0  -0.0898
  C  C215  1  0.976900  0.071300  0.365500  1.0  0.142
  C  C216  1  0.916900  0.959900  0.388800  1.0  0.1951
  C  C217  1  0.473850  0.973200  0.252300  1.0  -0.0871
  C  C218  1  0.448200  0.852300  0.253300  1.0  -0.0419
  C  C219  1  0.474280  0.732400  0.252100  1.0  -0.058
  C  C220  1  0.447700  0.104400  0.256200  1.0  -0.0623
  C  C221  1  0.426340  0.106200  0.141400  1.0  0.1536
  C  C222  1  0.420900  0.312600  0.130400  1.0  0.2892
  C  C223  1  0.391800  0.854400  0.254900  1.0  -0.0789
  C  C224  1  0.407970  0.851400  0.370600  1.0  0.1355
  C  C225  1  0.335000  0.805400  0.386600  1.0  0.2764
  C  C226  1  0.445900  0.603200  0.253900  1.0  -0.0898
  C  C227  1  0.476900  0.571300  0.365500  1.0  0.142
  C  C228  1  0.416900  0.459900  0.388800  1.0  0.1951
  C  C229  1  0.026150  0.473200  0.247700  1.0  -0.087
  C  C230  1  0.051800  0.352300  0.246700  1.0  -0.0439
  C  C231  1  0.025720  0.232400  0.247900  1.0  -0.0588
  C  C232  1  0.052300  0.604400  0.243800  1.0  -0.0647
  C  C233  1  0.073660  0.606200  0.358600  1.0  0.153
  C  C234  1  0.079100  0.812600  0.369600  1.0  0.2883
  C  C235  1  0.108200  0.354400  0.245100  1.0  -0.08
  C  C236  1  0.092030  0.351400  0.129400  1.0  0.1367
  C  C237  1  0.165000  0.305400  0.113400  1.0  0.2785
  C  C238  1  0.054100  0.103200  0.246100  1.0  -0.0919
  C  C239  1  0.023100  0.071300  0.134500  1.0  0.1386
  C  C240  1  0.083100  0.959900  0.111200  1.0  0.1941
  C  C241  1  0.526150  0.973200  0.247700  1.0  -0.087
  C  C242  1  0.551800  0.852300  0.246700  1.0  -0.0439
  C  C243  1  0.525720  0.732400  0.247900  1.0  -0.0588
  C  C244  1  0.552300  0.104400  0.243800  1.0  -0.0647
  C  C245  1  0.573660  0.106200  0.358600  1.0  0.153
  C  C246  1  0.579100  0.312600  0.369600  1.0  0.2883
  C  C247  1  0.608200  0.854400  0.245100  1.0  -0.08
  C  C248  1  0.592030  0.851400  0.129400  1.0  0.1367
  C  C249  1  0.665000  0.805400  0.113400  1.0  0.2785
  C  C250  1  0.554100  0.603200  0.246100  1.0  -0.0919
  C  C251  1  0.523100  0.571300  0.134500  1.0  0.1386
  C  C252  1  0.583100  0.459900  0.111200  1.0  0.1941
  N  N253  1  0.083520  0.302200  0.901010  1.0  -0.3899
  N  N254  1  0.063860  0.337300  0.804700  1.0  0.1143
  N  N255  1  0.066550  0.202200  0.810700  1.0  -0.3921
  N  N256  1  0.118560  0.671100  0.584760  1.0  -0.3923
  N  N257  1  0.120170  0.661400  0.682600  1.0  0.1609
  N  N258  1  0.168130  0.688600  0.673600  1.0  -0.3906
  N  N259  1  0.038760  0.989400  0.587600  1.0  -0.4219
  N  N260  1  0.056120  0.941000  0.683480  1.0  0.1292
  N  N261  1  0.095500  0.013500  0.669000  1.0  -0.2035
  N  N262  1  0.583520  0.802200  0.901010  1.0  -0.3899
  N  N263  1  0.563860  0.837300  0.804700  1.0  0.1143
  N  N264  1  0.566550  0.702200  0.810700  1.0  -0.3921
  N  N265  1  0.618560  0.171100  0.584760  1.0  -0.3923
  N  N266  1  0.620170  0.161400  0.682600  1.0  0.1609
  N  N267  1  0.668130  0.188600  0.673600  1.0  -0.3906
  N  N268  1  0.538760  0.489400  0.587600  1.0  -0.4219
  N  N269  1  0.556120  0.441000  0.683480  1.0  0.1292
  N  N270  1  0.595500  0.513500  0.669000  1.0  -0.2035
  N  N271  1  0.916480  0.302200  0.598990  1.0  -0.3879
  N  N272  1  0.936140  0.337300  0.695300  1.0  0.115
  N  N273  1  0.933450  0.202200  0.689300  1.0  -0.393
  N  N274  1  0.881440  0.671100  0.915240  1.0  -0.3934
  N  N275  1  0.879830  0.661400  0.817400  1.0  0.1627
  N  N276  1  0.831870  0.688600  0.826400  1.0  -0.3917
  N  N277  1  0.961240  0.989400  0.912400  1.0  -0.4243
  N  N278  1  0.943880  0.941000  0.816520  1.0  0.1288
  N  N279  1  0.904500  0.013500  0.831000  1.0  -0.2041
  N  N280  1  0.416480  0.802200  0.598990  1.0  -0.3879
  N  N281  1  0.436140  0.837300  0.695300  1.0  0.115
  N  N282  1  0.433450  0.702200  0.689300  1.0  -0.393
  N  N283  1  0.381440  0.171100  0.915240  1.0  -0.3934
  N  N284  1  0.379830  0.161400  0.817400  1.0  0.1627
  N  N285  1  0.331870  0.188600  0.826400  1.0  -0.3917
  N  N286  1  0.461240  0.489400  0.912400  1.0  -0.4243
  N  N287  1  0.443880  0.441000  0.816520  1.0  0.1288
  N  N288  1  0.404500  0.513500  0.831000  1.0  -0.2041
  N  N289  1  0.916480  0.697800  0.098990  1.0  -0.388
  N  N290  1  0.936140  0.662700  0.195300  1.0  0.1147
  N  N291  1  0.933450  0.797800  0.189300  1.0  -0.3919
  N  N292  1  0.881440  0.328900  0.415240  1.0  -0.3938
  N  N293  1  0.879830  0.338600  0.317400  1.0  0.163
  N  N294  1  0.831870  0.311400  0.326400  1.0  -0.3914
  N  N295  1  0.961240  0.010600  0.412400  1.0  -0.4237
  N  N296  1  0.943880  0.059000  0.316520  1.0  0.1293
  N  N297  1  0.904500  0.986500  0.331000  1.0  -0.205
  N  N298  1  0.416480  0.197800  0.098990  1.0  -0.388
  N  N299  1  0.436140  0.162700  0.195300  1.0  0.1147
  N  N300  1  0.433450  0.297800  0.189300  1.0  -0.3919
  N  N301  1  0.381440  0.828900  0.415240  1.0  -0.3938
  N  N302  1  0.379830  0.838600  0.317400  1.0  0.163
  N  N303  1  0.331870  0.811400  0.326400  1.0  -0.3914
  N  N304  1  0.461240  0.510600  0.412400  1.0  -0.4237
  N  N305  1  0.443880  0.559000  0.316520  1.0  0.1293
  N  N306  1  0.404500  0.486500  0.331000  1.0  -0.205
  N  N307  1  0.083520  0.697800  0.401010  1.0  -0.3898
  N  N308  1  0.063860  0.662700  0.304700  1.0  0.1133
  N  N309  1  0.066550  0.797800  0.310700  1.0  -0.3904
  N  N310  1  0.118560  0.328900  0.084760  1.0  -0.3927
  N  N311  1  0.120170  0.338600  0.182600  1.0  0.1604
  N  N312  1  0.168130  0.311400  0.173600  1.0  -0.3902
  N  N313  1  0.038760  0.010600  0.087600  1.0  -0.4223
  N  N314  1  0.056120  0.059000  0.183480  1.0  0.129
  N  N315  1  0.095500  0.986500  0.169000  1.0  -0.2047
  N  N316  1  0.583520  0.197800  0.401010  1.0  -0.3898
  N  N317  1  0.563860  0.162700  0.304700  1.0  0.1133
  N  N318  1  0.566550  0.297800  0.310700  1.0  -0.3904
  N  N319  1  0.618560  0.828900  0.084760  1.0  -0.3927
  N  N320  1  0.620170  0.838600  0.182600  1.0  0.1604
  N  N321  1  0.668130  0.811400  0.173600  1.0  -0.3902
  N  N322  1  0.538760  0.510600  0.087600  1.0  -0.4223
  N  N323  1  0.556120  0.559000  0.183480  1.0  0.129
  N  N324  1  0.595500  0.486500  0.169000  1.0  -0.2047
  O  O325  1  0.167710  0.579800  0.479390  1.0  -0.7785
  O  O326  1  0.169200  0.315800  0.460260  1.0  -0.753
  O  O327  1  0.263680  0.569200  0.443510  1.0  -0.673
  O  O328  1  0.345530  0.438200  0.583210  1.0  -0.6431
  O  O329  1  0.436050  0.436200  0.539440  1.0  -0.6839
  O  O330  1  0.417370  0.196800  0.495250  1.0  -0.7341
  O  O331  1  0.339050  0.377400  0.470710  1.0  -0.853
  O  O332  1  0.248790  0.117700  0.485380  1.0  -0.8347
  O  O333  1  0.250700  0.316700  0.396460  1.0  -0.6933
  O  O334  1  0.459310  0.960600  0.505690  1.0  -0.7344
  O  O335  1  0.667710  0.079800  0.479390  1.0  -0.7785
  O  O336  1  0.669200  0.815800  0.460260  1.0  -0.753
  O  O337  1  0.763680  0.069200  0.443510  1.0  -0.673
  O  O338  1  0.845530  0.938200  0.583210  1.0  -0.6431
  O  O339  1  0.936050  0.936200  0.539440  1.0  -0.6839
  O  O340  1  0.917370  0.696800  0.495250  1.0  -0.7341
  O  O341  1  0.839050  0.877400  0.470710  1.0  -0.853
  O  O342  1  0.748790  0.617700  0.485380  1.0  -0.8347
  O  O343  1  0.750700  0.816700  0.396460  1.0  -0.6933
  O  O344  1  0.959310  0.460600  0.505690  1.0  -0.7344
  O  O345  1  0.832290  0.579800  0.020610  1.0  -0.778
  O  O346  1  0.830800  0.315800  0.039740  1.0  -0.7528
  O  O347  1  0.736320  0.569200  0.056490  1.0  -0.6713
  O  O348  1  0.654470  0.438200  0.916790  1.0  -0.641
  O  O349  1  0.563950  0.436200  0.960560  1.0  -0.6833
  O  O350  1  0.582630  0.196800  0.004750  1.0  -0.7338
  O  O351  1  0.660950  0.377400  0.029290  1.0  -0.8522
  O  O352  1  0.751210  0.117700  0.014620  1.0  -0.8345
  O  O353  1  0.749300  0.316700  0.103540  1.0  -0.6863
  O  O354  1  0.540690  0.960600  0.994310  1.0  -0.7351
  O  O355  1  0.332290  0.079800  0.020610  1.0  -0.778
  O  O356  1  0.330800  0.815800  0.039740  1.0  -0.7528
  O  O357  1  0.236320  0.069200  0.056490  1.0  -0.6713
  O  O358  1  0.154470  0.938200  0.916790  1.0  -0.641
  O  O359  1  0.063950  0.936200  0.960560  1.0  -0.6833
  O  O360  1  0.082630  0.696800  0.004750  1.0  -0.7338
  O  O361  1  0.160950  0.877400  0.029290  1.0  -0.8522
  O  O362  1  0.251210  0.617700  0.014620  1.0  -0.8345
  O  O363  1  0.249300  0.816700  0.103540  1.0  -0.6863
  O  O364  1  0.040690  0.460600  0.994310  1.0  -0.7351
  O  O365  1  0.832290  0.420200  0.520610  1.0  -0.7778
  O  O366  1  0.830800  0.684200  0.539740  1.0  -0.7531
  O  O367  1  0.736320  0.430800  0.556490  1.0  -0.6729
  O  O368  1  0.654470  0.561800  0.416790  1.0  -0.6404
  O  O369  1  0.563950  0.563800  0.460560  1.0  -0.6835
  O  O370  1  0.582630  0.803200  0.504750  1.0  -0.7344
  O  O371  1  0.660950  0.622600  0.529290  1.0  -0.8524
  O  O372  1  0.751210  0.882300  0.514620  1.0  -0.8353
  O  O373  1  0.749300  0.683300  0.603540  1.0  -0.6862
  O  O374  1  0.540690  0.039400  0.494310  1.0  -0.7347
  O  O375  1  0.332290  0.920200  0.520610  1.0  -0.7778
  O  O376  1  0.330800  0.184200  0.539740  1.0  -0.7531
  O  O377  1  0.236320  0.930800  0.556490  1.0  -0.6729
  O  O378  1  0.154470  0.061800  0.416790  1.0  -0.6404
  O  O379  1  0.063950  0.063800  0.460560  1.0  -0.6835
  O  O380  1  0.082630  0.303200  0.504750  1.0  -0.7344
  O  O381  1  0.160950  0.122600  0.529290  1.0  -0.8524
  O  O382  1  0.251210  0.382300  0.514620  1.0  -0.8353
  O  O383  1  0.249300  0.183300  0.603540  1.0  -0.6862
  O  O384  1  0.040690  0.539400  0.494310  1.0  -0.7347
  O  O385  1  0.167710  0.420200  0.979390  1.0  -0.7781
  O  O386  1  0.169200  0.684200  0.960260  1.0  -0.7531
  O  O387  1  0.263680  0.430800  0.943510  1.0  -0.6736
  O  O388  1  0.345530  0.561800  0.083210  1.0  -0.6428
  O  O389  1  0.436050  0.563800  0.039440  1.0  -0.6838
  O  O390  1  0.417370  0.803200  0.995250  1.0  -0.7347
  O  O391  1  0.339050  0.622600  0.970710  1.0  -0.853
  O  O392  1  0.248790  0.882300  0.985380  1.0  -0.8347
  O  O393  1  0.250700  0.683300  0.896460  1.0  -0.6935
  O  O394  1  0.459310  0.039400  0.005690  1.0  -0.7343
  O  O395  1  0.667710  0.920200  0.979390  1.0  -0.7781
  O  O396  1  0.669200  0.184200  0.960260  1.0  -0.7531
  O  O397  1  0.763680  0.930800  0.943510  1.0  -0.6736
  O  O398  1  0.845530  0.061800  0.083210  1.0  -0.6428
  O  O399  1  0.936050  0.063800  0.039440  1.0  -0.6838
  O  O400  1  0.917370  0.303200  0.995250  1.0  -0.7347
  O  O401  1  0.839050  0.122600  0.970710  1.0  -0.853
  O  O402  1  0.748790  0.382300  0.985380  1.0  -0.8347
  O  O403  1  0.750700  0.183300  0.896460  1.0  -0.6935
  O  O404  1  0.959310  0.539400  0.005690  1.0  -0.7343
