# generated using pymatgen
data_ZnMo4H11C12N9O7
_symmetry_space_group_name_H-M   'P 1'
_cell_length_a   10.57500000
_cell_length_b   10.89400000
_cell_length_c   13.87000000
_cell_angle_alpha   87.23300000
_cell_angle_beta   72.40300000
_cell_angle_gamma   66.40800000
_symmetry_Int_Tables_number   1
_chemical_formula_structural   ZnMo4H11C12N9O7
_chemical_formula_sum   'Zn2 Mo8 H22 C24 N18 O14'
_cell_volume   1390.96108515
_cell_formula_units_Z   2
loop_
 _symmetry_equiv_pos_site_id
 _symmetry_equiv_pos_as_xyz
  1  'x, y, z'
loop_
 _atom_site_type_symbol
 _atom_site_label
 _atom_site_symmetry_multiplicity
 _atom_site_fract_x
 _atom_site_fract_y
 _atom_site_fract_z
 _atom_site_occupancy
 _atom_site_charge
  Zn  Zn1  1  0.002240  0.817770  0.664160  1.0  0.5991
  Zn  Zn2  1  0.997760  0.182230  0.335840  1.0  0.6046
  Mo  Mo3  1  0.780840  0.984500  0.486440  1.0  1.2923
  Mo  Mo4  1  0.472750  0.001170  0.633560  1.0  1.3782
  Mo  Mo5  1  0.175730  0.291170  0.626480  1.0  0.7525
  Mo  Mo6  1  0.490510  0.269090  0.479850  1.0  0.7858
  Mo  Mo7  1  0.219160  0.015500  0.513560  1.0  1.3003
  Mo  Mo8  1  0.527250  0.998830  0.366440  1.0  1.3955
  Mo  Mo9  1  0.824270  0.708830  0.373520  1.0  0.7534
  Mo  Mo10  1  0.509490  0.730910  0.520150  1.0  0.786
  H  H11  1  0.493100  0.727200  0.827700  1.0  0.0805
  H  H12  1  0.353600  0.804600  0.918700  1.0  0.1082
  H  H13  1  0.174300  0.889200  0.808300  1.0  0.1036
  H  H14  1  0.241300  0.542400  0.697200  1.0  0.0751
  H  H15  1  0.145000  0.677700  0.113700  1.0  0.0921
  H  H16  1  0.179000  0.752800  0.016200  1.0  0.0931
  H  H17  1  0.000600  0.908900  0.229800  1.0  0.0894
  H  H18  1  0.239500  0.592500  0.226500  1.0  0.0939
  H  H19  1  0.369500  0.473700  0.249300  1.0  0.103
  H  H20  1  0.187600  0.357600  0.349000  1.0  0.0913
  H  H21  1  0.097100  0.279000  0.115700  1.0  0.0879
  H  H22  1  0.506900  0.272800  0.172300  1.0  0.0801
  H  H23  1  0.646400  0.195400  0.081300  1.0  0.1049
  H  H24  1  0.825700  0.110800  0.191700  1.0  0.1047
  H  H25  1  0.758700  0.457600  0.302800  1.0  0.0755
  H  H26  1  0.855000  0.322300  0.886300  1.0  0.0912
  H  H27  1  0.821000  0.247200  0.983800  1.0  0.094
  H  H28  1  0.999400  0.091100  0.770200  1.0  0.0905
  H  H29  1  0.760500  0.407500  0.773500  1.0  0.0951
  H  H30  1  0.630500  0.526300  0.750700  1.0  0.1
  H  H31  1  0.812400  0.642400  0.651000  1.0  0.0845
  H  H32  1  0.902900  0.721000  0.884300  1.0  0.0886
  C  C33  1  0.454300  0.605600  0.940200  1.0  0.0138
  C  C34  1  0.363000  0.606000  0.036400  1.0  0.0129
  C  C35  1  0.408700  0.501100  0.097400  1.0  0.0123
  C  C36  1  0.407700  0.721200  0.875500  1.0  -0.08
  C  C37  1  0.210800  0.797400  0.791000  1.0  0.149
  C  C38  1  0.249800  0.608500  0.731600  1.0  0.2489
  C  C39  1  0.210800  0.716100  0.074000  1.0  -0.068
  C  C40  1  0.091300  0.912100  0.207000  1.0  0.1074
  C  C41  1  0.265700  0.970100  0.181500  1.0  -0.2583
  C  C42  1  0.311800  0.501800  0.203300  1.0  -0.0786
  C  C43  1  0.181400  0.353300  0.283800  1.0  0.0865
  C  C44  1  0.133000  0.313000  0.156600  1.0  0.2627
  C  C45  1  0.545700  0.394400  0.059800  1.0  0.0141
  C  C46  1  0.637000  0.394000  0.963600  1.0  0.0128
  C  C47  1  0.591300  0.498900  0.902600  1.0  0.0117
  C  C48  1  0.592300  0.278800  0.124500  1.0  -0.082
  C  C49  1  0.789200  0.202600  0.209000  1.0  0.1481
  C  C50  1  0.750200  0.391500  0.268400  1.0  0.2527
  C  C51  1  0.789200  0.283900  0.926000  1.0  -0.0678
  C  C52  1  0.908700  0.087900  0.793000  1.0  0.1069
  C  C53  1  0.734300  0.029900  0.818500  1.0  -0.2602
  C  C54  1  0.688200  0.498200  0.796700  1.0  -0.07
  C  C55  1  0.818600  0.646700  0.716200  1.0  0.0878
  C  C56  1  0.867000  0.687000  0.843400  1.0  0.2584
  N  N57  1  0.164500  0.741100  0.734800  1.0  -0.4058
  N  N58  1  0.317000  0.704300  0.819200  1.0  0.1486
  N  N59  1  0.344800  0.580800  0.780500  1.0  -0.3492
  N  N60  1  0.122800  0.002700  0.240400  1.0  -0.2446
  N  N61  1  0.204100  0.825400  0.136800  1.0  0.1687
  N  N62  1  0.318000  0.843000  0.137400  1.0  -0.2838
  N  N63  1  0.114700  0.289200  0.254100  1.0  -0.3444
  N  N64  1  0.238400  0.410800  0.205200  1.0  0.1405
  N  N65  1  0.205400  0.387800  0.122800  1.0  -0.3565
  N  N66  1  0.835500  0.258900  0.265200  1.0  -0.4041
  N  N67  1  0.683000  0.295700  0.180800  1.0  0.1502
  N  N68  1  0.655200  0.419200  0.219500  1.0  -0.3521
  N  N69  1  0.877200  0.997300  0.759600  1.0  -0.2462
  N  N70  1  0.795900  0.174600  0.863200  1.0  0.1693
  N  N71  1  0.682000  0.157000  0.862600  1.0  -0.2842
  N  N72  1  0.885300  0.710800  0.745900  1.0  -0.3437
  N  N73  1  0.761600  0.589200  0.794800  1.0  0.1389
  N  N74  1  0.794600  0.612200  0.877200  1.0  -0.3567
  O  O75  1  0.851700  0.894000  0.576000  1.0  -0.6285
  O  O76  1  0.877600  0.858600  0.373100  1.0  -0.6493
  O  O77  1  0.630000  0.101600  0.392000  1.0  -0.7948
  O  O78  1  0.592600  0.103600  0.582100  1.0  -0.6934
  O  O79  1  0.320900  0.135200  0.707300  1.0  -0.5749
  O  O80  1  0.377000  0.115700  0.503900  1.0  -0.7828
  O  O81  1  0.334900  0.341800  0.601200  1.0  -0.593
  O  O82  1  0.148300  0.106000  0.424000  1.0  -0.6294
  O  O83  1  0.122400  0.141400  0.626900  1.0  -0.651
  O  O84  1  0.370000  0.898400  0.608000  1.0  -0.7946
  O  O85  1  0.407400  0.896400  0.417900  1.0  -0.6948
  O  O86  1  0.679100  0.864800  0.292700  1.0  -0.5783
  O  O87  1  0.623000  0.884300  0.496100  1.0  -0.7824
  O  O88  1  0.665100  0.658200  0.398800  1.0  -0.5938
