# generated using pymatgen
data_NdH3(C3O2)3
_symmetry_space_group_name_H-M   'P 1'
_cell_length_a   6.12000000
_cell_length_b   9.71900000
_cell_length_c   20.13300000
_cell_angle_alpha   90.00000000
_cell_angle_beta   90.00000000
_cell_angle_gamma   90.00000000
_symmetry_Int_Tables_number   1
_chemical_formula_structural   NdH3(C3O2)3
_chemical_formula_sum   'Nd4 H12 C36 O24'
_cell_volume   1197.51647724
_cell_formula_units_Z   4
loop_
 _symmetry_equiv_pos_site_id
 _symmetry_equiv_pos_as_xyz
  1  'x, y, z'
loop_
 _atom_site_type_symbol
 _atom_site_label
 _atom_site_symmetry_multiplicity
 _atom_site_fract_x
 _atom_site_fract_y
 _atom_site_fract_z
 _atom_site_occupancy
 _atom_site_charge
  Nd  Nd1  1  0.714200  0.034000  0.314700  1.0  2.2642
  Nd  Nd2  1  0.785800  0.966000  0.814700  1.0  2.2641
  Nd  Nd3  1  0.285800  0.534000  0.185300  1.0  2.2623
  Nd  Nd4  1  0.214200  0.466000  0.685300  1.0  2.2628
  H  H5  1  0.670640  0.031570  0.562800  1.0  0.1208
  H  H6  1  0.087530  0.880530  0.461510  1.0  0.1091
  H  H7  1  0.936630  0.798700  0.571230  1.0  0.1043
  H  H8  1  0.829360  0.968430  0.062800  1.0  0.121
  H  H9  1  0.412470  0.119470  0.961510  1.0  0.1102
  H  H10  1  0.563730  0.201020  0.069740  1.0  0.0998
  H  H11  1  0.329360  0.531570  0.937200  1.0  0.1216
  H  H12  1  0.912470  0.380530  0.038490  1.0  0.1093
  H  H13  1  0.063730  0.298980  0.930260  1.0  0.0998
  H  H14  1  0.170640  0.468430  0.437200  1.0  0.1207
  H  H15  1  0.587530  0.619470  0.538490  1.0  0.1091
  H  H16  1  0.436630  0.701300  0.428770  1.0  0.104
  C  C17  1  0.215000  0.872200  0.627700  1.0  -0.0842
  C  C18  1  0.419800  0.937600  0.626200  1.0  -0.0782
  C  C19  1  0.505200  0.977900  0.565200  1.0  -0.0899
  C  C20  1  0.393400  0.954300  0.506700  1.0  -0.0977
  C  C21  1  0.186100  0.894200  0.509100  1.0  -0.0568
  C  C22  1  0.102500  0.851900  0.569100  1.0  -0.1079
  C  C23  1  0.115500  0.826700  0.692700  1.0  0.7675
  C  C24  1  0.552600  0.957300  0.686800  1.0  0.682
  C  C25  1  0.495900  0.993500  0.441600  1.0  0.689
  C  C26  1  0.285000  0.127800  0.127700  1.0  -0.0817
  C  C27  1  0.080200  0.062400  0.126200  1.0  -0.0698
  C  C28  1  0.994800  0.022100  0.065200  1.0  -0.0888
  C  C29  1  0.106600  0.045700  0.006700  1.0  -0.0981
  C  C30  1  0.313900  0.105800  0.009100  1.0  -0.057
  C  C31  1  0.397500  0.148100  0.069100  1.0  -0.1083
  C  C32  1  0.384500  0.173300  0.192700  1.0  0.7758
  C  C33  1  0.947400  0.042700  0.186800  1.0  0.6817
  C  C34  1  0.004100  0.006500  0.941600  1.0  0.6869
  C  C35  1  0.785000  0.372200  0.872300  1.0  -0.082
  C  C36  1  0.580200  0.437600  0.873800  1.0  -0.0697
  C  C37  1  0.494800  0.477900  0.934800  1.0  -0.089
  C  C38  1  0.606600  0.454300  0.993300  1.0  -0.0971
  C  C39  1  0.813900  0.394200  0.990900  1.0  -0.0555
  C  C40  1  0.897500  0.351900  0.930900  1.0  -0.1085
  C  C41  1  0.884500  0.326700  0.807300  1.0  0.7772
  C  C42  1  0.447400  0.457300  0.813200  1.0  0.6821
  C  C43  1  0.504100  0.493500  0.058400  1.0  0.6871
  C  C44  1  0.715000  0.627800  0.372300  1.0  -0.0848
  C  C45  1  0.919800  0.562400  0.373800  1.0  -0.0796
  C  C46  1  0.005200  0.522100  0.434800  1.0  -0.089
  C  C47  1  0.893400  0.545700  0.493300  1.0  -0.0977
  C  C48  1  0.686100  0.605800  0.490900  1.0  -0.0555
  C  C49  1  0.602500  0.648100  0.430900  1.0  -0.108
  C  C50  1  0.615500  0.673300  0.307300  1.0  0.7718
  C  C51  1  0.052600  0.542700  0.313200  1.0  0.6812
  C  C52  1  0.995900  0.506500  0.558400  1.0  0.6899
  O  O53  1  0.074200  0.700900  0.700700  1.0  -0.7178
  O  O54  1  0.065800  0.921500  0.732400  1.0  -0.7079
  O  O55  1  0.644200  0.069900  0.698200  1.0  -0.6476
  O  O56  1  0.571300  0.855400  0.726000  1.0  -0.73
  O  O57  1  0.697600  0.015800  0.439800  1.0  -0.7278
  O  O58  1  0.381600  0.001400  0.389900  1.0  -0.6985
  O  O59  1  0.425800  0.299100  0.200700  1.0  -0.7191
  O  O60  1  0.434200  0.078500  0.232400  1.0  -0.7091
  O  O61  1  0.855800  0.930100  0.198200  1.0  -0.6489
  O  O62  1  0.928700  0.144600  0.226000  1.0  -0.73
  O  O63  1  0.802400  0.984200  0.939800  1.0  -0.727
  O  O64  1  0.118400  0.998600  0.889900  1.0  -0.6981
  O  O65  1  0.925800  0.200900  0.799300  1.0  -0.721
  O  O66  1  0.934200  0.421500  0.767600  1.0  -0.709
  O  O67  1  0.355800  0.569900  0.801800  1.0  -0.6472
  O  O68  1  0.428700  0.355400  0.774000  1.0  -0.7302
  O  O69  1  0.302400  0.515800  0.060200  1.0  -0.7299
  O  O70  1  0.618400  0.501400  0.110100  1.0  -0.702
  O  O71  1  0.574200  0.799100  0.299300  1.0  -0.7175
  O  O72  1  0.565800  0.578500  0.267600  1.0  -0.7081
  O  O73  1  0.144200  0.430100  0.301800  1.0  -0.6475
  O  O74  1  0.071300  0.644600  0.274000  1.0  -0.7295
  O  O75  1  0.197600  0.484200  0.560200  1.0  -0.7205
  O  O76  1  0.881600  0.498600  0.610100  1.0  -0.6963
