# generated using pymatgen
data_YPH7C5NO7
_symmetry_space_group_name_H-M   'P 1'
_cell_length_a   8.91080000
_cell_length_b   9.02230000
_cell_length_c   15.68370000
_cell_angle_alpha   90.00000000
_cell_angle_beta   90.00000000
_cell_angle_gamma   90.00000000
_symmetry_Int_Tables_number   1
_chemical_formula_structural   YPH7C5NO7
_chemical_formula_sum   'Y4 P4 H28 C20 N4 O28'
_cell_volume   1260.90534684
_cell_formula_units_Z   4
loop_
 _symmetry_equiv_pos_site_id
 _symmetry_equiv_pos_as_xyz
  1  'x, y, z'
loop_
 _atom_site_type_symbol
 _atom_site_label
 _atom_site_symmetry_multiplicity
 _atom_site_fract_x
 _atom_site_fract_y
 _atom_site_fract_z
 _atom_site_occupancy
 _atom_site_charge
  Y  Y1  1  0.390730  0.031330  0.396090  1.0  2.0597
  Y  Y2  1  0.609270  0.468670  0.896090  1.0  2.0607
  Y  Y3  1  0.890730  0.968670  0.103910  1.0  2.0583
  Y  Y4  1  0.109270  0.531330  0.603910  1.0  2.06
  P  P5  1  0.067990  0.127510  0.293990  1.0  1.5572
  P  P6  1  0.932010  0.372490  0.793990  1.0  1.556
  P  P7  1  0.567990  0.872490  0.206010  1.0  1.5564
  P  P8  1  0.432010  0.627510  0.706010  1.0  1.5569
  H  H9  1  0.252400  0.144100  0.189600  1.0  0.1829
  H  H10  1  0.177500  0.300000  0.203200  1.0  0.1556
  H  H11  1  0.221200  0.440700  0.312800  1.0  0.1164
  H  H12  1  0.391400  0.459900  0.334600  1.0  0.1371
  H  H13  1  0.480700  0.376500  0.216300  1.0  0.1051
  H  H14  1  0.488100  0.205700  0.197200  1.0  0.1363
  H  H15  1  0.903900  0.269200  0.322400  1.0  0.4118
  H  H16  1  0.747600  0.355900  0.689600  1.0  0.1823
  H  H17  1  0.822500  0.200000  0.703200  1.0  0.1559
  H  H18  1  0.778800  0.059300  0.812800  1.0  0.1163
  H  H19  1  0.608600  0.040100  0.834600  1.0  0.1379
  H  H20  1  0.519300  0.123500  0.716300  1.0  0.1021
  H  H21  1  0.511900  0.294300  0.697200  1.0  0.1367
  H  H22  1  0.096100  0.230800  0.822400  1.0  0.412
  H  H23  1  0.752400  0.855900  0.310400  1.0  0.182
  H  H24  1  0.677500  0.700000  0.296800  1.0  0.1562
  H  H25  1  0.721200  0.559300  0.187200  1.0  0.1166
  H  H26  1  0.891400  0.540100  0.165400  1.0  0.137
  H  H27  1  0.980700  0.623500  0.283700  1.0  0.1027
  H  H28  1  0.988100  0.794300  0.302800  1.0  0.1393
  H  H29  1  0.403900  0.730800  0.177600  1.0  0.4127
  H  H30  1  0.247600  0.644100  0.810400  1.0  0.1821
  H  H31  1  0.322500  0.800000  0.796800  1.0  0.1553
  H  H32  1  0.278800  0.940700  0.687200  1.0  0.1165
  H  H33  1  0.108600  0.959900  0.665400  1.0  0.1379
  H  H34  1  0.019300  0.876500  0.783700  1.0  0.1007
  H  H35  1  0.011900  0.705700  0.802800  1.0  0.139
  H  H36  1  0.596100  0.769200  0.677600  1.0  0.4123
  C  C37  1  0.216200  0.213200  0.232300  1.0  -0.4979
  C  C38  1  0.306900  0.392500  0.339000  1.0  -0.2429
  C  C39  1  0.273300  0.368700  0.430500  1.0  0.7813
  C  C40  1  0.480800  0.278900  0.242300  1.0  -0.2312
  C  C41  1  0.615000  0.264400  0.302200  1.0  0.7002
  C  C42  1  0.783800  0.286800  0.732300  1.0  -0.4964
  C  C43  1  0.693100  0.107500  0.839000  1.0  -0.2414
  C  C44  1  0.726700  0.131300  0.930500  1.0  0.7816
  C  C45  1  0.519200  0.221100  0.742300  1.0  -0.2324
  C  C46  1  0.385000  0.235600  0.802200  1.0  0.7005
  C  C47  1  0.716200  0.786800  0.267700  1.0  -0.4927
  C  C48  1  0.806900  0.607500  0.161000  1.0  -0.2417
  C  C49  1  0.773300  0.631300  0.069500  1.0  0.7791
  C  C50  1  0.980800  0.721100  0.257700  1.0  -0.2362
  C  C51  1  0.115000  0.735600  0.197800  1.0  0.7063
  C  C52  1  0.283800  0.713200  0.767700  1.0  -0.5014
  C  C53  1  0.193100  0.892500  0.661000  1.0  -0.2423
  C  C54  1  0.226700  0.868700  0.569500  1.0  0.7772
  C  C55  1  0.019200  0.778900  0.757700  1.0  -0.2365
  C  C56  1  0.885000  0.764400  0.697800  1.0  0.698
  N  N57  1  0.342100  0.257000  0.289800  1.0  -0.1457
  N  N58  1  0.657900  0.243000  0.789800  1.0  -0.1477
  N  N59  1  0.842100  0.743000  0.210200  1.0  -0.1482
  N  N60  1  0.157900  0.757000  0.710200  1.0  -0.1478
  O  O61  1  0.313700  0.244900  0.465210  1.0  -0.703
  O  O62  1  0.208000  0.468400  0.470710  1.0  -0.691
  O  O63  1  0.739400  0.316500  0.276400  1.0  -0.5969
  O  O64  1  0.599200  0.187900  0.370180  1.0  -0.7222
  O  O65  1  0.983200  0.249000  0.346300  1.0  -0.7021
  O  O66  1  0.964900  0.051000  0.232650  1.0  -0.9283
  O  O67  1  0.145800  0.025700  0.355310  1.0  -0.8798
  O  O68  1  0.686300  0.255100  0.965210  1.0  -0.7039
  O  O69  1  0.792000  0.031600  0.970710  1.0  -0.6912
  O  O70  1  0.260600  0.183500  0.776400  1.0  -0.596
  O  O71  1  0.400800  0.312100  0.870180  1.0  -0.7238
  O  O72  1  0.016800  0.251000  0.846300  1.0  -0.7041
  O  O73  1  0.035100  0.449000  0.732650  1.0  -0.9308
  O  O74  1  0.854200  0.474300  0.855310  1.0  -0.879
  O  O75  1  0.813700  0.755100  0.034790  1.0  -0.7017
  O  O76  1  0.708000  0.531600  0.029290  1.0  -0.6901
  O  O77  1  0.239400  0.683500  0.223600  1.0  -0.5977
  O  O78  1  0.099200  0.812100  0.129820  1.0  -0.7114
  O  O79  1  0.483200  0.751000  0.153700  1.0  -0.7036
  O  O80  1  0.464900  0.949000  0.267350  1.0  -0.9317
  O  O81  1  0.645800  0.974300  0.144690  1.0  -0.879
  O  O82  1  0.186300  0.744900  0.534790  1.0  -0.702
  O  O83  1  0.292000  0.968400  0.529290  1.0  -0.6896
  O  O84  1  0.760600  0.816500  0.723600  1.0  -0.5959
  O  O85  1  0.900800  0.687900  0.629820  1.0  -0.7147
  O  O86  1  0.516800  0.749000  0.653700  1.0  -0.7033
  O  O87  1  0.535100  0.551000  0.767350  1.0  -0.9328
  O  O88  1  0.354200  0.525700  0.644690  1.0  -0.88
