# generated using pymatgen
data_LuPH7C5NO7
_symmetry_space_group_name_H-M   'P 1'
_cell_length_a   8.90620000
_cell_length_b   8.94660000
_cell_length_c   15.53530000
_cell_angle_alpha   90.00000000
_cell_angle_beta   90.00000000
_cell_angle_gamma   90.00000000
_symmetry_Int_Tables_number   1
_chemical_formula_structural   LuPH7C5NO7
_chemical_formula_sum   'Lu4 P4 H28 C20 N4 O28'
_cell_volume   1237.85594963
_cell_formula_units_Z   4
loop_
 _symmetry_equiv_pos_site_id
 _symmetry_equiv_pos_as_xyz
  1  'x, y, z'
loop_
 _atom_site_type_symbol
 _atom_site_label
 _atom_site_symmetry_multiplicity
 _atom_site_fract_x
 _atom_site_fract_y
 _atom_site_fract_z
 _atom_site_occupancy
 _atom_site_charge
  Lu  Lu1  1  0.388220  0.032140  0.395090  1.0  1.9293
  Lu  Lu2  1  0.611780  0.467860  0.895090  1.0  1.9294
  Lu  Lu3  1  0.888220  0.967860  0.104910  1.0  1.9284
  Lu  Lu4  1  0.111780  0.532140  0.604910  1.0  1.929
  P  P5  1  0.066690  0.126830  0.293900  1.0  1.5435
  P  P6  1  0.933310  0.373170  0.793900  1.0  1.5439
  P  P7  1  0.566690  0.873170  0.206100  1.0  1.5433
  P  P8  1  0.433310  0.626830  0.706100  1.0  1.5436
  H  H9  1  0.249500  0.147000  0.187700  1.0  0.1804
  H  H10  1  0.175300  0.303900  0.203800  1.0  0.158
  H  H11  1  0.220800  0.442200  0.312700  1.0  0.1124
  H  H12  1  0.391500  0.460200  0.334400  1.0  0.1303
  H  H13  1  0.482500  0.379200  0.216400  1.0  0.1073
  H  H14  1  0.487900  0.207800  0.194400  1.0  0.1286
  H  H15  1  0.902900  0.270400  0.323800  1.0  0.4149
  H  H16  1  0.750500  0.353000  0.687700  1.0  0.18
  H  H17  1  0.824700  0.196100  0.703800  1.0  0.1582
  H  H18  1  0.779200  0.057800  0.812700  1.0  0.1128
  H  H19  1  0.608500  0.039800  0.834400  1.0  0.1308
  H  H20  1  0.517500  0.120800  0.716400  1.0  0.1077
  H  H21  1  0.512100  0.292200  0.694400  1.0  0.1289
  H  H22  1  0.097100  0.229600  0.823800  1.0  0.4147
  H  H23  1  0.749500  0.853000  0.312300  1.0  0.1805
  H  H24  1  0.675300  0.696100  0.296200  1.0  0.1586
  H  H25  1  0.720800  0.557800  0.187300  1.0  0.113
  H  H26  1  0.891500  0.539800  0.165600  1.0  0.1301
  H  H27  1  0.982500  0.620800  0.283600  1.0  0.1072
  H  H28  1  0.987900  0.792200  0.305600  1.0  0.1352
  H  H29  1  0.402900  0.729600  0.176200  1.0  0.4159
  H  H30  1  0.250500  0.647000  0.812300  1.0  0.1805
  H  H31  1  0.324700  0.803900  0.796200  1.0  0.1577
  H  H32  1  0.279200  0.942200  0.687300  1.0  0.1135
  H  H33  1  0.108500  0.960200  0.665600  1.0  0.1315
  H  H34  1  0.017500  0.879200  0.783600  1.0  0.1058
  H  H35  1  0.012100  0.707800  0.805600  1.0  0.1348
  H  H36  1  0.597100  0.770400  0.676200  1.0  0.4145
  C  C37  1  0.214200  0.215100  0.231900  1.0  -0.5039
  C  C38  1  0.306500  0.392800  0.338700  1.0  -0.2389
  C  C39  1  0.273300  0.365800  0.432000  1.0  0.7664
  C  C40  1  0.481300  0.279500  0.241100  1.0  -0.2392
  C  C41  1  0.614800  0.260300  0.301500  1.0  0.716
  C  C42  1  0.785800  0.284900  0.731900  1.0  -0.5032
  C  C43  1  0.693500  0.107200  0.838700  1.0  -0.237
  C  C44  1  0.726700  0.134200  0.932000  1.0  0.7667
  C  C45  1  0.518700  0.220500  0.741100  1.0  -0.2401
  C  C46  1  0.385200  0.239700  0.801500  1.0  0.7156
  C  C47  1  0.714200  0.784900  0.268100  1.0  -0.5034
  C  C48  1  0.806500  0.607200  0.161300  1.0  -0.237
  C  C49  1  0.773300  0.634200  0.068000  1.0  0.7652
  C  C50  1  0.981300  0.720500  0.258900  1.0  -0.2405
  C  C51  1  0.114800  0.739700  0.198500  1.0  0.715
  C  C52  1  0.285800  0.715100  0.768100  1.0  -0.5033
  C  C53  1  0.193500  0.892800  0.661300  1.0  -0.2385
  C  C54  1  0.226700  0.865800  0.568000  1.0  0.7642
  C  C55  1  0.018700  0.779500  0.758900  1.0  -0.241
  C  C56  1  0.885200  0.760300  0.698500  1.0  0.7158
  N  N57  1  0.340200  0.256400  0.289300  1.0  -0.1178
  N  N58  1  0.659800  0.243600  0.789300  1.0  -0.1198
  N  N59  1  0.840200  0.743600  0.210700  1.0  -0.1202
  N  N60  1  0.159800  0.756400  0.710700  1.0  -0.1196
  O  O61  1  0.315200  0.243200  0.465600  1.0  -0.6564
  O  O62  1  0.208600  0.469100  0.471900  1.0  -0.6592
  O  O63  1  0.738100  0.315300  0.277900  1.0  -0.5998
  O  O64  1  0.596000  0.187500  0.370700  1.0  -0.7112
  O  O65  1  0.982600  0.249700  0.347400  1.0  -0.6982
  O  O66  1  0.961000  0.049300  0.233400  1.0  -0.9053
  O  O67  1  0.146600  0.024800  0.355600  1.0  -0.8613
  O  O68  1  0.684800  0.256800  0.965600  1.0  -0.6568
  O  O69  1  0.791400  0.030900  0.971900  1.0  -0.66
  O  O70  1  0.261900  0.184700  0.777900  1.0  -0.5999
  O  O71  1  0.404000  0.312500  0.870700  1.0  -0.7125
  O  O72  1  0.017400  0.250300  0.847400  1.0  -0.7
  O  O73  1  0.039000  0.450700  0.733400  1.0  -0.9066
  O  O74  1  0.853400  0.475200  0.855600  1.0  -0.8603
  O  O75  1  0.815200  0.756800  0.034400  1.0  -0.6551
  O  O76  1  0.708600  0.530900  0.028100  1.0  -0.6593
  O  O77  1  0.238100  0.684700  0.222100  1.0  -0.5998
  O  O78  1  0.096000  0.812500  0.129300  1.0  -0.7045
  O  O79  1  0.482600  0.750300  0.152600  1.0  -0.6989
  O  O80  1  0.461000  0.950700  0.266600  1.0  -0.9068
  O  O81  1  0.646600  0.975200  0.144400  1.0  -0.8599
  O  O82  1  0.184800  0.743200  0.534400  1.0  -0.6552
  O  O83  1  0.291400  0.969100  0.528100  1.0  -0.659
  O  O84  1  0.761900  0.815300  0.722100  1.0  -0.6001
  O  O85  1  0.904000  0.687500  0.629300  1.0  -0.7041
  O  O86  1  0.517400  0.749700  0.652600  1.0  -0.6988
  O  O87  1  0.539000  0.549300  0.766600  1.0  -0.9068
  O  O88  1  0.353400  0.524800  0.644400  1.0  -0.8602
