# generated using pymatgen
data_ErPH7C5NO7
_symmetry_space_group_name_H-M   'P 1'
_cell_length_a   9.00850000
_cell_length_b   9.00850000
_cell_length_c   15.79900000
_cell_angle_alpha   90.00000000
_cell_angle_beta   90.00000000
_cell_angle_gamma   90.00000000
_symmetry_Int_Tables_number   1
_chemical_formula_structural   ErPH7C5NO7
_chemical_formula_sum   'Er4 P4 H28 C20 N4 O28'
_cell_volume   1282.13738848
_cell_formula_units_Z   4
loop_
 _symmetry_equiv_pos_site_id
 _symmetry_equiv_pos_as_xyz
  1  'x, y, z'
loop_
 _atom_site_type_symbol
 _atom_site_label
 _atom_site_symmetry_multiplicity
 _atom_site_fract_x
 _atom_site_fract_y
 _atom_site_fract_z
 _atom_site_occupancy
 _atom_site_charge
  Er  Er1  1  0.032120  0.389410  0.395680  1.0  1.5247
  Er  Er2  1  0.467880  0.610590  0.895680  1.0  1.5249
  Er  Er3  1  0.967880  0.889410  0.104320  1.0  1.5246
  Er  Er4  1  0.532120  0.110590  0.604320  1.0  1.5247
  P  P5  1  0.126670  0.066730  0.294040  1.0  1.5017
  P  P6  1  0.373330  0.933270  0.794040  1.0  1.5035
  P  P7  1  0.873330  0.566730  0.205960  1.0  1.5029
  P  P8  1  0.626670  0.433270  0.705960  1.0  1.5023
  H  H9  1  0.142900  0.250300  0.189700  1.0  0.192
  H  H10  1  0.299400  0.176800  0.203000  1.0  0.1695
  H  H11  1  0.440600  0.220200  0.313400  1.0  0.1297
  H  H12  1  0.460200  0.388800  0.334400  1.0  0.1483
  H  H13  1  0.377700  0.480200  0.217200  1.0  0.119
  H  H14  1  0.207000  0.487400  0.197000  1.0  0.147
  H  H15  1  0.269100  0.903900  0.323000  1.0  0.4159
  H  H16  1  0.357100  0.749700  0.689700  1.0  0.1912
  H  H17  1  0.200600  0.823200  0.703000  1.0  0.1686
  H  H18  1  0.059400  0.779800  0.813400  1.0  0.1305
  H  H19  1  0.039800  0.611200  0.834400  1.0  0.1496
  H  H20  1  0.122300  0.519800  0.717200  1.0  0.1196
  H  H21  1  0.293000  0.512600  0.697000  1.0  0.1482
  H  H22  1  0.230900  0.096100  0.823000  1.0  0.414
  H  H23  1  0.857100  0.750300  0.310300  1.0  0.1911
  H  H24  1  0.700600  0.676800  0.297000  1.0  0.1692
  H  H25  1  0.559400  0.720200  0.186600  1.0  0.1306
  H  H26  1  0.539800  0.888800  0.165600  1.0  0.1495
  H  H27  1  0.622300  0.980200  0.282800  1.0  0.1159
  H  H28  1  0.793000  0.987400  0.303000  1.0  0.1508
  H  H29  1  0.730900  0.403900  0.177000  1.0  0.416
  H  H30  1  0.642900  0.249700  0.810300  1.0  0.1906
  H  H31  1  0.799400  0.323200  0.797000  1.0  0.1697
  H  H32  1  0.940600  0.279800  0.686600  1.0  0.1298
  H  H33  1  0.960200  0.111200  0.665600  1.0  0.1488
  H  H34  1  0.877700  0.019800  0.782800  1.0  0.1168
  H  H35  1  0.707000  0.012600  0.803000  1.0  0.1507
  H  H36  1  0.769100  0.596100  0.677000  1.0  0.4166
  C  C37  1  0.212400  0.214700  0.232000  1.0  -0.4887
  C  C38  1  0.392500  0.305400  0.339100  1.0  -0.2578
  C  C39  1  0.368000  0.273000  0.431200  1.0  0.7356
  C  C40  1  0.279400  0.480000  0.242200  1.0  -0.2293
  C  C41  1  0.263100  0.613000  0.302400  1.0  0.6734
  C  C42  1  0.287600  0.785300  0.732000  1.0  -0.49
  C  C43  1  0.107500  0.694600  0.839100  1.0  -0.2579
  C  C44  1  0.132000  0.727000  0.931200  1.0  0.736
  C  C45  1  0.220600  0.520000  0.742200  1.0  -0.2331
  C  C46  1  0.236900  0.387000  0.802400  1.0  0.673
  C  C47  1  0.787600  0.714700  0.268000  1.0  -0.4908
  C  C48  1  0.607500  0.805400  0.160900  1.0  -0.2567
  C  C49  1  0.632000  0.773000  0.068800  1.0  0.736
  C  C50  1  0.720600  0.980000  0.257800  1.0  -0.2381
  C  C51  1  0.736900  0.113000  0.197600  1.0  0.6738
  C  C52  1  0.712400  0.285300  0.768000  1.0  -0.4905
  C  C53  1  0.892500  0.194600  0.660900  1.0  -0.2575
  C  C54  1  0.868000  0.227000  0.568800  1.0  0.7346
  C  C55  1  0.779400  0.020000  0.757800  1.0  -0.2371
  C  C56  1  0.763100  0.887000  0.697600  1.0  0.6727
  N  N57  1  0.256200  0.340100  0.289800  1.0  0.0003
  N  N58  1  0.243800  0.659900  0.789800  1.0  0.002
  N  N59  1  0.743800  0.840100  0.210200  1.0  0.0022
  N  N60  1  0.756200  0.159900  0.710200  1.0  0.0009
  O  O61  1  0.245000  0.313600  0.465300  1.0  -0.6102
  O  O62  1  0.469200  0.207500  0.471100  1.0  -0.5855
  O  O63  1  0.316100  0.737400  0.276200  1.0  -0.5062
  O  O64  1  0.189300  0.596600  0.370100  1.0  -0.63
  O  O65  1  0.248800  0.982500  0.346500  1.0  -0.6936
  O  O66  1  0.050700  0.962800  0.233300  1.0  -0.8988
  O  O67  1  0.025700  0.143700  0.355400  1.0  -0.8572
  O  O68  1  0.255000  0.686400  0.965300  1.0  -0.6079
  O  O69  1  0.030800  0.792500  0.971100  1.0  -0.5809
  O  O70  1  0.183900  0.262600  0.776200  1.0  -0.5079
  O  O71  1  0.310700  0.403400  0.870100  1.0  -0.6294
  O  O72  1  0.251200  0.017500  0.846500  1.0  -0.6939
  O  O73  1  0.449300  0.037200  0.733300  1.0  -0.8991
  O  O74  1  0.474300  0.856300  0.855400  1.0  -0.8575
  O  O75  1  0.755000  0.813600  0.034700  1.0  -0.6073
  O  O76  1  0.530800  0.707500  0.028900  1.0  -0.5818
  O  O77  1  0.683900  0.237400  0.223800  1.0  -0.5075
  O  O78  1  0.810700  0.096600  0.129900  1.0  -0.6275
  O  O79  1  0.751200  0.482500  0.153500  1.0  -0.6936
  O  O80  1  0.949300  0.462800  0.266700  1.0  -0.9005
  O  O81  1  0.974300  0.643700  0.144600  1.0  -0.8576
  O  O82  1  0.745000  0.186400  0.534700  1.0  -0.6082
  O  O83  1  0.969200  0.292500  0.528900  1.0  -0.5826
  O  O84  1  0.816100  0.762600  0.723800  1.0  -0.5075
  O  O85  1  0.689300  0.903400  0.629900  1.0  -0.6271
  O  O86  1  0.748800  0.517500  0.653500  1.0  -0.6943
  O  O87  1  0.550700  0.537200  0.766700  1.0  -0.8997
  O  O88  1  0.525700  0.356300  0.644600  1.0  -0.8582
