# generated using pymatgen
data_Cu2H34C43(N2O)4
_symmetry_space_group_name_H-M   'P 1'
_cell_length_a   11.23740000
_cell_length_b   11.23740000
_cell_length_c   37.09600000
_cell_angle_alpha   90.00000000
_cell_angle_beta   90.00000000
_cell_angle_gamma   90.00000000
_symmetry_Int_Tables_number   1
_chemical_formula_structural   Cu2H34C43(N2O)4
_chemical_formula_sum   'Cu8 H136 C172 N32 O16'
_cell_volume   4684.45167336
_cell_formula_units_Z   4
loop_
 _symmetry_equiv_pos_site_id
 _symmetry_equiv_pos_as_xyz
  1  'x, y, z'
loop_
 _atom_site_type_symbol
 _atom_site_label
 _atom_site_symmetry_multiplicity
 _atom_site_fract_x
 _atom_site_fract_y
 _atom_site_fract_z
 _atom_site_occupancy
 _atom_site_charge
  Cu  Cu1  1  0.696750  0.696990  0.560540  1.0  0.7841
  Cu  Cu2  1  0.303250  0.303010  0.060540  1.0  0.7845
  Cu  Cu3  1  0.303010  0.696750  0.310540  1.0  0.7839
  Cu  Cu4  1  0.696990  0.303250  0.810540  1.0  0.7843
  Cu  Cu5  1  0.494000  0.499830  0.685830  1.0  0.6521
  Cu  Cu6  1  0.506000  0.500170  0.185830  1.0  0.6521
  Cu  Cu7  1  0.500170  0.494000  0.435830  1.0  0.6549
  Cu  Cu8  1  0.499830  0.506000  0.935830  1.0  0.6546
  H  H9  1  0.954400  0.739700  0.578300  1.0  0.0891
  H  H10  1  0.065500  0.793400  0.626100  1.0  0.1028
  H  H11  1  0.775500  0.854500  0.681400  1.0  0.0927
  H  H12  1  0.665500  0.806700  0.632000  1.0  0.0631
  H  H13  1  0.168400  0.837400  0.669200  1.0  0.103
  H  H14  1  0.277100  0.835900  0.718400  1.0  0.0522
  H  H15  1  0.004000  0.883000  0.777600  1.0  0.054
  H  H16  1  0.881300  0.862200  0.729000  1.0  0.11
  H  H17  1  0.751700  0.949500  0.544600  1.0  0.0765
  H  H18  1  0.786700  0.065900  0.495400  1.0  0.1156
  H  H19  1  0.845200  0.771300  0.437800  1.0  0.1221
  H  H20  1  0.804100  0.665100  0.489400  1.0  0.0491
  H  H21  1  0.830100  0.167100  0.452300  1.0  0.1046
  H  H22  1  0.843300  0.277100  0.401000  1.0  0.046
  H  H23  1  0.874900  0.003100  0.343100  1.0  0.046
  H  H24  1  0.858800  0.879600  0.391400  1.0  0.1243
  H  H25  1  0.403100  0.498900  0.559700  1.0  0.17
  H  H26  1  0.502800  0.402900  0.560800  1.0  0.156
  H  H27  1  0.045600  0.260300  0.078300  1.0  0.0892
  H  H28  1  0.934500  0.206600  0.126100  1.0  0.1017
  H  H29  1  0.224500  0.145500  0.181400  1.0  0.093
  H  H30  1  0.334500  0.193300  0.132000  1.0  0.0641
  H  H31  1  0.831600  0.162600  0.169200  1.0  0.1033
  H  H32  1  0.722900  0.164100  0.218400  1.0  0.0521
  H  H33  1  0.996000  0.117000  0.277600  1.0  0.0539
  H  H34  1  0.118700  0.137800  0.229000  1.0  0.1101
  H  H35  1  0.248300  0.050500  0.044600  1.0  0.0767
  H  H36  1  0.213300  0.934100  0.995400  1.0  0.1167
  H  H37  1  0.154800  0.228700  0.937800  1.0  0.122
  H  H38  1  0.195900  0.334900  0.989400  1.0  0.0497
  H  H39  1  0.169900  0.832900  0.952300  1.0  0.1049
  H  H40  1  0.156700  0.722900  0.901000  1.0  0.0473
  H  H41  1  0.125100  0.996900  0.843100  1.0  0.0461
  H  H42  1  0.141200  0.120400  0.891400  1.0  0.1243
  H  H43  1  0.596900  0.501100  0.059700  1.0  0.1691
  H  H44  1  0.497200  0.597100  0.060800  1.0  0.1602
  H  H45  1  0.260300  0.954400  0.328300  1.0  0.0902
  H  H46  1  0.206600  0.065500  0.376100  1.0  0.0994
  H  H47  1  0.145500  0.775500  0.431400  1.0  0.0929
  H  H48  1  0.193300  0.665500  0.382000  1.0  0.061
  H  H49  1  0.162600  0.168400  0.419200  1.0  0.1035
  H  H50  1  0.164100  0.277100  0.468400  1.0  0.0491
  H  H51  1  0.117000  0.004000  0.527600  1.0  0.0541
  H  H52  1  0.137800  0.881300  0.479000  1.0  0.1103
  H  H53  1  0.050500  0.751700  0.294600  1.0  0.0759
  H  H54  1  0.934100  0.786700  0.245400  1.0  0.1157
  H  H55  1  0.228700  0.845200  0.187800  1.0  0.1218
  H  H56  1  0.334900  0.804100  0.239400  1.0  0.0527
  H  H57  1  0.832900  0.830100  0.202300  1.0  0.1042
  H  H58  1  0.722900  0.843300  0.151000  1.0  0.0513
  H  H59  1  0.996900  0.874900  0.093100  1.0  0.047
  H  H60  1  0.120400  0.858800  0.141400  1.0  0.1246
  H  H61  1  0.501100  0.403100  0.309700  1.0  0.1604
  H  H62  1  0.597100  0.502800  0.310800  1.0  0.1655
  H  H63  1  0.739700  0.045600  0.828300  1.0  0.0904
  H  H64  1  0.793400  0.934500  0.876100  1.0  0.1001
  H  H65  1  0.854500  0.224500  0.931400  1.0  0.093
  H  H66  1  0.806700  0.334500  0.882000  1.0  0.0613
  H  H67  1  0.837400  0.831600  0.919200  1.0  0.1032
  H  H68  1  0.835900  0.722900  0.968400  1.0  0.0495
  H  H69  1  0.883000  0.996000  0.027600  1.0  0.0541
  H  H70  1  0.862200  0.118700  0.979000  1.0  0.1099
  H  H71  1  0.949500  0.248300  0.794600  1.0  0.0752
  H  H72  1  0.065900  0.213300  0.745400  1.0  0.115
  H  H73  1  0.771300  0.154800  0.687800  1.0  0.1215
  H  H74  1  0.665100  0.195900  0.739400  1.0  0.0511
  H  H75  1  0.167100  0.169900  0.702300  1.0  0.1042
  H  H76  1  0.277100  0.156700  0.651000  1.0  0.0513
  H  H77  1  0.003100  0.125100  0.593100  1.0  0.0468
  H  H78  1  0.879600  0.141200  0.641400  1.0  0.1255
  H  H79  1  0.498900  0.596900  0.809700  1.0  0.1647
  H  H80  1  0.402900  0.497200  0.810800  1.0  0.1661
  H  H81  1  0.287800  0.467000  0.634800  1.0  0.08
  H  H82  1  0.083800  0.477100  0.632100  1.0  0.12
  H  H83  1  0.086100  0.530900  0.737400  1.0  0.1117
  H  H84  1  0.287000  0.527100  0.736300  1.0  0.0631
  H  H85  1  0.901800  0.554100  0.736500  1.0  0.1101
  H  H86  1  0.700300  0.556200  0.735200  1.0  0.0653
  H  H87  1  0.700000  0.449100  0.635500  1.0  0.0806
  H  H88  1  0.906500  0.446500  0.635100  1.0  0.1137
  H  H89  1  0.558500  0.290200  0.636300  1.0  0.0912
  H  H90  1  0.554000  0.086500  0.635800  1.0  0.1079
  H  H91  1  0.413300  0.095600  0.734900  1.0  0.1223
  H  H92  1  0.411700  0.298300  0.731300  1.0  0.0587
  H  H93  1  0.414600  0.904000  0.636700  1.0  0.1178
  H  H94  1  0.418300  0.704100  0.639400  1.0  0.0675
  H  H95  1  0.557200  0.710000  0.734800  1.0  0.0613
  H  H96  1  0.553600  0.908300  0.735800  1.0  0.1019
  H  H97  1  0.712200  0.533000  0.134800  1.0  0.0798
  H  H98  1  0.916200  0.522900  0.132100  1.0  0.12
  H  H99  1  0.913900  0.469100  0.237400  1.0  0.1121
  H  H100  1  0.713000  0.472900  0.236300  1.0  0.063
  H  H101  1  0.098200  0.445900  0.236500  1.0  0.1111
  H  H102  1  0.299700  0.443800  0.235200  1.0  0.0663
  H  H103  1  0.300000  0.550900  0.135500  1.0  0.0809
  H  H104  1  0.093500  0.553500  0.135100  1.0  0.1134
  H  H105  1  0.441500  0.709800  0.136300  1.0  0.0916
  H  H106  1  0.446000  0.913500  0.135800  1.0  0.1079
  H  H107  1  0.586700  0.904400  0.234900  1.0  0.1216
  H  H108  1  0.588300  0.701700  0.231300  1.0  0.059
  H  H109  1  0.585400  0.096000  0.136700  1.0  0.1181
  H  H110  1  0.581700  0.295900  0.139400  1.0  0.0674
  H  H111  1  0.442800  0.290000  0.234800  1.0  0.0618
  H  H112  1  0.446400  0.091700  0.235800  1.0  0.1019
  H  H113  1  0.533000  0.287800  0.384800  1.0  0.0795
  H  H114  1  0.522900  0.083800  0.382100  1.0  0.1198
  H  H115  1  0.469100  0.086100  0.487400  1.0  0.1118
  H  H116  1  0.472900  0.287000  0.486300  1.0  0.0631
  H  H117  1  0.445900  0.901800  0.486500  1.0  0.1106
  H  H118  1  0.443800  0.700300  0.485200  1.0  0.0657
  H  H119  1  0.550900  0.700000  0.385500  1.0  0.0807
  H  H120  1  0.553500  0.906500  0.385100  1.0  0.1136
  H  H121  1  0.709800  0.558500  0.386300  1.0  0.0922
  H  H122  1  0.913500  0.554000  0.385800  1.0  0.1079
  H  H123  1  0.904400  0.413300  0.484900  1.0  0.1217
  H  H124  1  0.701700  0.411700  0.481300  1.0  0.0589
  H  H125  1  0.096000  0.414600  0.386700  1.0  0.1177
  H  H126  1  0.295900  0.418300  0.389400  1.0  0.0676
  H  H127  1  0.290000  0.557200  0.484800  1.0  0.0623
  H  H128  1  0.091700  0.553600  0.485800  1.0  0.1021
  H  H129  1  0.467000  0.712200  0.884800  1.0  0.0801
  H  H130  1  0.477100  0.916200  0.882100  1.0  0.1196
  H  H131  1  0.530900  0.913900  0.987400  1.0  0.1116
  H  H132  1  0.527100  0.713000  0.986300  1.0  0.0634
  H  H133  1  0.554100  0.098200  0.986500  1.0  0.1105
  H  H134  1  0.556200  0.299700  0.985200  1.0  0.0655
  H  H135  1  0.449100  0.300000  0.885500  1.0  0.0804
  H  H136  1  0.446500  0.093500  0.885100  1.0  0.1131
  H  H137  1  0.290200  0.441500  0.886300  1.0  0.0917
  H  H138  1  0.086500  0.446000  0.885800  1.0  0.1077
  H  H139  1  0.095600  0.586700  0.984900  1.0  0.122
  H  H140  1  0.298300  0.588300  0.981300  1.0  0.0589
  H  H141  1  0.904000  0.585400  0.886700  1.0  0.118
  H  H142  1  0.704100  0.581700  0.889400  1.0  0.0676
  H  H143  1  0.710000  0.442800  0.984800  1.0  0.0619
  H  H144  1  0.908300  0.446400  0.985800  1.0  0.1016
  C  C145  1  0.916600  0.764400  0.599300  1.0  0.1381
  C  C146  1  0.983000  0.792400  0.628100  1.0  -0.1772
  C  C147  1  0.931300  0.819400  0.660400  1.0  0.005
  C  C148  1  0.814000  0.829100  0.660500  1.0  -0.1783
  C  C149  1  0.748000  0.802200  0.630400  1.0  0.1622
  C  C150  1  0.007100  0.838900  0.693200  1.0  0.0608
  C  C151  1  0.131000  0.840600  0.691600  1.0  -0.2147
  C  C152  1  0.195400  0.846000  0.720800  1.0  0.1845
  C  C153  1  0.038300  0.870500  0.755100  1.0  0.1685
  C  C154  1  0.963200  0.857700  0.725800  1.0  -0.2011
  C  C155  1  0.769900  0.913100  0.522700  1.0  0.1509
  C  C156  1  0.791700  0.983600  0.493200  1.0  -0.1882
  C  C157  1  0.820600  0.933900  0.460800  1.0  0.0717
  C  C158  1  0.825800  0.810400  0.459100  1.0  -0.2184
  C  C159  1  0.800900  0.747700  0.490600  1.0  0.1903
  C  C160  1  0.838400  0.010300  0.428300  1.0  0.054
  C  C161  1  0.838100  0.129100  0.430200  1.0  -0.203
  C  C162  1  0.849800  0.194900  0.398900  1.0  0.1871
  C  C163  1  0.867300  0.037800  0.365800  1.0  0.1859
  C  C164  1  0.855400  0.961600  0.394600  1.0  -0.2381
  C  C165  1  0.536600  0.533300  0.525000  1.0  0.6889
  C  C166  1  0.488700  0.488000  0.560400  1.0  -0.5019
  C  C167  1  0.530300  0.535700  0.595600  1.0  0.704
  C  C168  1  0.083400  0.235600  0.099300  1.0  0.1382
  C  C169  1  0.017000  0.207600  0.128100  1.0  -0.1783
  C  C170  1  0.068700  0.180600  0.160400  1.0  0.005
  C  C171  1  0.186000  0.170900  0.160500  1.0  -0.1776
  C  C172  1  0.252000  0.197800  0.130400  1.0  0.1623
  C  C173  1  0.992900  0.161100  0.193200  1.0  0.0611
  C  C174  1  0.869000  0.159400  0.191600  1.0  -0.2154
  C  C175  1  0.804600  0.154000  0.220800  1.0  0.1841
  C  C176  1  0.961700  0.129500  0.255100  1.0  0.1681
  C  C177  1  0.036800  0.142300  0.225800  1.0  -0.1997
  C  C178  1  0.230100  0.086900  0.022700  1.0  0.1525
  C  C179  1  0.208300  0.016400  0.993200  1.0  -0.1865
  C  C180  1  0.179400  0.066100  0.960800  1.0  0.0717
  C  C181  1  0.174200  0.189600  0.959100  1.0  -0.2183
  C  C182  1  0.199100  0.252300  0.990600  1.0  0.1911
  C  C183  1  0.161600  0.989700  0.928300  1.0  0.0542
  C  C184  1  0.161900  0.870900  0.930200  1.0  -0.202
  C  C185  1  0.150200  0.805100  0.898900  1.0  0.1881
  C  C186  1  0.132700  0.962200  0.865800  1.0  0.186
  C  C187  1  0.144600  0.038400  0.894600  1.0  -0.2392
  C  C188  1  0.463400  0.466700  0.025000  1.0  0.6882
  C  C189  1  0.511300  0.512000  0.060400  1.0  -0.5057
  C  C190  1  0.469700  0.464300  0.095600  1.0  0.7044
  C  C191  1  0.235600  0.916600  0.349300  1.0  0.1383
  C  C192  1  0.207600  0.983000  0.378100  1.0  -0.1799
  C  C193  1  0.180600  0.931300  0.410400  1.0  0.0049
  C  C194  1  0.170900  0.814000  0.410500  1.0  -0.1789
  C  C195  1  0.197800  0.748000  0.380400  1.0  0.1634
  C  C196  1  0.161100  0.007100  0.443200  1.0  0.0613
  C  C197  1  0.159400  0.131000  0.441600  1.0  -0.2127
  C  C198  1  0.154000  0.195400  0.470800  1.0  0.1852
  C  C199  1  0.129500  0.038300  0.505100  1.0  0.1664
  C  C200  1  0.142300  0.963200  0.475800  1.0  -0.1993
  C  C201  1  0.086900  0.769900  0.272700  1.0  0.1527
  C  C202  1  0.016400  0.791700  0.243200  1.0  -0.1859
  C  C203  1  0.066100  0.820600  0.210800  1.0  0.0718
  C  C204  1  0.189600  0.825800  0.209100  1.0  -0.2163
  C  C205  1  0.252300  0.800900  0.240600  1.0  0.1886
  C  C206  1  0.989700  0.838400  0.178300  1.0  0.0539
  C  C207  1  0.870900  0.838100  0.180200  1.0  -0.2069
  C  C208  1  0.805100  0.849800  0.148900  1.0  0.1831
  C  C209  1  0.962200  0.867300  0.115800  1.0  0.1881
  C  C210  1  0.038400  0.855400  0.144600  1.0  -0.238
  C  C211  1  0.466700  0.536600  0.275000  1.0  0.6881
  C  C212  1  0.512000  0.488700  0.310400  1.0  -0.5054
  C  C213  1  0.464300  0.530300  0.345600  1.0  0.7055
  C  C214  1  0.764400  0.083400  0.849300  1.0  0.1379
  C  C215  1  0.792400  0.017000  0.878100  1.0  -0.1782
  C  C216  1  0.819400  0.068700  0.910400  1.0  0.0043
  C  C217  1  0.829100  0.186000  0.910500  1.0  -0.1788
  C  C218  1  0.802200  0.252000  0.880400  1.0  0.1635
  C  C219  1  0.838900  0.992900  0.943200  1.0  0.0609
  C  C220  1  0.840600  0.869000  0.941600  1.0  -0.2133
  C  C221  1  0.846000  0.804600  0.970800  1.0  0.1858
  C  C222  1  0.870500  0.961700  0.005100  1.0  0.1665
  C  C223  1  0.857700  0.036800  0.975800  1.0  -0.2005
  C  C224  1  0.913100  0.230100  0.772700  1.0  0.1522
  C  C225  1  0.983600  0.208300  0.743200  1.0  -0.1866
  C  C226  1  0.933900  0.179400  0.710800  1.0  0.0714
  C  C227  1  0.810400  0.174200  0.709100  1.0  -0.2157
  C  C228  1  0.747700  0.199100  0.740600  1.0  0.1892
  C  C229  1  0.010300  0.161600  0.678300  1.0  0.0546
  C  C230  1  0.129100  0.161900  0.680200  1.0  -0.207
  C  C231  1  0.194900  0.150200  0.648900  1.0  0.1857
  C  C232  1  0.037800  0.132700  0.615800  1.0  0.1865
  C  C233  1  0.961600  0.144600  0.644600  1.0  -0.2389
  C  C234  1  0.533300  0.463400  0.775000  1.0  0.6877
  C  C235  1  0.488000  0.511300  0.810400  1.0  -0.502
  C  C236  1  0.535700  0.469700  0.845600  1.0  0.7052
  C  C237  1  0.245700  0.481800  0.655900  1.0  0.1649
  C  C238  1  0.123000  0.484400  0.654100  1.0  -0.2235
  C  C239  1  0.060500  0.497900  0.685600  1.0  0.0585
  C  C240  1  0.124900  0.516800  0.715700  1.0  -0.235
  C  C241  1  0.246600  0.515500  0.714700  1.0  0.1687
  C  C242  1  0.928200  0.499300  0.686200  1.0  0.0166
  C  C243  1  0.862900  0.531600  0.715400  1.0  -0.199
  C  C244  1  0.740700  0.531700  0.714700  1.0  0.1524
  C  C245  1  0.741000  0.469400  0.656400  1.0  0.1237
  C  C246  1  0.866000  0.468300  0.656000  1.0  -0.1781
  C  C247  1  0.528800  0.250000  0.656200  1.0  0.1059
  C  C248  1  0.527100  0.127800  0.656000  1.0  -0.168
  C  C249  1  0.485400  0.066100  0.685600  1.0  0.1055
  C  C250  1  0.442600  0.133100  0.714400  1.0  -0.2298
  C  C251  1  0.444100  0.255600  0.712200  1.0  0.1693
  C  C252  1  0.485800  0.934900  0.686300  1.0  0.1112
  C  C253  1  0.444100  0.866600  0.657200  1.0  -0.2214
  C  C254  1  0.446800  0.746700  0.659000  1.0  0.1526
  C  C255  1  0.527200  0.749500  0.714700  1.0  0.1609
  C  C256  1  0.526400  0.868900  0.715400  1.0  -0.2417
  C  C257  1  0.754300  0.518200  0.155900  1.0  0.1648
  C  C258  1  0.877000  0.515600  0.154100  1.0  -0.2227
  C  C259  1  0.939500  0.502100  0.185600  1.0  0.0581
  C  C260  1  0.875100  0.483200  0.215700  1.0  -0.2342
  C  C261  1  0.753400  0.484500  0.214700  1.0  0.1685
  C  C262  1  0.071800  0.500700  0.186200  1.0  0.017
  C  C263  1  0.137100  0.468400  0.215400  1.0  -0.1981
  C  C264  1  0.259300  0.468300  0.214700  1.0  0.1516
  C  C265  1  0.259000  0.530600  0.156400  1.0  0.1234
  C  C266  1  0.134000  0.531700  0.156000  1.0  -0.1772
  C  C267  1  0.471200  0.750000  0.156200  1.0  0.105
  C  C268  1  0.472900  0.872200  0.156000  1.0  -0.1675
  C  C269  1  0.514600  0.933900  0.185600  1.0  0.106
  C  C270  1  0.557400  0.866900  0.214400  1.0  -0.2312
  C  C271  1  0.555900  0.744400  0.212200  1.0  0.1689
  C  C272  1  0.514200  0.065100  0.186300  1.0  0.1113
  C  C273  1  0.555900  0.133400  0.157200  1.0  -0.2225
  C  C274  1  0.553200  0.253300  0.159000  1.0  0.1515
  C  C275  1  0.472800  0.250500  0.214700  1.0  0.1606
  C  C276  1  0.473600  0.131100  0.215400  1.0  -0.2412
  C  C277  1  0.518200  0.245700  0.405900  1.0  0.1656
  C  C278  1  0.515600  0.123000  0.404100  1.0  -0.2212
  C  C279  1  0.502100  0.060500  0.435600  1.0  0.0578
  C  C280  1  0.483200  0.124900  0.465700  1.0  -0.2342
  C  C281  1  0.484500  0.246600  0.464700  1.0  0.1694
  C  C282  1  0.500700  0.928200  0.436200  1.0  0.0189
  C  C283  1  0.468400  0.862900  0.465400  1.0  -0.198
  C  C284  1  0.468300  0.740700  0.464700  1.0  0.1523
  C  C285  1  0.530600  0.741000  0.406400  1.0  0.1235
  C  C286  1  0.531700  0.866000  0.406000  1.0  -0.1785
  C  C287  1  0.750000  0.528800  0.406200  1.0  0.1033
  C  C288  1  0.872200  0.527100  0.406000  1.0  -0.1693
  C  C289  1  0.933900  0.485400  0.435600  1.0  0.1056
  C  C290  1  0.866900  0.442600  0.464400  1.0  -0.2296
  C  C291  1  0.744400  0.444100  0.462200  1.0  0.1691
  C  C292  1  0.065100  0.485800  0.436300  1.0  0.1096
  C  C293  1  0.133400  0.444100  0.407200  1.0  -0.2211
  C  C294  1  0.253300  0.446800  0.409000  1.0  0.1521
  C  C295  1  0.250500  0.527200  0.464700  1.0  0.1588
  C  C296  1  0.131100  0.526400  0.465400  1.0  -0.2429
  C  C297  1  0.481800  0.754300  0.905900  1.0  0.1649
  C  C298  1  0.484400  0.877000  0.904100  1.0  -0.2211
  C  C299  1  0.497900  0.939500  0.935600  1.0  0.0578
  C  C300  1  0.516800  0.875100  0.965700  1.0  -0.2342
  C  C301  1  0.515500  0.753400  0.964700  1.0  0.1694
  C  C302  1  0.499300  0.071800  0.936200  1.0  0.0184
  C  C303  1  0.531600  0.137100  0.965400  1.0  -0.1984
  C  C304  1  0.531700  0.259300  0.964700  1.0  0.1527
  C  C305  1  0.469400  0.259000  0.906400  1.0  0.1231
  C  C306  1  0.468300  0.134000  0.906000  1.0  -0.1764
  C  C307  1  0.250000  0.471200  0.906200  1.0  0.1042
  C  C308  1  0.127800  0.472900  0.906000  1.0  -0.1687
  C  C309  1  0.066100  0.514600  0.935600  1.0  0.1052
  C  C310  1  0.133100  0.557400  0.964400  1.0  -0.2303
  C  C311  1  0.255600  0.555900  0.962200  1.0  0.169
  C  C312  1  0.934900  0.514200  0.936300  1.0  0.1114
  C  C313  1  0.866600  0.555900  0.907200  1.0  -0.222
  C  C314  1  0.746700  0.553200  0.909000  1.0  0.1516
  C  C315  1  0.749500  0.472800  0.964700  1.0  0.1591
  C  C316  1  0.868900  0.473600  0.965400  1.0  -0.2412
  N  N317  1  0.795300  0.770900  0.599900  1.0  -0.3321
  N  N318  1  0.773800  0.794200  0.521300  1.0  -0.3255
  N  N319  1  0.153100  0.866300  0.753300  1.0  -0.4255
  N  N320  1  0.869000  0.152200  0.367000  1.0  -0.3699
  N  N321  1  0.204700  0.229100  0.099900  1.0  -0.331
  N  N322  1  0.226200  0.205800  0.021300  1.0  -0.3257
  N  N323  1  0.846900  0.133700  0.253300  1.0  -0.4249
  N  N324  1  0.131000  0.847800  0.867000  1.0  -0.3707
  N  N325  1  0.229100  0.795300  0.349900  1.0  -0.3329
  N  N326  1  0.205800  0.773800  0.271300  1.0  -0.3234
  N  N327  1  0.133700  0.153100  0.503300  1.0  -0.4243
  N  N328  1  0.847800  0.869000  0.117000  1.0  -0.3672
  N  N329  1  0.770900  0.204700  0.849900  1.0  -0.333
  N  N330  1  0.794200  0.226200  0.771300  1.0  -0.3234
  N  N331  1  0.866300  0.846900  0.003300  1.0  -0.4249
  N  N332  1  0.152200  0.131000  0.617000  1.0  -0.3726
  N  N333  1  0.308100  0.499700  0.686600  1.0  -0.3164
  N  N334  1  0.487500  0.315400  0.685340  1.0  -0.3237
  N  N335  1  0.677900  0.499300  0.686600  1.0  -0.3389
  N  N336  1  0.488500  0.684400  0.687700  1.0  -0.3284
  N  N337  1  0.691900  0.500300  0.186600  1.0  -0.3174
  N  N338  1  0.512500  0.684600  0.185340  1.0  -0.3248
  N  N339  1  0.322100  0.500700  0.186600  1.0  -0.3374
  N  N340  1  0.511500  0.315600  0.187700  1.0  -0.3276
  N  N341  1  0.500300  0.308100  0.436600  1.0  -0.317
  N  N342  1  0.684600  0.487500  0.435340  1.0  -0.3263
  N  N343  1  0.500700  0.677900  0.436600  1.0  -0.3395
  N  N344  1  0.315600  0.488500  0.437700  1.0  -0.3287
  N  N345  1  0.499700  0.691900  0.936600  1.0  -0.3166
  N  N346  1  0.315400  0.512500  0.935340  1.0  -0.327
  N  N347  1  0.499300  0.322100  0.936600  1.0  -0.3395
  N  N348  1  0.684400  0.511500  0.937700  1.0  -0.3276
  O  O349  1  0.609100  0.617800  0.597420  1.0  -0.6085
  O  O350  1  0.617200  0.609100  0.523140  1.0  -0.5976
  O  O351  1  0.486500  0.490800  0.622600  1.0  -0.6215
  O  O352  1  0.491900  0.487600  0.497500  1.0  -0.6286
  O  O353  1  0.390900  0.382200  0.097420  1.0  -0.6074
  O  O354  1  0.382800  0.390900  0.023140  1.0  -0.5975
  O  O355  1  0.513500  0.509200  0.122600  1.0  -0.6212
  O  O356  1  0.508100  0.512400  0.997500  1.0  -0.6285
  O  O357  1  0.382200  0.609100  0.347420  1.0  -0.6074
  O  O358  1  0.390900  0.617200  0.273140  1.0  -0.597
  O  O359  1  0.509200  0.486500  0.372600  1.0  -0.622
  O  O360  1  0.512400  0.491900  0.247500  1.0  -0.6292
  O  O361  1  0.617800  0.390900  0.847420  1.0  -0.6076
  O  O362  1  0.609100  0.382800  0.773140  1.0  -0.5981
  O  O363  1  0.490800  0.513500  0.872600  1.0  -0.6208
  O  O364  1  0.487600  0.508100  0.747500  1.0  -0.6284
