# generated using pymatgen
data_Zn(CO2)3
_symmetry_space_group_name_H-M   'P 1'
_cell_length_a   15.84700000
_cell_length_b   9.68500000
_cell_length_c   18.33300000
_cell_angle_alpha   90.00000000
_cell_angle_beta   115.50000000
_cell_angle_gamma   90.00000000
_symmetry_Int_Tables_number   1
_chemical_formula_structural   Zn(CO2)3
_chemical_formula_sum   'Zn8 C24 O48'
_cell_volume   2539.61842933
_cell_formula_units_Z   8
loop_
 _symmetry_equiv_pos_site_id
 _symmetry_equiv_pos_as_xyz
  1  'x, y, z'
loop_
 _atom_site_type_symbol
 _atom_site_label
 _atom_site_symmetry_multiplicity
 _atom_site_fract_x
 _atom_site_fract_y
 _atom_site_fract_z
 _atom_site_occupancy
 _atom_site_charge
  Zn  Zn1  1  0.418000  0.124900  0.586100  1.0  1.0172
  Zn  Zn2  1  0.918000  0.624900  0.586100  1.0  1.0172
  Zn  Zn3  1  0.582000  0.124900  0.913900  1.0  1.0173
  Zn  Zn4  1  0.082000  0.624900  0.913900  1.0  1.0173
  Zn  Zn5  1  0.582000  0.875100  0.413900  1.0  1.0174
  Zn  Zn6  1  0.082000  0.375100  0.413900  1.0  1.0174
  Zn  Zn7  1  0.418000  0.875100  0.086100  1.0  1.0172
  Zn  Zn8  1  0.918000  0.375100  0.086100  1.0  1.0172
  C  C9  1  0.272700  0.300700  0.480800  1.0  0.5871
  C  C10  1  0.457500  0.950100  0.480700  1.0  0.5912
  C  C11  1  0.772700  0.800700  0.480800  1.0  0.5871
  C  C12  1  0.957500  0.450100  0.480700  1.0  0.5912
  C  C13  1  0.727300  0.300700  0.019200  1.0  0.5851
  C  C14  1  0.542500  0.950100  0.019300  1.0  0.5918
  C  C15  1  0.227300  0.800700  0.019200  1.0  0.5851
  C  C16  1  0.042500  0.450100  0.019300  1.0  0.5918
  C  C17  1  0.727300  0.699300  0.519200  1.0  0.5866
  C  C18  1  0.542500  0.049900  0.519300  1.0  0.5913
  C  C19  1  0.227300  0.199300  0.519200  1.0  0.5866
  C  C20  1  0.042500  0.549900  0.519300  1.0  0.5913
  C  C21  1  0.272700  0.699300  0.980800  1.0  0.5859
  C  C22  1  0.457500  0.049900  0.980700  1.0  0.591
  C  C23  1  0.772700  0.199300  0.980800  1.0  0.5859
  C  C24  1  0.957500  0.549900  0.980700  1.0  0.591
  C  C25  1  0.500000  0.204700  0.750000  1.0  0.5669
  C  C26  1  0.500000  0.044000  0.750000  1.0  0.621
  C  C27  1  0.000000  0.704700  0.750000  1.0  0.5669
  C  C28  1  0.000000  0.544000  0.750000  1.0  0.621
  C  C29  1  0.500000  0.795300  0.250000  1.0  0.5682
  C  C30  1  0.500000  0.956000  0.250000  1.0  0.6204
  C  C31  1  0.000000  0.295300  0.250000  1.0  0.5682
  C  C32  1  0.000000  0.456000  0.250000  1.0  0.6204
  O  O33  1  0.358400  0.284700  0.502400  1.0  -0.4806
  O  O34  1  0.393600  0.965000  0.502500  1.0  -0.4638
  O  O35  1  0.466900  0.262600  0.682700  1.0  -0.4481
  O  O36  1  0.466200  0.986100  0.683500  1.0  -0.4862
  O  O37  1  0.221700  0.385500  0.431200  1.0  -0.4494
  O  O38  1  0.459200  0.864500  0.431300  1.0  -0.4665
  O  O39  1  0.858400  0.784700  0.502400  1.0  -0.4806
  O  O40  1  0.893600  0.465000  0.502500  1.0  -0.4638
  O  O41  1  0.966900  0.762600  0.682700  1.0  -0.4481
  O  O42  1  0.966200  0.486100  0.683500  1.0  -0.4862
  O  O43  1  0.721700  0.885500  0.431200  1.0  -0.4494
  O  O44  1  0.959200  0.364500  0.431300  1.0  -0.4665
  O  O45  1  0.641600  0.284700  0.997600  1.0  -0.4804
  O  O46  1  0.606400  0.965000  0.997500  1.0  -0.4626
  O  O47  1  0.533100  0.262600  0.817300  1.0  -0.4444
  O  O48  1  0.533800  0.986100  0.816500  1.0  -0.4836
  O  O49  1  0.778300  0.385500  0.068800  1.0  -0.4488
  O  O50  1  0.540800  0.864500  0.068700  1.0  -0.4657
  O  O51  1  0.141600  0.784700  0.997600  1.0  -0.4804
  O  O52  1  0.106400  0.465000  0.997500  1.0  -0.4626
  O  O53  1  0.033100  0.762600  0.817300  1.0  -0.4444
  O  O54  1  0.033800  0.486100  0.816500  1.0  -0.4836
  O  O55  1  0.278300  0.885500  0.068800  1.0  -0.4488
  O  O56  1  0.040800  0.364500  0.068700  1.0  -0.4657
  O  O57  1  0.641600  0.715300  0.497600  1.0  -0.4815
  O  O58  1  0.606400  0.035000  0.497500  1.0  -0.4622
  O  O59  1  0.533100  0.737400  0.317300  1.0  -0.4472
  O  O60  1  0.533800  0.013900  0.316500  1.0  -0.4827
  O  O61  1  0.778300  0.614500  0.568800  1.0  -0.4473
  O  O62  1  0.540800  0.135500  0.568700  1.0  -0.4638
  O  O63  1  0.141600  0.215300  0.497600  1.0  -0.4815
  O  O64  1  0.106400  0.535000  0.497500  1.0  -0.4624
  O  O65  1  0.033100  0.237400  0.317300  1.0  -0.4472
  O  O66  1  0.033800  0.513900  0.316500  1.0  -0.4827
  O  O67  1  0.278300  0.114500  0.568800  1.0  -0.4473
  O  O68  1  0.040800  0.635500  0.568700  1.0  -0.4638
  O  O69  1  0.358400  0.715300  0.002400  1.0  -0.4805
  O  O70  1  0.393600  0.035000  0.002500  1.0  -0.464
  O  O71  1  0.466900  0.737400  0.182700  1.0  -0.4491
  O  O72  1  0.466200  0.013900  0.183500  1.0  -0.4827
  O  O73  1  0.221700  0.614500  0.931200  1.0  -0.4472
  O  O74  1  0.459200  0.135500  0.931300  1.0  -0.4667
  O  O75  1  0.858400  0.215300  0.002400  1.0  -0.4805
  O  O76  1  0.893600  0.535000  0.002500  1.0  -0.4642
  O  O77  1  0.966900  0.237400  0.182700  1.0  -0.4491
  O  O78  1  0.966200  0.513900  0.183500  1.0  -0.4834
  O  O79  1  0.721700  0.114500  0.931200  1.0  -0.4472
  O  O80  1  0.959200  0.635500  0.931300  1.0  -0.4667
