# generated using pymatgen
data_Zn3P4(HO3)4
_symmetry_space_group_name_H-M   'P 1'
_cell_length_a   9.58520000
_cell_length_b   20.39410000
_cell_length_c   10.53390000
_cell_angle_alpha   90.00000000
_cell_angle_beta   94.12500000
_cell_angle_gamma   90.00000000
_symmetry_Int_Tables_number   1
_chemical_formula_structural   Zn3P4(HO3)4
_chemical_formula_sum   'Zn12 P16 H16 O48'
_cell_volume   2053.84852960
_cell_formula_units_Z   4
loop_
 _symmetry_equiv_pos_site_id
 _symmetry_equiv_pos_as_xyz
  1  'x, y, z'
loop_
 _atom_site_type_symbol
 _atom_site_label
 _atom_site_symmetry_multiplicity
 _atom_site_fract_x
 _atom_site_fract_y
 _atom_site_fract_z
 _atom_site_occupancy
 _atom_site_charge
  Zn  Zn1  1  0.181660  0.303710  0.363520  1.0  1.14
  Zn  Zn2  1  0.309300  0.551210  0.404000  1.0  1.1365
  Zn  Zn3  1  0.036630  0.566140  0.866040  1.0  1.1184
  Zn  Zn4  1  0.818340  0.803710  0.136480  1.0  1.1406
  Zn  Zn5  1  0.690700  0.051210  0.096000  1.0  1.1359
  Zn  Zn6  1  0.963370  0.066140  0.633960  1.0  1.1191
  Zn  Zn7  1  0.818340  0.696290  0.636480  1.0  1.1405
  Zn  Zn8  1  0.690700  0.448790  0.596000  1.0  1.1356
  Zn  Zn9  1  0.963370  0.433860  0.133960  1.0  1.1191
  Zn  Zn10  1  0.181660  0.196290  0.863520  1.0  1.1397
  Zn  Zn11  1  0.309300  0.948790  0.904000  1.0  1.1362
  Zn  Zn12  1  0.036630  0.933860  0.366040  1.0  1.1184
  P  P13  1  0.098790  0.201430  0.570760  1.0  1.5179
  P  P14  1  0.435840  0.407270  0.423160  1.0  1.5699
  P  P15  1  0.162090  0.558190  0.140320  1.0  1.519
  P  P16  1  0.110130  0.620360  0.593320  1.0  1.527
  P  P17  1  0.901210  0.701430  0.929240  1.0  1.525
  P  P18  1  0.564160  0.907270  0.076840  1.0  1.5685
  P  P19  1  0.837910  0.058190  0.359680  1.0  1.5177
  P  P20  1  0.889870  0.120360  0.906680  1.0  1.5278
  P  P21  1  0.901210  0.798570  0.429240  1.0  1.5238
  P  P22  1  0.564160  0.592730  0.576840  1.0  1.5676
  P  P23  1  0.837910  0.441810  0.859680  1.0  1.5183
  P  P24  1  0.889870  0.379640  0.406680  1.0  1.532
  P  P25  1  0.098790  0.298570  0.070760  1.0  1.5172
  P  P26  1  0.435840  0.092730  0.923160  1.0  1.5683
  P  P27  1  0.162090  0.941810  0.640320  1.0  1.5195
  P  P28  1  0.110130  0.879640  0.093320  1.0  1.5302
  H  H29  1  0.975000  0.219000  0.529000  1.0  -0.0913
  H  H30  1  0.502000  0.431000  0.333000  1.0  -0.0713
  H  H31  1  0.119000  0.625000  0.148400  1.0  -0.0979
  H  H32  1  0.187000  0.670000  0.582600  1.0  -0.0681
  H  H33  1  0.025000  0.719000  0.971000  1.0  -0.0905
  H  H34  1  0.498000  0.931000  0.167000  1.0  -0.0756
  H  H35  1  0.881000  0.125000  0.351600  1.0  -0.099
  H  H36  1  0.813000  0.170000  0.917400  1.0  -0.0697
  H  H37  1  0.025000  0.781000  0.471000  1.0  -0.0909
  H  H38  1  0.498000  0.569000  0.667000  1.0  -0.0778
  H  H39  1  0.881000  0.375000  0.851600  1.0  -0.0952
  H  H40  1  0.813000  0.330000  0.417400  1.0  -0.0692
  H  H41  1  0.975000  0.281000  0.029000  1.0  -0.0919
  H  H42  1  0.502000  0.069000  0.833000  1.0  -0.074
  H  H43  1  0.119000  0.875000  0.648400  1.0  -0.0959
  H  H44  1  0.187000  0.830000  0.082600  1.0  -0.0692
  O  O45  1  0.100000  0.127050  0.576200  1.0  -0.7726
  O  O46  1  0.128300  0.233410  0.698700  1.0  -0.7835
  O  O47  1  0.199000  0.224140  0.474000  1.0  -0.7236
  O  O48  1  0.359500  0.347450  0.370000  1.0  -0.7788
  O  O49  1  0.545000  0.389410  0.528700  1.0  -0.7347
  O  O50  1  0.340200  0.461330  0.465200  1.0  -0.7229
  O  O51  1  0.299900  0.552550  0.220000  1.0  -0.7388
  O  O52  1  0.046800  0.516860  0.192700  1.0  -0.7808
  O  O53  1  0.180300  0.544700  0.000500  1.0  -0.7357
  O  O54  1  0.144400  0.591990  0.724100  1.0  -0.7811
  O  O55  1  0.141500  0.573190  0.488800  1.0  -0.7818
  O  O56  1  0.960400  0.642290  0.568500  1.0  -0.8671
  O  O57  1  0.900000  0.627050  0.923800  1.0  -0.7744
  O  O58  1  0.871700  0.733410  0.801300  1.0  -0.7856
  O  O59  1  0.801000  0.724140  0.026000  1.0  -0.7231
  O  O60  1  0.640500  0.847450  0.130000  1.0  -0.7798
  O  O61  1  0.455000  0.889410  0.971300  1.0  -0.7338
  O  O62  1  0.659800  0.961330  0.034800  1.0  -0.7254
  O  O63  1  0.700100  0.052550  0.280000  1.0  -0.7375
  O  O64  1  0.953200  0.016860  0.307300  1.0  -0.7794
  O  O65  1  0.819700  0.044700  0.499500  1.0  -0.7362
  O  O66  1  0.855600  0.091990  0.775900  1.0  -0.7814
  O  O67  1  0.858500  0.073190  0.011200  1.0  -0.7805
  O  O68  1  0.039600  0.142290  0.931500  1.0  -0.8673
  O  O69  1  0.900000  0.872950  0.423800  1.0  -0.7732
  O  O70  1  0.871700  0.766590  0.301300  1.0  -0.7858
  O  O71  1  0.801000  0.775860  0.526000  1.0  -0.7232
  O  O72  1  0.640500  0.652550  0.630000  1.0  -0.7784
  O  O73  1  0.455000  0.610590  0.471300  1.0  -0.7337
  O  O74  1  0.659800  0.538670  0.534800  1.0  -0.7256
  O  O75  1  0.700100  0.447450  0.780000  1.0  -0.7372
  O  O76  1  0.953200  0.483140  0.807300  1.0  -0.78
  O  O77  1  0.819700  0.455300  0.999500  1.0  -0.7364
  O  O78  1  0.855600  0.408010  0.275900  1.0  -0.7805
  O  O79  1  0.858500  0.426810  0.511200  1.0  -0.7798
  O  O80  1  0.039600  0.357710  0.431500  1.0  -0.8669
  O  O81  1  0.100000  0.372950  0.076200  1.0  -0.7711
  O  O82  1  0.128300  0.266590  0.198700  1.0  -0.7846
  O  O83  1  0.199000  0.275860  0.974000  1.0  -0.7232
  O  O84  1  0.359500  0.152550  0.870000  1.0  -0.7773
  O  O85  1  0.545000  0.110590  0.028700  1.0  -0.7331
  O  O86  1  0.340200  0.038670  0.965200  1.0  -0.7228
  O  O87  1  0.299900  0.947450  0.720000  1.0  -0.7382
  O  O88  1  0.046800  0.983140  0.692700  1.0  -0.7815
  O  O89  1  0.180300  0.955300  0.500500  1.0  -0.7361
  O  O90  1  0.144400  0.908010  0.224100  1.0  -0.7802
  O  O91  1  0.141500  0.926810  0.988800  1.0  -0.7807
  O  O92  1  0.960400  0.857710  0.068500  1.0  -0.867
