# generated using pymatgen
data_CdH20C24N8Cl
_symmetry_space_group_name_H-M   'P 1'
_cell_length_a   16.12840000
_cell_length_b   16.12840000
_cell_length_c   5.21340000
_cell_angle_alpha   90.00000000
_cell_angle_beta   90.00000000
_cell_angle_gamma   90.00000000
_symmetry_Int_Tables_number   1
_chemical_formula_structural   CdH20C24N8Cl
_chemical_formula_sum   'Cd2 H40 C48 N16 Cl2'
_cell_volume   1356.13716895
_cell_formula_units_Z   2
loop_
 _symmetry_equiv_pos_site_id
 _symmetry_equiv_pos_as_xyz
  1  'x, y, z'
loop_
 _atom_site_type_symbol
 _atom_site_label
 _atom_site_symmetry_multiplicity
 _atom_site_fract_x
 _atom_site_fract_y
 _atom_site_fract_z
 _atom_site_occupancy
 _atom_site_charge
  Cd  Cd1  1  0.250000  0.250000  0.918270  1.0  0.82
  Cd  Cd2  1  0.750000  0.750000  0.081730  1.0  0.8202
  H  H3  1  0.285200  0.075500  0.641300  1.0  0.0559
  H  H4  1  0.252700  0.937600  0.642500  1.0  0.1015
  H  H5  1  0.155000  0.888200  0.932400  1.0  0.1035
  H  H6  1  0.130100  0.119100  0.198000  1.0  0.0563
  H  H7  1  0.056600  0.914300  0.290400  1.0  0.052
  H  H8  1  0.214800  0.424500  0.641300  1.0  0.0559
  H  H9  1  0.247300  0.562400  0.642500  1.0  0.1018
  H  H10  1  0.345000  0.611800  0.932400  1.0  0.1033
  H  H11  1  0.369900  0.380900  0.198000  1.0  0.0569
  H  H12  1  0.443400  0.585700  0.290400  1.0  0.052
  H  H13  1  0.424500  0.285200  0.641300  1.0  0.0561
  H  H14  1  0.562400  0.252700  0.642500  1.0  0.1026
  H  H15  1  0.611800  0.155000  0.932400  1.0  0.1041
  H  H16  1  0.380900  0.130100  0.198000  1.0  0.0567
  H  H17  1  0.585700  0.056600  0.290400  1.0  0.0517
  H  H18  1  0.075500  0.214800  0.641300  1.0  0.056
  H  H19  1  0.937600  0.247300  0.642500  1.0  0.1017
  H  H20  1  0.888200  0.345000  0.932400  1.0  0.1049
  H  H21  1  0.119100  0.369900  0.198000  1.0  0.0569
  H  H22  1  0.914300  0.443400  0.290400  1.0  0.0519
  H  H23  1  0.714800  0.924500  0.358700  1.0  0.0562
  H  H24  1  0.747300  0.062400  0.357500  1.0  0.1019
  H  H25  1  0.845000  0.111800  0.067600  1.0  0.1033
  H  H26  1  0.869900  0.880900  0.802000  1.0  0.057
  H  H27  1  0.943400  0.085700  0.709600  1.0  0.0519
  H  H28  1  0.785200  0.575500  0.358700  1.0  0.0561
  H  H29  1  0.752700  0.437600  0.357500  1.0  0.1018
  H  H30  1  0.655000  0.388200  0.067600  1.0  0.1035
  H  H31  1  0.630100  0.619100  0.802000  1.0  0.0569
  H  H32  1  0.556600  0.414300  0.709600  1.0  0.0519
  H  H33  1  0.575500  0.714800  0.358700  1.0  0.0565
  H  H34  1  0.437600  0.747300  0.357500  1.0  0.1024
  H  H35  1  0.388200  0.845000  0.067600  1.0  0.1048
  H  H36  1  0.619100  0.869900  0.802000  1.0  0.0572
  H  H37  1  0.414300  0.943400  0.709600  1.0  0.0517
  H  H38  1  0.924500  0.785200  0.358700  1.0  0.0561
  H  H39  1  0.062400  0.752700  0.357500  1.0  0.1023
  H  H40  1  0.111800  0.655000  0.067600  1.0  0.1041
  H  H41  1  0.880900  0.630100  0.802000  1.0  0.0569
  H  H42  1  0.085700  0.556600  0.709600  1.0  0.0517
  C  C43  1  0.246130  0.056120  0.758100  1.0  0.1521
  C  C44  1  0.226910  0.973530  0.757200  1.0  -0.1908
  C  C45  1  0.168670  0.944190  0.929000  1.0  -0.0312
  C  C46  1  0.131040  0.999120  0.096000  1.0  -0.0911
  C  C47  1  0.154700  0.081820  0.085100  1.0  0.1829
  C  C48  1  0.067970  0.970740  0.278600  1.0  0.153
  C  C49  1  0.253870  0.443880  0.758100  1.0  0.1526
  C  C50  1  0.273090  0.526470  0.757200  1.0  -0.1902
  C  C51  1  0.331330  0.555810  0.929000  1.0  -0.0297
  C  C52  1  0.368960  0.500880  0.096000  1.0  -0.0911
  C  C53  1  0.345300  0.418180  0.085100  1.0  0.1845
  C  C54  1  0.432030  0.529260  0.278600  1.0  0.1532
  C  C55  1  0.443880  0.246130  0.758100  1.0  0.1516
  C  C56  1  0.526470  0.226910  0.757200  1.0  -0.1914
  C  C57  1  0.555810  0.168670  0.929000  1.0  -0.0252
  C  C58  1  0.500880  0.131040  0.096000  1.0  -0.0929
  C  C59  1  0.418180  0.154700  0.085100  1.0  0.1838
  C  C60  1  0.529260  0.067970  0.278600  1.0  0.1537
  C  C61  1  0.056120  0.253870  0.758100  1.0  0.1521
  C  C62  1  0.973530  0.273090  0.757200  1.0  -0.192
  C  C63  1  0.944190  0.331330  0.929000  1.0  -0.0272
  C  C64  1  0.999120  0.368960  0.096000  1.0  -0.0932
  C  C65  1  0.081820  0.345300  0.085100  1.0  0.185
  C  C66  1  0.970740  0.432030  0.278600  1.0  0.1542
  C  C67  1  0.753870  0.943880  0.241900  1.0  0.153
  C  C68  1  0.773090  0.026470  0.242800  1.0  -0.1908
  C  C69  1  0.831330  0.055810  0.071000  1.0  -0.0297
  C  C70  1  0.868960  0.000880  0.904000  1.0  -0.0909
  C  C71  1  0.845300  0.918180  0.914900  1.0  0.1833
  C  C72  1  0.932030  0.029260  0.721400  1.0  0.1527
  C  C73  1  0.746130  0.556120  0.241900  1.0  0.1521
  C  C74  1  0.726910  0.473530  0.242800  1.0  -0.1908
  C  C75  1  0.668670  0.444190  0.071000  1.0  -0.0306
  C  C76  1  0.631040  0.499120  0.904000  1.0  -0.0909
  C  C77  1  0.654700  0.581820  0.914900  1.0  0.1829
  C  C78  1  0.567970  0.470740  0.721400  1.0  0.1527
  C  C79  1  0.556120  0.753870  0.241900  1.0  0.1524
  C  C80  1  0.473530  0.773090  0.242800  1.0  -0.1921
  C  C81  1  0.444190  0.831330  0.071000  1.0  -0.0265
  C  C82  1  0.499120  0.868960  0.904000  1.0  -0.0933
  C  C83  1  0.581820  0.845300  0.914900  1.0  0.1844
  C  C84  1  0.470740  0.932030  0.721400  1.0  0.1538
  C  C85  1  0.943880  0.746130  0.241900  1.0  0.1517
  C  C86  1  0.026470  0.726910  0.242800  1.0  -0.1919
  C  C87  1  0.055810  0.668670  0.071000  1.0  -0.0248
  C  C88  1  0.000880  0.631040  0.904000  1.0  -0.0926
  C  C89  1  0.918180  0.654700  0.914900  1.0  0.1831
  C  C90  1  0.029260  0.567970  0.721400  1.0  0.153
  N  N91  1  0.211080  0.110170  0.920000  1.0  -0.3775
  N  N92  1  0.028710  0.020370  0.419800  1.0  -0.2668
  N  N93  1  0.288920  0.389830  0.920000  1.0  -0.3783
  N  N94  1  0.471290  0.479630  0.419800  1.0  -0.2649
  N  N95  1  0.389830  0.211080  0.920000  1.0  -0.3758
  N  N96  1  0.479630  0.028710  0.419800  1.0  -0.2664
  N  N97  1  0.110170  0.288920  0.920000  1.0  -0.3739
  N  N98  1  0.020370  0.471290  0.419800  1.0  -0.2667
  N  N99  1  0.788920  0.889830  0.080000  1.0  -0.3783
  N  N100  1  0.971290  0.979630  0.580200  1.0  -0.2649
  N  N101  1  0.711080  0.610170  0.080000  1.0  -0.3771
  N  N102  1  0.528710  0.520370  0.580200  1.0  -0.2663
  N  N103  1  0.610170  0.788920  0.080000  1.0  -0.3736
  N  N104  1  0.520370  0.971290  0.580200  1.0  -0.2665
  N  N105  1  0.889830  0.711080  0.080000  1.0  -0.3756
  N  N106  1  0.979630  0.528710  0.580200  1.0  -0.2664
  Cl  Cl107  1  0.250000  0.250000  0.418770  1.0  -0.445
  Cl  Cl108  1  0.750000  0.750000  0.581230  1.0  -0.4451
