# generated using pymatgen
data_Al2(PO4)3
_symmetry_space_group_name_H-M   'P 1'
_cell_length_a   17.66900000
_cell_length_b   8.53700000
_cell_length_c   10.25200000
_cell_angle_alpha   90.00000000
_cell_angle_beta   103.42000000
_cell_angle_gamma   90.00000000
_symmetry_Int_Tables_number   1
_chemical_formula_structural   Al2(PO4)3
_chemical_formula_sum   'Al8 P12 O48'
_cell_volume   1504.18931397
_cell_formula_units_Z   4
loop_
 _symmetry_equiv_pos_site_id
 _symmetry_equiv_pos_as_xyz
  1  'x, y, z'
loop_
 _atom_site_type_symbol
 _atom_site_label
 _atom_site_symmetry_multiplicity
 _atom_site_fract_x
 _atom_site_fract_y
 _atom_site_fract_z
 _atom_site_occupancy
 _atom_site_charge
  Al  Al1  1  0.329200  0.350600  0.683200  1.0  2.0025
  Al  Al2  1  0.829200  0.850600  0.683200  1.0  2.0025
  Al  Al3  1  0.670800  0.350600  0.816800  1.0  2.0001
  Al  Al4  1  0.170800  0.850600  0.816800  1.0  2.0001
  Al  Al5  1  0.670800  0.649400  0.316800  1.0  1.9994
  Al  Al6  1  0.170800  0.149400  0.316800  1.0  1.9994
  Al  Al7  1  0.329200  0.649400  0.183200  1.0  2.0
  Al  Al8  1  0.829200  0.149400  0.183200  1.0  2.0
  P  P9  1  0.290600  0.602100  0.885200  1.0  1.7933
  P  P10  1  0.790600  0.102100  0.885200  1.0  1.7933
  P  P11  1  0.709400  0.602100  0.614800  1.0  1.7921
  P  P12  1  0.209400  0.102100  0.614800  1.0  1.7921
  P  P13  1  0.709400  0.397900  0.114800  1.0  1.7869
  P  P14  1  0.209400  0.897900  0.114800  1.0  1.7869
  P  P15  1  0.290600  0.397900  0.385200  1.0  1.7868
  P  P16  1  0.790600  0.897900  0.385200  1.0  1.7868
  P  P17  1  0.500000  0.233300  0.750000  1.0  1.7848
  P  P18  1  0.000000  0.733300  0.750000  1.0  1.7844
  P  P19  1  0.500000  0.766700  0.250000  1.0  1.784
  P  P20  1  0.000000  0.266700  0.250000  1.0  1.7836
  O  O21  1  0.301800  0.449500  0.812100  1.0  -0.9484
  O  O22  1  0.206100  0.657600  0.822200  1.0  -0.8207
  O  O23  1  0.429300  0.344000  0.715900  1.0  -0.908
  O  O24  1  0.348600  0.726800  0.881700  1.0  -0.5865
  O  O25  1  0.290500  0.550800  0.031600  1.0  -0.8364
  O  O26  1  0.495100  0.131600  0.868000  1.0  -0.5828
  O  O27  1  0.801800  0.949500  0.812100  1.0  -0.9484
  O  O28  1  0.706100  0.157600  0.822200  1.0  -0.8207
  O  O29  1  0.929300  0.844000  0.715900  1.0  -0.908
  O  O30  1  0.848600  0.226800  0.881700  1.0  -0.5865
  O  O31  1  0.790500  0.050800  0.031600  1.0  -0.8364
  O  O32  1  0.995100  0.631600  0.868000  1.0  -0.5828
  O  O33  1  0.698200  0.449500  0.687900  1.0  -0.9486
  O  O34  1  0.793900  0.657600  0.677800  1.0  -0.823
  O  O35  1  0.570700  0.344000  0.784100  1.0  -0.9092
  O  O36  1  0.651400  0.726800  0.618300  1.0  -0.5882
  O  O37  1  0.709500  0.550800  0.468400  1.0  -0.8352
  O  O38  1  0.504900  0.131600  0.632000  1.0  -0.58
  O  O39  1  0.198200  0.949500  0.687900  1.0  -0.9486
  O  O40  1  0.293900  0.157600  0.677800  1.0  -0.823
  O  O41  1  0.070700  0.844000  0.784100  1.0  -0.909
  O  O42  1  0.151400  0.226800  0.618300  1.0  -0.5882
  O  O43  1  0.209500  0.050800  0.468400  1.0  -0.8352
  O  O44  1  0.004900  0.631600  0.632000  1.0  -0.58
  O  O45  1  0.698200  0.550500  0.187900  1.0  -0.9505
  O  O46  1  0.793900  0.342400  0.177800  1.0  -0.8224
  O  O47  1  0.570700  0.656000  0.284100  1.0  -0.9082
  O  O48  1  0.651400  0.273200  0.118300  1.0  -0.5879
  O  O49  1  0.709500  0.449200  0.968400  1.0  -0.8348
  O  O50  1  0.504900  0.868400  0.132000  1.0  -0.5796
  O  O51  1  0.198200  0.050500  0.187900  1.0  -0.9505
  O  O52  1  0.293900  0.842400  0.177800  1.0  -0.8224
  O  O53  1  0.070700  0.156000  0.284100  1.0  -0.9078
  O  O54  1  0.151400  0.773200  0.118300  1.0  -0.5879
  O  O55  1  0.209500  0.949200  0.968400  1.0  -0.8348
  O  O56  1  0.004900  0.368400  0.132000  1.0  -0.5796
  O  O57  1  0.301800  0.550500  0.312100  1.0  -0.9496
  O  O58  1  0.206100  0.342400  0.322200  1.0  -0.8202
  O  O59  1  0.429300  0.656000  0.215900  1.0  -0.9068
  O  O60  1  0.348600  0.273200  0.381700  1.0  -0.586
  O  O61  1  0.290500  0.449200  0.531600  1.0  -0.8358
  O  O62  1  0.495100  0.868400  0.368000  1.0  -0.5819
  O  O63  1  0.801800  0.050500  0.312100  1.0  -0.9496
  O  O64  1  0.706100  0.842400  0.322200  1.0  -0.8202
  O  O65  1  0.929300  0.156000  0.215900  1.0  -0.9055
  O  O66  1  0.848600  0.773200  0.381700  1.0  -0.586
  O  O67  1  0.790500  0.949200  0.531600  1.0  -0.8358
  O  O68  1  0.995100  0.368400  0.368000  1.0  -0.5819
