# generated using pymatgen
data_Cd5H18C42(NO5)4
_symmetry_space_group_name_H-M   'P 1'
_cell_length_a   13.63280000
_cell_length_b   14.40830000
_cell_length_c   25.84600000
_cell_angle_alpha   90.00000000
_cell_angle_beta   90.00000000
_cell_angle_gamma   109.81900000
_symmetry_Int_Tables_number   1
_chemical_formula_structural   Cd5H18C42(NO5)4
_chemical_formula_sum   'Cd20 H72 C168 N16 O80'
_cell_volume   4776.10494952
_cell_formula_units_Z   4
loop_
 _symmetry_equiv_pos_site_id
 _symmetry_equiv_pos_as_xyz
  1  'x, y, z'
loop_
 _atom_site_type_symbol
 _atom_site_label
 _atom_site_symmetry_multiplicity
 _atom_site_fract_x
 _atom_site_fract_y
 _atom_site_fract_z
 _atom_site_occupancy
 _atom_site_charge
  Cd  Cd1  1  0.634870  0.144350  0.928260  1.0  0.9854
  Cd  Cd2  1  0.631410  0.853790  0.003580  1.0  1.2055
  Cd  Cd3  1  0.734840  0.753130  0.900810  1.0  1.1388
  Cd  Cd4  1  0.757690  0.760130  0.099730  1.0  1.1376
  Cd  Cd5  1  0.357330  0.351910  0.248650  1.0  1.0079
  Cd  Cd6  1  0.865130  0.355650  0.428260  1.0  0.9884
  Cd  Cd7  1  0.868590  0.646210  0.503580  1.0  1.2104
  Cd  Cd8  1  0.765160  0.746870  0.400810  1.0  1.1383
  Cd  Cd9  1  0.742310  0.739870  0.599730  1.0  1.1375
  Cd  Cd10  1  0.142670  0.148090  0.748650  1.0  1.0072
  Cd  Cd11  1  0.365130  0.855650  0.071740  1.0  0.9825
  Cd  Cd12  1  0.368590  0.146210  0.996420  1.0  1.2106
  Cd  Cd13  1  0.265160  0.246870  0.099190  1.0  1.1374
  Cd  Cd14  1  0.242310  0.239870  0.900270  1.0  1.1392
  Cd  Cd15  1  0.642670  0.648090  0.751350  1.0  1.0072
  Cd  Cd16  1  0.134870  0.644350  0.571740  1.0  0.9784
  Cd  Cd17  1  0.131410  0.353790  0.496420  1.0  1.2056
  Cd  Cd18  1  0.234840  0.253130  0.599190  1.0  1.138
  Cd  Cd19  1  0.257690  0.260130  0.400270  1.0  1.1394
  Cd  Cd20  1  0.857330  0.851910  0.251350  1.0  1.0083
  H  H21  1  0.949800  0.137300  0.982100  1.0  0.105
  H  H22  1  0.660000  0.471600  0.978200  1.0  0.0968
  H  H23  1  0.733700  0.537300  0.899300  1.0  0.0773
  H  H24  1  0.833300  0.437700  0.907600  1.0  0.1363
  H  H25  1  0.146200  0.551700  0.845300  1.0  0.1429
  H  H26  1  0.234600  0.442900  0.847300  1.0  0.0863
  H  H27  1  0.053700  0.288800  0.954800  1.0  0.0811
  H  H28  1  0.954100  0.386800  0.952100  1.0  0.1337
  H  H29  1  0.085500  0.674300  0.880500  1.0  0.1369
  H  H30  1  0.980200  0.768300  0.875000  1.0  0.0838
  H  H31  1  0.862600  0.063500  0.284000  1.0  0.0898
  H  H32  1  0.761800  0.161100  0.289800  1.0  0.1297
  H  H33  1  0.467400  0.051800  0.207300  1.0  0.1376
  H  H34  1  0.370500  0.154500  0.205400  1.0  0.0851
  H  H35  1  0.527000  0.308600  0.321200  1.0  0.0919
  H  H36  1  0.627400  0.210000  0.325800  1.0  0.1249
  H  H37  1  0.514700  0.930700  0.247700  1.0  0.1354
  H  H38  1  0.621000  0.837000  0.245500  1.0  0.0856
  H  H39  1  0.550200  0.362700  0.482100  1.0  0.1048
  H  H40  1  0.840000  0.028400  0.478200  1.0  0.097
  H  H41  1  0.766300  0.962700  0.399300  1.0  0.0775
  H  H42  1  0.666667  0.062300  0.407600  1.0  0.1361
  H  H43  1  0.353800  0.948300  0.345300  1.0  0.1427
  H  H44  1  0.265400  0.057100  0.347300  1.0  0.086
  H  H45  1  0.446300  0.211200  0.454800  1.0  0.0814
  H  H46  1  0.545900  0.113200  0.452100  1.0  0.1337
  H  H47  1  0.414500  0.825700  0.380500  1.0  0.1367
  H  H48  1  0.519800  0.731700  0.375000  1.0  0.0838
  H  H49  1  0.637400  0.436500  0.784000  1.0  0.0892
  H  H50  1  0.738200  0.338900  0.789800  1.0  0.1299
  H  H51  1  0.032600  0.448200  0.707300  1.0  0.1381
  H  H52  1  0.129500  0.345500  0.705400  1.0  0.085
  H  H53  1  0.973000  0.191400  0.821200  1.0  0.0922
  H  H54  1  0.872600  0.290000  0.825800  1.0  0.125
  H  H55  1  0.985300  0.569300  0.747700  1.0  0.1356
  H  H56  1  0.879000  0.663000  0.745500  1.0  0.0865
  H  H57  1  0.050200  0.862700  0.017900  1.0  0.1049
  H  H58  1  0.340000  0.528400  0.021800  1.0  0.097
  H  H59  1  0.266300  0.462700  0.100700  1.0  0.0775
  H  H60  1  0.166700  0.562300  0.092400  1.0  0.1361
  H  H61  1  0.853800  0.448300  0.154700  1.0  0.143
  H  H62  1  0.765400  0.557100  0.152700  1.0  0.0859
  H  H63  1  0.946300  0.711200  0.045200  1.0  0.0817
  H  H64  1  0.045900  0.613200  0.047900  1.0  0.1332
  H  H65  1  0.914500  0.325700  0.119500  1.0  0.1369
  H  H66  1  0.019800  0.231700  0.125000  1.0  0.0836
  H  H67  1  0.137400  0.936500  0.716000  1.0  0.0893
  H  H68  1  0.238200  0.838900  0.710200  1.0  0.1303
  H  H69  1  0.532600  0.948200  0.792700  1.0  0.1381
  H  H70  1  0.629500  0.845500  0.794600  1.0  0.0845
  H  H71  1  0.473000  0.691400  0.678800  1.0  0.0919
  H  H72  1  0.372600  0.790000  0.674200  1.0  0.1251
  H  H73  1  0.485300  0.069300  0.752300  1.0  0.1357
  H  H74  1  0.379000  0.163000  0.754500  1.0  0.0867
  H  H75  1  0.449800  0.637300  0.517900  1.0  0.1048
  H  H76  1  0.160000  0.971600  0.521800  1.0  0.0969
  H  H77  1  0.233700  0.037300  0.600700  1.0  0.0774
  H  H78  1  0.333333  0.937700  0.592400  1.0  0.1359
  H  H79  1  0.646200  0.051700  0.654700  1.0  0.1429
  H  H80  1  0.734600  0.942900  0.652700  1.0  0.0864
  H  H81  1  0.553700  0.788800  0.545200  1.0  0.0813
  H  H82  1  0.454100  0.886800  0.547900  1.0  0.1331
  H  H83  1  0.585500  0.174300  0.619500  1.0  0.1369
  H  H84  1  0.480200  0.268300  0.625000  1.0  0.0833
  H  H85  1  0.362600  0.563500  0.216000  1.0  0.0897
  H  H86  1  0.261800  0.661100  0.210200  1.0  0.1298
  H  H87  1  0.967400  0.551800  0.292700  1.0  0.1384
  H  H88  1  0.870500  0.654500  0.294600  1.0  0.0848
  H  H89  1  0.027000  0.808600  0.178800  1.0  0.0921
  H  H90  1  0.127400  0.710000  0.174200  1.0  0.1251
  H  H91  1  0.014700  0.430700  0.252300  1.0  0.136
  H  H92  1  0.121000  0.337000  0.254500  1.0  0.086
  C  C93  1  0.029000  0.097200  0.038600  1.0  -0.2082
  C  C94  1  0.018800  0.051700  0.086900  1.0  0.0153
  C  C95  1  0.918100  0.010000  0.108100  1.0  -0.1273
  C  C96  1  0.830400  0.017500  0.082300  1.0  -0.0175
  C  C97  1  0.843500  0.068500  0.035600  1.0  -0.1663
  C  C98  1  0.941700  0.105700  0.014000  1.0  0.0149
  C  C99  1  0.130500  0.133900  0.009200  1.0  0.6807
  C  C100  1  0.109100  0.039000  0.117900  1.0  0.6797
  C  C101  1  0.904700  0.955000  0.158800  1.0  0.6731
  C  C102  1  0.722400  0.971300  0.105700  1.0  0.6639
  C  C103  1  0.756300  0.081000  0.003300  1.0  0.7092
  C  C104  1  0.610200  0.535400  0.037200  1.0  -0.1936
  C  C105  1  0.564600  0.517100  0.086200  1.0  0.013
  C  C106  1  0.526700  0.418700  0.104200  1.0  -0.116
  C  C107  1  0.537800  0.342100  0.075000  1.0  -0.011
  C  C108  1  0.589300  0.361400  0.027700  1.0  -0.1568
  C  C109  1  0.625000  0.458100  0.009700  1.0  0.0307
  C  C110  1  0.641500  0.633300  0.010600  1.0  0.6831
  C  C111  1  0.547200  0.598400  0.119600  1.0  0.6805
  C  C112  1  0.469800  0.398900  0.155500  1.0  0.6789
  C  C113  1  0.495800  0.236600  0.095100  1.0  0.655
  C  C114  1  0.606600  0.285100  0.992100  1.0  0.6899
  C  C115  1  0.805800  0.565700  0.896600  1.0  0.1997
  C  C116  1  0.864600  0.504700  0.900900  1.0  -0.1987
  C  C117  1  0.972200  0.546500  0.894900  1.0  0.0889
  C  C118  1  0.037500  0.480800  0.898300  1.0  0.1109
  C  C119  1  0.124300  0.497300  0.867200  1.0  -0.2035
  C  C120  1  0.177600  0.431700  0.869200  1.0  0.1863
  C  C121  1  0.071400  0.340900  0.931300  1.0  0.2026
  C  C122  1  0.012000  0.400600  0.930600  1.0  -0.2075
  C  C123  1  0.014000  0.645000  0.885100  1.0  -0.1987
  C  C124  1  0.950200  0.701300  0.882100  1.0  0.1857
  C  C125  1  0.791700  0.036300  0.276900  1.0  0.1936
  C  C126  1  0.732000  0.095600  0.279600  1.0  -0.1878
  C  C127  1  0.626800  0.057700  0.266900  1.0  0.1118
  C  C128  1  0.560400  0.121100  0.266300  1.0  0.0918
  C  C129  1  0.481500  0.104100  0.230400  1.0  -0.1747
  C  C130  1  0.423900  0.166500  0.229600  1.0  0.1832
  C  C131  1  0.515800  0.257200  0.297600  1.0  0.179
  C  C132  1  0.575900  0.198100  0.300600  1.0  -0.1932
  C  C133  1  0.585400  0.959300  0.255000  1.0  -0.1885
  C  C134  1  0.649800  0.903500  0.254000  1.0  0.178
  C  C135  1  0.471000  0.402800  0.538600  1.0  -0.2094
  C  C136  1  0.481200  0.448300  0.586900  1.0  0.0141
  C  C137  1  0.581900  0.490000  0.608100  1.0  -0.1267
  C  C138  1  0.669600  0.482500  0.582300  1.0  -0.0181
  C  C139  1  0.656500  0.431500  0.535600  1.0  -0.1654
  C  C140  1  0.558300  0.394300  0.514000  1.0  0.0144
  C  C141  1  0.369500  0.366100  0.509200  1.0  0.6809
  C  C142  1  0.390900  0.461000  0.617900  1.0  0.6788
  C  C143  1  0.595300  0.545000  0.658800  1.0  0.6736
  C  C144  1  0.777600  0.528700  0.605700  1.0  0.6634
  C  C145  1  0.743700  0.419000  0.503300  1.0  0.7089
  C  C146  1  0.889800  0.964600  0.537200  1.0  -0.1946
  C  C147  1  0.935400  0.982900  0.586200  1.0  0.0133
  C  C148  1  0.973300  0.081300  0.604200  1.0  -0.1164
  C  C149  1  0.962200  0.157900  0.575000  1.0  -0.0112
  C  C150  1  0.910700  0.138600  0.527700  1.0  -0.1493
  C  C151  1  0.875000  0.041900  0.509700  1.0  0.032
  C  C152  1  0.858500  0.866700  0.510600  1.0  0.6826
  C  C153  1  0.952800  0.901600  0.619600  1.0  0.6813
  C  C154  1  0.030200  0.101100  0.655500  1.0  0.6785
  C  C155  1  0.004200  0.263400  0.595100  1.0  0.6549
  C  C156  1  0.893400  0.214900  0.492100  1.0  0.6908
  C  C157  1  0.694200  0.934300  0.396600  1.0  0.1992
  C  C158  1  0.635400  0.995300  0.400900  1.0  -0.1975
  C  C159  1  0.527800  0.953500  0.394900  1.0  0.0882
  C  C160  1  0.462500  0.019200  0.398300  1.0  0.1108
  C  C161  1  0.375700  0.002700  0.367200  1.0  -0.2036
  C  C162  1  0.322400  0.068300  0.369200  1.0  0.1862
  C  C163  1  0.428600  0.159100  0.431300  1.0  0.2033
  C  C164  1  0.488000  0.099400  0.430600  1.0  -0.2064
  C  C165  1  0.486000  0.855000  0.385100  1.0  -0.1973
  C  C166  1  0.549800  0.798700  0.382100  1.0  0.1866
  C  C167  1  0.708300  0.463700  0.776900  1.0  0.1927
  C  C168  1  0.768000  0.404400  0.779600  1.0  -0.188
  C  C169  1  0.873200  0.442300  0.766900  1.0  0.1115
  C  C170  1  0.939600  0.378900  0.766300  1.0  0.0929
  C  C171  1  0.018500  0.395900  0.730400  1.0  -0.177
  C  C172  1  0.076100  0.333500  0.729600  1.0  0.1846
  C  C173  1  0.984200  0.242800  0.797600  1.0  0.1798
  C  C174  1  0.924100  0.301900  0.800600  1.0  -0.1915
  C  C175  1  0.914600  0.540700  0.755000  1.0  -0.1882
  C  C176  1  0.850200  0.596500  0.754000  1.0  0.1783
  C  C177  1  0.971000  0.902800  0.961400  1.0  -0.2095
  C  C178  1  0.981200  0.948300  0.913100  1.0  0.0142
  C  C179  1  0.081900  0.990000  0.891900  1.0  -0.1253
  C  C180  1  0.169600  0.982500  0.917700  1.0  -0.0188
  C  C181  1  0.156500  0.931500  0.964400  1.0  -0.1658
  C  C182  1  0.058300  0.894300  0.986000  1.0  0.0138
  C  C183  1  0.869500  0.866100  0.990800  1.0  0.6813
  C  C184  1  0.890900  0.961000  0.882100  1.0  0.6799
  C  C185  1  0.095300  0.045000  0.841200  1.0  0.6728
  C  C186  1  0.277600  0.028700  0.894300  1.0  0.6624
  C  C187  1  0.243700  0.919000  0.996700  1.0  0.7099
  C  C188  1  0.389800  0.464600  0.962800  1.0  -0.1942
  C  C189  1  0.435400  0.482900  0.913800  1.0  0.0119
  C  C190  1  0.473300  0.581300  0.895800  1.0  -0.1116
  C  C191  1  0.462200  0.657900  0.925000  1.0  -0.012
  C  C192  1  0.410700  0.638600  0.972300  1.0  -0.1495
  C  C193  1  0.375000  0.541900  0.990300  1.0  0.0322
  C  C194  1  0.358500  0.366700  0.989400  1.0  0.6832
  C  C195  1  0.452800  0.401600  0.880400  1.0  0.6802
  C  C196  1  0.530200  0.601100  0.844500  1.0  0.6779
  C  C197  1  0.504200  0.763400  0.904900  1.0  0.6554
  C  C198  1  0.393400  0.714900  0.007900  1.0  0.6918
  C  C199  1  0.194200  0.434300  0.103400  1.0  0.1992
  C  C200  1  0.135400  0.495300  0.099100  1.0  -0.1991
  C  C201  1  0.027800  0.453500  0.105100  1.0  0.0879
  C  C202  1  0.962500  0.519200  0.101700  1.0  0.1102
  C  C203  1  0.875700  0.502700  0.132800  1.0  -0.2021
  C  C204  1  0.822400  0.568300  0.130800  1.0  0.1871
  C  C205  1  0.928600  0.659100  0.068700  1.0  0.2028
  C  C206  1  0.988000  0.599400  0.069400  1.0  -0.206
  C  C207  1  0.986000  0.355000  0.114900  1.0  -0.1968
  C  C208  1  0.049800  0.298700  0.117900  1.0  0.1868
  C  C209  1  0.208300  0.963700  0.723100  1.0  0.1926
  C  C210  1  0.268000  0.904400  0.720400  1.0  -0.1883
  C  C211  1  0.373200  0.942300  0.733100  1.0  0.1121
  C  C212  1  0.439600  0.878900  0.733700  1.0  0.0914
  C  C213  1  0.518500  0.895900  0.769600  1.0  -0.1741
  C  C214  1  0.576100  0.833500  0.770400  1.0  0.1848
  C  C215  1  0.484200  0.742800  0.702400  1.0  0.1793
  C  C216  1  0.424100  0.801900  0.699400  1.0  -0.1923
  C  C217  1  0.414600  0.040700  0.745000  1.0  -0.1899
  C  C218  1  0.350200  0.096500  0.746000  1.0  0.1774
  C  C219  1  0.529000  0.597200  0.461400  1.0  -0.2081
  C  C220  1  0.518800  0.551700  0.413100  1.0  0.0153
  C  C221  1  0.418100  0.510000  0.391900  1.0  -0.1257
  C  C222  1  0.330400  0.517500  0.417700  1.0  -0.0184
  C  C223  1  0.343500  0.568500  0.464400  1.0  -0.1665
  C  C224  1  0.441700  0.605700  0.486000  1.0  0.0137
  C  C225  1  0.630500  0.633900  0.490800  1.0  0.6812
  C  C226  1  0.609100  0.539000  0.382100  1.0  0.6782
  C  C227  1  0.404700  0.455000  0.341200  1.0  0.6727
  C  C228  1  0.222400  0.471300  0.394300  1.0  0.664
  C  C229  1  0.256300  0.581000  0.496700  1.0  0.7097
  C  C230  1  0.110200  0.035400  0.462800  1.0  -0.1927
  C  C231  1  0.064600  0.017100  0.413800  1.0  0.0121
  C  C232  1  0.026700  0.918700  0.395800  1.0  -0.1116
  C  C233  1  0.037800  0.842100  0.425000  1.0  -0.0125
  C  C234  1  0.089300  0.861400  0.472300  1.0  -0.1571
  C  C235  1  0.125000  0.958100  0.490300  1.0  0.0316
  C  C236  1  0.141500  0.133300  0.489400  1.0  0.6833
  C  C237  1  0.047200  0.098400  0.380400  1.0  0.6818
  C  C238  1  0.969800  0.898900  0.344500  1.0  0.6781
  C  C239  1  0.995800  0.736600  0.404900  1.0  0.6541
  C  C240  1  0.106600  0.785100  0.507900  1.0  0.6912
  C  C241  1  0.305800  0.065700  0.603400  1.0  0.1999
  C  C242  1  0.364600  0.004700  0.599100  1.0  -0.1974
  C  C243  1  0.472200  0.046500  0.605100  1.0  0.0888
  C  C244  1  0.537500  0.980800  0.601700  1.0  0.111
  C  C245  1  0.624300  0.997300  0.632800  1.0  -0.2029
  C  C246  1  0.677600  0.931700  0.630800  1.0  0.1872
  C  C247  1  0.571400  0.840900  0.568700  1.0  0.2023
  C  C248  1  0.512000  0.900600  0.569400  1.0  -0.2065
  C  C249  1  0.514000  0.145000  0.614900  1.0  -0.1983
  C  C250  1  0.450200  0.201300  0.617900  1.0  0.1862
  C  C251  1  0.291700  0.536300  0.223100  1.0  0.1931
  C  C252  1  0.232000  0.595600  0.220400  1.0  -0.1874
  C  C253  1  0.126800  0.557700  0.233100  1.0  0.1115
  C  C254  1  0.060400  0.621100  0.233700  1.0  0.0907
  C  C255  1  0.981500  0.604100  0.269600  1.0  -0.1737
  C  C256  1  0.923900  0.666500  0.270400  1.0  0.1841
  C  C257  1  0.015800  0.757200  0.202400  1.0  0.1791
  C  C258  1  0.075900  0.698100  0.199400  1.0  -0.1937
  C  C259  1  0.085400  0.459300  0.245000  1.0  -0.1872
  C  C260  1  0.149800  0.403500  0.246000  1.0  0.1776
  N  N261  1  0.846100  0.663400  0.888840  1.0  -0.39
  N  N262  1  0.153300  0.352700  0.900500  1.0  -0.3905
  N  N263  1  0.752000  0.940700  0.264530  1.0  -0.3567
  N  N264  1  0.440700  0.243000  0.261540  1.0  -0.3416
  N  N265  1  0.653900  0.836600  0.388840  1.0  -0.3909
  N  N266  1  0.346700  0.147300  0.400500  1.0  -0.3922
  N  N267  1  0.748000  0.559300  0.764530  1.0  -0.3567
  N  N268  1  0.059300  0.257000  0.761540  1.0  -0.3432
  N  N269  1  0.153900  0.336600  0.111160  1.0  -0.3909
  N  N270  1  0.846700  0.647300  0.099500  1.0  -0.3921
  N  N271  1  0.248000  0.059300  0.735470  1.0  -0.3565
  N  N272  1  0.559300  0.757000  0.738460  1.0  -0.3429
  N  N273  1  0.346100  0.163400  0.611160  1.0  -0.3902
  N  N274  1  0.653300  0.852700  0.599500  1.0  -0.3905
  N  N275  1  0.252000  0.440700  0.235470  1.0  -0.3566
  N  N276  1  0.940700  0.743000  0.238460  1.0  -0.3412
  O  O277  1  0.129500  0.165700  0.964720  1.0  -0.5918
  O  O278  1  0.210700  0.129000  0.032640  1.0  -0.6633
  O  O279  1  0.168000  0.114400  0.141980  1.0  -0.6477
  O  O280  1  0.113700  0.955800  0.120600  1.0  -0.5647
  O  O281  1  0.956400  0.994000  0.196810  1.0  -0.5246
  O  O282  1  0.838100  0.867300  0.160530  1.0  -0.6552
  O  O283  1  0.690500  0.020300  0.135550  1.0  -0.5341
  O  O284  1  0.671000  0.881400  0.091530  1.0  -0.7126
  O  O285  1  0.666400  0.016300  0.004580  1.0  -0.6405
  O  O286  1  0.777400  0.155000  0.975500  1.0  -0.5482
  O  O287  1  0.674800  0.639200  0.965410  1.0  -0.5946
  O  O288  1  0.629800  0.705400  0.035640  1.0  -0.6753
  O  O289  1  0.626300  0.655700  0.143670  1.0  -0.6554
  O  O290  1  0.457400  0.599400  0.122020  1.0  -0.5573
  O  O291  1  0.510500  0.446600  0.194090  1.0  -0.5501
  O  O292  1  0.380200  0.331900  0.158070  1.0  -0.6617
  O  O293  1  0.552800  0.204900  0.120760  1.0  -0.5236
  O  O294  1  0.401200  0.185000  0.082960  1.0  -0.7049
  O  O295  1  0.543200  0.195200  0.994620  1.0  -0.6299
  O  O296  1  0.680300  0.310200  0.961400  1.0  -0.5562
  O  O297  1  0.370500  0.334300  0.464720  1.0  -0.592
  O  O298  1  0.289300  0.371000  0.532640  1.0  -0.6638
  O  O299  1  0.332000  0.385600  0.641980  1.0  -0.6489
  O  O300  1  0.386300  0.544200  0.620600  1.0  -0.5639
  O  O301  1  0.543600  0.506000  0.696810  1.0  -0.525
  O  O302  1  0.661900  0.632700  0.660530  1.0  -0.6546
  O  O303  1  0.809500  0.479700  0.635550  1.0  -0.5351
  O  O304  1  0.829000  0.618600  0.591530  1.0  -0.7126
  O  O305  1  0.833600  0.483700  0.504580  1.0  -0.6392
  O  O306  1  0.722600  0.345000  0.475500  1.0  -0.548
  O  O307  1  0.825200  0.860800  0.465410  1.0  -0.5945
  O  O308  1  0.870200  0.794600  0.535640  1.0  -0.6755
  O  O309  1  0.873700  0.844300  0.643670  1.0  -0.6537
  O  O310  1  0.042600  0.900600  0.622020  1.0  -0.5577
  O  O311  1  0.989500  0.053400  0.694090  1.0  -0.5496
  O  O312  1  0.119800  0.168100  0.658070  1.0  -0.6623
  O  O313  1  0.947200  0.295100  0.620760  1.0  -0.5233
  O  O314  1  0.098800  0.315000  0.582960  1.0  -0.704
  O  O315  1  0.956800  0.304800  0.494620  1.0  -0.6326
  O  O316  1  0.819700  0.189800  0.461400  1.0  -0.5629
  O  O317  1  0.870500  0.834300  0.035280  1.0  -0.5911
  O  O318  1  0.789300  0.871000  0.967360  1.0  -0.6636
  O  O319  1  0.832000  0.885600  0.858020  1.0  -0.6479
  O  O320  1  0.886300  0.044200  0.879400  1.0  -0.5638
  O  O321  1  0.043600  0.006000  0.803190  1.0  -0.526
  O  O322  1  0.161900  0.132700  0.839470  1.0  -0.6544
  O  O323  1  0.309500  0.979700  0.864450  1.0  -0.5352
  O  O324  1  0.329000  0.118600  0.908470  1.0  -0.7117
  O  O325  1  0.333600  0.983700  0.995420  1.0  -0.6391
  O  O326  1  0.222600  0.845000  0.024500  1.0  -0.5473
  O  O327  1  0.325200  0.360800  0.034590  1.0  -0.5942
  O  O328  1  0.370200  0.294600  0.964360  1.0  -0.6757
  O  O329  1  0.373700  0.344300  0.856330  1.0  -0.6553
  O  O330  1  0.542600  0.400600  0.877980  1.0  -0.5581
  O  O331  1  0.489500  0.553400  0.805910  1.0  -0.5503
  O  O332  1  0.619800  0.668100  0.841930  1.0  -0.6618
  O  O333  1  0.447200  0.795100  0.879240  1.0  -0.5238
  O  O334  1  0.598800  0.815000  0.917040  1.0  -0.7039
  O  O335  1  0.456800  0.804800  0.005380  1.0  -0.6344
  O  O336  1  0.319700  0.689800  0.038600  1.0  -0.5601
  O  O337  1  0.629500  0.665700  0.535280  1.0  -0.5911
  O  O338  1  0.710700  0.629000  0.467360  1.0  -0.6638
  O  O339  1  0.668000  0.614400  0.358020  1.0  -0.6479
  O  O340  1  0.613700  0.455800  0.379400  1.0  -0.5643
  O  O341  1  0.456400  0.494000  0.303190  1.0  -0.5249
  O  O342  1  0.338100  0.367300  0.339470  1.0  -0.6559
  O  O343  1  0.190500  0.520300  0.364450  1.0  -0.5345
  O  O344  1  0.171000  0.381400  0.408470  1.0  -0.7122
  O  O345  1  0.166400  0.516300  0.495420  1.0  -0.6406
  O  O346  1  0.277400  0.655000  0.524500  1.0  -0.5474
  O  O347  1  0.174800  0.139200  0.534590  1.0  -0.5943
  O  O348  1  0.129800  0.205400  0.464360  1.0  -0.6749
  O  O349  1  0.126300  0.155700  0.356330  1.0  -0.6552
  O  O350  1  0.957400  0.099400  0.377980  1.0  -0.5576
  O  O351  1  0.010500  0.946600  0.305910  1.0  -0.5497
  O  O352  1  0.880200  0.831900  0.341930  1.0  -0.6624
  O  O353  1  0.052800  0.704900  0.379240  1.0  -0.524
  O  O354  1  0.901200  0.685000  0.417040  1.0  -0.7052
  O  O355  1  0.043200  0.695200  0.505380  1.0  -0.63
  O  O356  1  0.180300  0.810200  0.538600  1.0  -0.5532
