# generated using pymatgen
data_GaH5C8O5
_symmetry_space_group_name_H-M   'P 1'
_cell_length_a   6.67160000
_cell_length_b   7.64440000
_cell_length_c   10.54680000
_cell_angle_alpha   111.24800000
_cell_angle_beta   102.92200000
_cell_angle_gamma   90.00000000
_symmetry_Int_Tables_number   1
_chemical_formula_structural   GaH5C8O5
_chemical_formula_sum   'Ga2 H10 C16 O10'
_cell_volume   486.68102146
_cell_formula_units_Z   2
loop_
 _symmetry_equiv_pos_site_id
 _symmetry_equiv_pos_as_xyz
  1  'x, y, z'
loop_
 _atom_site_type_symbol
 _atom_site_label
 _atom_site_symmetry_multiplicity
 _atom_site_fract_x
 _atom_site_fract_y
 _atom_site_fract_z
 _atom_site_occupancy
 _atom_site_charge
  Ga  Ga1  1  0.426000  0.111800  0.224000  1.0  1.6882
  Ga  Ga2  1  0.926000  0.112200  0.224000  1.0  1.6886
  H  H3  1  0.204300  0.669900  0.894600  1.0  0.1147
  H  H4  1  0.618900  0.553300  0.548600  1.0  0.1187
  H  H5  1  0.053500  0.481500  0.647000  1.0  0.1084
  H  H6  1  0.770700  0.741800  0.796200  1.0  0.1071
  H  H7  1  0.161000  0.861200  0.187200  1.0  0.4513
  H  H8  1  0.704300  0.224700  0.894600  1.0  0.1138
  H  H9  1  0.118900  0.995300  0.548600  1.0  0.1178
  H  H10  1  0.553500  0.165500  0.647000  1.0  0.1074
  H  H11  1  0.270700  0.054400  0.796200  1.0  0.1078
  H  H12  1  0.661000  0.326000  0.187200  1.0  0.434
  C  C13  1  0.589300  0.832100  0.007800  1.0  0.716
  C  C14  1  0.498100  0.714500  0.859400  1.0  -0.0937
  C  C15  1  0.617100  0.685100  0.763600  1.0  -0.0922
  C  C16  1  0.293600  0.643800  0.820600  1.0  -0.0868
  C  C17  1  0.530100  0.579800  0.622800  1.0  -0.0864
  C  C18  1  0.207200  0.537900  0.679600  1.0  -0.1025
  C  C19  1  0.326100  0.508900  0.584000  1.0  -0.097
  C  C20  1  0.229000  0.391000  0.436600  1.0  0.7149
  C  C21  1  0.089300  0.175700  0.007800  1.0  0.715
  C  C22  1  0.998100  0.144900  0.859400  1.0  -0.0933
  C  C23  1  0.117100  0.078500  0.763600  1.0  -0.0907
  C  C24  1  0.793600  0.176800  0.820600  1.0  -0.0894
  C  C25  1  0.030100  0.043000  0.622800  1.0  -0.088
  C  C26  1  0.707200  0.141700  0.679600  1.0  -0.1034
  C  C27  1  0.826100  0.075100  0.584000  1.0  -0.0982
  C  C28  1  0.729000  0.045600  0.436600  1.0  0.715
  O  O29  1  0.472100  0.856600  0.091600  1.0  -0.6187
  O  O30  1  0.773200  0.908000  0.046600  1.0  -0.6097
  O  O31  1  0.342300  0.354300  0.350400  1.0  -0.6476
  O  O32  1  0.041000  0.330100  0.403600  1.0  -0.5846
  O  O33  1  0.172600  0.998500  0.213200  1.0  -0.9895
  O  O34  1  0.972100  0.235000  0.091600  1.0  -0.6173
  O  O35  1  0.273200  0.138600  0.046600  1.0  -0.6115
  O  O36  1  0.842300  0.996100  0.350400  1.0  -0.646
  O  O37  1  0.541000  0.073500  0.403600  1.0  -0.5862
  O  O38  1  0.672600  0.214700  0.213200  1.0  -0.9858
