# generated using pymatgen
data_In6P3H72(C72O19)2
_symmetry_space_group_name_H-M   'P 1'
_cell_length_a   23.44150000
_cell_length_b   23.44150000
_cell_length_c   23.44150000
_cell_angle_alpha   83.11960000
_cell_angle_beta   83.11960000
_cell_angle_gamma   83.11960000
_symmetry_Int_Tables_number   1
_chemical_formula_structural   In6P3H72(C72O19)2
_chemical_formula_sum   'In6 P3 H72 C144 O38'
_cell_volume   12623.46964380
_cell_formula_units_Z   1
loop_
 _symmetry_equiv_pos_site_id
 _symmetry_equiv_pos_as_xyz
  1  'x, y, z'
loop_
 _atom_site_type_symbol
 _atom_site_label
 _atom_site_symmetry_multiplicity
 _atom_site_fract_x
 _atom_site_fract_y
 _atom_site_fract_z
 _atom_site_occupancy
 _atom_site_charge
  In  In1  1  0.642910  0.705850  0.773050  1.0  1.5291
  In  In2  1  0.226910  0.294110  0.357020  1.0  1.5228
  In  In3  1  0.773050  0.642910  0.705850  1.0  1.5309
  In  In4  1  0.357020  0.226910  0.294110  1.0  1.5241
  In  In5  1  0.705850  0.773050  0.642910  1.0  1.5321
  In  In6  1  0.294110  0.357020  0.226910  1.0  1.5214
  P  P7  1  0.649420  0.495010  0.098250  1.0  1.7075
  P  P8  1  0.098250  0.649420  0.495010  1.0  1.7013
  P  P9  1  0.495010  0.098250  0.649420  1.0  1.7142
  H  H10  1  0.700800  0.668400  0.944100  1.0  0.1067
  H  H11  1  0.821700  0.556600  0.872600  1.0  0.0934
  H  H12  1  0.722200  0.620300  0.037100  1.0  0.0969
  H  H13  1  0.847700  0.520300  0.961500  1.0  0.0863
  H  H14  1  0.878300  0.516100  0.044600  1.0  0.0933
  H  H15  1  0.955200  0.470500  0.114700  1.0  0.1055
  H  H16  1  0.801700  0.431300  0.257600  1.0  0.0964
  H  H17  1  0.897000  0.409300  0.274900  1.0  0.0949
  H  H18  1  0.790300  0.560100  0.239500  1.0  0.0949
  H  H19  1  0.963200  0.340300  0.266600  1.0  0.1036
  H  H20  1  0.027200  0.454400  0.144600  1.0  0.0973
  H  H21  1  0.602200  0.486100  0.338700  1.0  0.093
  H  H22  1  0.651100  0.532300  0.393300  1.0  0.104
  H  H23  1  0.796400  0.597300  0.326400  1.0  0.1172
  H  H24  1  0.058300  0.306100  0.284000  1.0  0.0728
  H  H25  1  0.119300  0.416800  0.163000  1.0  0.0763
  H  H26  1  0.598300  0.365200  0.313200  1.0  0.1041
  H  H27  1  0.542700  0.481900  0.180700  1.0  0.105
  H  H28  1  0.521300  0.307500  0.313200  1.0  0.0961
  H  H29  1  0.456500  0.423700  0.180800  1.0  0.1757
  H  H30  1  0.760400  0.510800  0.462700  1.0  0.1062
  H  H31  1  0.725200  0.676300  0.384300  1.0  0.1157
  H  H32  1  0.764100  0.553300  0.551800  1.0  0.0918
  H  H33  1  0.725700  0.715400  0.474900  1.0  0.1002
  H  H34  1  0.944100  0.700800  0.668400  1.0  0.1054
  H  H35  1  0.872600  0.821700  0.556600  1.0  0.0939
  H  H36  1  0.037100  0.722200  0.620300  1.0  0.097
  H  H37  1  0.961500  0.847700  0.520300  1.0  0.0853
  H  H38  1  0.044600  0.878300  0.516100  1.0  0.0922
  H  H39  1  0.114700  0.955200  0.470500  1.0  0.1058
  H  H40  1  0.257600  0.801700  0.431300  1.0  0.0957
  H  H41  1  0.274900  0.897000  0.409300  1.0  0.0947
  H  H42  1  0.239500  0.790300  0.560100  1.0  0.0958
  H  H43  1  0.266600  0.963200  0.340300  1.0  0.1018
  H  H44  1  0.144600  0.027200  0.454400  1.0  0.0987
  H  H45  1  0.338700  0.602200  0.486100  1.0  0.0934
  H  H46  1  0.393300  0.651100  0.532300  1.0  0.1029
  H  H47  1  0.326400  0.796400  0.597300  1.0  0.1155
  H  H48  1  0.284000  0.058300  0.306100  1.0  0.0734
  H  H49  1  0.163000  0.119300  0.416800  1.0  0.0759
  H  H50  1  0.313200  0.598300  0.365200  1.0  0.1048
  H  H51  1  0.180700  0.542700  0.481900  1.0  0.1051
  H  H52  1  0.313200  0.521300  0.307500  1.0  0.0962
  H  H53  1  0.180800  0.456500  0.423700  1.0  0.1757
  H  H54  1  0.462700  0.760400  0.510800  1.0  0.1047
  H  H55  1  0.384300  0.725200  0.676300  1.0  0.115
  H  H56  1  0.551800  0.764100  0.553300  1.0  0.0935
  H  H57  1  0.474900  0.725700  0.715400  1.0  0.0982
  H  H58  1  0.668400  0.944100  0.700800  1.0  0.1061
  H  H59  1  0.556600  0.872600  0.821700  1.0  0.0935
  H  H60  1  0.620300  0.037100  0.722200  1.0  0.095
  H  H61  1  0.520300  0.961500  0.847700  1.0  0.086
  H  H62  1  0.516100  0.044600  0.878300  1.0  0.0929
  H  H63  1  0.470500  0.114700  0.955200  1.0  0.1053
  H  H64  1  0.431300  0.257600  0.801700  1.0  0.0951
  H  H65  1  0.409300  0.274900  0.897000  1.0  0.0932
  H  H66  1  0.560100  0.239500  0.790300  1.0  0.0931
  H  H67  1  0.340300  0.266600  0.963200  1.0  0.1023
  H  H68  1  0.454400  0.144600  0.027200  1.0  0.0987
  H  H69  1  0.486100  0.338700  0.602200  1.0  0.0929
  H  H70  1  0.532300  0.393300  0.651100  1.0  0.1025
  H  H71  1  0.597300  0.326400  0.796400  1.0  0.1148
  H  H72  1  0.306100  0.284000  0.058300  1.0  0.0743
  H  H73  1  0.416800  0.163000  0.119300  1.0  0.0767
  H  H74  1  0.365200  0.313200  0.598300  1.0  0.1048
  H  H75  1  0.481900  0.180700  0.542700  1.0  0.1054
  H  H76  1  0.307500  0.313200  0.521300  1.0  0.0973
  H  H77  1  0.423700  0.180800  0.456500  1.0  0.1754
  H  H78  1  0.510800  0.462700  0.760400  1.0  0.1045
  H  H79  1  0.676300  0.384300  0.725200  1.0  0.1153
  H  H80  1  0.553300  0.551800  0.764100  1.0  0.0919
  H  H81  1  0.715400  0.474900  0.725700  1.0  0.1003
  C  C82  1  0.748100  0.650200  0.840900  1.0  0.7149
  C  C83  1  0.762800  0.616000  0.901800  1.0  -0.1265
  C  C84  1  0.729800  0.636600  0.947800  1.0  -0.0835
  C  C85  1  0.801900  0.571500  0.906300  1.0  -0.0943
  C  C86  1  0.742200  0.606700  0.002800  1.0  -0.1021
  C  C87  1  0.814200  0.547300  0.959000  1.0  -0.1514
  C  C88  1  0.782500  0.558600  0.007000  1.0  0.1555
  C  C89  1  0.790200  0.527100  0.063500  1.0  -0.0199
  C  C90  1  0.848400  0.508900  0.074800  1.0  -0.1156
  C  C91  1  0.750600  0.521700  0.110600  1.0  0.3362
  C  C92  1  0.863800  0.481200  0.127000  1.0  -0.0991
  C  C93  1  0.758600  0.496800  0.162300  1.0  0.0063
  C  C94  1  0.817300  0.469600  0.174000  1.0  -0.0719
  C  C95  1  0.923200  0.460500  0.141400  1.0  -0.1187
  C  C96  1  0.712900  0.494100  0.211900  1.0  -0.0197
  C  C97  1  0.831600  0.439900  0.227800  1.0  -0.1006
  C  C98  1  0.932900  0.427300  0.192200  1.0  0.0372
  C  C99  1  0.718800  0.518000  0.267000  1.0  0.0502
  C  C100  1  0.665400  0.469400  0.207300  1.0  0.2422
  C  C101  1  0.888000  0.423600  0.236900  1.0  -0.1803
  C  C102  1  0.991700  0.399300  0.203100  1.0  0.2467
  C  C103  1  0.676100  0.515100  0.309900  1.0  0.2151
  C  C104  1  0.762600  0.552500  0.271800  1.0  -0.1305
  C  C105  1  0.623300  0.461600  0.254500  1.0  -0.0826
  C  C106  1  0.995600  0.356600  0.245500  1.0  -0.1627
  C  C107  1  0.033500  0.423400  0.173800  1.0  -0.1789
  C  C108  1  0.631000  0.488500  0.306600  1.0  -0.1019
  C  C109  1  0.680100  0.537500  0.361800  1.0  -0.0965
  C  C110  1  0.765800  0.575400  0.322500  1.0  -0.2235
  C  C111  1  0.574000  0.430900  0.252900  1.0  -0.0164
  C  C112  1  0.052500  0.338400  0.256000  1.0  -0.0123
  C  C113  1  0.087600  0.401900  0.186800  1.0  -0.1088
  C  C114  1  0.724000  0.565800  0.366700  1.0  0.1203
  C  C115  1  0.569000  0.378500  0.288400  1.0  -0.152
  C  C116  1  0.536100  0.449700  0.208400  1.0  -0.0809
  C  C117  1  0.099400  0.361700  0.230500  1.0  -0.0171
  C  C118  1  0.734200  0.590000  0.419300  1.0  0.0125
  C  C119  1  0.521400  0.343300  0.289300  1.0  -0.1014
  C  C120  1  0.483500  0.413900  0.208600  1.0  -0.0499
  C  C121  1  0.159190  0.349030  0.251810  1.0  0.7233
  C  C122  1  0.751700  0.551100  0.465300  1.0  -0.0805
  C  C123  1  0.729800  0.651500  0.418900  1.0  -0.1285
  C  C124  1  0.477210  0.361310  0.256410  1.0  -0.2103
  C  C125  1  0.755200  0.578100  0.518200  1.0  -0.07
  C  C126  1  0.732900  0.674800  0.473200  1.0  -0.0818
  C  C127  1  0.423050  0.334650  0.252750  1.0  0.7381
  C  C128  1  0.746340  0.638540  0.522840  1.0  -0.1277
  C  C129  1  0.747770  0.662570  0.576970  1.0  0.7084
  C  C130  1  0.840900  0.748100  0.650200  1.0  0.7142
  C  C131  1  0.901800  0.762800  0.616000  1.0  -0.1314
  C  C132  1  0.947800  0.729800  0.636600  1.0  -0.0832
  C  C133  1  0.906300  0.801900  0.571500  1.0  -0.097
  C  C134  1  0.002800  0.742200  0.606700  1.0  -0.1001
  C  C135  1  0.959000  0.814200  0.547300  1.0  -0.1566
  C  C136  1  0.007000  0.782500  0.558600  1.0  0.1555
  C  C137  1  0.063500  0.790200  0.527100  1.0  -0.0206
  C  C138  1  0.074800  0.848400  0.508900  1.0  -0.1207
  C  C139  1  0.110600  0.750600  0.521700  1.0  0.3352
  C  C140  1  0.127000  0.863800  0.481200  1.0  -0.0993
  C  C141  1  0.162300  0.758600  0.496800  1.0  0.0062
  C  C142  1  0.174000  0.817300  0.469600  1.0  -0.0729
  C  C143  1  0.141400  0.923200  0.460500  1.0  -0.1143
  C  C144  1  0.211900  0.712900  0.494100  1.0  -0.0182
  C  C145  1  0.227800  0.831600  0.439900  1.0  -0.1003
  C  C146  1  0.192200  0.932900  0.427300  1.0  0.0374
  C  C147  1  0.267000  0.718800  0.518000  1.0  0.0488
  C  C148  1  0.207300  0.665400  0.469400  1.0  0.2457
  C  C149  1  0.236900  0.888000  0.423600  1.0  -0.1761
  C  C150  1  0.203100  0.991700  0.399300  1.0  0.2501
  C  C151  1  0.309900  0.676100  0.515100  1.0  0.2131
  C  C152  1  0.271800  0.762600  0.552500  1.0  -0.1316
  C  C153  1  0.254500  0.623300  0.461600  1.0  -0.0842
  C  C154  1  0.245500  0.995600  0.356600  1.0  -0.1564
  C  C155  1  0.173800  0.033500  0.423400  1.0  -0.1792
  C  C156  1  0.306600  0.631000  0.488500  1.0  -0.1027
  C  C157  1  0.361800  0.680100  0.537500  1.0  -0.0985
  C  C158  1  0.322500  0.765800  0.575400  1.0  -0.2263
  C  C159  1  0.252900  0.574000  0.430900  1.0  -0.0169
  C  C160  1  0.256000  0.052500  0.338400  1.0  -0.0131
  C  C161  1  0.186800  0.087600  0.401900  1.0  -0.1126
  C  C162  1  0.366700  0.724000  0.565800  1.0  0.1185
  C  C163  1  0.288400  0.569000  0.378500  1.0  -0.1522
  C  C164  1  0.208400  0.536100  0.449700  1.0  -0.0822
  C  C165  1  0.230500  0.099400  0.361700  1.0  -0.0121
  C  C166  1  0.419300  0.734200  0.590000  1.0  0.0116
  C  C167  1  0.289300  0.521400  0.343300  1.0  -0.1012
  C  C168  1  0.208600  0.483500  0.413900  1.0  -0.051
  C  C169  1  0.251810  0.159190  0.349030  1.0  0.7223
  C  C170  1  0.465300  0.751700  0.551100  1.0  -0.0811
  C  C171  1  0.418900  0.729800  0.651500  1.0  -0.1269
  C  C172  1  0.256410  0.477210  0.361310  1.0  -0.2097
  C  C173  1  0.518200  0.755200  0.578100  1.0  -0.0673
  C  C174  1  0.473200  0.732900  0.674800  1.0  -0.0761
  C  C175  1  0.252750  0.423050  0.334650  1.0  0.7395
  C  C176  1  0.522840  0.746340  0.638540  1.0  -0.1263
  C  C177  1  0.576970  0.747770  0.662570  1.0  0.7051
  C  C178  1  0.650200  0.840900  0.748100  1.0  0.7159
  C  C179  1  0.616000  0.901800  0.762800  1.0  -0.1266
  C  C180  1  0.636600  0.947800  0.729800  1.0  -0.0787
  C  C181  1  0.571500  0.906300  0.801900  1.0  -0.0985
  C  C182  1  0.606700  0.002800  0.742200  1.0  -0.1
  C  C183  1  0.547300  0.959000  0.814200  1.0  -0.1521
  C  C184  1  0.558600  0.007000  0.782500  1.0  0.1566
  C  C185  1  0.527100  0.063500  0.790200  1.0  -0.0205
  C  C186  1  0.508900  0.074800  0.848400  1.0  -0.1184
  C  C187  1  0.521700  0.110600  0.750600  1.0  0.3345
  C  C188  1  0.481200  0.127000  0.863800  1.0  -0.0979
  C  C189  1  0.496800  0.162300  0.758600  1.0  0.0073
  C  C190  1  0.469600  0.174000  0.817300  1.0  -0.0726
  C  C191  1  0.460500  0.141400  0.923200  1.0  -0.116
  C  C192  1  0.494100  0.211900  0.712900  1.0  -0.0186
  C  C193  1  0.439900  0.227800  0.831600  1.0  -0.0982
  C  C194  1  0.427300  0.192200  0.932900  1.0  0.0363
  C  C195  1  0.518000  0.267000  0.718800  1.0  0.0508
  C  C196  1  0.469400  0.207300  0.665400  1.0  0.2448
  C  C197  1  0.423600  0.236900  0.888000  1.0  -0.1816
  C  C198  1  0.399300  0.203100  0.991700  1.0  0.2508
  C  C199  1  0.515100  0.309900  0.676100  1.0  0.2131
  C  C200  1  0.552500  0.271800  0.762600  1.0  -0.1288
  C  C201  1  0.461600  0.254500  0.623300  1.0  -0.0832
  C  C202  1  0.356600  0.245500  0.995600  1.0  -0.158
  C  C203  1  0.423400  0.173800  0.033500  1.0  -0.18
  C  C204  1  0.488500  0.306600  0.631000  1.0  -0.1031
  C  C205  1  0.537500  0.361800  0.680100  1.0  -0.0976
  C  C206  1  0.575400  0.322500  0.765800  1.0  -0.2214
  C  C207  1  0.430900  0.252900  0.574000  1.0  -0.0157
  C  C208  1  0.338400  0.256000  0.052500  1.0  -0.0127
  C  C209  1  0.401900  0.186800  0.087600  1.0  -0.109
  C  C210  1  0.565800  0.366700  0.724000  1.0  0.1185
  C  C211  1  0.378500  0.288400  0.569000  1.0  -0.1563
  C  C212  1  0.449700  0.208400  0.536100  1.0  -0.08
  C  C213  1  0.361700  0.230500  0.099400  1.0  -0.0154
  C  C214  1  0.590000  0.419300  0.734200  1.0  0.0139
  C  C215  1  0.343300  0.289300  0.521400  1.0  -0.102
  C  C216  1  0.413900  0.208600  0.483500  1.0  -0.0504
  C  C217  1  0.349030  0.251810  0.159190  1.0  0.7249
  C  C218  1  0.551100  0.465300  0.751700  1.0  -0.0813
  C  C219  1  0.651500  0.418900  0.729800  1.0  -0.1246
  C  C220  1  0.361310  0.256410  0.477210  1.0  -0.2093
  C  C221  1  0.578100  0.518200  0.755200  1.0  -0.0642
  C  C222  1  0.674800  0.473200  0.732900  1.0  -0.0773
  C  C223  1  0.334650  0.252750  0.423050  1.0  0.7402
  C  C224  1  0.638540  0.522840  0.746340  1.0  -0.1263
  C  C225  1  0.662570  0.576970  0.747770  1.0  0.7051
  O  O226  1  0.702320  0.682590  0.839020  1.0  -0.638
  O  O227  1  0.772480  0.636360  0.613720  1.0  -0.646
  O  O228  1  0.720760  0.713620  0.577020  1.0  -0.6648
  O  O229  1  0.780650  0.635050  0.798360  1.0  -0.6705
  O  O230  1  0.694610  0.541410  0.100110  1.0  -0.4879
  O  O231  1  0.660720  0.448920  0.154820  1.0  -0.4778
  O  O232  1  0.594750  0.527050  0.104350  1.0  -0.5433
  O  O233  1  0.669200  0.462600  0.053100  1.0  -0.5423
  O  O234  1  0.160730  0.317140  0.297880  1.0  -0.6637
  O  O235  1  0.202030  0.365360  0.219640  1.0  -0.6654
  O  O236  1  0.423250  0.286090  0.278760  1.0  -0.6832
  O  O237  1  0.386100  0.362930  0.227730  1.0  -0.6092
  O  O238  1  0.839020  0.702320  0.682590  1.0  -0.6415
  O  O239  1  0.613720  0.772480  0.636360  1.0  -0.6438
  O  O240  1  0.577020  0.720760  0.713620  1.0  -0.6684
  O  O241  1  0.798360  0.780650  0.635050  1.0  -0.6674
  O  O242  1  0.100110  0.694610  0.541410  1.0  -0.4951
  O  O243  1  0.154820  0.660720  0.448920  1.0  -0.4753
  O  O244  1  0.104350  0.594750  0.527050  1.0  -0.549
  O  O245  1  0.053100  0.669200  0.462600  1.0  -0.5408
  O  O246  1  0.297880  0.160730  0.317140  1.0  -0.6624
  O  O247  1  0.219640  0.202030  0.365360  1.0  -0.6683
  O  O248  1  0.278760  0.423250  0.286090  1.0  -0.6811
  O  O249  1  0.227730  0.386100  0.362930  1.0  -0.6127
  O  O250  1  0.682590  0.839020  0.702320  1.0  -0.6396
  O  O251  1  0.636360  0.613720  0.772480  1.0  -0.6462
  O  O252  1  0.713620  0.577020  0.720760  1.0  -0.6664
  O  O253  1  0.635050  0.798360  0.780650  1.0  -0.67
  O  O254  1  0.541410  0.100110  0.694610  1.0  -0.4897
  O  O255  1  0.448920  0.154820  0.660720  1.0  -0.4734
  O  O256  1  0.527050  0.104350  0.594750  1.0  -0.5467
  O  O257  1  0.462600  0.053100  0.669200  1.0  -0.5366
  O  O258  1  0.317140  0.297880  0.160730  1.0  -0.6625
  O  O259  1  0.365360  0.219640  0.202030  1.0  -0.6669
  O  O260  1  0.286090  0.278760  0.423250  1.0  -0.6832
  O  O261  1  0.362930  0.227730  0.386100  1.0  -0.6114
  O  O262  1  0.708530  0.708530  0.708530  1.0  -1.0337
  O  O263  1  0.291880  0.291880  0.291880  1.0  -1.0744
