# generated using pymatgen
data_Cd3H48(C3O)16
_symmetry_space_group_name_H-M   'P 1'
_cell_length_a   9.85230000
_cell_length_b   19.52440000
_cell_length_c   19.66990000
_cell_angle_alpha   89.71500000
_cell_angle_beta   83.05800000
_cell_angle_gamma   87.77600000
_symmetry_Int_Tables_number   1
_chemical_formula_structural   Cd3H48(C3O)16
_chemical_formula_sum   'Cd6 H96 C96 O32'
_cell_volume   3753.13914849
_cell_formula_units_Z   2
loop_
 _symmetry_equiv_pos_site_id
 _symmetry_equiv_pos_as_xyz
  1  'x, y, z'
loop_
 _atom_site_type_symbol
 _atom_site_label
 _atom_site_symmetry_multiplicity
 _atom_site_fract_x
 _atom_site_fract_y
 _atom_site_fract_z
 _atom_site_occupancy
 _atom_site_charge
  Cd  Cd1  1  0.999240  0.154160  0.076840  1.0  1.0626
  Cd  Cd2  1  0.063660  0.573920  0.344310  1.0  1.0841
  Cd  Cd3  1  0.000760  0.845840  0.923160  1.0  1.0612
  Cd  Cd4  1  0.936340  0.426080  0.655690  1.0  1.0845
  Cd  Cd5  1  0.000000  0.000000  0.000000  1.0  0.8964
  Cd  Cd6  1  0.000000  0.500000  0.500000  1.0  1.1474
  H  H7  1  0.015900  0.355300  0.226300  1.0  0.1358
  H  H8  1  0.000100  0.341100  0.432400  1.0  0.1197
  H  H9  1  0.953800  0.174000  0.321600  1.0  0.1171
  H  H10  1  0.066400  0.119700  0.413400  1.0  0.1262
  H  H11  1  0.906300  0.117900  0.421800  1.0  0.1266
  H  H12  1  0.985100  0.109900  0.486200  1.0  0.1245
  H  H13  1  0.091800  0.270300  0.501200  1.0  0.1305
  H  H14  1  0.176600  0.208400  0.464800  1.0  0.1186
  H  H15  1  0.082900  0.197000  0.533900  1.0  0.1362
  H  H16  1  0.840700  0.276300  0.503000  1.0  0.1262
  H  H17  1  0.846700  0.205500  0.540800  1.0  0.1284
  H  H18  1  0.768900  0.213300  0.476000  1.0  0.1285
  H  H19  1  0.492100  0.119500  0.067600  1.0  0.1223
  H  H20  1  0.324100  0.939500  0.106200  1.0  0.1173
  H  H21  1  0.722700  0.955200  0.114100  1.0  0.1275
  H  H22  1  0.335300  0.844000  0.142800  1.0  0.1143
  H  H23  1  0.383900  0.851100  0.215400  1.0  0.1321
  H  H24  1  0.417000  0.783200  0.173400  1.0  0.1316
  H  H25  1  0.641600  0.832700  0.046000  1.0  0.1322
  H  H26  1  0.483100  0.828300  0.045800  1.0  0.1192
  H  H27  1  0.564500  0.771000  0.081800  1.0  0.1195
  H  H28  1  0.741100  0.850800  0.126800  1.0  0.1186
  H  H29  1  0.672500  0.784100  0.156500  1.0  0.1465
  H  H30  1  0.678300  0.848000  0.203800  1.0  0.1365
  H  H31  1  0.547000  0.565800  0.378000  1.0  0.1224
  H  H32  1  0.319700  0.607400  0.558600  1.0  0.1277
  H  H33  1  0.731200  0.614100  0.540900  1.0  0.1184
  H  H34  1  0.693200  0.607100  0.651500  1.0  0.1253
  H  H35  1  0.614500  0.641600  0.717400  1.0  0.118
  H  H36  1  0.674900  0.687100  0.656000  1.0  0.1322
  H  H37  1  0.341500  0.578100  0.656300  1.0  0.1222
  H  H38  1  0.396800  0.601200  0.723700  1.0  0.1143
  H  H39  1  0.478100  0.544900  0.677000  1.0  0.1161
  H  H40  1  0.314600  0.686900  0.637400  1.0  0.1183
  H  H41  1  0.432500  0.738900  0.625800  1.0  0.1278
  H  H42  1  0.388200  0.710000  0.699300  1.0  0.1318
  H  H43  1  0.030800  0.816500  0.323000  1.0  0.1151
  H  H44  1  0.050800  0.724800  0.141100  1.0  0.1323
  H  H45  1  0.005200  0.927500  0.152700  1.0  0.1125
  H  H46  1  0.116000  0.005000  0.210900  1.0  0.1223
  H  H47  1  0.207700  0.982900  0.267600  1.0  0.1263
  H  H48  1  0.099800  0.044000  0.281000  1.0  0.1412
  H  H49  1  0.884900  0.999500  0.229700  1.0  0.1163
  H  H50  1  0.894900  0.037400  0.298900  1.0  0.1254
  H  H51  1  0.808300  0.971800  0.298200  1.0  0.1216
  H  H52  1  0.091900  0.918200  0.369500  1.0  0.1146
  H  H53  1  0.931500  0.921600  0.379600  1.0  0.1315
  H  H54  1  0.012100  0.989200  0.379700  1.0  0.1252
  H  H55  1  0.984100  0.644700  0.773700  1.0  0.1366
  H  H56  1  0.999900  0.658900  0.567600  1.0  0.1199
  H  H57  1  0.046200  0.826000  0.678400  1.0  0.1167
  H  H58  1  0.933600  0.880300  0.586600  1.0  0.1254
  H  H59  1  0.093700  0.882100  0.578200  1.0  0.1258
  H  H60  1  0.014900  0.890100  0.513800  1.0  0.1244
  H  H61  1  0.908200  0.729700  0.498800  1.0  0.1309
  H  H62  1  0.823400  0.791600  0.535200  1.0  0.1187
  H  H63  1  0.917100  0.803000  0.466100  1.0  0.1368
  H  H64  1  0.159300  0.723700  0.497000  1.0  0.1276
  H  H65  1  0.153300  0.794500  0.459200  1.0  0.1296
  H  H66  1  0.231100  0.786700  0.524000  1.0  0.1282
  H  H67  1  0.507900  0.880500  0.932400  1.0  0.1229
  H  H68  1  0.675900  0.060500  0.893800  1.0  0.1184
  H  H69  1  0.277300  0.044800  0.885900  1.0  0.1268
  H  H70  1  0.664700  0.156000  0.857200  1.0  0.1168
  H  H71  1  0.616100  0.148900  0.784600  1.0  0.132
  H  H72  1  0.583000  0.216800  0.826600  1.0  0.1325
  H  H73  1  0.358400  0.167300  0.954000  1.0  0.1302
  H  H74  1  0.516900  0.171700  0.954200  1.0  0.118
  H  H75  1  0.435500  0.229000  0.918200  1.0  0.1195
  H  H76  1  0.258900  0.149200  0.873200  1.0  0.1143
  H  H77  1  0.327500  0.215900  0.843500  1.0  0.1447
  H  H78  1  0.321700  0.152000  0.796200  1.0  0.1367
  H  H79  1  0.453000  0.434200  0.622000  1.0  0.123
  H  H80  1  0.680300  0.392600  0.441400  1.0  0.1289
  H  H81  1  0.268800  0.385900  0.459100  1.0  0.1187
  H  H82  1  0.306800  0.392900  0.348500  1.0  0.124
  H  H83  1  0.385500  0.358400  0.282600  1.0  0.1182
  H  H84  1  0.325100  0.312900  0.344000  1.0  0.1312
  H  H85  1  0.658500  0.421900  0.343700  1.0  0.1258
  H  H86  1  0.603200  0.398800  0.276300  1.0  0.1123
  H  H87  1  0.521900  0.455100  0.323000  1.0  0.1167
  H  H88  1  0.685400  0.313100  0.362600  1.0  0.1162
  H  H89  1  0.567500  0.261100  0.374200  1.0  0.1267
  H  H90  1  0.611800  0.290000  0.300700  1.0  0.1318
  H  H91  1  0.969200  0.183500  0.677000  1.0  0.1157
  H  H92  1  0.949200  0.275200  0.858900  1.0  0.1322
  H  H93  1  0.994800  0.072500  0.847300  1.0  0.1119
  H  H94  1  0.884000  0.995000  0.789100  1.0  0.1213
  H  H95  1  0.792300  0.017100  0.732400  1.0  0.1261
  H  H96  1  0.900200  0.956000  0.719000  1.0  0.1434
  H  H97  1  0.115100  0.000500  0.770300  1.0  0.1162
  H  H98  1  0.105100  0.962600  0.701100  1.0  0.1276
  H  H99  1  0.191700  0.028200  0.701800  1.0  0.1195
  H  H100  1  0.908100  0.081800  0.630500  1.0  0.1139
  H  H101  1  0.068500  0.078400  0.620400  1.0  0.1331
  H  H102  1  0.987900  0.010800  0.620300  1.0  0.1242
  C  C103  1  0.983900  0.222300  0.196000  1.0  0.7233
  C  C104  1  0.985700  0.258700  0.263800  1.0  -0.1139
  C  C105  1  0.005500  0.329300  0.266300  1.0  0.0304
  C  C106  1  0.009400  0.359900  0.329900  1.0  -0.1501
  C  C107  1  0.997100  0.320100  0.390200  1.0  -0.106
  C  C108  1  0.980700  0.250800  0.387400  1.0  0.0268
  C  C109  1  0.970700  0.220400  0.323700  1.0  -0.0632
  C  C110  1  0.033400  0.434400  0.332600  1.0  0.6885
  C  C111  1  0.974400  0.207600  0.452400  1.0  0.2338
  C  C112  1  0.984000  0.132100  0.442600  1.0  -0.3744
  C  C113  1  0.092000  0.222100  0.491600  1.0  -0.3781
  C  C114  1  0.846000  0.227400  0.497000  1.0  -0.3697
  C  C115  1  0.752400  0.084700  0.083700  1.0  0.6923
  C  C116  1  0.626100  0.044800  0.089400  1.0  -0.1215
  C  C117  1  0.500000  0.073300  0.078900  1.0  -0.0066
  C  C118  1  0.387200  0.034800  0.084900  1.0  -0.1481
  C  C119  1  0.401300  0.965900  0.103500  1.0  -0.1069
  C  C120  1  0.520700  0.934900  0.117900  1.0  0.0521
  C  C121  1  0.637500  0.974900  0.108200  1.0  -0.0627
  C  C122  1  0.248800  0.062800  0.073600  1.0  0.697
  C  C123  1  0.407000  0.832100  0.170300  1.0  -0.364
  C  C124  1  0.558000  0.819100  0.071900  1.0  -0.3212
  C  C125  1  0.668000  0.833300  0.158300  1.0  -0.3283
  C  C126  1  0.794800  0.582700  0.412000  1.0  0.69
  C  C127  1  0.657100  0.589100  0.453400  1.0  -0.1313
  C  C128  1  0.540500  0.577700  0.424000  1.0  -0.0113
  C  C129  1  0.412100  0.583800  0.462800  1.0  -0.1171
  C  C130  1  0.404800  0.604000  0.532400  1.0  -0.1166
  C  C131  1  0.518600  0.618500  0.562100  1.0  0.0293
  C  C132  1  0.651100  0.608000  0.521400  1.0  -0.0428
  C  C133  1  0.280200  0.571200  0.435500  1.0  0.7073
  C  C134  1  0.502000  0.641400  0.637900  1.0  0.2561
  C  C135  1  0.633000  0.644600  0.668400  1.0  -0.3572
  C  C136  1  0.422000  0.586400  0.677300  1.0  -0.3694
  C  C137  1  0.400000  0.699400  0.651300  1.0  -0.3194
  C  C138  1  0.066800  0.693400  0.274000  1.0  0.7002
  C  C139  1  0.048600  0.759500  0.238100  1.0  -0.1517
  C  C140  1  0.034100  0.819600  0.275700  1.0  -0.0843
  C  C141  1  0.024200  0.885100  0.246400  1.0  0.0195
  C  C142  1  0.042500  0.764200  0.168000  1.0  -0.0025
  C  C143  1  0.024100  0.827000  0.138800  1.0  -0.1015
  C  C144  1  0.016100  0.885900  0.175000  1.0  -0.0861
  C  C145  1  0.007600  0.832300  0.062500  1.0  0.6988
  C  C146  1  0.011100  0.950100  0.288400  1.0  0.2159
  C  C147  1  0.119000  0.000200  0.259300  1.0  -0.341
  C  C148  1  0.889000  0.993500  0.277900  1.0  -0.3583
  C  C149  1  0.012000  0.944300  0.360100  1.0  -0.3775
  C  C150  1  0.534200  0.859600  0.139100  1.0  0.1668
  C  C151  1  0.016100  0.777700  0.804000  1.0  0.7258
  C  C152  1  0.014300  0.741300  0.736200  1.0  -0.1136
  C  C153  1  0.994500  0.670700  0.733700  1.0  0.03
  C  C154  1  0.990600  0.640100  0.670100  1.0  -0.1483
  C  C155  1  0.002900  0.679900  0.609800  1.0  -0.1062
  C  C156  1  0.019300  0.749200  0.612600  1.0  0.0246
  C  C157  1  0.029300  0.779600  0.676300  1.0  -0.0643
  C  C158  1  0.966600  0.565600  0.667400  1.0  0.6882
  C  C159  1  0.025600  0.792400  0.547600  1.0  0.2349
  C  C160  1  0.016000  0.867900  0.557400  1.0  -0.3764
  C  C161  1  0.908000  0.777900  0.508400  1.0  -0.3819
  C  C162  1  0.154000  0.772600  0.503000  1.0  -0.3691
  C  C163  1  0.247600  0.915300  0.916300  1.0  0.6931
  C  C164  1  0.373900  0.955200  0.910600  1.0  -0.1218
  C  C165  1  0.500000  0.926700  0.921100  1.0  -0.0089
  C  C166  1  0.612800  0.965200  0.915100  1.0  -0.1475
  C  C167  1  0.598700  0.034100  0.896500  1.0  -0.1058
  C  C168  1  0.479300  0.065100  0.882100  1.0  0.0514
  C  C169  1  0.362500  0.025100  0.891800  1.0  -0.0617
  C  C170  1  0.751200  0.937200  0.926400  1.0  0.6969
  C  C171  1  0.593000  0.167900  0.829700  1.0  -0.3617
  C  C172  1  0.442000  0.180900  0.928100  1.0  -0.3227
  C  C173  1  0.332000  0.166700  0.841700  1.0  -0.3251
  C  C174  1  0.205200  0.417300  0.588000  1.0  0.689
  C  C175  1  0.342900  0.410900  0.546600  1.0  -0.1313
  C  C176  1  0.459500  0.422300  0.576000  1.0  -0.0145
  C  C177  1  0.587900  0.416200  0.537200  1.0  -0.1156
  C  C178  1  0.595200  0.396000  0.467600  1.0  -0.1188
  C  C179  1  0.481400  0.381500  0.437900  1.0  0.0271
  C  C180  1  0.348900  0.392000  0.478600  1.0  -0.0452
  C  C181  1  0.719800  0.428800  0.564500  1.0  0.7066
  C  C182  1  0.498000  0.358600  0.362100  1.0  0.2561
  C  C183  1  0.367000  0.355400  0.331600  1.0  -0.3583
  C  C184  1  0.578000  0.413600  0.322700  1.0  -0.3701
  C  C185  1  0.600000  0.300600  0.348700  1.0  -0.3201
  C  C186  1  0.933200  0.306600  0.726000  1.0  0.7013
  C  C187  1  0.951400  0.240500  0.761900  1.0  -0.1509
  C  C188  1  0.965900  0.180400  0.724300  1.0  -0.0838
  C  C189  1  0.975800  0.114900  0.753600  1.0  0.0216
  C  C190  1  0.957500  0.235800  0.832000  1.0  -0.0027
  C  C191  1  0.975900  0.173000  0.861200  1.0  -0.1016
  C  C192  1  0.983900  0.114100  0.825000  1.0  -0.0854
  C  C193  1  0.992400  0.167700  0.937500  1.0  0.6983
  C  C194  1  0.988900  0.049900  0.711600  1.0  0.216
  C  C195  1  0.881000  0.999800  0.740700  1.0  -0.3449
  C  C196  1  0.111000  0.006500  0.722100  1.0  -0.3573
  C  C197  1  0.988000  0.055700  0.639900  1.0  -0.3764
  C  C198  1  0.465800  0.140400  0.860900  1.0  0.1665
  O  O199  1  0.972100  0.160200  0.196500  1.0  -0.5553
  O  O200  1  0.997000  0.256400  0.141100  1.0  -0.6229
  O  O201  1  0.048000  0.458400  0.392300  1.0  -0.6947
  O  O202  1  0.045500  0.471300  0.281200  1.0  -0.58
  O  O203  1  0.739100  0.149400  0.074700  1.0  -0.6285
  O  O204  1  0.869100  0.054400  0.088500  1.0  -0.6648
  O  O205  1  0.161600  0.019400  0.064900  1.0  -0.6284
  O  O206  1  0.224700  0.127200  0.072800  1.0  -0.5852
  O  O207  1  0.798500  0.577300  0.349800  1.0  -0.5611
  O  O208  1  0.900700  0.586400  0.443600  1.0  -0.649
  O  O209  1  0.179800  0.565500  0.478500  1.0  -0.5993
  O  O210  1  0.276100  0.569600  0.370400  1.0  -0.6197
  O  O211  1  0.059900  0.637000  0.240900  1.0  -0.5806
  O  O212  1  0.073900  0.693500  0.336800  1.0  -0.5799
  O  O213  1  0.021700  0.779000  0.025700  1.0  -0.5962
  O  O214  1  0.982600  0.890700  0.037700  1.0  -0.6614
  O  O215  1  0.027900  0.839800  0.803500  1.0  -0.5561
  O  O216  1  0.003000  0.743600  0.858900  1.0  -0.6226
  O  O217  1  0.952000  0.541600  0.607700  1.0  -0.6941
  O  O218  1  0.954500  0.528700  0.718800  1.0  -0.578
  O  O219  1  0.260900  0.850600  0.925300  1.0  -0.6231
  O  O220  1  0.130900  0.945600  0.911500  1.0  -0.6648
  O  O221  1  0.838400  0.980600  0.935100  1.0  -0.6271
  O  O222  1  0.775300  0.872800  0.927200  1.0  -0.5861
  O  O223  1  0.201500  0.422700  0.650200  1.0  -0.5553
  O  O224  1  0.099300  0.413600  0.556400  1.0  -0.6501
  O  O225  1  0.820200  0.434500  0.521500  1.0  -0.6004
  O  O226  1  0.723900  0.430400  0.629600  1.0  -0.6197
  O  O227  1  0.940100  0.363000  0.759100  1.0  -0.5778
  O  O228  1  0.926100  0.306500  0.663200  1.0  -0.5769
  O  O229  1  0.978300  0.221000  0.974300  1.0  -0.6011
  O  O230  1  0.017400  0.109300  0.962300  1.0  -0.6631
