# generated using pymatgen
data_Na2AgH34C29S3N2ClO7
_symmetry_space_group_name_H-M   'P 1'
_cell_length_a   10.28820000
_cell_length_b   14.47240000
_cell_length_c   31.03000000
_cell_angle_alpha   90.00000000
_cell_angle_beta   91.99100000
_cell_angle_gamma   90.00000000
_symmetry_Int_Tables_number   1
_chemical_formula_structural   Na2AgH34C29S3N2ClO7
_chemical_formula_sum   'Na8 Ag4 H136 C116 S12 N8 Cl4 O28'
_cell_volume   4617.42092828
_cell_formula_units_Z   4
loop_
 _symmetry_equiv_pos_site_id
 _symmetry_equiv_pos_as_xyz
  1  'x, y, z'
loop_
 _atom_site_type_symbol
 _atom_site_label
 _atom_site_symmetry_multiplicity
 _atom_site_fract_x
 _atom_site_fract_y
 _atom_site_fract_z
 _atom_site_occupancy
 _atom_site_charge
  Na  Na1  1  0.215600  0.468200  0.524090  1.0  0.9672
  Na  Na2  1  0.288600  0.705900  0.482290  1.0  0.9495
  Na  Na3  1  0.784400  0.968200  0.975910  1.0  0.9681
  Na  Na4  1  0.711400  0.205900  0.017710  1.0  0.9495
  Na  Na5  1  0.784400  0.531800  0.475910  1.0  0.9677
  Na  Na6  1  0.711400  0.294100  0.517710  1.0  0.9493
  Na  Na7  1  0.215600  0.031800  0.024090  1.0  0.9668
  Na  Na8  1  0.288600  0.794100  0.982290  1.0  0.9503
  Ag  Ag9  1  0.664910  0.851870  0.241470  1.0  0.2579
  Ag  Ag10  1  0.335090  0.351870  0.258530  1.0  0.251
  Ag  Ag11  1  0.335090  0.148130  0.758530  1.0  0.2537
  Ag  Ag12  1  0.664910  0.648130  0.741470  1.0  0.2575
  H  H13  1  0.920200  0.141500  0.279900  1.0  0.1345
  H  H14  1  0.857100  0.083200  0.351000  1.0  0.141
  H  H15  1  0.811500  0.738600  0.406300  1.0  0.1153
  H  H16  1  0.469700  0.873300  0.406100  1.0  0.1107
  H  H17  1  0.564900  0.051600  0.333333  1.0  0.056
  H  H18  1  0.464900  0.127700  0.379100  1.0  0.1123
  H  H19  1  0.357200  0.051800  0.383000  1.0  0.1028
  H  H20  1  0.486600  0.044600  0.411000  1.0  0.0995
  H  H21  1  0.350100  0.025100  0.309000  1.0  0.1112
  H  H22  1  0.447900  0.951600  0.292000  1.0  0.0962
  H  H23  1  0.357800  0.926700  0.330100  1.0  0.1
  H  H24  1  0.953100  0.879400  0.324500  1.0  0.0487
  H  H25  1  0.872300  0.727600  0.305300  1.0  0.0944
  H  H26  1  0.024600  0.733200  0.308000  1.0  0.1018
  H  H27  1  0.949300  0.688600  0.345800  1.0  0.1063
  H  H28  1  0.039800  0.791500  0.402400  1.0  0.1139
  H  H29  1  0.130600  0.839000  0.369500  1.0  0.1085
  H  H30  1  0.037300  0.899100  0.396800  1.0  0.1066
  H  H31  1  0.043900  0.970800  0.138200  1.0  0.1044
  H  H32  1  0.711400  0.110800  0.120000  1.0  0.1079
  H  H33  1  0.026900  0.950400  0.251500  1.0  0.0441
  H  H34  1  0.207600  0.001300  0.189800  1.0  0.1019
  H  H35  1  0.185900  0.048700  0.234400  1.0  0.1079
  H  H36  1  0.253700  0.951800  0.232600  1.0  0.1139
  H  H37  1  0.964900  0.817100  0.216900  1.0  0.1031
  H  H38  1  0.074700  0.829400  0.183500  1.0  0.1074
  H  H39  1  0.111500  0.809500  0.232100  1.0  0.1035
  H  H40  1  0.632400  0.119900  0.232300  1.0  0.0548
  H  H41  1  0.608500  0.239100  0.160300  1.0  0.1081
  H  H42  1  0.564400  0.260900  0.207100  1.0  0.0989
  H  H43  1  0.712800  0.255600  0.197500  1.0  0.1012
  H  H44  1  0.500800  0.085200  0.153300  1.0  0.1067
  H  H45  1  0.509300  0.015800  0.192100  1.0  0.0944
  H  H46  1  0.432700  0.108800  0.196400  1.0  0.1085
  H  H47  1  0.079800  0.641500  0.220100  1.0  0.1344
  H  H48  1  0.142900  0.583200  0.149000  1.0  0.1419
  H  H49  1  0.188500  0.238600  0.093700  1.0  0.1149
  H  H50  1  0.530300  0.373300  0.093900  1.0  0.1127
  H  H51  1  0.435100  0.551600  0.166700  1.0  0.0586
  H  H52  1  0.535100  0.627700  0.120900  1.0  0.1123
  H  H53  1  0.642800  0.551800  0.117000  1.0  0.1025
  H  H54  1  0.513400  0.544600  0.089000  1.0  0.1002
  H  H55  1  0.649900  0.525100  0.191000  1.0  0.1106
  H  H56  1  0.552100  0.451600  0.208000  1.0  0.096
  H  H57  1  0.642200  0.426700  0.169900  1.0  0.1006
  H  H58  1  0.046900  0.379400  0.175500  1.0  0.0474
  H  H59  1  0.127700  0.227600  0.194700  1.0  0.0948
  H  H60  1  0.975400  0.233200  0.192000  1.0  0.1015
  H  H61  1  0.050700  0.188600  0.154200  1.0  0.1064
  H  H62  1  0.960200  0.291500  0.097600  1.0  0.1139
  H  H63  1  0.869400  0.339000  0.130500  1.0  0.1089
  H  H64  1  0.962700  0.399100  0.103200  1.0  0.1074
  H  H65  1  0.956100  0.470800  0.361800  1.0  0.1058
  H  H66  1  0.288600  0.610800  0.380000  1.0  0.108
  H  H67  1  0.973100  0.450400  0.248500  1.0  0.0425
  H  H68  1  0.792400  0.501300  0.310200  1.0  0.1006
  H  H69  1  0.814100  0.548700  0.265600  1.0  0.1091
  H  H70  1  0.746300  0.451800  0.267400  1.0  0.1133
  H  H71  1  0.035100  0.317100  0.283100  1.0  0.1
  H  H72  1  0.925300  0.329400  0.316500  1.0  0.1067
  H  H73  1  0.888500  0.309500  0.267900  1.0  0.1032
  H  H74  1  0.367600  0.619900  0.267700  1.0  0.0561
  H  H75  1  0.391500  0.739100  0.339700  1.0  0.1085
  H  H76  1  0.435600  0.760900  0.292900  1.0  0.0986
  H  H77  1  0.287200  0.755600  0.302500  1.0  0.0981
  H  H78  1  0.499200  0.585200  0.346700  1.0  0.106
  H  H79  1  0.490700  0.515800  0.307900  1.0  0.0929
  H  H80  1  0.567300  0.608800  0.303600  1.0  0.1073
  H  H81  1  0.079800  0.858500  0.720100  1.0  0.1331
  H  H82  1  0.142900  0.916800  0.649000  1.0  0.142
  H  H83  1  0.188500  0.261400  0.593700  1.0  0.1155
  H  H84  1  0.530300  0.126700  0.593900  1.0  0.1124
  H  H85  1  0.435100  0.948400  0.666667  1.0  0.0573
  H  H86  1  0.535100  0.872300  0.620900  1.0  0.1113
  H  H87  1  0.642800  0.948200  0.617000  1.0  0.1026
  H  H88  1  0.513400  0.955400  0.589000  1.0  0.1003
  H  H89  1  0.649900  0.974900  0.691000  1.0  0.1105
  H  H90  1  0.552100  0.048400  0.708000  1.0  0.0961
  H  H91  1  0.642200  0.073300  0.669900  1.0  0.0998
  H  H92  1  0.046900  0.120600  0.675500  1.0  0.0478
  H  H93  1  0.127700  0.272400  0.694700  1.0  0.0942
  H  H94  1  0.975400  0.266800  0.692000  1.0  0.1016
  H  H95  1  0.050700  0.311400  0.654200  1.0  0.1073
  H  H96  1  0.960200  0.208500  0.597600  1.0  0.1136
  H  H97  1  0.869400  0.161000  0.630500  1.0  0.1082
  H  H98  1  0.962700  0.100900  0.603200  1.0  0.1065
  H  H99  1  0.956100  0.029200  0.861800  1.0  0.1053
  H  H100  1  0.288600  0.889200  0.880000  1.0  0.1078
  H  H101  1  0.973100  0.049600  0.748500  1.0  0.0423
  H  H102  1  0.792400  0.998700  0.810200  1.0  0.101
  H  H103  1  0.814100  0.951300  0.765600  1.0  0.1077
  H  H104  1  0.746300  0.048200  0.767400  1.0  0.1129
  H  H105  1  0.035100  0.182900  0.783100  1.0  0.0995
  H  H106  1  0.925300  0.170600  0.816500  1.0  0.1069
  H  H107  1  0.888500  0.190500  0.767900  1.0  0.1034
  H  H108  1  0.367600  0.880100  0.767700  1.0  0.0564
  H  H109  1  0.391500  0.760900  0.839700  1.0  0.1081
  H  H110  1  0.435600  0.739100  0.792900  1.0  0.0985
  H  H111  1  0.287200  0.744400  0.802500  1.0  0.0977
  H  H112  1  0.499200  0.914800  0.846700  1.0  0.1058
  H  H113  1  0.490700  0.984200  0.807900  1.0  0.0918
  H  H114  1  0.567300  0.891200  0.803600  1.0  0.1076
  H  H115  1  0.920200  0.358500  0.779900  1.0  0.1347
  H  H116  1  0.857100  0.416800  0.851000  1.0  0.1415
  H  H117  1  0.811500  0.761400  0.906300  1.0  0.1152
  H  H118  1  0.469700  0.626700  0.906100  1.0  0.1108
  H  H119  1  0.564900  0.448400  0.833300  1.0  0.0549
  H  H120  1  0.464900  0.372300  0.879100  1.0  0.1111
  H  H121  1  0.357200  0.448200  0.883000  1.0  0.1021
  H  H122  1  0.486600  0.455400  0.911000  1.0  0.0999
  H  H123  1  0.350100  0.474900  0.809000  1.0  0.1105
  H  H124  1  0.447900  0.548400  0.792000  1.0  0.0958
  H  H125  1  0.357800  0.573300  0.830100  1.0  0.1006
  H  H126  1  0.953100  0.620600  0.824500  1.0  0.0478
  H  H127  1  0.872300  0.772400  0.805300  1.0  0.0943
  H  H128  1  0.024600  0.766800  0.808000  1.0  0.1018
  H  H129  1  0.949300  0.811400  0.845800  1.0  0.1058
  H  H130  1  0.039800  0.708500  0.902400  1.0  0.1137
  H  H131  1  0.130600  0.661000  0.869500  1.0  0.1089
  H  H132  1  0.037300  0.600900  0.896800  1.0  0.107
  H  H133  1  0.043900  0.529200  0.638200  1.0  0.1047
  H  H134  1  0.711400  0.389200  0.620000  1.0  0.1077
  H  H135  1  0.026900  0.549600  0.751500  1.0  0.0439
  H  H136  1  0.207600  0.498700  0.689800  1.0  0.1022
  H  H137  1  0.185900  0.451300  0.734400  1.0  0.1099
  H  H138  1  0.253700  0.548200  0.732600  1.0  0.1139
  H  H139  1  0.964900  0.682900  0.716900  1.0  0.1019
  H  H140  1  0.074700  0.670600  0.683500  1.0  0.1076
  H  H141  1  0.111500  0.690500  0.732100  1.0  0.1032
  H  H142  1  0.632400  0.380100  0.732300  1.0  0.0549
  H  H143  1  0.608500  0.260900  0.660300  1.0  0.1078
  H  H144  1  0.564400  0.239100  0.707100  1.0  0.0993
  H  H145  1  0.712800  0.244400  0.697500  1.0  0.1014
  H  H146  1  0.500800  0.414800  0.653300  1.0  0.1078
  H  H147  1  0.509300  0.484200  0.692100  1.0  0.0926
  H  H148  1  0.432700  0.391200  0.696400  1.0  0.1087
  C  C149  1  0.757100  0.958800  0.274000  1.0  -0.2213
  C  C150  1  0.871800  0.088600  0.285300  1.0  -0.1105
  C  C151  1  0.837000  0.056800  0.324300  1.0  -0.1137
  C  C152  1  0.719300  0.916600  0.349100  1.0  -0.0057
  C  C153  1  0.803500  0.845700  0.363600  1.0  0.0005
  C  C154  1  0.758700  0.786000  0.395500  1.0  -0.075
  C  C155  1  0.636000  0.798400  0.410700  1.0  -0.1977
  C  C156  1  0.553100  0.868200  0.395600  1.0  -0.0696
  C  C157  1  0.595100  0.930100  0.364900  1.0  0.0005
  C  C158  1  0.509200  0.009100  0.348900  1.0  0.102
  C  C159  1  0.449200  0.063000  0.383600  1.0  -0.3388
  C  C160  1  0.407100  0.975100  0.317200  1.0  -0.3382
  C  C161  1  0.938800  0.831800  0.346300  1.0  0.0673
  C  C162  1  0.947000  0.736200  0.324300  1.0  -0.3404
  C  C163  1  0.047000  0.841300  0.382200  1.0  -0.351
  C  C164  1  0.842400  0.035300  0.209300  1.0  -0.0089
  C  C165  1  0.953900  0.993100  0.193800  1.0  -0.0072
  C  C166  1  0.971000  0.997900  0.149800  1.0  -0.082
  C  C167  1  0.881200  0.042600  0.122700  1.0  -0.2218
  C  C168  1  0.771300  0.082000  0.138600  1.0  -0.0618
  C  C169  1  0.749000  0.079000  0.183200  1.0  -0.0082
  C  C170  1  0.054000  0.942900  0.221700  1.0  0.0976
  C  C171  1  0.188000  0.990700  0.219400  1.0  -0.3434
  C  C172  1  0.051000  0.840400  0.212700  1.0  -0.3386
  C  C173  1  0.628400  0.126600  0.200900  1.0  0.1007
  C  C174  1  0.628600  0.230300  0.190500  1.0  -0.3431
  C  C175  1  0.506900  0.079900  0.184200  1.0  -0.3442
  C  C176  1  0.369000  0.717000  0.601800  1.0  -0.1418
  C  C177  1  0.537500  0.587200  0.582400  1.0  -0.026
  C  C178  1  0.242900  0.458800  0.226000  1.0  -0.2273
  C  C179  1  0.128200  0.588600  0.214700  1.0  -0.112
  C  C180  1  0.163000  0.556800  0.175700  1.0  -0.1133
  C  C181  1  0.280700  0.416600  0.150900  1.0  -0.0071
  C  C182  1  0.196500  0.345700  0.136400  1.0  -0.0017
  C  C183  1  0.241300  0.286000  0.104500  1.0  -0.0732
  C  C184  1  0.364000  0.298400  0.089300  1.0  -0.2002
  C  C185  1  0.446900  0.368200  0.104400  1.0  -0.0699
  C  C186  1  0.404900  0.430100  0.135100  1.0  -0.0012
  C  C187  1  0.490800  0.509100  0.151100  1.0  0.1012
  C  C188  1  0.550800  0.563000  0.116400  1.0  -0.3384
  C  C189  1  0.592900  0.475100  0.182800  1.0  -0.3388
  C  C190  1  0.061200  0.331800  0.153700  1.0  0.0681
  C  C191  1  0.053000  0.236200  0.175700  1.0  -0.3413
  C  C192  1  0.953000  0.341300  0.117800  1.0  -0.3491
  C  C193  1  0.157600  0.535300  0.290700  1.0  -0.0087
  C  C194  1  0.046100  0.493100  0.306200  1.0  -0.0058
  C  C195  1  0.029000  0.497900  0.350200  1.0  -0.0772
  C  C196  1  0.118800  0.542600  0.377300  1.0  -0.212
  C  C197  1  0.228700  0.582000  0.361400  1.0  -0.0599
  C  C198  1  0.251000  0.579000  0.316800  1.0  -0.0073
  C  C199  1  0.946000  0.442900  0.278300  1.0  0.0985
  C  C200  1  0.812000  0.490700  0.280600  1.0  -0.3431
  C  C201  1  0.949000  0.340400  0.287300  1.0  -0.3387
  C  C202  1  0.371600  0.626600  0.299100  1.0  0.1004
  C  C203  1  0.371400  0.730300  0.309500  1.0  -0.3439
  C  C204  1  0.493100  0.579900  0.315800  1.0  -0.3446
  C  C205  1  0.631000  0.217000  0.898200  1.0  -0.1427
  C  C206  1  0.462500  0.087200  0.917600  1.0  -0.027
  C  C207  1  0.242900  0.041200  0.726000  1.0  -0.2311
  C  C208  1  0.128200  0.911400  0.714700  1.0  -0.1108
  C  C209  1  0.163000  0.943200  0.675700  1.0  -0.1138
  C  C210  1  0.280700  0.083400  0.650900  1.0  -0.0073
  C  C211  1  0.196500  0.154300  0.636400  1.0  -0.0017
  C  C212  1  0.241300  0.214000  0.604500  1.0  -0.0728
  C  C213  1  0.364000  0.201600  0.589300  1.0  -0.1991
  C  C214  1  0.446900  0.131800  0.604400  1.0  -0.0693
  C  C215  1  0.404900  0.069900  0.635100  1.0  -0.0014
  C  C216  1  0.490800  0.990900  0.651100  1.0  0.0994
  C  C217  1  0.550800  0.937000  0.616400  1.0  -0.3374
  C  C218  1  0.592900  0.024900  0.682800  1.0  -0.3388
  C  C219  1  0.061200  0.168200  0.653700  1.0  0.0678
  C  C220  1  0.053000  0.263800  0.675700  1.0  -0.3409
  C  C221  1  0.953000  0.158700  0.617800  1.0  -0.3503
  C  C222  1  0.157600  0.964700  0.790700  1.0  -0.0091
  C  C223  1  0.046100  0.006900  0.806200  1.0  -0.0065
  C  C224  1  0.029000  0.002100  0.850200  1.0  -0.0789
  C  C225  1  0.118800  0.957400  0.877300  1.0  -0.2097
  C  C226  1  0.228700  0.918000  0.861400  1.0  -0.0601
  C  C227  1  0.251000  0.921000  0.816800  1.0  -0.0076
  C  C228  1  0.946000  0.057100  0.778300  1.0  0.0983
  C  C229  1  0.812000  0.009300  0.780600  1.0  -0.3431
  C  C230  1  0.949000  0.159600  0.787300  1.0  -0.3384
  C  C231  1  0.371600  0.873400  0.799100  1.0  0.1008
  C  C232  1  0.371400  0.769700  0.809500  1.0  -0.3433
  C  C233  1  0.493100  0.920100  0.815800  1.0  -0.3447
  C  C234  1  0.631000  0.283000  0.398200  1.0  -0.1425
  C  C235  1  0.462500  0.412800  0.417600  1.0  -0.0267
  C  C236  1  0.757100  0.541200  0.774000  1.0  -0.2264
  C  C237  1  0.871800  0.411400  0.785300  1.0  -0.1092
  C  C238  1  0.837000  0.443200  0.824300  1.0  -0.1138
  C  C239  1  0.719300  0.583400  0.849100  1.0  -0.0059
  C  C240  1  0.803500  0.654300  0.863600  1.0  0.001
  C  C241  1  0.758700  0.714000  0.895500  1.0  -0.0741
  C  C242  1  0.636000  0.701600  0.910700  1.0  -0.1986
  C  C243  1  0.553100  0.631800  0.895600  1.0  -0.0697
  C  C244  1  0.595100  0.569900  0.864900  1.0  0.0007
  C  C245  1  0.509200  0.490900  0.848900  1.0  0.1037
  C  C246  1  0.449200  0.437000  0.883600  1.0  -0.3372
  C  C247  1  0.407100  0.524900  0.817200  1.0  -0.3393
  C  C248  1  0.938800  0.668200  0.846300  1.0  0.0666
  C  C249  1  0.947000  0.763800  0.824300  1.0  -0.3406
  C  C250  1  0.047000  0.658700  0.882200  1.0  -0.3507
  C  C251  1  0.842400  0.464700  0.709300  1.0  -0.0091
  C  C252  1  0.953900  0.506900  0.693800  1.0  -0.0071
  C  C253  1  0.971000  0.502100  0.649800  1.0  -0.0817
  C  C254  1  0.881200  0.457400  0.622700  1.0  -0.2182
  C  C255  1  0.771300  0.418000  0.638600  1.0  -0.0621
  C  C256  1  0.749000  0.421000  0.683200  1.0  -0.0081
  C  C257  1  0.054000  0.557100  0.721700  1.0  0.0977
  C  C258  1  0.188000  0.509300  0.719400  1.0  -0.3432
  C  C259  1  0.051000  0.659600  0.712700  1.0  -0.338
  C  C260  1  0.628400  0.373400  0.700900  1.0  0.1012
  C  C261  1  0.628600  0.269700  0.690500  1.0  -0.3435
  C  C262  1  0.506900  0.420100  0.684200  1.0  -0.3431
  C  C263  1  0.369000  0.783000  0.101800  1.0  -0.1418
  C  C264  1  0.537500  0.912800  0.082400  1.0  -0.0259
  S  S265  1  0.576700  0.720920  0.450970  1.0  1.4449
  S  S266  1  0.911380  0.051640  0.066880  1.0  1.5075
  S  S267  1  0.369900  0.604300  0.588210  1.0  0.5658
  S  S268  1  0.423300  0.220920  0.049030  1.0  1.4445
  S  S269  1  0.088620  0.551640  0.433120  1.0  1.5166
  S  S270  1  0.630100  0.104300  0.911790  1.0  0.5662
  S  S271  1  0.423300  0.279080  0.549030  1.0  1.4448
  S  S272  1  0.088620  0.948360  0.933120  1.0  1.5167
  S  S273  1  0.630100  0.395700  0.411790  1.0  0.5675
  S  S274  1  0.576700  0.779080  0.950970  1.0  1.4443
  S  S275  1  0.911380  0.448360  0.566880  1.0  1.509
  S  S276  1  0.369900  0.895700  0.088210  1.0  0.5664
  N  N277  1  0.766500  0.978100  0.316510  1.0  0.1395
  N  N278  1  0.822400  0.028600  0.255560  1.0  0.1339
  N  N279  1  0.233500  0.478100  0.183490  1.0  0.1394
  N  N280  1  0.177600  0.528600  0.244440  1.0  0.1344
  N  N281  1  0.233500  0.021900  0.683490  1.0  0.1392
  N  N282  1  0.177600  0.971400  0.744440  1.0  0.1343
  N  N283  1  0.766500  0.521900  0.816510  1.0  0.1389
  N  N284  1  0.822400  0.471400  0.755560  1.0  0.1338
  Cl  Cl285  1  0.561700  0.738100  0.201570  1.0  -0.4552
  Cl  Cl286  1  0.438300  0.238100  0.298430  1.0  -0.4553
  Cl  Cl287  1  0.438300  0.261900  0.798430  1.0  -0.4556
  Cl  Cl288  1  0.561700  0.761900  0.701570  1.0  -0.4552
  O  O289  1  0.669200  0.652900  0.457700  1.0  -0.7555
  O  O290  1  0.554800  0.775100  0.488500  1.0  -0.6936
  O  O291  1  0.454800  0.686000  0.434300  1.0  -0.7567
  O  O292  1  0.040400  0.026100  0.062300  1.0  -0.7851
  O  O293  1  0.819000  0.992700  0.046000  1.0  -0.7867
  O  O294  1  0.888200  0.143300  0.055100  1.0  -0.7696
  O  O295  1  0.318000  0.607400  0.541500  1.0  -0.6697
  O  O296  1  0.330800  0.152900  0.042300  1.0  -0.7547
  O  O297  1  0.445200  0.275100  0.011500  1.0  -0.6937
  O  O298  1  0.545200  0.186000  0.065700  1.0  -0.7559
  O  O299  1  0.959600  0.526100  0.437700  1.0  -0.7832
  O  O300  1  0.181000  0.492700  0.454000  1.0  -0.7851
  O  O301  1  0.111800  0.643300  0.444900  1.0  -0.7681
  O  O302  1  0.682000  0.107400  0.958500  1.0  -0.6785
  O  O303  1  0.330800  0.347100  0.542300  1.0  -0.7553
  O  O304  1  0.445200  0.224900  0.511500  1.0  -0.6935
  O  O305  1  0.545200  0.314000  0.565700  1.0  -0.756
  O  O306  1  0.959600  0.973900  0.937700  1.0  -0.7833
  O  O307  1  0.181000  0.007300  0.954000  1.0  -0.7853
  O  O308  1  0.111800  0.856700  0.944900  1.0  -0.7673
  O  O309  1  0.682000  0.392600  0.458500  1.0  -0.6775
  O  O310  1  0.669200  0.847100  0.957700  1.0  -0.7567
  O  O311  1  0.554800  0.724900  0.988500  1.0  -0.6933
  O  O312  1  0.454800  0.814000  0.934300  1.0  -0.7572
  O  O313  1  0.040400  0.473900  0.562300  1.0  -0.7836
  O  O314  1  0.819000  0.507300  0.546000  1.0  -0.7879
  O  O315  1  0.888200  0.356700  0.555100  1.0  -0.7674
  O  O316  1  0.318000  0.892600  0.041500  1.0  -0.6688
