# generated using pymatgen
data_AlPO4
_symmetry_space_group_name_H-M   'P 1'
_cell_length_a   13.54940000
_cell_length_b   13.54940000
_cell_length_c   15.27950000
_cell_angle_alpha   90.00000000
_cell_angle_beta   90.00000000
_cell_angle_gamma   120.00000000
_symmetry_Int_Tables_number   1
_chemical_formula_structural   AlPO4
_chemical_formula_sum   'Al18 P18 O72'
_cell_volume   2429.29302130
_cell_formula_units_Z   18
loop_
 _symmetry_equiv_pos_site_id
 _symmetry_equiv_pos_as_xyz
  1  'x, y, z'
loop_
 _atom_site_type_symbol
 _atom_site_label
 _atom_site_symmetry_multiplicity
 _atom_site_fract_x
 _atom_site_fract_y
 _atom_site_fract_z
 _atom_site_occupancy
 _atom_site_charge
  Al  Al1  1  0.097300  0.662100  0.069500  1.0  1.9938
  Al  Al2  1  0.763970  0.995430  0.402830  1.0  1.9938
  Al  Al3  1  0.430630  0.328770  0.736170  1.0  1.9938
  Al  Al4  1  0.337900  0.435200  0.069500  1.0  1.9948
  Al  Al5  1  0.004570  0.768530  0.402830  1.0  1.9948
  Al  Al6  1  0.671230  0.101870  0.736170  1.0  1.9948
  Al  Al7  1  0.564800  0.902700  0.069500  1.0  1.9944
  Al  Al8  1  0.231470  0.236030  0.402830  1.0  1.9944
  Al  Al9  1  0.898130  0.569370  0.736170  1.0  1.9944
  Al  Al10  1  0.902700  0.337900  0.930500  1.0  1.9944
  Al  Al11  1  0.569370  0.671230  0.263830  1.0  1.9944
  Al  Al12  1  0.236030  0.004570  0.597170  1.0  1.9944
  Al  Al13  1  0.662100  0.564800  0.930500  1.0  1.9953
  Al  Al14  1  0.328770  0.898130  0.263830  1.0  1.9953
  Al  Al15  1  0.995430  0.231470  0.597170  1.0  1.9953
  Al  Al16  1  0.435200  0.097300  0.930500  1.0  1.9945
  Al  Al17  1  0.101870  0.430630  0.263830  1.0  1.9945
  Al  Al18  1  0.768530  0.763970  0.597170  1.0  1.9945
  P  P19  1  0.328300  0.897900  0.063000  1.0  1.9444
  P  P20  1  0.994970  0.231230  0.396330  1.0  1.9445
  P  P21  1  0.661630  0.564570  0.729670  1.0  1.9444
  P  P22  1  0.102100  0.430400  0.063000  1.0  1.9459
  P  P23  1  0.768770  0.763730  0.396330  1.0  1.946
  P  P24  1  0.435430  0.097070  0.729670  1.0  1.9459
  P  P25  1  0.569600  0.671700  0.063000  1.0  1.9451
  P  P26  1  0.236270  0.005030  0.396330  1.0  1.9452
  P  P27  1  0.902930  0.338370  0.729670  1.0  1.9451
  P  P28  1  0.671700  0.102100  0.937000  1.0  1.9454
  P  P29  1  0.338370  0.435430  0.270330  1.0  1.9454
  P  P30  1  0.005030  0.768770  0.603670  1.0  1.9455
  P  P31  1  0.897900  0.569600  0.937000  1.0  1.9456
  P  P32  1  0.564570  0.902930  0.270330  1.0  1.9456
  P  P33  1  0.231230  0.236270  0.603670  1.0  1.9457
  P  P34  1  0.430400  0.328300  0.937000  1.0  1.9445
  P  P35  1  0.097070  0.661630  0.270330  1.0  1.9445
  P  P36  1  0.763730  0.994970  0.603670  1.0  1.9446
  O  O37  1  0.216000  0.789600  0.043600  1.0  -0.9738
  O  O38  1  0.125900  0.552800  0.052000  1.0  -1.043
  O  O39  1  0.989800  0.649600  0.001900  1.0  -0.96
  O  O40  1  0.053900  0.660700  0.177300  1.0  -0.9676
  O  O41  1  0.882670  0.122930  0.376930  1.0  -0.9738
  O  O42  1  0.792570  0.886130  0.385330  1.0  -1.0415
  O  O43  1  0.656470  0.982930  0.335230  1.0  -0.9574
  O  O44  1  0.720570  0.994030  0.510630  1.0  -0.9677
  O  O45  1  0.549330  0.456270  0.710270  1.0  -0.9738
  O  O46  1  0.459230  0.219470  0.718670  1.0  -1.0414
  O  O47  1  0.323130  0.316270  0.668570  1.0  -0.96
  O  O48  1  0.387230  0.327370  0.843970  1.0  -0.9676
  O  O49  1  0.210400  0.426400  0.043600  1.0  -0.9734
  O  O50  1  0.447200  0.573100  0.052000  1.0  -1.0405
  O  O51  1  0.350400  0.340200  0.001900  1.0  -0.9567
  O  O52  1  0.339300  0.393200  0.177300  1.0  -0.9658
  O  O53  1  0.877070  0.759730  0.376930  1.0  -0.9734
  O  O54  1  0.113870  0.906430  0.385330  1.0  -1.0402
  O  O55  1  0.017070  0.673530  0.335230  1.0  -0.9555
  O  O56  1  0.005970  0.726530  0.510630  1.0  -0.9658
  O  O57  1  0.543730  0.093070  0.710270  1.0  -0.9734
  O  O58  1  0.780530  0.239770  0.718670  1.0  -1.0393
  O  O59  1  0.683730  0.006870  0.668570  1.0  -0.9567
  O  O60  1  0.672630  0.059870  0.843970  1.0  -0.9658
  O  O61  1  0.573600  0.784000  0.043600  1.0  -0.9755
  O  O62  1  0.426900  0.874100  0.052000  1.0  -1.0386
  O  O63  1  0.659800  0.010200  0.001900  1.0  -0.9553
  O  O64  1  0.606800  0.946100  0.177300  1.0  -0.9664
  O  O65  1  0.240270  0.117330  0.376930  1.0  -0.9755
  O  O66  1  0.093570  0.207430  0.385330  1.0  -1.0415
  O  O67  1  0.326470  0.343530  0.335230  1.0  -0.9642
  O  O68  1  0.273470  0.279430  0.510630  1.0  -0.9664
  O  O69  1  0.906930  0.450670  0.710270  1.0  -0.9755
  O  O70  1  0.760230  0.540770  0.718670  1.0  -1.0415
  O  O71  1  0.993130  0.676870  0.668570  1.0  -0.9553
  O  O72  1  0.940130  0.612770  0.843970  1.0  -0.9664
  O  O73  1  0.784000  0.210400  0.956400  1.0  -0.9722
  O  O74  1  0.874100  0.447200  0.948000  1.0  -1.0432
  O  O75  1  0.010200  0.350400  0.998100  1.0  -0.9586
  O  O76  1  0.946100  0.339300  0.822700  1.0  -0.9692
  O  O77  1  0.450670  0.543730  0.289730  1.0  -0.9722
  O  O78  1  0.540770  0.780530  0.281330  1.0  -1.0426
  O  O79  1  0.676870  0.683730  0.331430  1.0  -0.9586
  O  O80  1  0.612770  0.672630  0.156030  1.0  -0.9692
  O  O81  1  0.117330  0.877070  0.623070  1.0  -0.9722
  O  O82  1  0.207430  0.113870  0.614670  1.0  -1.0421
  O  O83  1  0.343530  0.017070  0.664770  1.0  -0.957
  O  O84  1  0.279430  0.005970  0.489370  1.0  -0.9692
  O  O85  1  0.789600  0.573600  0.956400  1.0  -0.9735
  O  O86  1  0.552800  0.426900  0.948000  1.0  -1.0414
  O  O87  1  0.649600  0.659800  0.998100  1.0  -0.9549
  O  O88  1  0.660700  0.606800  0.822700  1.0  -0.9679
  O  O89  1  0.456270  0.906930  0.289730  1.0  -0.9735
  O  O90  1  0.219470  0.760230  0.281330  1.0  -1.0403
  O  O91  1  0.316270  0.993130  0.331430  1.0  -0.9549
  O  O92  1  0.327370  0.940130  0.156030  1.0  -0.9679
  O  O93  1  0.122930  0.240270  0.623070  1.0  -0.9735
  O  O94  1  0.886130  0.093570  0.614670  1.0  -1.0411
  O  O95  1  0.982930  0.326470  0.664770  1.0  -0.9536
  O  O96  1  0.994030  0.273470  0.489370  1.0  -0.9678
  O  O97  1  0.426400  0.216000  0.956400  1.0  -0.9744
  O  O98  1  0.573100  0.125900  0.948000  1.0  -1.0398
  O  O99  1  0.340200  0.989800  0.998100  1.0  -0.9544
  O  O100  1  0.393200  0.053900  0.822700  1.0  -0.967
  O  O101  1  0.093070  0.549330  0.289730  1.0  -0.9744
  O  O102  1  0.239770  0.459230  0.281330  1.0  -1.0429
  O  O103  1  0.006870  0.323130  0.331430  1.0  -0.9544
  O  O104  1  0.059870  0.387230  0.156030  1.0  -0.967
  O  O105  1  0.759730  0.882670  0.623070  1.0  -0.9744
  O  O106  1  0.906430  0.792570  0.614670  1.0  -1.0427
  O  O107  1  0.673530  0.656470  0.664770  1.0  -0.9632
  O  O108  1  0.726530  0.720570  0.489370  1.0  -0.967
