# generated using pymatgen
data_CuH8(C2N)4
_symmetry_space_group_name_H-M   'P 1'
_cell_length_a   10.83700000
_cell_length_b   18.13100000
_cell_length_c   17.56100000
_cell_angle_alpha   90.00000000
_cell_angle_beta   104.30100000
_cell_angle_gamma   90.00000000
_symmetry_Int_Tables_number   1
_chemical_formula_structural   CuH8(C2N)4
_chemical_formula_sum   'Cu8 H64 C64 N32'
_cell_volume   3343.55883472
_cell_formula_units_Z   8
loop_
 _symmetry_equiv_pos_site_id
 _symmetry_equiv_pos_as_xyz
  1  'x, y, z'
loop_
 _atom_site_type_symbol
 _atom_site_label
 _atom_site_symmetry_multiplicity
 _atom_site_fract_x
 _atom_site_fract_y
 _atom_site_fract_z
 _atom_site_occupancy
 _atom_site_charge
  Cu  Cu1  1  0.955580  0.140450  0.625060  1.0  0.3961
  Cu  Cu2  1  0.552720  0.132690  0.869970  1.0  0.3694
  Cu  Cu3  1  0.044420  0.640450  0.874940  1.0  0.396
  Cu  Cu4  1  0.447280  0.632690  0.630030  1.0  0.3689
  Cu  Cu5  1  0.044420  0.859550  0.374940  1.0  0.3957
  Cu  Cu6  1  0.447280  0.867310  0.130030  1.0  0.3686
  Cu  Cu7  1  0.955580  0.359550  0.125060  1.0  0.3957
  Cu  Cu8  1  0.552720  0.367310  0.369970  1.0  0.3692
  H  H9  1  0.690100  0.083700  0.623800  1.0  0.0483
  H  H10  1  0.553000  0.083200  0.704700  1.0  0.0567
  H  H11  1  0.836600  0.139100  0.883300  1.0  0.0508
  H  H12  1  0.972800  0.140800  0.801600  1.0  0.0537
  H  H13  1  0.125800  0.047900  0.731300  1.0  0.0496
  H  H14  1  0.324600  0.044600  0.816700  1.0  0.0552
  H  H15  1  0.386600  0.248400  0.758100  1.0  0.0514
  H  H16  1  0.184500  0.252300  0.675300  1.0  0.0505
  H  H17  1  0.131900  0.097400  0.528600  1.0  0.0463
  H  H18  1  0.842200  0.989300  0.561600  1.0  0.0456
  H  H19  1  0.809000  0.279900  0.630200  1.0  0.0461
  H  H20  1  0.660700  0.351800  0.545600  1.0  0.0509
  H  H21  1  0.681400  0.220900  0.371000  1.0  0.0504
  H  H22  1  0.832400  0.151000  0.454700  1.0  0.0535
  H  H23  1  0.655800  0.980100  0.934600  1.0  0.06
  H  H24  1  0.625000  0.897100  0.028600  1.0  0.0565
  H  H25  1  0.309900  0.583700  0.876200  1.0  0.0475
  H  H26  1  0.447000  0.583200  0.795300  1.0  0.0562
  H  H27  1  0.163400  0.639100  0.616700  1.0  0.0514
  H  H28  1  0.027200  0.640800  0.698400  1.0  0.054
  H  H29  1  0.874200  0.547900  0.768700  1.0  0.0493
  H  H30  1  0.675400  0.544600  0.683300  1.0  0.055
  H  H31  1  0.613400  0.748400  0.741900  1.0  0.0515
  H  H32  1  0.815500  0.752300  0.824700  1.0  0.051
  H  H33  1  0.868100  0.597400  0.971400  1.0  0.0456
  H  H34  1  0.157800  0.489300  0.938400  1.0  0.0449
  H  H35  1  0.191000  0.779900  0.869800  1.0  0.0464
  H  H36  1  0.339300  0.851800  0.954400  1.0  0.0514
  H  H37  1  0.318600  0.720900  0.129000  1.0  0.0505
  H  H38  1  0.167600  0.651000  0.045300  1.0  0.0534
  H  H39  1  0.344200  0.480100  0.565400  1.0  0.0601
  H  H40  1  0.375000  0.397100  0.471400  1.0  0.0563
  H  H41  1  0.309900  0.916300  0.376200  1.0  0.0477
  H  H42  1  0.447000  0.916800  0.295300  1.0  0.0561
  H  H43  1  0.163400  0.860900  0.116700  1.0  0.0527
  H  H44  1  0.027200  0.859200  0.198400  1.0  0.0543
  H  H45  1  0.874200  0.952100  0.268700  1.0  0.05
  H  H46  1  0.675400  0.955400  0.183300  1.0  0.0562
  H  H47  1  0.613400  0.751600  0.241900  1.0  0.05
  H  H48  1  0.815500  0.747700  0.324700  1.0  0.0516
  H  H49  1  0.868100  0.902600  0.471400  1.0  0.0456
  H  H50  1  0.157800  0.010700  0.438400  1.0  0.0453
  H  H51  1  0.191000  0.720100  0.369800  1.0  0.0463
  H  H52  1  0.339300  0.648200  0.454400  1.0  0.0514
  H  H53  1  0.318600  0.779100  0.629000  1.0  0.0504
  H  H54  1  0.167600  0.849000  0.545300  1.0  0.0534
  H  H55  1  0.344200  0.019900  0.065400  1.0  0.0597
  H  H56  1  0.375000  0.102900  0.971400  1.0  0.0566
  H  H57  1  0.690100  0.416300  0.123800  1.0  0.048
  H  H58  1  0.553000  0.416800  0.204700  1.0  0.0563
  H  H59  1  0.836600  0.360900  0.383300  1.0  0.0517
  H  H60  1  0.972800  0.359200  0.301600  1.0  0.054
  H  H61  1  0.125800  0.452100  0.231300  1.0  0.0503
  H  H62  1  0.324600  0.455400  0.316700  1.0  0.0561
  H  H63  1  0.386600  0.251600  0.258100  1.0  0.0505
  H  H64  1  0.184500  0.247700  0.175300  1.0  0.0507
  H  H65  1  0.131900  0.402600  0.028600  1.0  0.0461
  H  H66  1  0.842200  0.510700  0.061600  1.0  0.0453
  H  H67  1  0.809000  0.220100  0.130200  1.0  0.0456
  H  H68  1  0.660700  0.148200  0.045600  1.0  0.0512
  H  H69  1  0.681400  0.279100  0.871000  1.0  0.0503
  H  H70  1  0.832400  0.349000  0.954700  1.0  0.053
  H  H71  1  0.655800  0.519900  0.434600  1.0  0.0597
  H  H72  1  0.625000  0.602900  0.528600  1.0  0.0568
  C  C73  1  0.722300  0.096400  0.677500  1.0  0.1006
  C  C74  1  0.639700  0.096100  0.726100  1.0  0.063
  C  C75  1  0.803500  0.128520  0.829100  1.0  0.0894
  C  C76  1  0.885600  0.129240  0.780100  1.0  0.0866
  C  C77  1  0.178300  0.090500  0.736600  1.0  0.0784
  C  C78  1  0.297800  0.088400  0.787500  1.0  0.0842
  C  C79  1  0.333500  0.206200  0.754200  1.0  0.0727
  C  C80  1  0.212200  0.208400  0.703800  1.0  0.0631
  C  C81  1  0.074200  0.057100  0.517500  1.0  0.0859
  C  C82  1  0.909400  0.995600  0.536200  1.0  0.1043
  C  C83  1  0.784700  0.267200  0.576100  1.0  0.0754
  C  C84  1  0.694800  0.310000  0.525400  1.0  0.0867
  C  C85  1  0.707300  0.234600  0.424800  1.0  0.0848
  C  C86  1  0.797800  0.192600  0.475000  1.0  0.0942
  C  C87  1  0.590900  0.989280  0.961120  1.0  0.072
  C  C88  1  0.572100  0.939500  0.017400  1.0  0.0699
  C  C89  1  0.277700  0.596400  0.822500  1.0  0.1006
  C  C90  1  0.360300  0.596100  0.773900  1.0  0.0625
  C  C91  1  0.196500  0.628520  0.670900  1.0  0.0883
  C  C92  1  0.114400  0.629240  0.719900  1.0  0.0847
  C  C93  1  0.821700  0.590500  0.763400  1.0  0.078
  C  C94  1  0.702200  0.588400  0.712500  1.0  0.0824
  C  C95  1  0.666500  0.706200  0.745800  1.0  0.0728
  C  C96  1  0.787800  0.708400  0.796200  1.0  0.0638
  C  C97  1  0.925800  0.557100  0.982500  1.0  0.0856
  C  C98  1  0.090600  0.495600  0.963800  1.0  0.1026
  C  C99  1  0.215300  0.767200  0.923900  1.0  0.0751
  C  C100  1  0.305200  0.810000  0.974600  1.0  0.0866
  C  C101  1  0.292700  0.734600  0.075200  1.0  0.0854
  C  C102  1  0.202200  0.692600  0.025000  1.0  0.0938
  C  C103  1  0.409100  0.489280  0.538880  1.0  0.0721
  C  C104  1  0.427900  0.439500  0.482600  1.0  0.0699
  C  C105  1  0.277700  0.903600  0.322500  1.0  0.1001
  C  C106  1  0.360300  0.903900  0.273900  1.0  0.0626
  C  C107  1  0.196500  0.871480  0.170900  1.0  0.0884
  C  C108  1  0.114400  0.870760  0.219900  1.0  0.0853
  C  C109  1  0.821700  0.909500  0.263400  1.0  0.0789
  C  C110  1  0.702200  0.911600  0.212500  1.0  0.0823
  C  C111  1  0.666500  0.793800  0.245800  1.0  0.0736
  C  C112  1  0.787800  0.791600  0.296200  1.0  0.0649
  C  C113  1  0.925800  0.942900  0.482500  1.0  0.0856
  C  C114  1  0.090600  0.004400  0.463800  1.0  0.1029
  C  C115  1  0.215300  0.732800  0.423900  1.0  0.0744
  C  C116  1  0.305200  0.690000  0.474600  1.0  0.0875
  C  C117  1  0.292700  0.765400  0.575200  1.0  0.0854
  C  C118  1  0.202200  0.807400  0.525000  1.0  0.0925
  C  C119  1  0.409100  0.010720  0.038880  1.0  0.0718
  C  C120  1  0.427900  0.060500  0.982600  1.0  0.0702
  C  C121  1  0.722300  0.403600  0.177500  1.0  0.1015
  C  C122  1  0.639700  0.403900  0.226100  1.0  0.0629
  C  C123  1  0.803500  0.371480  0.329100  1.0  0.0893
  C  C124  1  0.885600  0.370760  0.280100  1.0  0.0868
  C  C125  1  0.178300  0.409500  0.236600  1.0  0.0789
  C  C126  1  0.297800  0.411600  0.287500  1.0  0.0837
  C  C127  1  0.333500  0.293800  0.254200  1.0  0.0728
  C  C128  1  0.212200  0.291600  0.203800  1.0  0.0629
  C  C129  1  0.074200  0.442900  0.017500  1.0  0.0859
  C  C130  1  0.909400  0.504400  0.036200  1.0  0.1041
  C  C131  1  0.784700  0.232800  0.076100  1.0  0.0759
  C  C132  1  0.694800  0.190000  0.025400  1.0  0.0873
  C  C133  1  0.707300  0.265400  0.924800  1.0  0.0851
  C  C134  1  0.797800  0.307400  0.975000  1.0  0.0935
  C  C135  1  0.590900  0.510720  0.461120  1.0  0.0723
  C  C136  1  0.572100  0.560500  0.517400  1.0  0.0709
  N  N137  1  0.845700  0.113990  0.702820  1.0  -0.3595
  N  N138  1  0.678200  0.113340  0.802990  1.0  -0.3769
  N  N139  1  0.133900  0.150820  0.694510  1.0  -0.3582
  N  N140  1  0.377700  0.146720  0.797130  1.0  -0.355
  N  N141  1  0.982300  0.053480  0.553360  1.0  -0.3711
  N  N142  1  0.838400  0.208410  0.551220  1.0  -0.3478
  N  N143  1  0.654600  0.294290  0.449020  1.0  -0.3642
  N  N144  1  0.518900  0.050180  0.943560  1.0  -0.3649
  N  N145  1  0.154300  0.613990  0.797180  1.0  -0.3593
  N  N146  1  0.321800  0.613340  0.697010  1.0  -0.3771
  N  N147  1  0.866100  0.650820  0.805490  1.0  -0.3598
  N  N148  1  0.622300  0.646720  0.702870  1.0  -0.3535
  N  N149  1  0.017700  0.553480  0.946640  1.0  -0.3729
  N  N150  1  0.161600  0.708410  0.948780  1.0  -0.3474
  N  N151  1  0.345400  0.794290  0.050980  1.0  -0.3649
  N  N152  1  0.481100  0.550180  0.556440  1.0  -0.3661
  N  N153  1  0.154300  0.886010  0.297180  1.0  -0.3591
  N  N154  1  0.321800  0.886660  0.197010  1.0  -0.3773
  N  N155  1  0.866100  0.849180  0.305490  1.0  -0.3596
  N  N156  1  0.622300  0.853280  0.202870  1.0  -0.3535
  N  N157  1  0.017700  0.946520  0.446640  1.0  -0.3734
  N  N158  1  0.161600  0.791590  0.448780  1.0  -0.3477
  N  N159  1  0.345400  0.705710  0.550980  1.0  -0.3642
  N  N160  1  0.481100  0.949820  0.056440  1.0  -0.3663
  N  N161  1  0.845700  0.386010  0.202820  1.0  -0.3591
  N  N162  1  0.678200  0.386660  0.302990  1.0  -0.3772
  N  N163  1  0.133900  0.349180  0.194510  1.0  -0.3591
  N  N164  1  0.377700  0.353280  0.297130  1.0  -0.3546
  N  N165  1  0.982300  0.446520  0.053360  1.0  -0.3709
  N  N166  1  0.838400  0.291590  0.051220  1.0  -0.3481
  N  N167  1  0.654600  0.205710  0.949020  1.0  -0.364
  N  N168  1  0.518900  0.449820  0.443560  1.0  -0.3652
