# generated using pymatgen
data_Cu3H30C30(N2O5)2
_symmetry_space_group_name_H-M   'P 1'
_cell_length_a   5.68200000
_cell_length_b   13.70200000
_cell_length_c   28.27400000
_cell_angle_alpha   90.00000000
_cell_angle_beta   93.20700000
_cell_angle_gamma   90.00000000
_symmetry_Int_Tables_number   1
_chemical_formula_structural   Cu3H30C30(N2O5)2
_chemical_formula_sum   'Cu6 H60 C60 N8 O20'
_cell_volume   2197.81827639
_cell_formula_units_Z   2
loop_
 _symmetry_equiv_pos_site_id
 _symmetry_equiv_pos_as_xyz
  1  'x, y, z'
loop_
 _atom_site_type_symbol
 _atom_site_label
 _atom_site_symmetry_multiplicity
 _atom_site_fract_x
 _atom_site_fract_y
 _atom_site_fract_z
 _atom_site_occupancy
 _atom_site_charge
  Cu  Cu1  1  0.045720  0.086960  0.031690  1.0  0.9532
  Cu  Cu2  1  0.454280  0.586960  0.468310  1.0  0.9548
  Cu  Cu3  1  0.954280  0.913040  0.968310  1.0  0.9547
  Cu  Cu4  1  0.545720  0.413040  0.531690  1.0  0.9529
  Cu  Cu5  1  0.500000  0.000000  0.000000  1.0  0.776
  Cu  Cu6  1  0.000000  0.500000  0.500000  1.0  0.776
  H  H7  1  0.194000  0.921000  0.042300  1.0  0.4266
  H  H8  1  0.346600  0.205800  0.162600  1.0  0.0937
  H  H9  1  0.533200  0.238700  0.235700  1.0  0.0944
  H  H10  1  0.035000  0.050300  0.211400  1.0  0.0922
  H  H11  1  0.862800  0.016400  0.137100  1.0  0.087
  H  H12  1  0.885300  0.234100  0.286600  1.0  0.0635
  H  H13  1  0.079200  0.155100  0.277800  1.0  0.058
  H  H14  1  0.629700  0.111600  0.311200  1.0  0.059
  H  H15  1  0.817600  0.031500  0.301000  1.0  0.0525
  H  H16  1  0.073000  0.102500  0.362100  1.0  0.0616
  H  H17  1  0.864600  0.172100  0.374300  1.0  0.0584
  H  H18  1  0.548800  0.108800  0.417200  1.0  0.0874
  H  H19  1  0.373800  0.983800  0.456200  1.0  0.0873
  H  H20  1  0.868500  0.801100  0.411000  1.0  0.0939
  H  H21  1  0.029900  0.929900  0.372200  1.0  0.0829
  H  H22  1  0.306000  0.421000  0.457700  1.0  0.4278
  H  H23  1  0.153400  0.705800  0.337400  1.0  0.0932
  H  H24  1  0.966800  0.738700  0.264300  1.0  0.0947
  H  H25  1  0.465000  0.550300  0.288600  1.0  0.0924
  H  H26  1  0.637200  0.516400  0.362900  1.0  0.087
  H  H27  1  0.614700  0.734100  0.213400  1.0  0.0635
  H  H28  1  0.420800  0.655100  0.222200  1.0  0.0579
  H  H29  1  0.870300  0.611600  0.188800  1.0  0.0599
  H  H30  1  0.682400  0.531500  0.199000  1.0  0.0532
  H  H31  1  0.427000  0.602500  0.137900  1.0  0.0605
  H  H32  1  0.635400  0.672100  0.125700  1.0  0.0589
  H  H33  1  0.951200  0.608800  0.082800  1.0  0.0874
  H  H34  1  0.126200  0.483800  0.043800  1.0  0.0872
  H  H35  1  0.631500  0.301100  0.089000  1.0  0.094
  H  H36  1  0.470100  0.429900  0.127800  1.0  0.082
  H  H37  1  0.806000  0.079000  0.957700  1.0  0.4278
  H  H38  1  0.653400  0.794200  0.837400  1.0  0.0933
  H  H39  1  0.466800  0.761300  0.764300  1.0  0.0941
  H  H40  1  0.965000  0.949700  0.788600  1.0  0.0921
  H  H41  1  0.137200  0.983600  0.862900  1.0  0.0866
  H  H42  1  0.114700  0.765900  0.713400  1.0  0.0623
  H  H43  1  0.920800  0.844900  0.722200  1.0  0.0579
  H  H44  1  0.370300  0.888400  0.688800  1.0  0.0599
  H  H45  1  0.182400  0.968500  0.699000  1.0  0.053
  H  H46  1  0.927000  0.897500  0.637900  1.0  0.0599
  H  H47  1  0.135400  0.827900  0.625700  1.0  0.0567
  H  H48  1  0.451200  0.891200  0.582800  1.0  0.0875
  H  H49  1  0.626200  0.016200  0.543800  1.0  0.0871
  H  H50  1  0.131500  0.198900  0.589000  1.0  0.094
  H  H51  1  0.970100  0.070100  0.627800  1.0  0.0821
  H  H52  1  0.694000  0.579000  0.542300  1.0  0.427
  H  H53  1  0.846600  0.294200  0.662600  1.0  0.0937
  H  H54  1  0.033200  0.261300  0.735700  1.0  0.094
  H  H55  1  0.535000  0.449700  0.711400  1.0  0.0924
  H  H56  1  0.362800  0.483600  0.637100  1.0  0.0869
  H  H57  1  0.385300  0.265900  0.786600  1.0  0.0623
  H  H58  1  0.579200  0.344900  0.777800  1.0  0.0578
  H  H59  1  0.129700  0.388400  0.811200  1.0  0.0587
  H  H60  1  0.317600  0.468500  0.801000  1.0  0.0534
  H  H61  1  0.573000  0.397500  0.862100  1.0  0.0616
  H  H62  1  0.364600  0.327900  0.874300  1.0  0.0576
  H  H63  1  0.048800  0.391200  0.917200  1.0  0.0875
  H  H64  1  0.873800  0.516200  0.956200  1.0  0.0872
  H  H65  1  0.368500  0.698900  0.911000  1.0  0.0937
  H  H66  1  0.529900  0.570100  0.872200  1.0  0.0832
  C  C67  1  0.466900  0.083500  0.093930  1.0  0.6497
  C  C68  1  0.584900  0.106100  0.142500  1.0  -0.1734
  C  C69  1  0.486100  0.174100  0.172030  1.0  -0.072
  C  C70  1  0.598300  0.193700  0.215540  1.0  0.0112
  C  C71  1  0.897000  0.082100  0.201020  1.0  0.0158
  C  C72  1  0.793000  0.060800  0.156880  1.0  -0.0595
  C  C73  1  0.910800  0.166900  0.277410  1.0  0.0232
  C  C74  1  0.797500  0.098200  0.311520  1.0  -0.1436
  C  C75  1  0.902800  0.108600  0.361670  1.0  0.0012
  C  C76  1  0.610800  0.046100  0.415800  1.0  0.0104
  C  C77  1  0.506400  0.971900  0.439220  1.0  -0.1051
  C  C78  1  0.600900  0.878800  0.437320  1.0  -0.1496
  C  C79  1  0.801200  0.862900  0.412150  1.0  -0.0893
  C  C80  1  0.896600  0.939800  0.389240  1.0  0.0237
  C  C81  1  0.485100  0.793900  0.460870  1.0  0.631
  C  C82  1  0.033100  0.583500  0.406070  1.0  0.6497
  C  C83  1  0.915100  0.606100  0.357500  1.0  -0.173
  C  C84  1  0.013900  0.674100  0.327970  1.0  -0.0734
  C  C85  1  0.901700  0.693700  0.284460  1.0  0.0098
  C  C86  1  0.603000  0.582100  0.298980  1.0  0.0179
  C  C87  1  0.707000  0.560800  0.343120  1.0  -0.0583
  C  C88  1  0.589200  0.666900  0.222590  1.0  0.0233
  C  C89  1  0.702500  0.598200  0.188480  1.0  -0.1434
  C  C90  1  0.597200  0.608600  0.138330  1.0  0.0025
  C  C91  1  0.889200  0.546100  0.084200  1.0  0.0096
  C  C92  1  0.993600  0.471900  0.060780  1.0  -0.1068
  C  C93  1  0.899100  0.378800  0.062680  1.0  -0.1493
  C  C94  1  0.698800  0.362900  0.087850  1.0  -0.0891
  C  C95  1  0.603400  0.439800  0.110760  1.0  0.0244
  C  C96  1  0.014900  0.293900  0.039130  1.0  0.6311
  C  C97  1  0.533100  0.916500  0.906070  1.0  0.6497
  C  C98  1  0.415100  0.893900  0.857500  1.0  -0.173
  C  C99  1  0.513900  0.825900  0.827970  1.0  -0.0731
  C  C100  1  0.401700  0.806300  0.784460  1.0  0.0082
  C  C101  1  0.103000  0.917900  0.798980  1.0  0.019
  C  C102  1  0.207000  0.939200  0.843120  1.0  -0.0593
  C  C103  1  0.089200  0.833100  0.722590  1.0  0.0235
  C  C104  1  0.202500  0.901800  0.688480  1.0  -0.143
  C  C105  1  0.097200  0.891400  0.638330  1.0  0.0021
  C  C106  1  0.389200  0.953900  0.584200  1.0  0.0099
  C  C107  1  0.493600  0.028100  0.560780  1.0  -0.1067
  C  C108  1  0.399100  0.121200  0.562680  1.0  -0.1486
  C  C109  1  0.198800  0.137100  0.587850  1.0  -0.0881
  C  C110  1  0.103400  0.060200  0.610760  1.0  0.0234
  C  C111  1  0.514900  0.206100  0.539130  1.0  0.6319
  C  C112  1  0.966900  0.416500  0.593930  1.0  0.6501
  C  C113  1  0.084900  0.393900  0.642500  1.0  -0.1727
  C  C114  1  0.986100  0.325900  0.672030  1.0  -0.0717
  C  C115  1  0.098300  0.306300  0.715540  1.0  0.0107
  C  C116  1  0.397000  0.417900  0.701020  1.0  0.0192
  C  C117  1  0.293000  0.439200  0.656880  1.0  -0.058
  C  C118  1  0.410800  0.333100  0.777410  1.0  0.0224
  C  C119  1  0.297500  0.401800  0.811520  1.0  -0.1432
  C  C120  1  0.402800  0.391400  0.861670  1.0  0.0007
  C  C121  1  0.110800  0.453900  0.915800  1.0  0.0104
  C  C122  1  0.006400  0.528100  0.939220  1.0  -0.1053
  C  C123  1  0.100900  0.621200  0.937320  1.0  -0.15
  C  C124  1  0.301200  0.637100  0.912150  1.0  -0.088
  C  C125  1  0.396600  0.560200  0.889240  1.0  0.0236
  C  C126  1  0.985100  0.706100  0.960870  1.0  0.6303
  N  N127  1  0.800400  0.148300  0.229050  1.0  0.011
  N  N128  1  0.801800  0.029900  0.390780  1.0  0.0092
  N  N129  1  0.699600  0.648300  0.270950  1.0  0.0098
  N  N130  1  0.698200  0.529900  0.109220  1.0  0.0087
  N  N131  1  0.199600  0.851700  0.770950  1.0  0.0104
  N  N132  1  0.198200  0.970100  0.609220  1.0  0.0087
  N  N133  1  0.300400  0.351700  0.729050  1.0  0.0111
  N  N134  1  0.301800  0.470100  0.890780  1.0  0.0092
  O  O135  1  0.183800  0.957900  0.018090  1.0  -0.9656
  O  O136  1  0.256900  0.112200  0.086900  1.0  -0.6194
  O  O137  1  0.591700  0.038900  0.065640  1.0  -0.6335
  O  O138  1  0.294800  0.808400  0.479440  1.0  -0.5851
  O  O139  1  0.596700  0.713400  0.459380  1.0  -0.6299
  O  O140  1  0.316200  0.457900  0.481910  1.0  -0.9651
  O  O141  1  0.243100  0.612200  0.413100  1.0  -0.6193
  O  O142  1  0.908300  0.538900  0.434360  1.0  -0.6334
  O  O143  1  0.205200  0.308400  0.020560  1.0  -0.5868
  O  O144  1  0.903300  0.213400  0.040620  1.0  -0.6299
  O  O145  1  0.816200  0.042100  0.981910  1.0  -0.9654
  O  O146  1  0.743100  0.887800  0.913100  1.0  -0.6194
  O  O147  1  0.408300  0.961100  0.934360  1.0  -0.6333
  O  O148  1  0.705200  0.191600  0.520560  1.0  -0.5873
  O  O149  1  0.403300  0.286600  0.540620  1.0  -0.6304
  O  O150  1  0.683800  0.542100  0.518090  1.0  -0.9656
  O  O151  1  0.756900  0.387800  0.586900  1.0  -0.6192
  O  O152  1  0.091700  0.461100  0.565640  1.0  -0.6336
  O  O153  1  0.794800  0.691600  0.979440  1.0  -0.5861
  O  O154  1  0.096700  0.786600  0.959380  1.0  -0.63
