# generated using pymatgen
data_EuH6(C2O)6
_symmetry_space_group_name_H-M   'P 1'
_cell_length_a   11.71600000
_cell_length_b   13.69300000
_cell_length_c   13.80000000
_cell_angle_alpha   90.00000000
_cell_angle_beta   99.44000000
_cell_angle_gamma   90.00000000
_symmetry_Int_Tables_number   1
_chemical_formula_structural   EuH6(C2O)6
_chemical_formula_sum   'Eu4 H24 C48 O24'
_cell_volume   2183.91440022
_cell_formula_units_Z   4
loop_
 _symmetry_equiv_pos_site_id
 _symmetry_equiv_pos_as_xyz
  1  'x, y, z'
loop_
 _atom_site_type_symbol
 _atom_site_label
 _atom_site_symmetry_multiplicity
 _atom_site_fract_x
 _atom_site_fract_y
 _atom_site_fract_z
 _atom_site_occupancy
 _atom_site_charge
  Eu  Eu1  1  0.613520  0.040160  0.913420  1.0  2.1267
  Eu  Eu2  1  0.886480  0.540160  0.586580  1.0  2.1272
  Eu  Eu3  1  0.386480  0.959840  0.086580  1.0  2.1273
  Eu  Eu4  1  0.113520  0.459840  0.413420  1.0  2.1267
  H  H5  1  0.855500  0.765500  0.059000  1.0  0.1124
  H  H6  1  0.941800  0.663300  0.182200  1.0  0.0956
  H  H7  1  0.678000  0.705900  0.328700  1.0  0.1078
  H  H8  1  0.591300  0.810500  0.206800  1.0  0.1174
  H  H9  1  0.429900  0.123400  0.588600  1.0  0.1098
  H  H10  1  0.648800  0.901000  0.573700  1.0  0.1107
  H  H11  1  0.644500  0.265500  0.441000  1.0  0.1123
  H  H12  1  0.558200  0.163300  0.317800  1.0  0.0955
  H  H13  1  0.822000  0.205900  0.171300  1.0  0.1077
  H  H14  1  0.908700  0.310500  0.293200  1.0  0.1176
  H  H15  1  0.070100  0.623400  0.911400  1.0  0.1097
  H  H16  1  0.851200  0.401000  0.926300  1.0  0.111
  H  H17  1  0.144500  0.234500  0.941000  1.0  0.1124
  H  H18  1  0.058200  0.336700  0.817800  1.0  0.0955
  H  H19  1  0.322000  0.294100  0.671300  1.0  0.108
  H  H20  1  0.408700  0.189500  0.793200  1.0  0.118
  H  H21  1  0.570100  0.876600  0.411400  1.0  0.1095
  H  H22  1  0.351200  0.099000  0.426300  1.0  0.1114
  H  H23  1  0.355500  0.734500  0.559000  1.0  0.1123
  H  H24  1  0.441800  0.836700  0.682200  1.0  0.0955
  H  H25  1  0.178000  0.794100  0.828700  1.0  0.1076
  H  H26  1  0.091300  0.689500  0.706800  1.0  0.1176
  H  H27  1  0.929900  0.376600  0.088600  1.0  0.1094
  H  H28  1  0.148800  0.599000  0.073700  1.0  0.1108
  C  C29  1  0.664800  0.872000  0.043900  1.0  0.7205
  C  C30  1  0.715800  0.799900  0.121000  1.0  -0.1242
  C  C31  1  0.820200  0.754300  0.113600  1.0  -0.056
  C  C32  1  0.871400  0.692700  0.187100  1.0  -0.045
  C  C33  1  0.818900  0.674200  0.268600  1.0  -0.1339
  C  C34  1  0.714000  0.718500  0.274700  1.0  -0.0216
  C  C35  1  0.661700  0.781200  0.201800  1.0  -0.0571
  C  C36  1  0.876200  0.607800  0.349800  1.0  0.799
  C  C37  1  0.595900  0.030000  0.705100  1.0  0.6689
  C  C38  1  0.547900  0.014700  0.598100  1.0  -0.1293
  C  C39  1  0.458200  0.073800  0.553100  1.0  -0.04
  C  C40  1  0.588900  0.940900  0.544100  1.0  -0.0445
  C  C41  1  0.835200  0.372000  0.456100  1.0  0.719
  C  C42  1  0.784200  0.299900  0.379000  1.0  -0.1241
  C  C43  1  0.679800  0.254300  0.386400  1.0  -0.0551
  C  C44  1  0.628600  0.192700  0.312900  1.0  -0.0454
  C  C45  1  0.681100  0.174200  0.231400  1.0  -0.1336
  C  C46  1  0.786000  0.218500  0.225300  1.0  -0.0232
  C  C47  1  0.838300  0.281200  0.298200  1.0  -0.0585
  C  C48  1  0.623800  0.107800  0.150200  1.0  0.7991
  C  C49  1  0.904100  0.530000  0.794900  1.0  0.67
  C  C50  1  0.952100  0.514700  0.901900  1.0  -0.1276
  C  C51  1  0.041800  0.573800  0.946900  1.0  -0.04
  C  C52  1  0.911100  0.440900  0.955900  1.0  -0.0443
  C  C53  1  0.335200  0.128000  0.956100  1.0  0.7192
  C  C54  1  0.284200  0.200100  0.879000  1.0  -0.1236
  C  C55  1  0.179800  0.245700  0.886400  1.0  -0.0538
  C  C56  1  0.128600  0.307300  0.812900  1.0  -0.0451
  C  C57  1  0.181100  0.325800  0.731400  1.0  -0.1331
  C  C58  1  0.286000  0.281500  0.725300  1.0  -0.0234
  C  C59  1  0.338300  0.218800  0.798200  1.0  -0.0582
  C  C60  1  0.123800  0.392200  0.650200  1.0  0.7996
  C  C61  1  0.404100  0.970000  0.294900  1.0  0.6694
  C  C62  1  0.452100  0.985300  0.401900  1.0  -0.1287
  C  C63  1  0.541800  0.926200  0.446900  1.0  -0.0401
  C  C64  1  0.411100  0.059100  0.455900  1.0  -0.0454
  C  C65  1  0.164800  0.628000  0.543900  1.0  0.7203
  C  C66  1  0.215800  0.700100  0.621000  1.0  -0.1245
  C  C67  1  0.320200  0.745700  0.613600  1.0  -0.0551
  C  C68  1  0.371400  0.807300  0.687100  1.0  -0.0454
  C  C69  1  0.318900  0.825800  0.768600  1.0  -0.1333
  C  C70  1  0.214000  0.781500  0.774700  1.0  -0.0218
  C  C71  1  0.161700  0.718800  0.701800  1.0  -0.0576
  C  C72  1  0.376200  0.892200  0.849800  1.0  0.7994
  C  C73  1  0.095900  0.470000  0.205100  1.0  0.6707
  C  C74  1  0.047900  0.485300  0.098100  1.0  -0.1287
  C  C75  1  0.958200  0.426200  0.053100  1.0  -0.0393
  C  C76  1  0.088900  0.559100  0.044100  1.0  -0.0445
  O  O77  1  0.722070  0.898560  0.979810  1.0  -0.6422
  O  O78  1  0.563620  0.906320  0.045720  1.0  -0.8748
  O  O79  1  0.971240  0.571600  0.338630  1.0  -0.7024
  O  O80  1  0.825010  0.594730  0.422450  1.0  -0.7708
  O  O81  1  0.559730  0.102210  0.748350  1.0  -0.6762
  O  O82  1  0.666667  0.970290  0.751200  1.0  -0.6521
  O  O83  1  0.777930  0.398560  0.520190  1.0  -0.6408
  O  O84  1  0.936380  0.406320  0.454280  1.0  -0.8737
  O  O85  1  0.528760  0.071600  0.161370  1.0  -0.7035
  O  O86  1  0.674990  0.094730  0.077550  1.0  -0.7709
  O  O87  1  0.940270  0.602210  0.751650  1.0  -0.6782
  O  O88  1  0.833370  0.470290  0.748800  1.0  -0.6539
  O  O89  1  0.277930  0.101440  0.020190  1.0  -0.6406
  O  O90  1  0.436380  0.093680  0.954280  1.0  -0.8737
  O  O91  1  0.028760  0.428400  0.661370  1.0  -0.7026
  O  O92  1  0.174990  0.405270  0.577550  1.0  -0.7712
  O  O93  1  0.440270  0.897790  0.251650  1.0  -0.6756
  O  O94  1  0.333370  0.029710  0.248800  1.0  -0.6555
  O  O95  1  0.222070  0.601440  0.479810  1.0  -0.642
  O  O96  1  0.063620  0.593680  0.545720  1.0  -0.874
  O  O97  1  0.471240  0.928400  0.838630  1.0  -0.7015
  O  O98  1  0.325010  0.905270  0.922450  1.0  -0.7709
  O  O99  1  0.059730  0.397790  0.248350  1.0  -0.6758
  O  O100  1  0.166630  0.529710  0.251200  1.0  -0.6505
