# generated using pymatgen
data_Zn2P3(HO3)4
_symmetry_space_group_name_H-M   'P 1'
_cell_length_a   5.13180000
_cell_length_b   7.84110000
_cell_length_c   16.51000000
_cell_angle_alpha   90.00000000
_cell_angle_beta   90.11900000
_cell_angle_gamma   90.00000000
_symmetry_Int_Tables_number   1
_chemical_formula_structural   Zn2P3(HO3)4
_chemical_formula_sum   'Zn4 P6 H8 O24'
_cell_volume   664.34374685
_cell_formula_units_Z   2
loop_
 _symmetry_equiv_pos_site_id
 _symmetry_equiv_pos_as_xyz
  1  'x, y, z'
loop_
 _atom_site_type_symbol
 _atom_site_label
 _atom_site_symmetry_multiplicity
 _atom_site_fract_x
 _atom_site_fract_y
 _atom_site_fract_z
 _atom_site_occupancy
 _atom_site_charge
  Zn  Zn1  1  0.198210  0.142100  0.586250  1.0  1.0358
  Zn  Zn2  1  0.195700  0.370600  0.920890  1.0  1.0783
  Zn  Zn3  1  0.801790  0.642100  0.413750  1.0  1.0356
  Zn  Zn4  1  0.804300  0.870600  0.079110  1.0  1.0791
  P  P5  1  0.703500  0.265600  0.498570  1.0  1.7301
  P  P6  1  0.305600  0.755500  0.987460  1.0  1.7838
  P  P7  1  0.453900  0.250700  0.753460  1.0  1.7944
  P  P8  1  0.296500  0.765600  0.501430  1.0  1.7314
  P  P9  1  0.694400  0.255500  0.012540  1.0  1.7846
  P  P10  1  0.546100  0.750700  0.246540  1.0  1.7937
  H  H11  1  0.660000  0.003000  0.461000  1.0  0.3669
  H  H12  1  0.300000  0.022000  0.958000  1.0  0.3595
  H  H13  1  0.713000  0.341000  0.664000  1.0  0.3684
  H  H14  1  0.727000  0.169000  0.853000  1.0  0.3838
  H  H15  1  0.340000  0.503000  0.539000  1.0  0.368
  H  H16  1  0.700000  0.522000  0.042000  1.0  0.3599
  H  H17  1  0.287000  0.841000  0.336000  1.0  0.3685
  H  H18  1  0.273000  0.669000  0.147000  1.0  0.3833
  O  O19  1  0.850300  0.239200  0.578500  1.0  -0.8799
  O  O20  1  0.328500  0.128400  0.695000  1.0  -0.8249
  O  O21  1  0.811500  0.408300  0.448500  1.0  -0.8585
  O  O22  1  0.413100  0.289600  0.516600  1.0  -0.8091
  O  O23  1  0.195100  0.612200  0.936900  1.0  -0.8427
  O  O24  1  0.156300  0.785500  0.066100  1.0  -0.8226
  O  O25  1  0.593500  0.726300  0.008500  1.0  -0.8502
  O  O26  1  0.275100  0.348600  0.807900  1.0  -0.8327
  O  O27  1  0.745000  0.103500  0.443600  1.0  -0.5487
  O  O28  1  0.277300  0.916000  0.931900  1.0  -0.5473
  O  O29  1  0.614300  0.388900  0.706700  1.0  -0.5319
  O  O30  1  0.646000  0.137500  0.804000  1.0  -0.5565
  O  O31  1  0.149700  0.739200  0.421500  1.0  -0.8782
  O  O32  1  0.671500  0.628400  0.305000  1.0  -0.8261
  O  O33  1  0.188500  0.908300  0.551500  1.0  -0.8595
  O  O34  1  0.586900  0.789600  0.483400  1.0  -0.8081
  O  O35  1  0.804900  0.112200  0.063100  1.0  -0.843
  O  O36  1  0.843700  0.285500  0.933900  1.0  -0.8229
  O  O37  1  0.406500  0.226300  0.991500  1.0  -0.8506
  O  O38  1  0.724900  0.848600  0.192100  1.0  -0.8317
  O  O39  1  0.255000  0.603500  0.556400  1.0  -0.5474
  O  O40  1  0.722700  0.416000  0.068100  1.0  -0.5461
  O  O41  1  0.385700  0.888900  0.293300  1.0  -0.5334
  O  O42  1  0.354000  0.637500  0.196000  1.0  -0.5528
