# generated using pymatgen
data_ZnP2HO8
_symmetry_space_group_name_H-M   'P 1'
_cell_length_a   10.44700000
_cell_length_b   12.34900000
_cell_length_c   10.22500000
_cell_angle_alpha   90.00000000
_cell_angle_beta   90.00000000
_cell_angle_gamma   90.00000000
_symmetry_Int_Tables_number   1
_chemical_formula_structural   ZnP2HO8
_chemical_formula_sum   'Zn4 P8 H4 O32'
_cell_volume   1319.12728067
_cell_formula_units_Z   4
loop_
 _symmetry_equiv_pos_site_id
 _symmetry_equiv_pos_as_xyz
  1  'x, y, z'
loop_
 _atom_site_type_symbol
 _atom_site_label
 _atom_site_symmetry_multiplicity
 _atom_site_fract_x
 _atom_site_fract_y
 _atom_site_fract_z
 _atom_site_occupancy
 _atom_site_charge
  Zn  Zn1  1  0.981220  0.866800  0.815500  1.0  1.1545
  Zn  Zn2  1  0.018780  0.133200  0.315500  1.0  1.1541
  Zn  Zn3  1  0.481220  0.633200  0.815500  1.0  1.1544
  Zn  Zn4  1  0.518780  0.366800  0.315500  1.0  1.1542
  P  P5  1  0.002200  0.983460  0.554900  1.0  1.7043
  P  P6  1  0.732600  0.744510  0.724600  1.0  1.7724
  P  P7  1  0.997800  0.016540  0.054900  1.0  1.7056
  P  P8  1  0.267400  0.255490  0.224600  1.0  1.773
  P  P9  1  0.502200  0.516540  0.554900  1.0  1.7045
  P  P10  1  0.232600  0.755490  0.724600  1.0  1.7722
  P  P11  1  0.497800  0.483460  0.054900  1.0  1.7052
  P  P12  1  0.767400  0.244510  0.224600  1.0  1.7721
  H  H13  1  0.202000  0.937000  0.638000  1.0  0.2727
  H  H14  1  0.798000  0.063000  0.138000  1.0  0.2749
  H  H15  1  0.702000  0.563000  0.638000  1.0  0.2718
  H  H16  1  0.298000  0.437000  0.138000  1.0  0.2743
  O  O17  1  0.812800  0.802600  0.827000  1.0  -0.7179
  O  O18  1  0.590800  0.752500  0.760800  1.0  -0.7115
  O  O19  1  0.972500  0.992300  0.700900  1.0  -0.7027
  O  O20  1  0.963000  0.088600  0.487900  1.0  -0.7104
  O  O21  1  0.152200  0.976200  0.537100  1.0  -0.5415
  O  O22  1  0.940700  0.883900  0.497300  1.0  -0.5964
  O  O23  1  0.774100  0.626600  0.708600  1.0  -0.4067
  O  O24  1  0.745100  0.802400  0.589200  1.0  -0.5164
  O  O25  1  0.187200  0.197400  0.327000  1.0  -0.716
  O  O26  1  0.409200  0.247500  0.260800  1.0  -0.7124
  O  O27  1  0.027500  0.007700  0.200900  1.0  -0.7037
  O  O28  1  0.037000  0.911400  0.987900  1.0  -0.7114
  O  O29  1  0.847800  0.023800  0.037100  1.0  -0.541
  O  O30  1  0.059300  0.116100  0.997300  1.0  -0.5983
  O  O31  1  0.225900  0.373400  0.208600  1.0  -0.408
  O  O32  1  0.254900  0.197600  0.089200  1.0  -0.5159
  O  O33  1  0.312800  0.697400  0.827000  1.0  -0.7177
  O  O34  1  0.090800  0.747500  0.760800  1.0  -0.7133
  O  O35  1  0.472500  0.507700  0.700900  1.0  -0.7033
  O  O36  1  0.463000  0.411400  0.487900  1.0  -0.7116
  O  O37  1  0.652200  0.523800  0.537100  1.0  -0.5414
  O  O38  1  0.440700  0.616100  0.497300  1.0  -0.5992
  O  O39  1  0.274100  0.873400  0.708600  1.0  -0.4071
  O  O40  1  0.245100  0.697600  0.589200  1.0  -0.5155
  O  O41  1  0.687200  0.302600  0.327000  1.0  -0.7161
  O  O42  1  0.909200  0.252500  0.260800  1.0  -0.7122
  O  O43  1  0.527500  0.492300  0.200900  1.0  -0.7026
  O  O44  1  0.537000  0.588600  0.987900  1.0  -0.7101
  O  O45  1  0.347800  0.476200  0.037100  1.0  -0.5399
  O  O46  1  0.559300  0.383900  0.997300  1.0  -0.5959
  O  O47  1  0.725900  0.126600  0.208600  1.0  -0.4083
  O  O48  1  0.754900  0.302400  0.089200  1.0  -0.5161
