# generated using pymatgen
data_Fe4P4O17
_symmetry_space_group_name_H-M   'P 1'
_cell_length_a   10.13830000
_cell_length_b   10.13830000
_cell_length_c   9.62800000
_cell_angle_alpha   90.00000000
_cell_angle_beta   90.00000000
_cell_angle_gamma   90.00000000
_symmetry_Int_Tables_number   1
_chemical_formula_structural   Fe4P4O17
_chemical_formula_sum   'Fe8 P8 O34'
_cell_volume   989.61520170
_cell_formula_units_Z   2
loop_
 _symmetry_equiv_pos_site_id
 _symmetry_equiv_pos_as_xyz
  1  'x, y, z'
loop_
 _atom_site_type_symbol
 _atom_site_label
 _atom_site_symmetry_multiplicity
 _atom_site_fract_x
 _atom_site_fract_y
 _atom_site_fract_z
 _atom_site_occupancy
 _atom_site_charge
  Fe  Fe1  1  0.373600  0.373600  0.121200  1.0  1.2624
  Fe  Fe2  1  0.873600  0.873600  0.621200  1.0  1.2624
  Fe  Fe3  1  0.626400  0.626400  0.121200  1.0  1.2607
  Fe  Fe4  1  0.126400  0.126400  0.621200  1.0  1.2607
  Fe  Fe5  1  0.373600  0.626400  0.878800  1.0  1.2606
  Fe  Fe6  1  0.873600  0.126400  0.378800  1.0  1.2606
  Fe  Fe7  1  0.626400  0.373600  0.878800  1.0  1.26
  Fe  Fe8  1  0.126400  0.873600  0.378800  1.0  1.26
  P  P9  1  0.331100  0.668900  0.196100  1.0  1.7475
  P  P10  1  0.831100  0.168900  0.696100  1.0  1.7475
  P  P11  1  0.668900  0.331100  0.196100  1.0  1.75
  P  P12  1  0.168900  0.831100  0.696100  1.0  1.75
  P  P13  1  0.668900  0.668900  0.803900  1.0  1.7494
  P  P14  1  0.168900  0.168900  0.303900  1.0  1.7494
  P  P15  1  0.331100  0.331100  0.803900  1.0  1.7477
  P  P16  1  0.831100  0.831100  0.303900  1.0  1.7477
  O  O17  1  0.299000  0.524000  0.223000  1.0  -0.6503
  O  O18  1  0.799000  0.024000  0.723000  1.0  -0.6503
  O  O19  1  0.701000  0.476000  0.223000  1.0  -0.6517
  O  O20  1  0.201000  0.976000  0.723000  1.0  -0.6517
  O  O21  1  0.524000  0.701000  0.777000  1.0  -0.6564
  O  O22  1  0.024000  0.201000  0.277000  1.0  -0.6564
  O  O23  1  0.476000  0.299000  0.777000  1.0  -0.6543
  O  O24  1  0.976000  0.799000  0.277000  1.0  -0.6543
  O  O25  1  0.701000  0.524000  0.777000  1.0  -0.6535
  O  O26  1  0.201000  0.024000  0.277000  1.0  -0.6535
  O  O27  1  0.299000  0.476000  0.777000  1.0  -0.6515
  O  O28  1  0.799000  0.976000  0.277000  1.0  -0.6515
  O  O29  1  0.476000  0.701000  0.223000  1.0  -0.6539
  O  O30  1  0.976000  0.201000  0.723000  1.0  -0.6539
  O  O31  1  0.524000  0.299000  0.223000  1.0  -0.6529
  O  O32  1  0.024000  0.799000  0.723000  1.0  -0.6529
  O  O33  1  0.500000  0.500000  0.000000  1.0  -1.0027
  O  O34  1  0.000000  0.000000  0.500000  1.0  -1.0027
  O  O35  1  0.296000  0.704000  0.052000  1.0  -0.6601
  O  O36  1  0.246000  0.754000  0.310000  1.0  -0.7954
  O  O37  1  0.796000  0.204000  0.552000  1.0  -0.6601
  O  O38  1  0.746000  0.254000  0.810000  1.0  -0.7954
  O  O39  1  0.704000  0.296000  0.052000  1.0  -0.6571
  O  O40  1  0.754000  0.246000  0.310000  1.0  -0.7943
  O  O41  1  0.204000  0.796000  0.552000  1.0  -0.6571
  O  O42  1  0.254000  0.746000  0.810000  1.0  -0.7943
  O  O43  1  0.704000  0.704000  0.948000  1.0  -0.6575
  O  O44  1  0.754000  0.754000  0.690000  1.0  -0.7937
  O  O45  1  0.204000  0.204000  0.448000  1.0  -0.6575
  O  O46  1  0.254000  0.254000  0.190000  1.0  -0.7937
  O  O47  1  0.296000  0.296000  0.948000  1.0  -0.6561
  O  O48  1  0.246000  0.246000  0.690000  1.0  -0.7968
  O  O49  1  0.796000  0.796000  0.448000  1.0  -0.6561
  O  O50  1  0.746000  0.746000  0.190000  1.0  -0.7968
