# generated using pymatgen
data_Eu4H23C20N5ClO31
_symmetry_space_group_name_H-M   'P 1'
_cell_length_a   11.55900000
_cell_length_b   20.74800000
_cell_length_c   23.68400000
_cell_angle_alpha   90.00000000
_cell_angle_beta   90.00000000
_cell_angle_gamma   90.00000000
_symmetry_Int_Tables_number   1
_chemical_formula_structural   Eu4H23C20N5ClO31
_chemical_formula_sum   'Eu16 H92 C80 N20 Cl4 O124'
_cell_volume   5680.04211029
_cell_formula_units_Z   4
loop_
 _symmetry_equiv_pos_site_id
 _symmetry_equiv_pos_as_xyz
  1  'x, y, z'
loop_
 _atom_site_type_symbol
 _atom_site_label
 _atom_site_symmetry_multiplicity
 _atom_site_fract_x
 _atom_site_fract_y
 _atom_site_fract_z
 _atom_site_occupancy
 _atom_site_charge
  Eu  Eu1  1  0.913280  0.976910  0.776650  1.0  2.1349
  Eu  Eu2  1  0.739520  0.884520  0.669270  1.0  2.1149
  Eu  Eu3  1  0.577980  0.990730  0.773680  1.0  2.1466
  Eu  Eu4  1  0.762120  0.071900  0.659050  1.0  2.0365
  Eu  Eu5  1  0.586720  0.023090  0.276650  1.0  2.1358
  Eu  Eu6  1  0.760480  0.115480  0.169270  1.0  2.114
  Eu  Eu7  1  0.922020  0.009270  0.273680  1.0  2.1453
  Eu  Eu8  1  0.737880  0.928100  0.159040  1.0  2.0357
  Eu  Eu9  1  0.086720  0.476910  0.723350  1.0  2.1283
  Eu  Eu10  1  0.260480  0.384520  0.830730  1.0  2.1135
  Eu  Eu11  1  0.422020  0.490730  0.726320  1.0  2.1445
  Eu  Eu12  1  0.237880  0.571900  0.840950  1.0  2.0347
  Eu  Eu13  1  0.413280  0.523090  0.223350  1.0  2.1271
  Eu  Eu14  1  0.239520  0.615480  0.330730  1.0  2.1149
  Eu  Eu15  1  0.077980  0.509270  0.226320  1.0  2.1456
  Eu  Eu16  1  0.262120  0.428100  0.340960  1.0  2.0373
  H  H17  1  0.142600  0.779700  0.761200  1.0  0.2591
  H  H18  1  0.104100  0.793900  0.818300  1.0  0.3207
  H  H19  1  0.139100  0.728800  0.803300  1.0  0.2364
  H  H20  1  0.569100  0.984600  0.966300  1.0  0.2422
  H  H21  1  0.604400  0.917500  0.963100  1.0  0.3001
  H  H22  1  0.620800  0.953400  0.015100  1.0  0.2478
  H  H23  1  0.650100  0.698600  0.752300  1.0  0.2405
  H  H24  1  0.610800  0.665700  0.701600  1.0  0.2545
  H  H25  1  0.633300  0.734600  0.700200  1.0  0.2575
  H  H26  1  0.209800  0.170900  0.536200  1.0  0.3508
  H  H27  1  0.316100  0.191200  0.567100  1.0  0.3519
  H  H28  1  0.941500  0.734800  0.808100  1.0  0.0913
  H  H29  1  0.022000  0.710500  0.697600  1.0  0.1293
  H  H30  1  0.899600  0.690100  0.719300  1.0  0.1221
  H  H31  1  0.797500  0.943900  0.968900  1.0  0.0913
  H  H32  1  0.848500  0.052600  0.969800  1.0  0.1273
  H  H33  1  0.717600  0.071900  0.973000  1.0  0.1129
  H  H34  1  0.525300  0.758400  0.812100  1.0  0.1186
  H  H35  1  0.399300  0.773600  0.791900  1.0  0.1236
  H  H36  1  0.444100  0.728100  0.703200  1.0  0.1068
  H  H37  1  0.151600  0.055900  0.546900  1.0  0.1259
  H  H38  1  0.145400  0.032000  0.609500  1.0  0.1329
  H  H39  1  0.315400  0.082800  0.592900  1.0  0.1095
  H  H40  1  0.357400  0.220300  0.261200  1.0  0.256
  H  H41  1  0.395900  0.206100  0.318300  1.0  0.3232
  H  H42  1  0.360900  0.271200  0.303300  1.0  0.2341
  H  H43  1  0.930900  0.015400  0.466300  1.0  0.2452
  H  H44  1  0.895600  0.082500  0.463100  1.0  0.3001
  H  H45  1  0.879200  0.046600  0.515100  1.0  0.248
  H  H46  1  0.849900  0.301400  0.252300  1.0  0.239
  H  H47  1  0.889200  0.334300  0.201600  1.0  0.2586
  H  H48  1  0.866700  0.265400  0.200200  1.0  0.2558
  H  H49  1  0.290200  0.829100  0.036200  1.0  0.3509
  H  H50  1  0.183900  0.808800  0.067100  1.0  0.3521
  H  H51  1  0.558500  0.265200  0.308100  1.0  0.092
  H  H52  1  0.478000  0.289500  0.197600  1.0  0.1293
  H  H53  1  0.600400  0.309900  0.219300  1.0  0.1256
  H  H54  1  0.702500  0.056100  0.468900  1.0  0.0902
  H  H55  1  0.651500  0.947400  0.469800  1.0  0.1267
  H  H56  1  0.782400  0.928100  0.473000  1.0  0.1123
  H  H57  1  0.974700  0.241600  0.312100  1.0  0.1188
  H  H58  1  0.100700  0.226400  0.291900  1.0  0.1241
  H  H59  1  0.055900  0.271900  0.203200  1.0  0.1071
  H  H60  1  0.348400  0.944100  0.046900  1.0  0.1247
  H  H61  1  0.354600  0.968000  0.109500  1.0  0.1324
  H  H62  1  0.184600  0.917200  0.092900  1.0  0.1064
  H  H63  1  0.857400  0.279700  0.738800  1.0  0.2589
  H  H64  1  0.895900  0.293900  0.681700  1.0  0.3186
  H  H65  1  0.860900  0.228800  0.696700  1.0  0.2345
  H  H66  1  0.430900  0.484600  0.533700  1.0  0.2446
  H  H67  1  0.395600  0.417500  0.536900  1.0  0.3009
  H  H68  1  0.379200  0.453400  0.484900  1.0  0.2467
  H  H69  1  0.349900  0.198600  0.747700  1.0  0.2406
  H  H70  1  0.389200  0.165700  0.798400  1.0  0.2566
  H  H71  1  0.366700  0.234600  0.799800  1.0  0.257
  H  H72  1  0.790200  0.670900  0.963800  1.0  0.3522
  H  H73  1  0.683900  0.691200  0.932900  1.0  0.353
  H  H74  1  0.058500  0.234800  0.691900  1.0  0.091
  H  H75  1  0.978000  0.210500  0.802400  1.0  0.129
  H  H76  1  0.100400  0.190100  0.780700  1.0  0.1256
  H  H77  1  0.202500  0.443900  0.531100  1.0  0.0907
  H  H78  1  0.151500  0.552600  0.530200  1.0  0.126
  H  H79  1  0.282400  0.571900  0.527000  1.0  0.1117
  H  H80  1  0.474700  0.258400  0.687900  1.0  0.1183
  H  H81  1  0.600700  0.273600  0.708100  1.0  0.1262
  H  H82  1  0.555900  0.228100  0.796800  1.0  0.1071
  H  H83  1  0.848400  0.555900  0.953100  1.0  0.1266
  H  H84  1  0.854600  0.532000  0.890500  1.0  0.1333
  H  H85  1  0.684600  0.582800  0.907100  1.0  0.1077
  H  H86  1  0.642600  0.720300  0.238800  1.0  0.261
  H  H87  1  0.604100  0.706100  0.181700  1.0  0.3211
  H  H88  1  0.639100  0.771200  0.196700  1.0  0.235
  H  H89  1  0.069100  0.515400  0.033700  1.0  0.243
  H  H90  1  0.104400  0.582500  0.036900  1.0  0.3004
  H  H91  1  0.120800  0.546600  0.984900  1.0  0.2474
  H  H92  1  0.150100  0.801400  0.247700  1.0  0.2415
  H  H93  1  0.110800  0.834300  0.298400  1.0  0.2581
  H  H94  1  0.133300  0.765400  0.299800  1.0  0.2588
  H  H95  1  0.709800  0.329100  0.463800  1.0  0.351
  H  H96  1  0.816100  0.308800  0.432900  1.0  0.3511
  H  H97  1  0.441500  0.765200  0.191900  1.0  0.091
  H  H98  1  0.522000  0.789500  0.302400  1.0  0.1291
  H  H99  1  0.399600  0.809900  0.280700  1.0  0.1228
  H  H100  1  0.297500  0.556100  0.031100  1.0  0.091
  H  H101  1  0.348500  0.447400  0.030200  1.0  0.1252
  H  H102  1  0.217600  0.428100  0.027000  1.0  0.1126
  H  H103  1  0.025300  0.741600  0.187900  1.0  0.1188
  H  H104  1  0.899300  0.726400  0.208100  1.0  0.1236
  H  H105  1  0.944100  0.771900  0.296800  1.0  0.1073
  H  H106  1  0.651600  0.444100  0.453100  1.0  0.1258
  H  H107  1  0.645400  0.468000  0.390500  1.0  0.1332
  H  H108  1  0.815400  0.417200  0.407100  1.0  0.1091
  C  C109  1  0.926700  0.811800  0.752600  1.0  0.6653
  C  C110  1  0.983600  0.749300  0.774500  1.0  0.1694
  C  C111  1  0.979500  0.696300  0.730600  1.0  -0.313
  C  C112  1  0.027500  0.632600  0.749000  1.0  0.7637
  C  C113  1  0.741900  0.982800  0.893100  1.0  0.6925
  C  C114  1  0.741000  0.976700  0.957600  1.0  0.1681
  C  C115  1  0.773500  0.039400  0.984100  1.0  -0.2835
  C  C116  1  0.778700  0.036700  0.047100  1.0  0.7895
  C  C117  1  0.518400  0.833800  0.758000  1.0  0.7891
  C  C118  1  0.478900  0.769600  0.779400  1.0  -0.3232
  C  C119  1  0.486000  0.714900  0.737300  1.0  0.1642
  C  C120  1  0.430100  0.652200  0.759200  1.0  0.6948
  C  C121  1  0.030200  0.103000  0.592700  1.0  0.7852
  C  C122  1  0.144600  0.070100  0.585800  1.0  -0.2797
  C  C123  1  0.247700  0.110200  0.599900  1.0  0.0576
  C  C124  1  0.255300  0.130900  0.663100  1.0  0.6435
  C  C125  1  0.091500  0.820200  0.577000  1.0  0.0798
  C  C126  1  0.213400  0.837600  0.664500  1.0  0.706
  C  C127  1  0.976100  0.812700  0.599600  1.0  0.6375
  C  C128  1  0.164400  0.869000  0.610600  1.0  -0.017
  C  C129  1  0.573300  0.188200  0.252600  1.0  0.6632
  C  C130  1  0.516400  0.250700  0.274500  1.0  0.1723
  C  C131  1  0.520500  0.303700  0.230600  1.0  -0.3105
  C  C132  1  0.472500  0.367400  0.249000  1.0  0.7664
  C  C133  1  0.758100  0.017200  0.393100  1.0  0.6935
  C  C134  1  0.759000  0.023300  0.457600  1.0  0.1683
  C  C135  1  0.726500  0.960600  0.484100  1.0  -0.2829
  C  C136  1  0.721300  0.963300  0.547100  1.0  0.7915
  C  C137  1  0.981600  0.166200  0.258000  1.0  0.783
  C  C138  1  0.021100  0.230400  0.279400  1.0  -0.321
  C  C139  1  0.014000  0.285100  0.237300  1.0  0.1685
  C  C140  1  0.069900  0.347800  0.259200  1.0  0.6933
  C  C141  1  0.469800  0.897000  0.092700  1.0  0.7842
  C  C142  1  0.355400  0.929900  0.085800  1.0  -0.2817
  C  C143  1  0.252300  0.889800  0.099900  1.0  0.0581
  C  C144  1  0.244700  0.869100  0.163100  1.0  0.6421
  C  C145  1  0.408500  0.179800  0.077000  1.0  0.0794
  C  C146  1  0.286600  0.162400  0.164500  1.0  0.7059
  C  C147  1  0.523900  0.187300  0.099600  1.0  0.6372
  C  C148  1  0.335600  0.131000  0.110600  1.0  -0.0185
  C  C149  1  0.073300  0.311800  0.747400  1.0  0.6643
  C  C150  1  0.016400  0.249300  0.725500  1.0  0.1725
  C  C151  1  0.020500  0.196300  0.769400  1.0  -0.3102
  C  C152  1  0.972500  0.132600  0.751000  1.0  0.7632
  C  C153  1  0.258100  0.482800  0.606900  1.0  0.6907
  C  C154  1  0.259000  0.476700  0.542400  1.0  0.1676
  C  C155  1  0.226500  0.539400  0.515900  1.0  -0.2831
  C  C156  1  0.221300  0.536700  0.452900  1.0  0.7927
  C  C157  1  0.481600  0.333800  0.742000  1.0  0.7885
  C  C158  1  0.521100  0.269600  0.720600  1.0  -0.322
  C  C159  1  0.514000  0.214900  0.762700  1.0  0.1694
  C  C160  1  0.569900  0.152200  0.740800  1.0  0.6955
  C  C161  1  0.969800  0.603000  0.907300  1.0  0.7839
  C  C162  1  0.855400  0.570100  0.914200  1.0  -0.2806
  C  C163  1  0.752300  0.610200  0.900100  1.0  0.0587
  C  C164  1  0.744700  0.630900  0.836900  1.0  0.6434
  C  C165  1  0.908500  0.320200  0.923000  1.0  0.0774
  C  C166  1  0.786600  0.337600  0.835500  1.0  0.7024
  C  C167  1  0.023900  0.312700  0.900400  1.0  0.6352
  C  C168  1  0.835600  0.369000  0.889400  1.0  -0.0194
  C  C169  1  0.426700  0.688200  0.247400  1.0  0.664
  C  C170  1  0.483600  0.750700  0.225500  1.0  0.1685
  C  C171  1  0.479500  0.803700  0.269400  1.0  -0.3121
  C  C172  1  0.527500  0.867400  0.251000  1.0  0.7656
  C  C173  1  0.241900  0.517200  0.106900  1.0  0.6904
  C  C174  1  0.241000  0.523300  0.042400  1.0  0.1685
  C  C175  1  0.273500  0.460600  0.015900  1.0  -0.2811
  C  C176  1  0.278700  0.463300  0.952900  1.0  0.7916
  C  C177  1  0.018400  0.666200  0.242000  1.0  0.7837
  C  C178  1  0.978900  0.730400  0.220600  1.0  -0.3213
  C  C179  1  0.986000  0.785100  0.262700  1.0  0.1658
  C  C180  1  0.930100  0.847800  0.240800  1.0  0.6934
  C  C181  1  0.530200  0.397000  0.407300  1.0  0.785
  C  C182  1  0.644600  0.429900  0.414200  1.0  -0.2828
  C  C183  1  0.747700  0.389800  0.400100  1.0  0.0574
  C  C184  1  0.755300  0.369100  0.336900  1.0  0.6433
  C  C185  1  0.591500  0.679800  0.423000  1.0  0.0781
  C  C186  1  0.713400  0.662400  0.335500  1.0  0.7035
  C  C187  1  0.476100  0.687300  0.400400  1.0  0.6337
  C  C188  1  0.664400  0.631000  0.389400  1.0  -0.022
  N  N189  1  0.104500  0.764500  0.791000  1.0  -0.3525
  N  N190  1  0.621400  0.955900  0.977600  1.0  -0.3449
  N  N191  1  0.607000  0.702200  0.721300  1.0  -0.3501
  N  N192  1  0.259500  0.164800  0.562700  1.0  -0.6188
  N  N193  1  0.147400  0.758600  0.562300  1.0  -0.2488
  N  N194  1  0.395500  0.235500  0.291000  1.0  -0.3531
  N  N195  1  0.878600  0.044100  0.477600  1.0  -0.3478
  N  N196  1  0.893000  0.297800  0.221300  1.0  -0.3519
  N  N197  1  0.240500  0.835200  0.062700  1.0  -0.6162
  N  N198  1  0.352600  0.241400  0.062300  1.0  -0.2515
  N  N199  1  0.895500  0.264500  0.709000  1.0  -0.353
  N  N200  1  0.378600  0.455900  0.522400  1.0  -0.3483
  N  N201  1  0.393000  0.202200  0.778700  1.0  -0.3511
  N  N202  1  0.740500  0.664800  0.937300  1.0  -0.6215
  N  N203  1  0.852600  0.258600  0.937700  1.0  -0.252
  N  N204  1  0.604500  0.735500  0.209000  1.0  -0.352
  N  N205  1  0.121400  0.544100  0.022400  1.0  -0.3464
  N  N206  1  0.107000  0.797800  0.278700  1.0  -0.3487
  N  N207  1  0.759500  0.335200  0.437300  1.0  -0.6178
  N  N208  1  0.647400  0.741400  0.437700  1.0  -0.2516
  Cl  Cl209  1  0.316700  0.691680  0.017760  1.0  -0.3858
  Cl  Cl210  1  0.183300  0.308320  0.517760  1.0  -0.3854
  Cl  Cl211  1  0.683300  0.191680  0.482240  1.0  -0.3853
  Cl  Cl212  1  0.816700  0.808320  0.982240  1.0  -0.3871
  O  O213  1  0.866500  0.974100  0.679100  1.0  -0.7314
  O  O214  1  0.738500  0.918790  0.766610  1.0  -0.8248
  O  O215  1  0.754900  0.046760  0.759910  1.0  -0.8192
  O  O216  1  0.629300  0.982700  0.678400  1.0  -0.7445
  O  O217  1  0.973300  0.864800  0.764100  1.0  -0.6917
  O  O218  1  0.835100  0.803200  0.725000  1.0  -0.6245
  O  O219  1  0.086500  0.629900  0.793400  1.0  -0.6159
  O  O220  1  0.006500  0.584500  0.717000  1.0  -0.6578
  O  O221  1  0.838200  0.983900  0.870700  1.0  -0.6833
  O  O222  1  0.644800  0.987400  0.869100  1.0  -0.7148
  O  O223  1  0.762600  0.983500  0.071060  1.0  -0.6235
  O  O224  1  0.797300  0.088400  0.072800  1.0  -0.6273
  O  O225  1  0.565800  0.837800  0.710600  1.0  -0.5899
  O  O226  1  0.501600  0.882700  0.789900  1.0  -0.6509
  O  O227  1  0.476600  0.601400  0.743600  1.0  -0.589
  O  O228  1  0.343700  0.658200  0.789700  1.0  -0.6324
  O  O229  1  0.943600  0.066200  0.599500  1.0  -0.6069
  O  O230  1  0.028400  0.163500  0.592200  1.0  -0.5596
  O  O231  1  0.234600  0.086800  0.697700  1.0  -0.5644
  O  O232  1  0.281200  0.187100  0.673400  1.0  -0.5661
  O  O233  1  0.916000  0.855500  0.619400  1.0  -0.6688
  O  O234  1  0.198000  0.784200  0.682700  1.0  -0.5051
  O  O235  1  0.249700  0.881200  0.694200  1.0  -0.4952
  O  O236  1  0.067100  0.961000  0.846400  1.0  -0.2764
  O  O237  1  0.098200  0.978700  0.722200  1.0  -0.2003
  O  O238  1  0.699300  0.776700  0.624400  1.0  -0.3969
  O  O239  1  0.417300  0.004800  0.841200  1.0  -0.2753
  O  O240  1  0.393100  0.986600  0.719300  1.0  -0.1968
  O  O241  1  0.574600  0.102500  0.611400  1.0  -0.2382
  O  O242  1  0.797300  0.177400  0.607100  1.0  -0.2916
  O  O243  1  0.929800  0.755400  0.598400  1.0  -0.504
  O  O244  1  0.633500  0.025900  0.179100  1.0  -0.7322
  O  O245  1  0.761500  0.081210  0.266610  1.0  -0.8244
  O  O246  1  0.745100  0.953240  0.259910  1.0  -0.8196
  O  O247  1  0.870700  0.017300  0.178400  1.0  -0.7441
  O  O248  1  0.526700  0.135200  0.264100  1.0  -0.6915
  O  O249  1  0.664900  0.196800  0.225000  1.0  -0.6243
  O  O250  1  0.413500  0.370100  0.293400  1.0  -0.6153
  O  O251  1  0.493500  0.415500  0.217000  1.0  -0.659
  O  O252  1  0.661800  0.016100  0.370700  1.0  -0.6824
  O  O253  1  0.855200  0.012600  0.369100  1.0  -0.7148
  O  O254  1  0.737400  0.016500  0.571060  1.0  -0.6251
  O  O255  1  0.702700  0.911600  0.572800  1.0  -0.6286
  O  O256  1  0.934200  0.162200  0.210600  1.0  -0.5899
  O  O257  1  0.998400  0.117300  0.289900  1.0  -0.6493
  O  O258  1  0.023400  0.398600  0.243600  1.0  -0.5863
  O  O259  1  0.156300  0.341800  0.289700  1.0  -0.6331
  O  O260  1  0.556400  0.933800  0.099500  1.0  -0.6059
  O  O261  1  0.471600  0.836500  0.092200  1.0  -0.5616
  O  O262  1  0.265400  0.913200  0.197700  1.0  -0.5652
  O  O263  1  0.218800  0.812900  0.173400  1.0  -0.5676
  O  O264  1  0.584000  0.144500  0.119400  1.0  -0.6675
  O  O265  1  0.302000  0.215800  0.182700  1.0  -0.5059
  O  O266  1  0.250300  0.118800  0.194200  1.0  -0.4941
  O  O267  1  0.432900  0.039000  0.346400  1.0  -0.2764
  O  O268  1  0.401800  0.021300  0.222200  1.0  -0.1997
  O  O269  1  0.800700  0.223300  0.124400  1.0  -0.396
  O  O270  1  0.082700  0.995200  0.341200  1.0  -0.2743
  O  O271  1  0.106900  0.013400  0.219300  1.0  -0.198
  O  O272  1  0.925400  0.897500  0.111400  1.0  -0.2377
  O  O273  1  0.702700  0.822600  0.107100  1.0  -0.2899
  O  O274  1  0.570200  0.244600  0.098400  1.0  -0.5059
  O  O275  1  0.133500  0.474100  0.820900  1.0  -0.7316
  O  O276  1  0.261500  0.418790  0.733390  1.0  -0.8259
  O  O277  1  0.245100  0.546760  0.740090  1.0  -0.82
  O  O278  1  0.370700  0.482700  0.821600  1.0  -0.7442
  O  O279  1  0.026700  0.364800  0.735900  1.0  -0.6916
  O  O280  1  0.164900  0.303200  0.775000  1.0  -0.6229
  O  O281  1  0.913500  0.129900  0.706600  1.0  -0.6158
  O  O282  1  0.993500  0.084500  0.783000  1.0  -0.6573
  O  O283  1  0.161800  0.483900  0.629300  1.0  -0.6831
  O  O284  1  0.355200  0.487400  0.630900  1.0  -0.714
  O  O285  1  0.237400  0.483500  0.428940  1.0  -0.6231
  O  O286  1  0.202700  0.588400  0.427200  1.0  -0.6293
  O  O287  1  0.434200  0.337800  0.789400  1.0  -0.5907
  O  O288  1  0.498400  0.382700  0.710100  1.0  -0.6515
  O  O289  1  0.523400  0.101400  0.756400  1.0  -0.5883
  O  O290  1  0.656300  0.158200  0.710300  1.0  -0.6334
  O  O291  1  0.056400  0.566200  0.900500  1.0  -0.6068
  O  O292  1  0.971600  0.663500  0.907800  1.0  -0.5599
  O  O293  1  0.765400  0.586800  0.802300  1.0  -0.5639
  O  O294  1  0.718800  0.687100  0.826600  1.0  -0.5669
  O  O295  1  0.084000  0.355500  0.880600  1.0  -0.6693
  O  O296  1  0.802000  0.284200  0.817300  1.0  -0.5043
  O  O297  1  0.750300  0.381200  0.805800  1.0  -0.4954
  O  O298  1  0.932900  0.461000  0.653600  1.0  -0.2768
  O  O299  1  0.901800  0.478700  0.777800  1.0  -0.2007
  O  O300  1  0.300700  0.276700  0.875600  1.0  -0.3909
  O  O301  1  0.582700  0.504800  0.658800  1.0  -0.2744
  O  O302  1  0.606900  0.486600  0.780700  1.0  -0.1969
  O  O303  1  0.425400  0.602500  0.888600  1.0  -0.2387
  O  O304  1  0.202700  0.677400  0.892900  1.0  -0.2906
  O  O305  1  0.070200  0.255400  0.901600  1.0  -0.5056
  O  O306  1  0.366500  0.525900  0.320900  1.0  -0.7312
  O  O307  1  0.238500  0.581210  0.233390  1.0  -0.8256
  O  O308  1  0.254900  0.453240  0.240090  1.0  -0.8208
  O  O309  1  0.129300  0.517300  0.321600  1.0  -0.7439
  O  O310  1  0.473300  0.635200  0.235900  1.0  -0.6906
  O  O311  1  0.335100  0.696800  0.275000  1.0  -0.6247
  O  O312  1  0.586500  0.870100  0.206600  1.0  -0.6154
  O  O313  1  0.506500  0.915500  0.283000  1.0  -0.6595
  O  O314  1  0.338200  0.516100  0.129300  1.0  -0.6838
  O  O315  1  0.144800  0.512600  0.130900  1.0  -0.7156
  O  O316  1  0.262600  0.516500  0.928940  1.0  -0.6231
  O  O317  1  0.297300  0.411600  0.927200  1.0  -0.6284
  O  O318  1  0.065800  0.662200  0.289400  1.0  -0.5925
  O  O319  1  0.001600  0.617300  0.210100  1.0  -0.65
  O  O320  1  0.976600  0.898600  0.256400  1.0  -0.5868
  O  O321  1  0.843700  0.841800  0.210300  1.0  -0.6325
  O  O322  1  0.443600  0.433800  0.400500  1.0  -0.6057
  O  O323  1  0.528400  0.336500  0.407800  1.0  -0.5598
  O  O324  1  0.734600  0.413200  0.302300  1.0  -0.563
  O  O325  1  0.781200  0.312900  0.326600  1.0  -0.567
  O  O326  1  0.416000  0.644500  0.380600  1.0  -0.6688
  O  O327  1  0.698000  0.715800  0.317300  1.0  -0.5045
  O  O328  1  0.749700  0.618800  0.305800  1.0  -0.4925
  O  O329  1  0.567100  0.539000  0.153600  1.0  -0.2756
  O  O330  1  0.598200  0.521300  0.277800  1.0  -0.2
  O  O331  1  0.199300  0.723300  0.375600  1.0  -0.3912
  O  O332  1  0.917300  0.495200  0.158800  1.0  -0.2758
  O  O333  1  0.893100  0.513400  0.280700  1.0  -0.1958
  O  O334  1  0.074600  0.397500  0.388600  1.0  -0.2392
  O  O335  1  0.297300  0.322600  0.392900  1.0  -0.2918
  O  O336  1  0.429800  0.744600  0.401600  1.0  -0.5024
