# generated using pymatgen
data_CoH21C26(NO2)2
_symmetry_space_group_name_H-M   'P 1'
_cell_length_a   14.90900000
_cell_length_b   7.19630000
_cell_length_c   24.59200000
_cell_angle_alpha   90.00000000
_cell_angle_beta   104.31200000
_cell_angle_gamma   90.00000000
_symmetry_Int_Tables_number   1
_chemical_formula_structural   CoH21C26(NO2)2
_chemical_formula_sum   'Co4 H84 C104 N8 O16'
_cell_volume   2556.57923588
_cell_formula_units_Z   4
loop_
 _symmetry_equiv_pos_site_id
 _symmetry_equiv_pos_as_xyz
  1  'x, y, z'
loop_
 _atom_site_type_symbol
 _atom_site_label
 _atom_site_symmetry_multiplicity
 _atom_site_fract_x
 _atom_site_fract_y
 _atom_site_fract_z
 _atom_site_occupancy
 _atom_site_charge
  Co  Co1  1  0.560780  0.337940  0.511740  1.0  0.9853
  Co  Co2  1  0.439220  0.337940  0.988260  1.0  0.9854
  Co  Co3  1  0.439220  0.662060  0.488260  1.0  0.9855
  Co  Co4  1  0.560780  0.662060  0.011740  1.0  0.9855
  H  H5  1  0.429100  0.959200  0.368900  1.0  0.1023
  H  H6  1  0.346000  0.833300  0.287500  1.0  0.1098
  H  H7  1  0.176200  0.271900  0.262600  1.0  0.1226
  H  H8  1  0.265400  0.407500  0.341200  1.0  0.0992
  H  H9  1  0.110100  0.848300  0.267400  1.0  0.1146
  H  H10  1  0.176300  0.691000  0.256600  1.0  0.1108
  H  H11  1  0.086900  0.740900  0.210200  1.0  0.1132
  H  H12  1  0.153700  0.150600  0.159700  1.0  0.1084
  H  H13  1  0.083100  0.119100  0.196600  1.0  0.1058
  H  H14  1  0.083500  0.984800  0.146500  1.0  0.113
  H  H15  1  0.330100  0.072000  0.180400  1.0  0.1164
  H  H16  1  0.412100  0.963900  0.118900  1.0  0.1002
  H  H17  1  0.276800  0.478100  0.106300  1.0  0.1027
  H  H18  1  0.191000  0.593200  0.166400  1.0  0.1024
  H  H19  1  0.670600  0.970200  0.488100  1.0  0.0857
  H  H20  1  0.751500  0.320500  0.612100  1.0  0.1017
  H  H21  1  0.875500  0.098700  0.615000  1.0  0.1149
  H  H22  1  0.889800  0.728400  0.609700  1.0  0.1207
  H  H23  1  0.981300  0.499600  0.588200  1.0  0.1213
  H  H24  1  0.924700  0.687500  0.428000  1.0  0.1146
  H  H25  1  0.833100  0.913200  0.451000  1.0  0.1186
  H  H26  1  0.570900  0.959200  0.131100  1.0  0.103
  H  H27  1  0.654000  0.833300  0.212500  1.0  0.1098
  H  H28  1  0.823800  0.271900  0.237400  1.0  0.1222
  H  H29  1  0.734600  0.407500  0.158800  1.0  0.0999
  H  H30  1  0.889900  0.848300  0.232600  1.0  0.1148
  H  H31  1  0.823700  0.691000  0.243400  1.0  0.1107
  H  H32  1  0.913100  0.740900  0.289800  1.0  0.1137
  H  H33  1  0.846300  0.150600  0.340300  1.0  0.1071
  H  H34  1  0.916900  0.119100  0.303400  1.0  0.1061
  H  H35  1  0.916500  0.984800  0.353500  1.0  0.1118
  H  H36  1  0.669900  0.072000  0.319600  1.0  0.1173
  H  H37  1  0.587900  0.963900  0.381100  1.0  0.0996
  H  H38  1  0.723200  0.478100  0.393700  1.0  0.1028
  H  H39  1  0.809000  0.593200  0.333600  1.0  0.1024
  H  H40  1  0.329400  0.970200  0.011900  1.0  0.0861
  H  H41  1  0.248500  0.320500  0.887900  1.0  0.1018
  H  H42  1  0.124500  0.098700  0.885000  1.0  0.115
  H  H43  1  0.110200  0.728400  0.890300  1.0  0.1204
  H  H44  1  0.018700  0.499600  0.911800  1.0  0.1206
  H  H45  1  0.075300  0.687500  0.072000  1.0  0.1153
  H  H46  1  0.166900  0.913200  0.049000  1.0  0.1187
  H  H47  1  0.570900  0.040800  0.631100  1.0  0.103
  H  H48  1  0.654000  0.166700  0.712500  1.0  0.1096
  H  H49  1  0.823800  0.728100  0.737400  1.0  0.1217
  H  H50  1  0.734600  0.592500  0.658800  1.0  0.0995
  H  H51  1  0.889900  0.151700  0.732600  1.0  0.1149
  H  H52  1  0.823700  0.309000  0.743400  1.0  0.1111
  H  H53  1  0.913100  0.259100  0.789800  1.0  0.1132
  H  H54  1  0.846300  0.849400  0.840300  1.0  0.1079
  H  H55  1  0.916900  0.880900  0.803400  1.0  0.1055
  H  H56  1  0.916500  0.015200  0.853500  1.0  0.1121
  H  H57  1  0.669900  0.928000  0.819600  1.0  0.1176
  H  H58  1  0.587900  0.036100  0.881100  1.0  0.0999
  H  H59  1  0.723200  0.521900  0.893700  1.0  0.1028
  H  H60  1  0.809000  0.406800  0.833600  1.0  0.1029
  H  H61  1  0.329400  0.029800  0.511900  1.0  0.0857
  H  H62  1  0.248500  0.679500  0.387900  1.0  0.1017
  H  H63  1  0.124500  0.901300  0.385000  1.0  0.1146
  H  H64  1  0.110200  0.271600  0.390300  1.0  0.1204
  H  H65  1  0.018700  0.500400  0.411800  1.0  0.1212
  H  H66  1  0.075300  0.312500  0.572000  1.0  0.1152
  H  H67  1  0.166900  0.086800  0.549000  1.0  0.1187
  H  H68  1  0.429100  0.040800  0.868900  1.0  0.1024
  H  H69  1  0.346000  0.166700  0.787500  1.0  0.1102
  H  H70  1  0.176200  0.728100  0.762600  1.0  0.1222
  H  H71  1  0.265400  0.592500  0.841200  1.0  0.099
  H  H72  1  0.110100  0.151700  0.767400  1.0  0.1148
  H  H73  1  0.176300  0.309000  0.756600  1.0  0.1094
  H  H74  1  0.086900  0.259100  0.710200  1.0  0.1129
  H  H75  1  0.153700  0.849400  0.659700  1.0  0.107
  H  H76  1  0.083100  0.880900  0.696600  1.0  0.1059
  H  H77  1  0.083500  0.015200  0.646500  1.0  0.1125
  H  H78  1  0.330100  0.928000  0.680400  1.0  0.1171
  H  H79  1  0.412100  0.036100  0.618900  1.0  0.1002
  H  H80  1  0.276800  0.521900  0.606300  1.0  0.1029
  H  H81  1  0.191000  0.406800  0.666400  1.0  0.1032
  H  H82  1  0.670600  0.029800  0.988100  1.0  0.0854
  H  H83  1  0.751500  0.679500  0.112100  1.0  0.1024
  H  H84  1  0.875500  0.901300  0.115000  1.0  0.115
  H  H85  1  0.889800  0.271600  0.109700  1.0  0.1203
  H  H86  1  0.981300  0.500400  0.088200  1.0  0.1213
  H  H87  1  0.924700  0.312500  0.928000  1.0  0.1146
  H  H88  1  0.833100  0.086800  0.951000  1.0  0.1183
  C  C89  1  0.414600  0.287900  0.416600  1.0  0.6707
  C  C90  1  0.356600  0.198500  0.364710  1.0  -0.1154
  C  C91  1  0.379000  0.024200  0.347130  1.0  -0.0794
  C  C92  1  0.328900  0.948500  0.298800  1.0  -0.155
  C  C93  1  0.253000  0.038100  0.266050  1.0  0.0394
  C  C94  1  0.228400  0.210700  0.283500  1.0  -0.2001
  C  C95  1  0.280700  0.289600  0.331000  1.0  -0.0319
  C  C96  1  0.135900  0.790100  0.239610  1.0  -0.3757
  C  C97  1  0.191200  0.934400  0.214980  1.0  0.0476
  C  C98  1  0.121500  0.058700  0.175800  1.0  -0.3655
  C  C99  1  0.250800  0.845600  0.178970  1.0  0.0355
  C  C100  1  0.318400  0.953400  0.165280  1.0  -0.1519
  C  C101  1  0.369000  0.886300  0.129000  1.0  -0.0444
  C  C102  1  0.357500  0.707500  0.107360  1.0  -0.0978
  C  C103  1  0.288200  0.597300  0.121000  1.0  -0.0358
  C  C104  1  0.236000  0.667500  0.157100  1.0  -0.1206
  C  C105  1  0.412100  0.635800  0.068150  1.0  0.6815
  C  C106  1  0.707000  0.034600  0.518400  1.0  0.1843
  C  C107  1  0.750900  0.225300  0.586500  1.0  -0.0044
  C  C108  1  0.819200  0.101900  0.588300  1.0  -0.0811
  C  C109  1  0.851600  0.842400  0.532280  1.0  0.1668
  C  C110  1  0.896800  0.718800  0.573300  1.0  -0.1885
  C  C111  1  0.952600  0.580100  0.559600  1.0  -0.0939
  C  C112  1  0.964600  0.567400  0.505800  1.0  0.0138
  C  C113  1  0.919300  0.691100  0.464900  1.0  -0.1155
  C  C114  1  0.863000  0.829500  0.478400  1.0  -0.1773
  C  C115  1  0.585400  0.287900  0.083400  1.0  0.6715
  C  C116  1  0.643400  0.198500  0.135290  1.0  -0.1165
  C  C117  1  0.621000  0.024200  0.152870  1.0  -0.0781
  C  C118  1  0.671100  0.948500  0.201200  1.0  -0.1525
  C  C119  1  0.747000  0.038100  0.233950  1.0  0.0391
  C  C120  1  0.771600  0.210700  0.216500  1.0  -0.1996
  C  C121  1  0.719300  0.289600  0.169000  1.0  -0.032
  C  C122  1  0.864100  0.790100  0.260390  1.0  -0.376
  C  C123  1  0.808800  0.934400  0.285020  1.0  0.0474
  C  C124  1  0.878500  0.058700  0.324200  1.0  -0.3647
  C  C125  1  0.749200  0.845600  0.321030  1.0  0.0352
  C  C126  1  0.681600  0.953400  0.334720  1.0  -0.1528
  C  C127  1  0.631000  0.886300  0.371000  1.0  -0.0451
  C  C128  1  0.642500  0.707500  0.392640  1.0  -0.0986
  C  C129  1  0.711800  0.597300  0.379000  1.0  -0.0362
  C  C130  1  0.764000  0.667500  0.342900  1.0  -0.1218
  C  C131  1  0.587900  0.635800  0.431850  1.0  0.6809
  C  C132  1  0.293000  0.034600  0.981600  1.0  0.1851
  C  C133  1  0.249100  0.225300  0.913500  1.0  -0.004
  C  C134  1  0.180800  0.101900  0.911700  1.0  -0.0825
  C  C135  1  0.148400  0.842400  0.967720  1.0  0.167
  C  C136  1  0.103200  0.718800  0.926700  1.0  -0.1854
  C  C137  1  0.047400  0.580100  0.940400  1.0  -0.0931
  C  C138  1  0.035400  0.567400  0.994200  1.0  0.0136
  C  C139  1  0.080700  0.691100  0.035100  1.0  -0.1136
  C  C140  1  0.137000  0.829500  0.021600  1.0  -0.1771
  C  C141  1  0.585400  0.712100  0.583400  1.0  0.6718
  C  C142  1  0.643400  0.801500  0.635290  1.0  -0.1172
  C  C143  1  0.621000  0.975800  0.652870  1.0  -0.0777
  C  C144  1  0.671100  0.051500  0.701200  1.0  -0.1528
  C  C145  1  0.747000  0.961900  0.733950  1.0  0.0389
  C  C146  1  0.771600  0.789300  0.716500  1.0  -0.2002
  C  C147  1  0.719300  0.710400  0.669000  1.0  -0.0319
  C  C148  1  0.864100  0.209900  0.760390  1.0  -0.3756
  C  C149  1  0.808800  0.065600  0.785020  1.0  0.0472
  C  C150  1  0.878500  0.941300  0.824200  1.0  -0.3642
  C  C151  1  0.749200  0.154400  0.821030  1.0  0.0355
  C  C152  1  0.681600  0.046600  0.834720  1.0  -0.151
  C  C153  1  0.631000  0.113700  0.871000  1.0  -0.0445
  C  C154  1  0.642500  0.292500  0.892640  1.0  -0.0988
  C  C155  1  0.711800  0.402700  0.879000  1.0  -0.0355
  C  C156  1  0.764000  0.332500  0.842900  1.0  -0.121
  C  C157  1  0.587900  0.364200  0.931850  1.0  0.6806
  C  C158  1  0.293000  0.965400  0.481600  1.0  0.1853
  C  C159  1  0.249100  0.774700  0.413500  1.0  -0.0042
  C  C160  1  0.180800  0.898100  0.411700  1.0  -0.0821
  C  C161  1  0.148400  0.157600  0.467720  1.0  0.1669
  C  C162  1  0.103200  0.281200  0.426700  1.0  -0.186
  C  C163  1  0.047400  0.419900  0.440400  1.0  -0.0927
  C  C164  1  0.035400  0.432600  0.494200  1.0  0.0137
  C  C165  1  0.080700  0.308900  0.535100  1.0  -0.1141
  C  C166  1  0.137000  0.170500  0.521600  1.0  -0.1772
  C  C167  1  0.414600  0.712100  0.916600  1.0  0.6709
  C  C168  1  0.356600  0.801500  0.864710  1.0  -0.1166
  C  C169  1  0.379000  0.975800  0.847130  1.0  -0.0788
  C  C170  1  0.328900  0.051500  0.798800  1.0  -0.155
  C  C171  1  0.253000  0.961900  0.766050  1.0  0.0397
  C  C172  1  0.228400  0.789300  0.783500  1.0  -0.1997
  C  C173  1  0.280700  0.710400  0.831000  1.0  -0.0302
  C  C174  1  0.135900  0.209900  0.739610  1.0  -0.3751
  C  C175  1  0.191200  0.065600  0.714980  1.0  0.0473
  C  C176  1  0.121500  0.941300  0.675800  1.0  -0.3657
  C  C177  1  0.250800  0.154400  0.678970  1.0  0.0358
  C  C178  1  0.318400  0.046600  0.665280  1.0  -0.1495
  C  C179  1  0.369000  0.113700  0.629000  1.0  -0.0435
  C  C180  1  0.357500  0.292500  0.607360  1.0  -0.0983
  C  C181  1  0.288200  0.402700  0.621000  1.0  -0.0361
  C  C182  1  0.236000  0.332500  0.657100  1.0  -0.1212
  C  C183  1  0.412100  0.364200  0.568150  1.0  0.6812
  C  C184  1  0.707000  0.965400  0.018400  1.0  0.1841
  C  C185  1  0.750900  0.774700  0.086500  1.0  -0.0044
  C  C186  1  0.819200  0.898100  0.088300  1.0  -0.0809
  C  C187  1  0.851600  0.157600  0.032280  1.0  0.1667
  C  C188  1  0.896800  0.281200  0.073300  1.0  -0.1882
  C  C189  1  0.952600  0.419900  0.059600  1.0  -0.0933
  C  C190  1  0.964600  0.432600  0.005800  1.0  0.0135
  C  C191  1  0.919300  0.308900  0.964900  1.0  -0.1158
  C  C192  1  0.863000  0.170500  0.978400  1.0  -0.1779
  N  N193  1  0.679500  0.187000  0.540050  1.0  -0.4158
  N  N194  1  0.792600  0.984100  0.545010  1.0  0.0414
  N  N195  1  0.320500  0.187000  0.959950  1.0  -0.4142
  N  N196  1  0.207400  0.984100  0.954990  1.0  0.0414
  N  N197  1  0.320500  0.813000  0.459950  1.0  -0.4125
  N  N198  1  0.207400  0.015900  0.454990  1.0  0.0412
  N  N199  1  0.679500  0.813000  0.040050  1.0  -0.4154
  N  N200  1  0.792600  0.015900  0.045010  1.0  0.0412
  O  O201  1  0.484000  0.203500  0.444550  1.0  -0.5542
  O  O202  1  0.388400  0.445200  0.429840  1.0  -0.6072
  O  O203  1  0.475790  0.731200  0.061000  1.0  -0.5561
  O  O204  1  0.383500  0.482400  0.044110  1.0  -0.6014
  O  O205  1  0.516000  0.203500  0.055450  1.0  -0.5555
  O  O206  1  0.611600  0.445200  0.070160  1.0  -0.6065
  O  O207  1  0.524210  0.731200  0.439000  1.0  -0.5573
  O  O208  1  0.616500  0.482400  0.455890  1.0  -0.6033
  O  O209  1  0.516000  0.796500  0.555450  1.0  -0.5553
  O  O210  1  0.611600  0.554800  0.570160  1.0  -0.6059
  O  O211  1  0.524210  0.268800  0.939000  1.0  -0.5574
  O  O212  1  0.616500  0.517600  0.955890  1.0  -0.6033
  O  O213  1  0.484000  0.796500  0.944550  1.0  -0.554
  O  O214  1  0.388400  0.554800  0.929840  1.0  -0.6064
  O  O215  1  0.475790  0.268800  0.561000  1.0  -0.5564
  O  O216  1  0.383500  0.517600  0.544110  1.0  -0.6017
