# generated using pymatgen
data_NaH3C3S3(OF)9
_symmetry_space_group_name_H-M   'P 1'
_cell_length_a   16.21000000
_cell_length_b   16.21000000
_cell_length_c   16.21000000
_cell_angle_alpha   90.00000000
_cell_angle_beta   90.00000000
_cell_angle_gamma   90.00000000
_symmetry_Int_Tables_number   1
_chemical_formula_structural   NaH3C3S3(OF)9
_chemical_formula_sum   'Na8 H24 C24 S24 O72 F72'
_cell_volume   4259.40606100
_cell_formula_units_Z   8
loop_
 _symmetry_equiv_pos_site_id
 _symmetry_equiv_pos_as_xyz
  1  'x, y, z'
loop_
 _atom_site_type_symbol
 _atom_site_label
 _atom_site_symmetry_multiplicity
 _atom_site_fract_x
 _atom_site_fract_y
 _atom_site_fract_z
 _atom_site_occupancy
 _atom_site_charge
  Na  Na1  1  0.886650  0.886650  0.886650  1.0  0.9319
  Na  Na2  1  0.386650  0.386650  0.386650  1.0  0.9319
  Na  Na3  1  0.613350  0.113350  0.386650  1.0  0.9319
  Na  Na4  1  0.113350  0.613350  0.886650  1.0  0.9319
  Na  Na5  1  0.113350  0.386650  0.613350  1.0  0.9314
  Na  Na6  1  0.613350  0.886650  0.113350  1.0  0.9314
  Na  Na7  1  0.386650  0.613350  0.113350  1.0  0.9318
  Na  Na8  1  0.886650  0.113350  0.613350  1.0  0.9318
  H  H9  1  0.009000  0.141300  0.920400  1.0  0.1972
  H  H10  1  0.509000  0.641300  0.420400  1.0  0.1972
  H  H11  1  0.491000  0.858700  0.420400  1.0  0.1977
  H  H12  1  0.991000  0.358700  0.920400  1.0  0.1977
  H  H13  1  0.991000  0.641300  0.579600  1.0  0.1967
  H  H14  1  0.491000  0.141300  0.079600  1.0  0.1967
  H  H15  1  0.509000  0.358700  0.079600  1.0  0.197
  H  H16  1  0.009000  0.858700  0.579600  1.0  0.197
  H  H17  1  0.920400  0.009000  0.141300  1.0  0.1976
  H  H18  1  0.420400  0.509000  0.641300  1.0  0.1976
  H  H19  1  0.420400  0.491000  0.858700  1.0  0.1973
  H  H20  1  0.920400  0.991000  0.358700  1.0  0.1973
  H  H21  1  0.579600  0.991000  0.641300  1.0  0.1963
  H  H22  1  0.079600  0.491000  0.141300  1.0  0.1963
  H  H23  1  0.079600  0.509000  0.358700  1.0  0.1969
  H  H24  1  0.579600  0.009000  0.858700  1.0  0.1969
  H  H25  1  0.141300  0.920400  0.009000  1.0  0.2003
  H  H26  1  0.641300  0.420400  0.509000  1.0  0.2003
  H  H27  1  0.858700  0.420400  0.491000  1.0  0.2006
  H  H28  1  0.358700  0.920400  0.991000  1.0  0.2006
  H  H29  1  0.641300  0.579600  0.991000  1.0  0.2017
  H  H30  1  0.141300  0.079600  0.491000  1.0  0.2017
  H  H31  1  0.358700  0.079600  0.509000  1.0  0.2007
  H  H32  1  0.858700  0.579600  0.009000  1.0  0.2007
  C  C33  1  0.836600  0.172100  0.895000  1.0  0.4764
  C  C34  1  0.336600  0.672100  0.395000  1.0  0.4764
  C  C35  1  0.663400  0.827900  0.395000  1.0  0.4779
  C  C36  1  0.163400  0.327900  0.895000  1.0  0.4779
  C  C37  1  0.163400  0.672100  0.605000  1.0  0.4767
  C  C38  1  0.663400  0.172100  0.105000  1.0  0.4767
  C  C39  1  0.336600  0.327900  0.105000  1.0  0.4753
  C  C40  1  0.836600  0.827900  0.605000  1.0  0.4753
  C  C41  1  0.895000  0.836600  0.172100  1.0  0.4782
  C  C42  1  0.395000  0.336600  0.672100  1.0  0.4782
  C  C43  1  0.395000  0.663400  0.827900  1.0  0.4763
  C  C44  1  0.895000  0.163400  0.327900  1.0  0.4763
  C  C45  1  0.605000  0.163400  0.672100  1.0  0.4778
  C  C46  1  0.105000  0.663400  0.172100  1.0  0.4778
  C  C47  1  0.105000  0.336600  0.327900  1.0  0.4764
  C  C48  1  0.605000  0.836600  0.827900  1.0  0.4764
  C  C49  1  0.172100  0.895000  0.836600  1.0  0.4752
  C  C50  1  0.672100  0.395000  0.336600  1.0  0.4752
  C  C51  1  0.827900  0.395000  0.663400  1.0  0.4771
  C  C52  1  0.327900  0.895000  0.163400  1.0  0.4771
  C  C53  1  0.672100  0.605000  0.163400  1.0  0.4772
  C  C54  1  0.172100  0.105000  0.663400  1.0  0.4772
  C  C55  1  0.327900  0.105000  0.336600  1.0  0.4758
  C  C56  1  0.827900  0.605000  0.836600  1.0  0.4758
  S  S57  1  0.911620  0.108960  0.840460  1.0  1.2224
  S  S58  1  0.411620  0.608960  0.340460  1.0  1.2224
  S  S59  1  0.588380  0.891040  0.340460  1.0  1.2221
  S  S60  1  0.088380  0.391040  0.840460  1.0  1.2221
  S  S61  1  0.088380  0.608960  0.659540  1.0  1.2224
  S  S62  1  0.588380  0.108960  0.159540  1.0  1.2224
  S  S63  1  0.411620  0.391040  0.159540  1.0  1.2223
  S  S64  1  0.911620  0.891040  0.659540  1.0  1.2223
  S  S65  1  0.840460  0.911620  0.108960  1.0  1.2233
  S  S66  1  0.340460  0.411620  0.608960  1.0  1.2233
  S  S67  1  0.340460  0.588380  0.891040  1.0  1.2243
  S  S68  1  0.840460  0.088380  0.391040  1.0  1.2243
  S  S69  1  0.659540  0.088380  0.608960  1.0  1.2224
  S  S70  1  0.159540  0.588380  0.108960  1.0  1.2224
  S  S71  1  0.159540  0.411620  0.391040  1.0  1.2233
  S  S72  1  0.659540  0.911620  0.891040  1.0  1.2233
  S  S73  1  0.108960  0.840460  0.911620  1.0  1.2227
  S  S74  1  0.608960  0.340460  0.411620  1.0  1.2227
  S  S75  1  0.891040  0.340460  0.588380  1.0  1.2207
  S  S76  1  0.391040  0.840460  0.088380  1.0  1.2207
  S  S77  1  0.608960  0.659540  0.088380  1.0  1.2227
  S  S78  1  0.108960  0.159540  0.588380  1.0  1.2227
  S  S79  1  0.391040  0.159540  0.411620  1.0  1.2214
  S  S80  1  0.891040  0.659540  0.911620  1.0  1.2214
  O  O81  1  0.905900  0.030200  0.874700  1.0  -0.668
  O  O82  1  0.991200  0.151400  0.865900  1.0  -0.4793
  O  O83  1  0.898100  0.877900  0.743400  1.0  -0.6757
  O  O84  1  0.405900  0.530200  0.374700  1.0  -0.668
  O  O85  1  0.491200  0.651400  0.365900  1.0  -0.4793
  O  O86  1  0.398100  0.377900  0.243400  1.0  -0.6757
  O  O87  1  0.594100  0.969800  0.374700  1.0  -0.6676
  O  O88  1  0.508800  0.848600  0.365900  1.0  -0.4779
  O  O89  1  0.601900  0.122100  0.243400  1.0  -0.6763
  O  O90  1  0.094100  0.469800  0.874700  1.0  -0.6676
  O  O91  1  0.008800  0.348600  0.865900  1.0  -0.4779
  O  O92  1  0.101900  0.622100  0.743400  1.0  -0.6763
  O  O93  1  0.094100  0.530200  0.625300  1.0  -0.6675
  O  O94  1  0.008800  0.651400  0.634100  1.0  -0.4738
  O  O95  1  0.101900  0.377900  0.756600  1.0  -0.6766
  O  O96  1  0.594100  0.030200  0.125300  1.0  -0.6675
  O  O97  1  0.508800  0.151400  0.134100  1.0  -0.4738
  O  O98  1  0.601900  0.877900  0.256600  1.0  -0.6766
  O  O99  1  0.405900  0.469800  0.125300  1.0  -0.6679
  O  O100  1  0.491200  0.348600  0.134100  1.0  -0.4743
  O  O101  1  0.398100  0.622100  0.256600  1.0  -0.6761
  O  O102  1  0.905900  0.969800  0.625300  1.0  -0.6679
  O  O103  1  0.991200  0.848600  0.634100  1.0  -0.4743
  O  O104  1  0.898100  0.122100  0.756600  1.0  -0.6761
  O  O105  1  0.874700  0.905900  0.030200  1.0  -0.6722
  O  O106  1  0.865900  0.991200  0.151400  1.0  -0.474
  O  O107  1  0.743400  0.898100  0.877900  1.0  -0.6709
  O  O108  1  0.374700  0.405900  0.530200  1.0  -0.6722
  O  O109  1  0.365900  0.491200  0.651400  1.0  -0.474
  O  O110  1  0.243400  0.398100  0.377900  1.0  -0.6709
  O  O111  1  0.374700  0.594100  0.969800  1.0  -0.6717
  O  O112  1  0.365900  0.508800  0.848600  1.0  -0.4733
  O  O113  1  0.243400  0.601900  0.122100  1.0  -0.6713
  O  O114  1  0.874700  0.094100  0.469800  1.0  -0.6717
  O  O115  1  0.865900  0.008800  0.348600  1.0  -0.4733
  O  O116  1  0.743400  0.101900  0.622100  1.0  -0.6713
  O  O117  1  0.625300  0.094100  0.530200  1.0  -0.6719
  O  O118  1  0.634100  0.008800  0.651400  1.0  -0.4718
  O  O119  1  0.756600  0.101900  0.377900  1.0  -0.6706
  O  O120  1  0.125300  0.594100  0.030200  1.0  -0.6719
  O  O121  1  0.134100  0.508800  0.151400  1.0  -0.4718
  O  O122  1  0.256600  0.601900  0.877900  1.0  -0.6706
  O  O123  1  0.125300  0.405900  0.469800  1.0  -0.6719
  O  O124  1  0.134100  0.491200  0.348600  1.0  -0.4729
  O  O125  1  0.256600  0.398100  0.622100  1.0  -0.6712
  O  O126  1  0.625300  0.905900  0.969800  1.0  -0.6719
  O  O127  1  0.634100  0.991200  0.848600  1.0  -0.4729
  O  O128  1  0.756600  0.898100  0.122100  1.0  -0.6712
  O  O129  1  0.030200  0.874700  0.905900  1.0  -0.6666
  O  O130  1  0.151400  0.865900  0.991200  1.0  -0.4725
  O  O131  1  0.877900  0.743400  0.898100  1.0  -0.6729
  O  O132  1  0.530200  0.374700  0.405900  1.0  -0.6666
  O  O133  1  0.651400  0.365900  0.491200  1.0  -0.4725
  O  O134  1  0.377900  0.243400  0.398100  1.0  -0.6729
  O  O135  1  0.969800  0.374700  0.594100  1.0  -0.6689
  O  O136  1  0.848600  0.365900  0.508800  1.0  -0.4718
  O  O137  1  0.122100  0.243400  0.601900  1.0  -0.6733
  O  O138  1  0.469800  0.874700  0.094100  1.0  -0.6689
  O  O139  1  0.348600  0.865900  0.008800  1.0  -0.4718
  O  O140  1  0.622100  0.743400  0.101900  1.0  -0.6733
  O  O141  1  0.530200  0.625300  0.094100  1.0  -0.6667
  O  O142  1  0.651400  0.634100  0.008800  1.0  -0.4724
  O  O143  1  0.377900  0.756600  0.101900  1.0  -0.6728
  O  O144  1  0.030200  0.125300  0.594100  1.0  -0.6667
  O  O145  1  0.151400  0.134100  0.508800  1.0  -0.4724
  O  O146  1  0.877900  0.256600  0.601900  1.0  -0.6728
  O  O147  1  0.469800  0.125300  0.405900  1.0  -0.6688
  O  O148  1  0.348600  0.134100  0.491200  1.0  -0.4737
  O  O149  1  0.622100  0.256600  0.398100  1.0  -0.6719
  O  O150  1  0.969800  0.625300  0.905900  1.0  -0.6688
  O  O151  1  0.848600  0.634100  0.991200  1.0  -0.4737
  O  O152  1  0.122100  0.756600  0.898100  1.0  -0.6719
  F  F153  1  0.839000  0.247100  0.867300  1.0  -0.1353
  F  F154  1  0.850100  0.173100  0.971000  1.0  -0.1212
  F  F155  1  0.763100  0.142000  0.881400  1.0  -0.1353
  F  F156  1  0.339000  0.747100  0.367300  1.0  -0.1353
  F  F157  1  0.350100  0.673100  0.471000  1.0  -0.1212
  F  F158  1  0.263100  0.642000  0.381400  1.0  -0.1353
  F  F159  1  0.661000  0.752900  0.367300  1.0  -0.1376
  F  F160  1  0.649900  0.826900  0.471000  1.0  -0.1203
  F  F161  1  0.736900  0.858000  0.381400  1.0  -0.1341
  F  F162  1  0.161000  0.252900  0.867300  1.0  -0.1376
  F  F163  1  0.149900  0.326900  0.971000  1.0  -0.1203
  F  F164  1  0.236900  0.358000  0.881400  1.0  -0.1341
  F  F165  1  0.161000  0.747100  0.632700  1.0  -0.1355
  F  F166  1  0.149900  0.673100  0.529000  1.0  -0.1205
  F  F167  1  0.236900  0.642000  0.618600  1.0  -0.1346
  F  F168  1  0.661000  0.247100  0.132700  1.0  -0.1355
  F  F169  1  0.649900  0.173100  0.029000  1.0  -0.1205
  F  F170  1  0.736900  0.142000  0.118600  1.0  -0.1346
  F  F171  1  0.339000  0.252900  0.132700  1.0  -0.1386
  F  F172  1  0.350100  0.326900  0.029000  1.0  -0.1201
  F  F173  1  0.263100  0.358000  0.118600  1.0  -0.1358
  F  F174  1  0.839000  0.752900  0.632700  1.0  -0.1386
  F  F175  1  0.850100  0.826900  0.529000  1.0  -0.1201
  F  F176  1  0.763100  0.858000  0.618600  1.0  -0.1358
  F  F177  1  0.867300  0.839000  0.247100  1.0  -0.1415
  F  F178  1  0.971000  0.850100  0.173100  1.0  -0.1174
  F  F179  1  0.881400  0.763100  0.142000  1.0  -0.1322
  F  F180  1  0.367300  0.339000  0.747100  1.0  -0.1415
  F  F181  1  0.471000  0.350100  0.673100  1.0  -0.1174
  F  F182  1  0.381400  0.263100  0.642000  1.0  -0.1322
  F  F183  1  0.367300  0.661000  0.752900  1.0  -0.1428
  F  F184  1  0.471000  0.649900  0.826900  1.0  -0.1186
  F  F185  1  0.381400  0.736900  0.858000  1.0  -0.1328
  F  F186  1  0.867300  0.161000  0.252900  1.0  -0.1428
  F  F187  1  0.971000  0.149900  0.326900  1.0  -0.1186
  F  F188  1  0.881400  0.236900  0.358000  1.0  -0.1328
  F  F189  1  0.632700  0.161000  0.747100  1.0  -0.1423
  F  F190  1  0.529000  0.149900  0.673100  1.0  -0.1178
  F  F191  1  0.618600  0.236900  0.642000  1.0  -0.1321
  F  F192  1  0.132700  0.661000  0.247100  1.0  -0.1423
  F  F193  1  0.029000  0.649900  0.173100  1.0  -0.1178
  F  F194  1  0.118600  0.736900  0.142000  1.0  -0.1321
  F  F195  1  0.132700  0.339000  0.252900  1.0  -0.1418
  F  F196  1  0.029000  0.350100  0.326900  1.0  -0.1182
  F  F197  1  0.118600  0.263100  0.358000  1.0  -0.1335
  F  F198  1  0.632700  0.839000  0.752900  1.0  -0.1418
  F  F199  1  0.529000  0.850100  0.826900  1.0  -0.1182
  F  F200  1  0.618600  0.763100  0.858000  1.0  -0.1335
  F  F201  1  0.247100  0.867300  0.839000  1.0  -0.1367
  F  F202  1  0.173100  0.971000  0.850100  1.0  -0.1152
  F  F203  1  0.142000  0.881400  0.763100  1.0  -0.136
  F  F204  1  0.747100  0.367300  0.339000  1.0  -0.1367
  F  F205  1  0.673100  0.471000  0.350100  1.0  -0.1152
  F  F206  1  0.642000  0.381400  0.263100  1.0  -0.136
  F  F207  1  0.752900  0.367300  0.661000  1.0  -0.1371
  F  F208  1  0.826900  0.471000  0.649900  1.0  -0.116
  F  F209  1  0.858000  0.381400  0.736900  1.0  -0.1375
  F  F210  1  0.252900  0.867300  0.161000  1.0  -0.1371
  F  F211  1  0.326900  0.971000  0.149900  1.0  -0.116
  F  F212  1  0.358000  0.881400  0.236900  1.0  -0.1375
  F  F213  1  0.747100  0.632700  0.161000  1.0  -0.1358
  F  F214  1  0.673100  0.529000  0.149900  1.0  -0.117
  F  F215  1  0.642000  0.618600  0.236900  1.0  -0.1372
  F  F216  1  0.247100  0.132700  0.661000  1.0  -0.1358
  F  F217  1  0.173100  0.029000  0.649900  1.0  -0.117
  F  F218  1  0.142000  0.118600  0.736900  1.0  -0.1372
  F  F219  1  0.252900  0.132700  0.339000  1.0  -0.1375
  F  F220  1  0.326900  0.029000  0.350100  1.0  -0.1168
  F  F221  1  0.358000  0.118600  0.263100  1.0  -0.1377
  F  F222  1  0.752900  0.632700  0.839000  1.0  -0.1375
  F  F223  1  0.826900  0.529000  0.850100  1.0  -0.1168
  F  F224  1  0.858000  0.618600  0.763100  1.0  -0.1377
