# generated using pymatgen
data_U3H26C42(N3O14)2
_symmetry_space_group_name_H-M   'P 1'
_cell_length_a   5.45900000
_cell_length_b   26.59810000
_cell_length_c   36.76010000
_cell_angle_alpha   90.00000000
_cell_angle_beta   90.00000000
_cell_angle_gamma   91.40600000
_symmetry_Int_Tables_number   1
_chemical_formula_structural   U3H26C42(N3O14)2
_chemical_formula_sum   'U12 H104 C168 N24 O112'
_cell_volume   5335.92379252
_cell_formula_units_Z   4
loop_
 _symmetry_equiv_pos_site_id
 _symmetry_equiv_pos_as_xyz
  1  'x, y, z'
loop_
 _atom_site_type_symbol
 _atom_site_label
 _atom_site_symmetry_multiplicity
 _atom_site_fract_x
 _atom_site_fract_y
 _atom_site_fract_z
 _atom_site_occupancy
 _atom_site_charge
  U  U1  1  0.898730  0.536730  0.062850  1.0  1.6442
  U  U2  1  0.684710  0.618620  0.190800  1.0  1.5968
  U  U3  1  0.447250  0.038060  0.099710  1.0  2.2073
  U  U4  1  0.101270  0.963270  0.562850  1.0  1.6435
  U  U5  1  0.315290  0.881380  0.690800  1.0  1.5977
  U  U6  1  0.552750  0.461940  0.599710  1.0  2.2056
  U  U7  1  0.101270  0.463270  0.937150  1.0  1.6437
  U  U8  1  0.315290  0.381380  0.809200  1.0  1.5961
  U  U9  1  0.552750  0.961940  0.900290  1.0  2.205
  U  U10  1  0.898730  0.036730  0.437150  1.0  1.6444
  U  U11  1  0.684710  0.118620  0.309200  1.0  1.5966
  U  U12  1  0.447250  0.538060  0.400290  1.0  2.2065
  H  H13  1  0.918300  0.310300  0.171300  1.0  0.1204
  H  H14  1  0.600500  0.576800  0.941400  1.0  0.146
  H  H15  1  0.197000  0.666100  0.004600  1.0  0.1242
  H  H16  1  0.437400  0.655000  0.073600  1.0  0.1397
  H  H17  1  0.651700  0.410000  0.134100  1.0  0.133
  H  H18  1  0.933200  0.754600  0.986100  1.0  0.124
  H  H19  1  0.412700  0.735400  0.983500  1.0  0.1217
  H  H20  1  0.201400  0.503200  0.184900  1.0  0.1401
  H  H21  1  0.759100  0.239300  0.199300  1.0  0.1338
  H  H22  1  0.902900  0.826400  0.871700  1.0  0.144
  H  H23  1  0.271700  0.798600  0.139200  1.0  0.1193
  H  H24  1  0.016600  0.729500  0.143700  1.0  0.13
  H  H25  1  0.172900  0.824700  0.973000  1.0  0.1187
  H  H26  1  0.745000  0.813500  0.154300  1.0  0.1274
  H  H27  1  0.467200  0.342600  0.163600  1.0  0.1162
  H  H28  1  0.983900  0.886300  0.157900  1.0  0.1279
  H  H29  1  0.167900  0.270100  0.287700  1.0  0.1463
  H  H30  1  0.862100  0.913300  0.052600  1.0  0.1468
  H  H31  1  0.292600  0.096200  0.052600  1.0  0.2322
  H  H32  1  0.066300  0.069100  0.071000  1.0  0.2512
  H  H33  1  0.811400  0.033800  0.140000  1.0  0.2559
  H  H34  1  0.733200  0.979000  0.128400  1.0  0.1856
  H  H35  1  0.361200  0.101200  0.146000  1.0  0.2712
  H  H36  1  0.309300  0.048000  0.163000  1.0  0.2079
  H  H37  1  0.751700  0.025500  0.053000  1.0  0.2897
  H  H38  1  0.509000  0.996400  0.042400  1.0  0.2797
  H  H39  1  0.081700  0.189700  0.671300  1.0  0.1209
  H  H40  1  0.399500  0.923200  0.441400  1.0  0.1456
  H  H41  1  0.803000  0.833900  0.504600  1.0  0.1242
  H  H42  1  0.562600  0.845000  0.573600  1.0  0.1397
  H  H43  1  0.348300  0.090000  0.634100  1.0  0.1327
  H  H44  1  0.066800  0.745400  0.486100  1.0  0.1242
  H  H45  1  0.587300  0.764600  0.483500  1.0  0.1221
  H  H46  1  0.798600  0.996800  0.684900  1.0  0.1402
  H  H47  1  0.240900  0.260700  0.699300  1.0  0.1335
  H  H48  1  0.097100  0.673600  0.371700  1.0  0.1443
  H  H49  1  0.728300  0.701400  0.639200  1.0  0.1198
  H  H50  1  0.983400  0.770500  0.643700  1.0  0.1299
  H  H51  1  0.827100  0.675300  0.473000  1.0  0.1187
  H  H52  1  0.255000  0.686500  0.654300  1.0  0.1274
  H  H53  1  0.532800  0.157400  0.663600  1.0  0.1164
  H  H54  1  0.016100  0.613700  0.657900  1.0  0.1281
  H  H55  1  0.832100  0.229900  0.787700  1.0  0.1462
  H  H56  1  0.137900  0.586700  0.552600  1.0  0.1463
  H  H57  1  0.707400  0.403800  0.552600  1.0  0.2329
  H  H58  1  0.933700  0.430900  0.571000  1.0  0.2523
  H  H59  1  0.188600  0.466200  0.640000  1.0  0.2577
  H  H60  1  0.266800  0.521000  0.628400  1.0  0.185
  H  H61  1  0.638800  0.398800  0.646000  1.0  0.2684
  H  H62  1  0.690700  0.452000  0.663000  1.0  0.2074
  H  H63  1  0.248300  0.474500  0.553000  1.0  0.2907
  H  H64  1  0.491000  0.503600  0.542400  1.0  0.2814
  H  H65  1  0.081700  0.689700  0.828700  1.0  0.1204
  H  H66  1  0.399500  0.423200  0.058600  1.0  0.1454
  H  H67  1  0.803000  0.333900  0.995400  1.0  0.1243
  H  H68  1  0.562600  0.345000  0.926400  1.0  0.1397
  H  H69  1  0.348300  0.590000  0.865900  1.0  0.1334
  H  H70  1  0.066800  0.245400  0.013900  1.0  0.1245
  H  H71  1  0.587300  0.264600  0.016500  1.0  0.1218
  H  H72  1  0.798600  0.496800  0.815100  1.0  0.1403
  H  H73  1  0.240900  0.760700  0.800700  1.0  0.1334
  H  H74  1  0.097100  0.173600  0.128300  1.0  0.1439
  H  H75  1  0.728300  0.201400  0.860800  1.0  0.1191
  H  H76  1  0.983400  0.270500  0.856300  1.0  0.1291
  H  H77  1  0.827100  0.175300  0.027000  1.0  0.1185
  H  H78  1  0.255000  0.186500  0.845700  1.0  0.1285
  H  H79  1  0.532800  0.657400  0.836400  1.0  0.1162
  H  H80  1  0.016100  0.113700  0.842100  1.0  0.1287
  H  H81  1  0.832100  0.729900  0.712300  1.0  0.1461
  H  H82  1  0.137900  0.086700  0.947400  1.0  0.1466
  H  H83  1  0.707400  0.903800  0.947400  1.0  0.2337
  H  H84  1  0.933700  0.930900  0.929000  1.0  0.2522
  H  H85  1  0.188600  0.966200  0.860000  1.0  0.2567
  H  H86  1  0.266800  0.021000  0.871600  1.0  0.1857
  H  H87  1  0.638800  0.898800  0.854000  1.0  0.2672
  H  H88  1  0.690700  0.952000  0.837000  1.0  0.2053
  H  H89  1  0.248300  0.974500  0.947000  1.0  0.2896
  H  H90  1  0.491000  0.003600  0.957600  1.0  0.281
  H  H91  1  0.918300  0.810300  0.328700  1.0  0.1201
  H  H92  1  0.600500  0.076800  0.558600  1.0  0.1458
  H  H93  1  0.197000  0.166100  0.495400  1.0  0.124
  H  H94  1  0.437400  0.155000  0.426400  1.0  0.1401
  H  H95  1  0.651700  0.910000  0.365900  1.0  0.1334
  H  H96  1  0.933200  0.254600  0.513900  1.0  0.1244
  H  H97  1  0.412700  0.235400  0.516500  1.0  0.1221
  H  H98  1  0.201400  0.003200  0.315100  1.0  0.1403
  H  H99  1  0.759100  0.739300  0.300700  1.0  0.1339
  H  H100  1  0.902900  0.326400  0.628300  1.0  0.1439
  H  H101  1  0.271700  0.298600  0.360800  1.0  0.1189
  H  H102  1  0.016600  0.229500  0.356300  1.0  0.1293
  H  H103  1  0.172900  0.324700  0.527000  1.0  0.1185
  H  H104  1  0.745000  0.313500  0.345700  1.0  0.1288
  H  H105  1  0.467200  0.842600  0.336400  1.0  0.116
  H  H106  1  0.983900  0.386300  0.342100  1.0  0.1289
  H  H107  1  0.167900  0.770100  0.212300  1.0  0.1459
  H  H108  1  0.862100  0.413300  0.447400  1.0  0.1471
  H  H109  1  0.292600  0.596200  0.447400  1.0  0.2327
  H  H110  1  0.066300  0.569100  0.429000  1.0  0.2517
  H  H111  1  0.811400  0.533800  0.360000  1.0  0.2559
  H  H112  1  0.733200  0.479000  0.371600  1.0  0.1869
  H  H113  1  0.361200  0.601200  0.354000  1.0  0.2698
  H  H114  1  0.309300  0.548000  0.337000  1.0  0.2064
  H  H115  1  0.751700  0.525500  0.447000  1.0  0.2896
  H  H116  1  0.509000  0.496400  0.457600  1.0  0.2799
  C  C117  1  0.964900  0.302900  0.195000  1.0  -0.066
  C  C118  1  0.230100  0.569400  0.987000  1.0  0.7285
  C  C119  1  0.037200  0.639700  0.114200  1.0  0.7472
  C  C120  1  0.690100  0.651400  0.937700  1.0  0.0117
  C  C121  1  0.631900  0.699900  0.948100  1.0  0.0694
  C  C122  1  0.374400  0.614200  0.974800  1.0  -0.1263
  C  C123  1  0.450100  0.463600  0.157600  1.0  -0.1473
  C  C124  1  0.561100  0.608600  0.949900  1.0  -0.0703
  C  C125  1  0.125300  0.951100  0.106400  1.0  0.6264
  C  C126  1  0.582200  0.508600  0.141500  1.0  0.7498
  C  C127  1  0.548800  0.727200  0.082300  1.0  0.015
  C  C128  1  0.761100  0.771100  0.903300  1.0  0.0047
  C  C129  1  0.320200  0.662200  0.987400  1.0  -0.0252
  C  C130  1  0.653500  0.819300  0.101600  1.0  0.0278
  C  C131  1  0.200200  0.684900  0.109200  1.0  -0.1447
  C  C132  1  0.948000  0.247400  0.245800  1.0  -0.1209
  C  C133  1  0.401200  0.684100  0.086300  1.0  -0.0425
  C  C134  1  0.771400  0.746900  0.937200  1.0  0.0397
  C  C135  1  0.231000  0.381300  0.194200  1.0  0.0168
  C  C136  1  0.526700  0.415300  0.150800  1.0  -0.0612
  C  C137  1  0.502600  0.771400  0.101600  1.0  0.0393
  C  C138  1  0.926900  0.768600  0.962900  1.0  -0.1279
  C  C139  1  0.955400  0.906000  0.105500  1.0  -0.1058
  C  C140  1  0.127500  0.335700  0.213200  1.0  0.0504
  C  C141  1  0.448900  0.703800  0.974500  1.0  -0.092
  C  C142  1  0.149900  0.430600  0.198900  1.0  0.0414
  C  C143  1  0.197700  0.321900  0.247600  1.0  0.1172
  C  C144  1  0.258300  0.471000  0.181100  1.0  -0.02
  C  C145  1  0.872400  0.259800  0.211400  1.0  -0.0205
  C  C146  1  0.910100  0.811900  0.894700  1.0  -0.0644
  C  C147  1  0.303300  0.770300  0.125200  1.0  -0.1473
  C  C148  1  0.152500  0.728600  0.128400  1.0  -0.0371
  C  C149  1  0.072600  0.831400  0.920800  1.0  -0.0744
  C  C150  1  0.241900  0.874900  0.912800  1.0  0.6596
  C  C151  1  0.073500  0.810600  0.955000  1.0  -0.0219
  C  C152  1  0.766900  0.833400  0.133700  1.0  -0.1076
  C  C153  1  0.416000  0.375000  0.168800  1.0  -0.0621
  C  C154  1  0.686500  0.851100  0.072000  1.0  0.0081
  C  C155  1  0.914000  0.876900  0.135800  1.0  -0.0637
  C  C156  1  0.115000  0.278400  0.264500  1.0  -0.0639
  C  C157  1  0.839000  0.893500  0.073200  1.0  -0.0567
  C  C158  1  0.845000  0.202800  0.266200  1.0  0.6909
  C  C159  1  0.035100  0.197100  0.695000  1.0  -0.0643
  C  C160  1  0.769900  0.930600  0.487000  1.0  0.7307
  C  C161  1  0.962800  0.860300  0.614200  1.0  0.7461
  C  C162  1  0.309900  0.848600  0.437700  1.0  0.0126
  C  C163  1  0.368100  0.800100  0.448100  1.0  0.0688
  C  C164  1  0.625600  0.885800  0.474800  1.0  -0.1255
  C  C165  1  0.549900  0.036400  0.657600  1.0  -0.148
  C  C166  1  0.438900  0.891400  0.449900  1.0  -0.0702
  C  C167  1  0.874700  0.548900  0.606400  1.0  0.6254
  C  C168  1  0.417800  0.991400  0.641500  1.0  0.7463
  C  C169  1  0.451200  0.772800  0.582300  1.0  0.0149
  C  C170  1  0.238900  0.728900  0.403300  1.0  0.0045
  C  C171  1  0.679800  0.837800  0.487400  1.0  -0.0256
  C  C172  1  0.346500  0.680700  0.601600  1.0  0.0298
  C  C173  1  0.799800  0.815100  0.609200  1.0  -0.1443
  C  C174  1  0.052000  0.252600  0.745800  1.0  -0.1209
  C  C175  1  0.598800  0.815900  0.586300  1.0  -0.0432
  C  C176  1  0.228600  0.753100  0.437200  1.0  0.0397
  C  C177  1  0.769000  0.118700  0.694200  1.0  0.0166
  C  C178  1  0.473300  0.084700  0.650800  1.0  -0.061
  C  C179  1  0.497400  0.728600  0.601600  1.0  0.0391
  C  C180  1  0.073100  0.731400  0.462900  1.0  -0.1275
  C  C181  1  0.044600  0.594000  0.605500  1.0  -0.1068
  C  C182  1  0.872500  0.164300  0.713200  1.0  0.0506
  C  C183  1  0.551100  0.796200  0.474500  1.0  -0.0929
  C  C184  1  0.850100  0.069400  0.698900  1.0  0.0421
  C  C185  1  0.802300  0.178100  0.747600  1.0  0.1182
  C  C186  1  0.741700  0.029000  0.681100  1.0  -0.0194
  C  C187  1  0.127600  0.240200  0.711400  1.0  -0.0221
  C  C188  1  0.089900  0.688100  0.394700  1.0  -0.0642
  C  C189  1  0.696700  0.729700  0.625200  1.0  -0.1475
  C  C190  1  0.847500  0.771400  0.628400  1.0  -0.0376
  C  C191  1  0.927400  0.668600  0.420800  1.0  -0.0738
  C  C192  1  0.758100  0.625100  0.412800  1.0  0.6574
  C  C193  1  0.926500  0.689400  0.455000  1.0  -0.0207
  C  C194  1  0.233100  0.666667  0.633700  1.0  -0.1412
  C  C195  1  0.584000  0.125000  0.668800  1.0  -0.0607
  C  C196  1  0.313500  0.648900  0.572000  1.0  0.0063
  C  C197  1  0.086000  0.623100  0.635800  1.0  -0.0662
  C  C198  1  0.885000  0.221600  0.764500  1.0  -0.0639
  C  C199  1  0.161000  0.606500  0.573200  1.0  -0.0566
  C  C200  1  0.155000  0.297200  0.766200  1.0  0.6888
  C  C201  1  0.035100  0.697100  0.805000  1.0  -0.0647
  C  C202  1  0.769900  0.430600  0.013000  1.0  0.7304
  C  C203  1  0.962800  0.360300  0.885800  1.0  0.7478
  C  C204  1  0.309900  0.348600  0.062300  1.0  0.0122
  C  C205  1  0.368100  0.300100  0.051900  1.0  0.0683
  C  C206  1  0.625600  0.385800  0.025200  1.0  -0.125
  C  C207  1  0.549900  0.536400  0.842400  1.0  -0.1482
  C  C208  1  0.438900  0.391400  0.050100  1.0  -0.0702
  C  C209  1  0.874700  0.048900  0.893600  1.0  0.6253
  C  C210  1  0.417800  0.491400  0.858500  1.0  0.7464
  C  C211  1  0.451200  0.272800  0.917700  1.0  0.015
  C  C212  1  0.238900  0.228900  0.096700  1.0  0.0042
  C  C213  1  0.679800  0.337800  0.012600  1.0  -0.0252
  C  C214  1  0.346500  0.180700  0.898400  1.0  0.028
  C  C215  1  0.799800  0.315100  0.890800  1.0  -0.1441
  C  C216  1  0.052000  0.752600  0.754200  1.0  -0.121
  C  C217  1  0.598800  0.315900  0.913700  1.0  -0.0438
  C  C218  1  0.228600  0.253100  0.062800  1.0  0.0396
  C  C219  1  0.769000  0.618700  0.805800  1.0  0.0163
  C  C220  1  0.473300  0.584700  0.849200  1.0  -0.0611
  C  C221  1  0.497400  0.228600  0.898400  1.0  0.0391
  C  C222  1  0.073100  0.231400  0.037100  1.0  -0.126
  C  C223  1  0.044600  0.094000  0.894500  1.0  -0.1067
  C  C224  1  0.872500  0.664300  0.786800  1.0  0.0508
  C  C225  1  0.551100  0.296200  0.025500  1.0  -0.093
  C  C226  1  0.850100  0.569400  0.801100  1.0  0.0416
  C  C227  1  0.802300  0.678100  0.752400  1.0  0.1176
  C  C228  1  0.741700  0.529000  0.818900  1.0  -0.019
  C  C229  1  0.127600  0.740200  0.788600  1.0  -0.0221
  C  C230  1  0.089900  0.188100  0.105300  1.0  -0.0643
  C  C231  1  0.696700  0.229700  0.874800  1.0  -0.147
  C  C232  1  0.847500  0.271400  0.871600  1.0  -0.0377
  C  C233  1  0.927400  0.168600  0.079200  1.0  -0.0733
  C  C234  1  0.758100  0.125100  0.087200  1.0  0.6557
  C  C235  1  0.926500  0.189400  0.045000  1.0  -0.0209
  C  C236  1  0.233100  0.166600  0.866300  1.0  -0.1076
  C  C237  1  0.584000  0.625000  0.831200  1.0  -0.0609
  C  C238  1  0.313500  0.148900  0.928000  1.0  0.0081
  C  C239  1  0.086000  0.123100  0.864200  1.0  -0.0632
  C  C240  1  0.885000  0.721600  0.735500  1.0  -0.0644
  C  C241  1  0.161000  0.106500  0.926800  1.0  -0.0551
  C  C242  1  0.155000  0.797200  0.733800  1.0  0.6889
  C  C243  1  0.964900  0.802900  0.305000  1.0  -0.0664
  C  C244  1  0.230100  0.069400  0.513000  1.0  0.7274
  C  C245  1  0.037200  0.139700  0.385800  1.0  0.7472
  C  C246  1  0.690100  0.151400  0.562300  1.0  0.0113
  C  C247  1  0.631900  0.199900  0.551900  1.0  0.0688
  C  C248  1  0.374400  0.114200  0.525200  1.0  -0.1263
  C  C249  1  0.450100  0.963600  0.342400  1.0  -0.147
  C  C250  1  0.561100  0.108600  0.550100  1.0  -0.07
  C  C251  1  0.125300  0.451100  0.393600  1.0  0.626
  C  C252  1  0.582200  0.008600  0.358500  1.0  0.749
  C  C253  1  0.548800  0.227200  0.417700  1.0  0.0151
  C  C254  1  0.761100  0.271100  0.596700  1.0  0.0048
  C  C255  1  0.320200  0.162200  0.512600  1.0  -0.0252
  C  C256  1  0.653500  0.319300  0.398400  1.0  0.0275
  C  C257  1  0.200200  0.184900  0.390800  1.0  -0.1456
  C  C258  1  0.948000  0.747400  0.254200  1.0  -0.1212
  C  C259  1  0.401200  0.184100  0.413700  1.0  -0.042
  C  C260  1  0.771400  0.246900  0.562800  1.0  0.0394
  C  C261  1  0.231000  0.881300  0.305800  1.0  0.0166
  C  C262  1  0.526700  0.915300  0.349200  1.0  -0.0618
  C  C263  1  0.502600  0.271400  0.398400  1.0  0.0393
  C  C264  1  0.926900  0.268600  0.537100  1.0  -0.1266
  C  C265  1  0.955400  0.406000  0.394500  1.0  -0.1058
  C  C266  1  0.127500  0.835700  0.286800  1.0  0.0506
  C  C267  1  0.448900  0.203800  0.525500  1.0  -0.0919
  C  C268  1  0.149900  0.930600  0.301100  1.0  0.0405
  C  C269  1  0.197700  0.821900  0.252400  1.0  0.117
  C  C270  1  0.258300  0.971000  0.318900  1.0  -0.0193
  C  C271  1  0.872400  0.759800  0.288600  1.0  -0.0201
  C  C272  1  0.910100  0.311900  0.605300  1.0  -0.0646
  C  C273  1  0.303300  0.270300  0.374800  1.0  -0.1475
  C  C274  1  0.152500  0.228600  0.371600  1.0  -0.0374
  C  C275  1  0.072600  0.331400  0.579200  1.0  -0.0746
  C  C276  1  0.241900  0.374900  0.587200  1.0  0.6584
  C  C277  1  0.073500  0.310600  0.545000  1.0  -0.022
  C  C278  1  0.766900  0.333400  0.366300  1.0  -0.1081
  C  C279  1  0.416000  0.875000  0.331200  1.0  -0.0625
  C  C280  1  0.686500  0.351100  0.428000  1.0  0.007
  C  C281  1  0.914000  0.376900  0.364200  1.0  -0.0641
  C  C282  1  0.115000  0.778400  0.235500  1.0  -0.0639
  C  C283  1  0.839000  0.393500  0.426800  1.0  -0.0545
  C  C284  1  0.845000  0.702800  0.233800  1.0  0.6902
  N  N285  1  0.889200  0.642300  0.911400  1.0  0.5523
  N  N286  1  0.759500  0.722700  0.057800  1.0  0.4803
  N  N287  1  0.587800  0.754000  0.875300  1.0  0.5868
  N  N288  1  0.951000  0.440900  0.224000  1.0  0.5691
  N  N289  1  0.559000  0.841900  0.037300  1.0  0.6108
  N  N290  1  0.365000  0.353600  0.269200  1.0  0.0888
  N  N291  1  0.110800  0.857700  0.411400  1.0  0.5539
  N  N292  1  0.240500  0.777300  0.557800  1.0  0.4794
  N  N293  1  0.412200  0.746000  0.375300  1.0  0.5859
  N  N294  1  0.049000  0.059100  0.724000  1.0  0.5735
  N  N295  1  0.441000  0.658100  0.537300  1.0  0.6101
  N  N296  1  0.635000  0.146400  0.769200  1.0  0.0905
  N  N297  1  0.110800  0.357700  0.088600  1.0  0.5536
  N  N298  1  0.240500  0.277300  0.942200  1.0  0.4788
  N  N299  1  0.412200  0.246000  0.124700  1.0  0.5847
  N  N300  1  0.049000  0.559100  0.776000  1.0  0.572
  N  N301  1  0.441000  0.158100  0.962700  1.0  0.6116
  N  N302  1  0.635000  0.646400  0.730800  1.0  0.0892
  N  N303  1  0.889200  0.142300  0.588600  1.0  0.5524
  N  N304  1  0.759500  0.222700  0.442200  1.0  0.48
  N  N305  1  0.587800  0.254000  0.624700  1.0  0.5843
  N  N306  1  0.951000  0.940900  0.276000  1.0  0.5679
  N  N307  1  0.559000  0.341900  0.462700  1.0  0.6111
  N  N308  1  0.365000  0.853600  0.230800  1.0  0.0882
  O  O309  1  0.074000  0.574800  0.011900  1.0  -0.6775
  O  O310  1  0.083900  0.601100  0.095550  1.0  -0.6767
  O  O311  1  0.722500  0.501600  0.114950  1.0  -0.716
  O  O312  1  0.550800  0.550200  0.155770  1.0  -0.7285
  O  O313  1  0.202000  0.967400  0.077500  1.0  -0.5894
  O  O314  1  0.860500  0.641900  0.136070  1.0  -0.711
  O  O315  1  0.983800  0.601600  0.912000  1.0  -0.3493
  O  O316  1  0.890300  0.759800  0.052500  1.0  -0.4073
  O  O317  1  0.799000  0.682400  0.044100  1.0  -0.3791
  O  O318  1  0.946500  0.675100  0.890200  1.0  -0.4681
  O  O319  1  0.417100  0.726700  0.884100  1.0  -0.3877
  O  O320  1  0.626100  0.767500  0.844100  1.0  -0.3888
  O  O321  1  0.326000  0.900400  0.937600  1.0  -0.5788
  O  O322  1  0.387000  0.813700  0.036900  1.0  -0.3988
  O  O323  1  0.196000  0.971200  0.133500  1.0  -0.5923
  O  O324  1  0.838000  0.409400  0.237000  1.0  -0.4668
  O  O325  1  0.347000  0.397400  0.267700  1.0  -0.4641
  O  O326  1  0.884900  0.199100  0.299870  1.0  -0.6382
  O  O327  1  0.724900  0.168300  0.250490  1.0  -0.6157
  O  O328  1  0.635000  0.862500  0.010500  1.0  -0.3932
  O  O329  1  0.874000  0.480400  0.226300  1.0  -0.3548
  O  O330  1  0.484000  0.338500  0.290500  1.0  -0.4179
  O  O331  1  0.299200  0.886000  0.881600  1.0  -0.5815
  O  O332  1  0.268500  0.527700  0.971710  1.0  -0.7113
  O  O333  1  0.228000  0.064600  0.061300  1.0  -0.6675
  O  O334  1  0.675000  0.010800  0.136700  1.0  -0.6709
  O  O335  1  0.290000  0.068300  0.141700  1.0  -0.7346
  O  O336  1  0.621000  0.004100  0.061900  1.0  -0.6597
  O  O337  1  0.926000  0.925200  0.511900  1.0  -0.6787
  O  O338  1  0.916100  0.898900  0.595550  1.0  -0.6766
  O  O339  1  0.277500  0.998400  0.614950  1.0  -0.7167
  O  O340  1  0.449200  0.949800  0.655770  1.0  -0.7285
  O  O341  1  0.798000  0.532600  0.577500  1.0  -0.5898
  O  O342  1  0.139500  0.858100  0.636070  1.0  -0.711
  O  O343  1  0.016200  0.898400  0.412000  1.0  -0.3489
  O  O344  1  0.109700  0.740200  0.552500  1.0  -0.4065
  O  O345  1  0.201000  0.817600  0.544100  1.0  -0.3792
  O  O346  1  0.053500  0.824900  0.390200  1.0  -0.4684
  O  O347  1  0.582900  0.773300  0.384100  1.0  -0.3873
  O  O348  1  0.373900  0.732500  0.344100  1.0  -0.3893
  O  O349  1  0.674000  0.599600  0.437600  1.0  -0.5789
  O  O350  1  0.613000  0.686300  0.536900  1.0  -0.4
  O  O351  1  0.804000  0.528800  0.633500  1.0  -0.5927
  O  O352  1  0.162000  0.090600  0.737000  1.0  -0.4664
  O  O353  1  0.653000  0.102600  0.767700  1.0  -0.4651
  O  O354  1  0.115100  0.300900  0.799870  1.0  -0.6389
  O  O355  1  0.275100  0.331700  0.750490  1.0  -0.6168
  O  O356  1  0.365000  0.637500  0.510500  1.0  -0.3944
  O  O357  1  0.126000  0.019600  0.726300  1.0  -0.3563
  O  O358  1  0.516000  0.161500  0.790500  1.0  -0.4171
  O  O359  1  0.700800  0.614000  0.381600  1.0  -0.5824
  O  O360  1  0.731500  0.972300  0.471710  1.0  -0.7106
  O  O361  1  0.772000  0.435400  0.561300  1.0  -0.667
  O  O362  1  0.325000  0.489200  0.636700  1.0  -0.6687
  O  O363  1  0.710000  0.431700  0.641700  1.0  -0.7346
  O  O364  1  0.379000  0.495900  0.561900  1.0  -0.6582
  O  O365  1  0.926000  0.425200  0.988100  1.0  -0.6794
  O  O366  1  0.916100  0.398900  0.904450  1.0  -0.6766
  O  O367  1  0.277500  0.498400  0.885050  1.0  -0.7157
  O  O368  1  0.449200  0.449800  0.844230  1.0  -0.7301
  O  O369  1  0.798000  0.032600  0.922500  1.0  -0.5902
  O  O370  1  0.139500  0.358100  0.863930  1.0  -0.7131
  O  O371  1  0.016200  0.398400  0.088000  1.0  -0.349
  O  O372  1  0.109700  0.240200  0.947500  1.0  -0.4053
  O  O373  1  0.201000  0.317600  0.955900  1.0  -0.3787
  O  O374  1  0.053500  0.324900  0.109800  1.0  -0.4684
  O  O375  1  0.582900  0.273300  0.115900  1.0  -0.3877
  O  O376  1  0.373900  0.232500  0.155900  1.0  -0.3887
  O  O377  1  0.674000  0.099600  0.062400  1.0  -0.5815
  O  O378  1  0.613000  0.186300  0.963100  1.0  -0.3993
  O  O379  1  0.804000  0.028800  0.866500  1.0  -0.594
  O  O380  1  0.162000  0.590600  0.763000  1.0  -0.4676
  O  O381  1  0.653000  0.602600  0.732300  1.0  -0.4657
  O  O382  1  0.115100  0.800900  0.700130  1.0  -0.6392
  O  O383  1  0.275100  0.831700  0.749510  1.0  -0.6174
  O  O384  1  0.365000  0.137500  0.989500  1.0  -0.3929
  O  O385  1  0.126000  0.519600  0.773700  1.0  -0.3546
  O  O386  1  0.516000  0.661500  0.709500  1.0  -0.418
  O  O387  1  0.700800  0.114000  0.118400  1.0  -0.581
  O  O388  1  0.731500  0.472300  0.028290  1.0  -0.7106
  O  O389  1  0.772000  0.935400  0.938700  1.0  -0.6683
  O  O390  1  0.325000  0.989200  0.863300  1.0  -0.6703
  O  O391  1  0.710000  0.931700  0.858300  1.0  -0.7317
  O  O392  1  0.379000  0.995900  0.938100  1.0  -0.659
  O  O393  1  0.074000  0.074800  0.488100  1.0  -0.6789
  O  O394  1  0.083900  0.101100  0.404450  1.0  -0.6774
  O  O395  1  0.722500  0.001600  0.385050  1.0  -0.7162
  O  O396  1  0.550800  0.050200  0.344230  1.0  -0.7295
  O  O397  1  0.202000  0.467400  0.422500  1.0  -0.5896
  O  O398  1  0.860500  0.141900  0.363930  1.0  -0.7128
  O  O399  1  0.983800  0.101600  0.588000  1.0  -0.3495
  O  O400  1  0.890300  0.259800  0.447500  1.0  -0.4071
  O  O401  1  0.799000  0.182400  0.455900  1.0  -0.3784
  O  O402  1  0.946500  0.175100  0.609800  1.0  -0.4685
  O  O403  1  0.417100  0.226700  0.615900  1.0  -0.3882
  O  O404  1  0.626100  0.267500  0.655900  1.0  -0.3883
  O  O405  1  0.326000  0.400400  0.562400  1.0  -0.5812
  O  O406  1  0.387000  0.313700  0.463100  1.0  -0.3984
  O  O407  1  0.196000  0.471200  0.366500  1.0  -0.5934
  O  O408  1  0.838000  0.909400  0.263000  1.0  -0.4674
  O  O409  1  0.347000  0.897400  0.232300  1.0  -0.4645
  O  O410  1  0.884900  0.699100  0.200130  1.0  -0.6383
  O  O411  1  0.724900  0.668300  0.249510  1.0  -0.6145
  O  O412  1  0.635000  0.362500  0.489500  1.0  -0.3928
  O  O413  1  0.874000  0.980400  0.273700  1.0  -0.3562
  O  O414  1  0.484000  0.838500  0.209500  1.0  -0.4191
  O  O415  1  0.299200  0.386000  0.618400  1.0  -0.5801
  O  O416  1  0.268500  0.027700  0.528290  1.0  -0.7112
  O  O417  1  0.228000  0.564600  0.438700  1.0  -0.6662
  O  O418  1  0.675000  0.510800  0.363300  1.0  -0.6731
  O  O419  1  0.290000  0.568300  0.358300  1.0  -0.7349
  O  O420  1  0.621000  0.504100  0.438100  1.0  -0.6594
