# generated using pymatgen
data_CaCuH4(C3O4)2
_symmetry_space_group_name_H-M   'P 1'
_cell_length_a   6.69210000
_cell_length_b   13.22390000
_cell_length_c   13.70230000
_cell_angle_alpha   90.00000000
_cell_angle_beta   90.00000000
_cell_angle_gamma   90.00000000
_symmetry_Int_Tables_number   1
_chemical_formula_structural   CaCuH4(C3O4)2
_chemical_formula_sum   'Ca4 Cu4 H16 C24 O32'
_cell_volume   1212.59409832
_cell_formula_units_Z   4
loop_
 _symmetry_equiv_pos_site_id
 _symmetry_equiv_pos_as_xyz
  1  'x, y, z'
loop_
 _atom_site_type_symbol
 _atom_site_label
 _atom_site_symmetry_multiplicity
 _atom_site_fract_x
 _atom_site_fract_y
 _atom_site_fract_z
 _atom_site_occupancy
 _atom_site_charge
  Ca  Ca1  1  0.000000  0.750000  0.784710  1.0  1.5786
  Ca  Ca2  1  0.500000  0.250000  0.715290  1.0  1.5788
  Ca  Ca3  1  0.000000  0.250000  0.215290  1.0  1.5788
  Ca  Ca4  1  0.500000  0.750000  0.284710  1.0  1.5786
  Cu  Cu5  1  0.500000  0.000000  0.500000  1.0  1.0143
  Cu  Cu6  1  0.000000  0.500000  0.000000  1.0  1.0143
  Cu  Cu7  1  0.500000  0.500000  0.500000  1.0  1.0143
  Cu  Cu8  1  0.000000  0.000000  0.000000  1.0  1.0143
  H  H9  1  0.372600  0.899300  0.779900  1.0  0.1644
  H  H10  1  0.577700  0.886800  0.727000  1.0  0.1835
  H  H11  1  0.127400  0.399300  0.720100  1.0  0.1633
  H  H12  1  0.922300  0.386800  0.773000  1.0  0.1822
  H  H13  1  0.627400  0.600700  0.779900  1.0  0.1636
  H  H14  1  0.422300  0.613200  0.727000  1.0  0.1823
  H  H15  1  0.872600  0.100700  0.720100  1.0  0.1635
  H  H16  1  0.077700  0.113200  0.773000  1.0  0.1833
  H  H17  1  0.627400  0.100700  0.220100  1.0  0.1628
  H  H18  1  0.422300  0.113200  0.273000  1.0  0.1823
  H  H19  1  0.872600  0.600700  0.279900  1.0  0.1643
  H  H20  1  0.077700  0.613200  0.227000  1.0  0.1832
  H  H21  1  0.372600  0.399300  0.220100  1.0  0.1639
  H  H22  1  0.577700  0.386800  0.273000  1.0  0.1834
  H  H23  1  0.127400  0.899300  0.279900  1.0  0.164
  H  H24  1  0.922300  0.886800  0.227000  1.0  0.1824
  C  C25  1  0.341500  0.852700  0.638700  1.0  0.8171
  C  C26  1  0.443100  0.912900  0.719400  1.0  -0.5932
  C  C27  1  0.457100  0.025600  0.707500  1.0  0.791
  C  C28  1  0.158500  0.352700  0.861300  1.0  0.819
  C  C29  1  0.056900  0.412900  0.780600  1.0  -0.5921
  C  C30  1  0.042900  0.525600  0.792500  1.0  0.7911
  C  C31  1  0.658500  0.647300  0.638700  1.0  0.817
  C  C32  1  0.556900  0.587100  0.719400  1.0  -0.5951
  C  C33  1  0.542900  0.474400  0.707500  1.0  0.791
  C  C34  1  0.841500  0.147300  0.861300  1.0  0.8181
  C  C35  1  0.943100  0.087100  0.780600  1.0  -0.5922
  C  C36  1  0.957100  0.974400  0.792500  1.0  0.791
  C  C37  1  0.658500  0.147300  0.361300  1.0  0.8189
  C  C38  1  0.556900  0.087100  0.280600  1.0  -0.593
  C  C39  1  0.542900  0.974400  0.292500  1.0  0.7911
  C  C40  1  0.841500  0.647300  0.138700  1.0  0.8173
  C  C41  1  0.943100  0.587100  0.219400  1.0  -0.5938
  C  C42  1  0.957100  0.474400  0.207500  1.0  0.7909
  C  C43  1  0.341500  0.352700  0.361300  1.0  0.8182
  C  C44  1  0.443100  0.412900  0.280600  1.0  -0.5913
  C  C45  1  0.457100  0.525600  0.292500  1.0  0.7911
  C  C46  1  0.158500  0.852700  0.138700  1.0  0.8169
  C  C47  1  0.056900  0.912900  0.219400  1.0  -0.5945
  C  C48  1  0.042900  0.025600  0.207500  1.0  0.791
  O  O49  1  0.367200  0.879100  0.551000  1.0  -0.6219
  O  O50  1  0.244800  0.776500  0.663200  1.0  -0.6803
  O  O51  1  0.501800  0.066200  0.626400  1.0  -0.7302
  O  O52  1  0.433500  0.080700  0.779800  1.0  -0.6281
  O  O53  1  0.132800  0.379100  0.949000  1.0  -0.6231
  O  O54  1  0.255200  0.276500  0.836800  1.0  -0.6796
  O  O55  1  0.998200  0.566200  0.873600  1.0  -0.7262
  O  O56  1  0.066500  0.580700  0.720200  1.0  -0.6284
  O  O57  1  0.632800  0.620900  0.551000  1.0  -0.6224
  O  O58  1  0.755200  0.723500  0.663200  1.0  -0.6794
  O  O59  1  0.498200  0.433800  0.626400  1.0  -0.7286
  O  O60  1  0.566500  0.419300  0.779800  1.0  -0.6277
  O  O61  1  0.867200  0.120900  0.949000  1.0  -0.6243
  O  O62  1  0.744800  0.223500  0.836800  1.0  -0.6805
  O  O63  1  0.001800  0.933800  0.873600  1.0  -0.7252
  O  O64  1  0.933500  0.919300  0.720200  1.0  -0.6287
  O  O65  1  0.632800  0.120900  0.449000  1.0  -0.6238
  O  O66  1  0.755200  0.223500  0.336800  1.0  -0.6795
  O  O67  1  0.498200  0.933800  0.373600  1.0  -0.7247
  O  O68  1  0.566500  0.919300  0.220200  1.0  -0.6289
  O  O69  1  0.867200  0.620900  0.051000  1.0  -0.6226
  O  O70  1  0.744800  0.723500  0.163200  1.0  -0.6803
  O  O71  1  0.001800  0.433800  0.126400  1.0  -0.7292
  O  O72  1  0.933500  0.419300  0.279800  1.0  -0.6275
  O  O73  1  0.367200  0.379100  0.449000  1.0  -0.624
  O  O74  1  0.244800  0.276500  0.336800  1.0  -0.6802
  O  O75  1  0.501800  0.566200  0.373600  1.0  -0.7263
  O  O76  1  0.433500  0.580700  0.220200  1.0  -0.6283
  O  O77  1  0.132800  0.879100  0.051000  1.0  -0.622
  O  O78  1  0.255200  0.776500  0.163200  1.0  -0.6797
  O  O79  1  0.998200  0.066200  0.126400  1.0  -0.7298
  O  O80  1  0.066500  0.080700  0.279800  1.0  -0.6281
