# generated using pymatgen
data_CsCd2H16(C2O)16
_symmetry_space_group_name_H-M   'P 1'
_cell_length_a   13.07500000
_cell_length_b   13.86000000
_cell_length_c   14.25600000
_cell_angle_alpha   90.00000000
_cell_angle_beta   108.00100000
_cell_angle_gamma   90.00000000
_symmetry_Int_Tables_number   1
_chemical_formula_structural   CsCd2H16(C2O)16
_chemical_formula_sum   'Cs2 Cd4 H32 C64 O32'
_cell_volume   2457.00747153
_cell_formula_units_Z   2
loop_
 _symmetry_equiv_pos_site_id
 _symmetry_equiv_pos_as_xyz
  1  'x, y, z'
loop_
 _atom_site_type_symbol
 _atom_site_label
 _atom_site_symmetry_multiplicity
 _atom_site_fract_x
 _atom_site_fract_y
 _atom_site_fract_z
 _atom_site_occupancy
 _atom_site_charge
  Cs  Cs1  1  0.244950  0.864580  0.239170  1.0  0.957
  Cs  Cs2  1  0.755050  0.364580  0.760830  1.0  0.9576
  Cd  Cd3  1  0.002380  0.691420  0.256870  1.0  1.077
  Cd  Cd4  1  0.511670  0.033900  0.237270  1.0  1.1102
  Cd  Cd5  1  0.997620  0.191420  0.743130  1.0  1.0768
  Cd  Cd6  1  0.488330  0.533900  0.762730  1.0  1.1104
  H  H7  1  0.973500  0.404300  0.450700  1.0  0.1337
  H  H8  1  0.694000  0.291700  0.460000  1.0  0.13
  H  H9  1  0.603800  0.384500  0.326500  1.0  0.1368
  H  H10  1  0.695800  0.494100  0.260800  1.0  0.1325
  H  H11  1  0.976400  0.966800  0.999800  1.0  0.1291
  H  H12  1  0.728700  0.919900  0.104400  1.0  0.1358
  H  H13  1  0.633400  0.042400  0.004200  1.0  0.1318
  H  H14  1  0.704400  0.118000  0.894300  1.0  0.1338
  H  H15  1  0.541700  0.322100  0.044400  1.0  0.1338
  H  H16  1  0.816300  0.430000  0.024000  1.0  0.114
  H  H17  1  0.913100  0.329900  0.152000  1.0  0.1376
  H  H18  1  0.822700  0.221100  0.220300  1.0  0.1346
  H  H19  1  0.494500  0.761800  0.461300  1.0  0.1358
  H  H20  1  0.757600  0.762700  0.374600  1.0  0.1309
  H  H21  1  0.827800  0.635700  0.479600  1.0  0.1372
  H  H22  1  0.736100  0.578600  0.583100  1.0  0.133
  H  H23  1  0.026500  0.904300  0.549300  1.0  0.1332
  H  H24  1  0.306000  0.791700  0.540000  1.0  0.1302
  H  H25  1  0.396200  0.884500  0.673500  1.0  0.1364
  H  H26  1  0.304200  0.994100  0.739200  1.0  0.1324
  H  H27  1  0.023600  0.466800  0.000200  1.0  0.1284
  H  H28  1  0.271300  0.419900  0.895600  1.0  0.1351
  H  H29  1  0.366600  0.542400  0.995800  1.0  0.1311
  H  H30  1  0.295600  0.618000  0.105700  1.0  0.1336
  H  H31  1  0.458300  0.822100  0.955600  1.0  0.1346
  H  H32  1  0.183700  0.930000  0.976000  1.0  0.1141
  H  H33  1  0.086900  0.829900  0.848000  1.0  0.1365
  H  H34  1  0.177300  0.721100  0.779700  1.0  0.1342
  H  H35  1  0.505500  0.261800  0.538700  1.0  0.1359
  H  H36  1  0.242400  0.262700  0.625400  1.0  0.131
  H  H37  1  0.172200  0.135700  0.520400  1.0  0.137
  H  H38  1  0.263900  0.078600  0.416900  1.0  0.133
  C  C39  1  0.898800  0.402400  0.427600  1.0  0.0049
  C  C40  1  0.843400  0.340000  0.471500  1.0  -0.1166
  C  C41  1  0.732000  0.333900  0.432400  1.0  -0.0437
  C  C42  1  0.678100  0.390100  0.353300  1.0  -0.0822
  C  C43  1  0.733600  0.455000  0.313000  1.0  -0.0023
  C  C44  1  0.843700  0.462200  0.349400  1.0  -0.1386
  C  C45  1  0.903900  0.285800  0.562600  1.0  0.7527
  C  C46  1  0.903800  0.537500  0.312400  1.0  0.7096
  C  C47  1  0.906700  0.980900  0.999400  1.0  0.0256
  C  C48  1  0.862300  0.931300  0.061700  1.0  -0.1397
  C  C49  1  0.758900  0.953300  0.062900  1.0  -0.0175
  C  C50  1  0.701400  0.025400  0.001900  1.0  -0.0657
  C  C51  1  0.745000  0.072100  0.937500  1.0  -0.0336
  C  C52  1  0.848100  0.051600  0.936400  1.0  -0.1408
  C  C53  1  0.926000  0.853100  0.127300  1.0  0.731
  C  C54  1  0.894700  0.101300  0.865000  1.0  0.7678
  C  C55  1  0.616500  0.322100  0.064600  1.0  0.0017
  C  C56  1  0.670900  0.385500  0.021400  1.0  -0.129
  C  C57  1  0.779900  0.387700  0.053100  1.0  -0.0016
  C  C58  1  0.838400  0.326800  0.129300  1.0  -0.0944
  C  C59  1  0.784200  0.262400  0.170400  1.0  0.0269
  C  C60  1  0.673200  0.258600  0.137900  1.0  -0.1164
  C  C61  1  0.613400  0.184700  0.176700  1.0  0.6952
  C  C62  1  0.606600  0.446700  0.935900  1.0  0.7034
  C  C63  1  0.562700  0.738200  0.466600  1.0  0.0331
  C  C64  1  0.620300  0.777500  0.409300  1.0  -0.1325
  C  C65  1  0.719300  0.738000  0.414400  1.0  -0.0563
  C  C66  1  0.762000  0.662500  0.477700  1.0  -0.0854
  C  C67  1  0.706000  0.627300  0.538100  1.0  -0.0605
  C  C68  1  0.606000  0.663500  0.532500  1.0  -0.0896
  C  C69  1  0.542400  0.625900  0.599600  1.0  0.7109
  C  C70  1  0.575100  0.863200  0.344500  1.0  0.7696
  C  C71  1  0.101200  0.902400  0.572400  1.0  0.0045
  C  C72  1  0.156600  0.840000  0.528500  1.0  -0.1174
  C  C73  1  0.268000  0.833900  0.567600  1.0  -0.045
  C  C74  1  0.321900  0.890100  0.646700  1.0  -0.0827
  C  C75  1  0.266400  0.955000  0.687000  1.0  -0.0034
  C  C76  1  0.156300  0.962200  0.650600  1.0  -0.1393
  C  C77  1  0.096100  0.785800  0.437400  1.0  0.7531
  C  C78  1  0.096200  0.037500  0.687600  1.0  0.71
  C  C79  1  0.093300  0.480900  0.000600  1.0  0.0256
  C  C80  1  0.137700  0.431300  0.938300  1.0  -0.1386
  C  C81  1  0.241100  0.453300  0.937100  1.0  -0.0186
  C  C82  1  0.298600  0.525400  0.998100  1.0  -0.0638
  C  C83  1  0.255000  0.572100  0.062500  1.0  -0.0335
  C  C84  1  0.151900  0.551600  0.063600  1.0  -0.1414
  C  C85  1  0.074000  0.353100  0.872700  1.0  0.731
  C  C86  1  0.105300  0.601300  0.135000  1.0  0.7686
  C  C87  1  0.383500  0.822100  0.935400  1.0  0.0023
  C  C88  1  0.329100  0.885500  0.978600  1.0  -0.1302
  C  C89  1  0.220100  0.887700  0.946900  1.0  0.001
  C  C90  1  0.161600  0.826800  0.870700  1.0  -0.0943
  C  C91  1  0.215800  0.762400  0.829600  1.0  0.0263
  C  C92  1  0.326800  0.758600  0.862100  1.0  -0.1147
  C  C93  1  0.386600  0.684700  0.823300  1.0  0.6948
  C  C94  1  0.393400  0.946700  0.064100  1.0  0.7011
  C  C95  1  0.437300  0.238200  0.533400  1.0  0.0338
  C  C96  1  0.379700  0.277500  0.590700  1.0  -0.1328
  C  C97  1  0.280700  0.238000  0.585600  1.0  -0.0558
  C  C98  1  0.238000  0.162500  0.522300  1.0  -0.0866
  C  C99  1  0.294000  0.127300  0.461900  1.0  -0.0597
  C  C100  1  0.394000  0.163500  0.467500  1.0  -0.09
  C  C101  1  0.457600  0.125900  0.400400  1.0  0.7095
  C  C102  1  0.424900  0.363200  0.655500  1.0  0.7697
  O  O103  1  0.005000  0.277100  0.582800  1.0  -0.611
  O  O104  1  0.853700  0.252400  0.617300  1.0  -0.6435
  O  O105  1  0.851000  0.602400  0.256200  1.0  -0.564
  O  O106  1  0.005600  0.537900  0.341760  1.0  -0.5875
  O  O107  1  0.016900  0.830200  0.123300  1.0  -0.6579
  O  O108  1  0.884300  0.810300  0.185500  1.0  -0.5611
  O  O109  1  0.832800  0.144600  0.792340  1.0  -0.6692
  O  O110  1  0.995500  0.098000  0.881500  1.0  -0.603
  O  O111  1  0.665400  0.127000  0.242800  1.0  -0.5934
  O  O112  1  0.513700  0.178700  0.142900  1.0  -0.5846
  O  O113  1  0.506200  0.446800  0.910400  1.0  -0.5792
  O  O114  1  0.658400  0.494100  0.888200  1.0  -0.6971
  O  O115  1  0.599700  0.592100  0.682600  1.0  -0.604
  O  O116  1  0.445200  0.629400  0.571600  1.0  -0.4369
  O  O117  1  0.478200  0.879000  0.320200  1.0  -0.6576
  O  O118  1  0.638600  0.916700  0.318200  1.0  -0.6
  O  O119  1  0.995000  0.777100  0.417200  1.0  -0.6092
  O  O120  1  0.146300  0.752400  0.382700  1.0  -0.6442
  O  O121  1  0.149000  0.102400  0.743800  1.0  -0.5642
  O  O122  1  0.994400  0.037900  0.658240  1.0  -0.5896
  O  O123  1  0.983100  0.330200  0.876700  1.0  -0.659
  O  O124  1  0.115700  0.310300  0.814500  1.0  -0.5605
  O  O125  1  0.167200  0.644600  0.207660  1.0  -0.6657
  O  O126  1  0.004500  0.598000  0.118500  1.0  -0.6053
  O  O127  1  0.334600  0.627000  0.757200  1.0  -0.5922
  O  O128  1  0.486300  0.678700  0.857100  1.0  -0.5858
  O  O129  1  0.493800  0.946800  0.089600  1.0  -0.5786
  O  O130  1  0.341600  0.994100  0.111800  1.0  -0.697
  O  O131  1  0.400300  0.092100  0.317400  1.0  -0.6048
  O  O132  1  0.554800  0.129400  0.428400  1.0  -0.4355
  O  O133  1  0.521800  0.379000  0.679800  1.0  -0.6548
  O  O134  1  0.361400  0.416700  0.681800  1.0  -0.5994
