# generated using pymatgen
data_CsCd2H16(C2O)16
_symmetry_space_group_name_H-M   'P 1'
_cell_length_a   13.07900000
_cell_length_b   13.85300000
_cell_length_c   14.26300000
_cell_angle_alpha   90.00000000
_cell_angle_beta   107.98300000
_cell_angle_gamma   90.00000000
_symmetry_Int_Tables_number   1
_chemical_formula_structural   CsCd2H16(C2O)16
_chemical_formula_sum   'Cs2 Cd4 H32 C64 O32'
_cell_volume   2457.97481701
_cell_formula_units_Z   2
loop_
 _symmetry_equiv_pos_site_id
 _symmetry_equiv_pos_as_xyz
  1  'x, y, z'
loop_
 _atom_site_type_symbol
 _atom_site_label
 _atom_site_symmetry_multiplicity
 _atom_site_fract_x
 _atom_site_fract_y
 _atom_site_fract_z
 _atom_site_occupancy
 _atom_site_charge
  Cs  Cs1  1  0.255160  0.898490  0.261060  1.0  0.9559
  Cs  Cs2  1  0.744840  0.398490  0.738940  1.0  0.9555
  Cd  Cd3  1  0.497630  0.071750  0.243300  1.0  1.0798
  Cd  Cd4  1  0.988340  0.729150  0.262940  1.0  1.1134
  Cd  Cd5  1  0.502370  0.571750  0.756700  1.0  1.0801
  Cd  Cd6  1  0.011660  0.229150  0.737060  1.0  1.1134
  H  H7  1  0.527800  0.357900  0.048800  1.0  0.133
  H  H8  1  0.805000  0.473700  0.039800  1.0  0.1284
  H  H9  1  0.896000  0.378000  0.174000  1.0  0.1325
  H  H10  1  0.804400  0.267500  0.238900  1.0  0.1394
  H  H11  1  0.523900  0.795900  0.501000  1.0  0.1326
  H  H12  1  0.769700  0.840400  0.392700  1.0  0.1374
  H  H13  1  0.868500  0.727300  0.500500  1.0  0.1363
  H  H14  1  0.792300  0.643500  0.602500  1.0  0.1196
  H  H15  1  0.959300  0.439400  0.455900  1.0  0.141
  H  H16  1  0.683100  0.329500  0.474000  1.0  0.1354
  H  H17  1  0.586800  0.435400  0.349600  1.0  0.1315
  H  H18  1  0.676100  0.544500  0.281300  1.0  0.1533
  H  H19  1  0.002100  0.997800  0.036900  1.0  0.1288
  H  H20  1  0.742100  0.998800  0.126500  1.0  0.1297
  H  H21  1  0.668100  0.124400  0.018000  1.0  0.1488
  H  H22  1  0.765400  0.185500  0.920900  1.0  0.129
  H  H23  1  0.472200  0.857900  0.951200  1.0  0.1334
  H  H24  1  0.195000  0.973700  0.960200  1.0  0.1281
  H  H25  1  0.104000  0.878000  0.826000  1.0  0.1338
  H  H26  1  0.195600  0.767500  0.761100  1.0  0.1383
  H  H27  1  0.476100  0.295900  0.499000  1.0  0.1338
  H  H28  1  0.230300  0.340400  0.607300  1.0  0.1383
  H  H29  1  0.131500  0.227300  0.499500  1.0  0.1354
  H  H30  1  0.207700  0.143500  0.397500  1.0  0.1193
  H  H31  1  0.040700  0.939400  0.544100  1.0  0.1394
  H  H32  1  0.316900  0.829500  0.526000  1.0  0.136
  H  H33  1  0.413200  0.935400  0.650400  1.0  0.133
  H  H34  1  0.323900  0.044500  0.718700  1.0  0.1527
  H  H35  1  0.997900  0.497800  0.963100  1.0  0.1289
  H  H36  1  0.257900  0.498800  0.873500  1.0  0.1292
  H  H37  1  0.331900  0.624400  0.982000  1.0  0.1487
  H  H38  1  0.234600  0.685500  0.079100  1.0  0.1287
  C  C39  1  0.602500  0.361100  0.072000  1.0  0.0015
  C  C40  1  0.655100  0.424700  0.027600  1.0  -0.0844
  C  C41  1  0.767000  0.431000  0.066800  1.0  -0.0782
  C  C42  1  0.821800  0.372600  0.147300  1.0  -0.0818
  C  C43  1  0.767000  0.307300  0.187300  1.0  -0.012
  C  C44  1  0.657800  0.301600  0.150600  1.0  -0.1218
  C  C45  1  0.593800  0.477600  0.937200  1.0  0.7654
  C  C46  1  0.596200  0.226500  0.186900  1.0  0.7163
  C  C47  1  0.593500  0.782100  0.501100  1.0  0.0108
  C  C48  1  0.638000  0.832700  0.437500  1.0  -0.1489
  C  C49  1  0.740400  0.809400  0.436300  1.0  -0.0155
  C  C50  1  0.798400  0.741000  0.499200  1.0  -0.0608
  C  C51  1  0.752600  0.691500  0.561700  1.0  -0.0029
  C  C52  1  0.653400  0.710900  0.564700  1.0  -0.1099
  C  C53  1  0.574900  0.909100  0.373900  1.0  0.687
  C  C54  1  0.603900  0.660300  0.635500  1.0  0.7606
  C  C55  1  0.884600  0.439900  0.435800  1.0  0.0455
  C  C56  1  0.829200  0.378100  0.479100  1.0  -0.1091
  C  C57  1  0.719300  0.373700  0.446800  1.0  -0.0561
  C  C58  1  0.661500  0.437400  0.371300  1.0  -0.0726
  C  C59  1  0.714300  0.501900  0.329900  1.0  -0.0444
  C  C60  1  0.828000  0.502600  0.362200  1.0  -0.1036
  C  C61  1  0.887200  0.579900  0.323400  1.0  0.7096
  C  C62  1  0.890300  0.317200  0.563200  1.0  0.685
  C  C63  1  0.935200  0.023500  0.033000  1.0  0.0266
  C  C64  1  0.880900  0.986000  0.092100  1.0  -0.0911
  C  C65  1  0.779800  0.024100  0.086600  1.0  -0.0517
  C  C66  1  0.735200  0.099100  0.022100  1.0  -0.0881
  C  C67  1  0.794500  0.135000  0.963800  1.0  -0.052
  C  C68  1  0.894500  0.099800  0.965900  1.0  -0.0602
  C  C69  1  0.956800  0.135200  0.900700  1.0  0.7147
  C  C70  1  0.924600  0.900200  0.154600  1.0  0.7558
  C  C71  1  0.397500  0.861100  0.928000  1.0  0.0022
  C  C72  1  0.344900  0.924700  0.972400  1.0  -0.0866
  C  C73  1  0.233000  0.931000  0.933200  1.0  -0.0773
  C  C74  1  0.178200  0.872600  0.852700  1.0  -0.0818
  C  C75  1  0.233000  0.807300  0.812700  1.0  -0.0117
  C  C76  1  0.342200  0.801600  0.849400  1.0  -0.1214
  C  C77  1  0.406200  0.977600  0.062800  1.0  0.763
  C  C78  1  0.403800  0.726500  0.813100  1.0  0.7149
  C  C79  1  0.406500  0.282100  0.498900  1.0  0.014
  C  C80  1  0.362000  0.332700  0.562500  1.0  -0.1498
  C  C81  1  0.259600  0.309400  0.563700  1.0  -0.0152
  C  C82  1  0.201600  0.241000  0.500800  1.0  -0.0621
  C  C83  1  0.247400  0.191500  0.438300  1.0  -0.0012
  C  C84  1  0.346600  0.210900  0.435300  1.0  -0.1093
  C  C85  1  0.425100  0.409100  0.626100  1.0  0.6872
  C  C86  1  0.396100  0.160300  0.364500  1.0  0.759
  C  C87  1  0.115400  0.939900  0.564200  1.0  0.044
  C  C88  1  0.170800  0.878100  0.520900  1.0  -0.1103
  C  C89  1  0.280700  0.873700  0.553200  1.0  -0.0568
  C  C90  1  0.338500  0.937400  0.628700  1.0  -0.0722
  C  C91  1  0.285700  0.001900  0.670100  1.0  -0.0452
  C  C92  1  0.172000  0.002600  0.637800  1.0  -0.1045
  C  C93  1  0.112800  0.079900  0.676600  1.0  0.708
  C  C94  1  0.109700  0.817200  0.436800  1.0  0.6849
  C  C95  1  0.064800  0.523500  0.967000  1.0  0.0264
  C  C96  1  0.119100  0.486000  0.907900  1.0  -0.0916
  C  C97  1  0.220200  0.524100  0.913400  1.0  -0.0523
  C  C98  1  0.264800  0.599100  0.977900  1.0  -0.0856
  C  C99  1  0.205500  0.635000  0.036200  1.0  -0.0538
  C  C100  1  0.105500  0.599800  0.034100  1.0  -0.0596
  C  C101  1  0.043200  0.635200  0.099300  1.0  0.716
  C  C102  1  0.075400  0.400200  0.845400  1.0  0.7566
  O  O103  1  0.495300  0.486500  0.916300  1.0  -0.6185
  O  O104  1  0.646300  0.510000  0.882500  1.0  -0.6353
  O  O105  1  0.648500  0.160400  0.242500  1.0  -0.5522
  O  O106  1  0.492800  0.226100  0.157900  1.0  -0.6008
  O  O107  1  0.483000  0.933200  0.377000  1.0  -0.683
  O  O108  1  0.614500  0.952700  0.313900  1.0  -0.5809
  O  O109  1  0.667000  0.618100  0.708100  1.0  -0.6451
  O  O110  1  0.505800  0.664300  0.619000  1.0  -0.5651
  O  O111  1  0.832000  0.637900  0.257200  1.0  -0.6088
  O  O112  1  0.984300  0.585100  0.355900  1.0  -0.5577
  O  O113  1  0.994300  0.316400  0.590300  1.0  -0.6197
  O  O114  1  0.842100  0.272200  0.613000  1.0  -0.7239
  O  O115  1  0.898500  0.170300  0.817100  1.0  -0.6219
  O  O116  1  0.052700  0.132800  0.928500  1.0  -0.439
  O  O117  1  0.023100  0.883500  0.179000  1.0  -0.6694
  O  O118  1  0.861000  0.845800  0.181200  1.0  -0.6098
  O  O119  1  0.504700  0.986500  0.083700  1.0  -0.6175
  O  O120  1  0.353700  0.010000  0.117500  1.0  -0.6376
  O  O121  1  0.351500  0.660400  0.757500  1.0  -0.5522
  O  O122  1  0.507200  0.726100  0.842100  1.0  -0.6013
  O  O123  1  0.517000  0.433200  0.623000  1.0  -0.6831
  O  O124  1  0.385500  0.452700  0.686100  1.0  -0.5819
  O  O125  1  0.333000  0.118100  0.291900  1.0  -0.6475
  O  O126  1  0.494200  0.164300  0.381000  1.0  -0.5654
  O  O127  1  0.168000  0.137900  0.742800  1.0  -0.6081
  O  O128  1  0.015700  0.085100  0.644100  1.0  -0.5614
  O  O129  1  0.005700  0.816400  0.409700  1.0  -0.6201
  O  O130  1  0.157900  0.772200  0.387000  1.0  -0.7232
  O  O131  1  0.101500  0.670300  0.182900  1.0  -0.6201
  O  O132  1  0.947300  0.632800  0.071500  1.0  -0.4414
  O  O133  1  0.976900  0.383500  0.821000  1.0  -0.6712
  O  O134  1  0.139000  0.345800  0.818800  1.0  -0.6099
