# generated using pymatgen
data_Zr2P3O12F
_symmetry_space_group_name_H-M   'P 1'
_cell_length_a   17.34000000
_cell_length_b   6.60530000
_cell_length_c   11.54000000
_cell_angle_alpha   90.00000000
_cell_angle_beta   95.41000000
_cell_angle_gamma   90.00000000
_symmetry_Int_Tables_number   1
_chemical_formula_structural   Zr2P3O12F
_chemical_formula_sum   'Zr8 P12 O48 F4'
_cell_volume   1315.85663136
_cell_formula_units_Z   4
loop_
 _symmetry_equiv_pos_site_id
 _symmetry_equiv_pos_as_xyz
  1  'x, y, z'
loop_
 _atom_site_type_symbol
 _atom_site_label
 _atom_site_symmetry_multiplicity
 _atom_site_fract_x
 _atom_site_fract_y
 _atom_site_fract_z
 _atom_site_occupancy
 _atom_site_charge
  Zr  Zr1  1  0.859790  0.854870  0.100170  1.0  2.0978
  Zr  Zr2  1  0.221460  0.847510  0.350540  1.0  2.1027
  Zr  Zr3  1  0.359790  0.354870  0.100170  1.0  2.0978
  Zr  Zr4  1  0.721460  0.347510  0.350540  1.0  2.1027
  Zr  Zr5  1  0.140210  0.854870  0.899830  1.0  2.1008
  Zr  Zr6  1  0.778540  0.847510  0.649460  1.0  2.1025
  Zr  Zr7  1  0.640210  0.354870  0.899830  1.0  2.1008
  Zr  Zr8  1  0.278540  0.347510  0.649460  1.0  2.1025
  P  P9  1  0.228120  0.852600  0.639080  1.0  1.8392
  P  P10  1  0.692360  0.855100  0.914380  1.0  1.8651
  P  P11  1  0.057820  0.785300  0.166920  1.0  1.8136
  P  P12  1  0.728120  0.352600  0.639080  1.0  1.8392
  P  P13  1  0.192360  0.355100  0.914380  1.0  1.8651
  P  P14  1  0.557820  0.285300  0.166920  1.0  1.8136
  P  P15  1  0.771880  0.852600  0.360920  1.0  1.8386
  P  P16  1  0.307640  0.855100  0.085620  1.0  1.8688
  P  P17  1  0.942180  0.785300  0.833080  1.0  1.8125
  P  P18  1  0.271880  0.352600  0.360920  1.0  1.8386
  P  P19  1  0.807640  0.355100  0.085620  1.0  1.8688
  P  P20  1  0.442180  0.285300  0.833080  1.0  1.8125
  O  O21  1  0.106100  0.849400  0.277200  1.0  -0.7476
  O  O22  1  0.747800  0.854300  0.025300  1.0  -0.8472
  O  O23  1  0.183200  0.850400  0.518000  1.0  -0.714
  O  O24  1  0.975200  0.859200  0.171500  1.0  -0.7924
  O  O25  1  0.059100  0.550400  0.171300  1.0  -0.4634
  O  O26  1  0.642100  0.042700  0.907600  1.0  -0.7956
  O  O27  1  0.171400  0.858700  0.732900  1.0  -0.8143
  O  O28  1  0.282000  0.034000  0.651100  1.0  -0.7924
  O  O29  1  0.638100  0.669000  0.914500  1.0  -0.7955
  O  O30  1  0.277500  0.659500  0.653300  1.0  -0.8075
  O  O31  1  0.091400  0.855700  0.058600  1.0  -0.8576
  O  O32  1  0.739200  0.841900  0.809600  1.0  -0.8645
  O  O33  1  0.606100  0.349400  0.277200  1.0  -0.7476
  O  O34  1  0.247800  0.354300  0.025300  1.0  -0.8472
  O  O35  1  0.683200  0.350400  0.518000  1.0  -0.714
  O  O36  1  0.475200  0.359200  0.171500  1.0  -0.7924
  O  O37  1  0.559100  0.050400  0.171300  1.0  -0.4634
  O  O38  1  0.142100  0.542700  0.907600  1.0  -0.7956
  O  O39  1  0.671400  0.358700  0.732900  1.0  -0.8143
  O  O40  1  0.782000  0.534000  0.651100  1.0  -0.7924
  O  O41  1  0.138100  0.169000  0.914500  1.0  -0.795
  O  O42  1  0.777500  0.159500  0.653300  1.0  -0.8075
  O  O43  1  0.591400  0.355700  0.058600  1.0  -0.8576
  O  O44  1  0.239200  0.341900  0.809600  1.0  -0.8643
  O  O45  1  0.893900  0.849400  0.722800  1.0  -0.7477
  O  O46  1  0.252200  0.854300  0.974700  1.0  -0.8484
  O  O47  1  0.816800  0.850400  0.482000  1.0  -0.715
  O  O48  1  0.024800  0.859200  0.828500  1.0  -0.7926
  O  O49  1  0.940900  0.550400  0.828700  1.0  -0.4638
  O  O50  1  0.357900  0.042700  0.092400  1.0  -0.7949
  O  O51  1  0.828600  0.858700  0.267100  1.0  -0.8152
  O  O52  1  0.718000  0.034000  0.348900  1.0  -0.7929
  O  O53  1  0.361900  0.669000  0.085500  1.0  -0.7946
  O  O54  1  0.722500  0.659500  0.346700  1.0  -0.808
  O  O55  1  0.908600  0.855700  0.941400  1.0  -0.8548
  O  O56  1  0.260800  0.841900  0.190400  1.0  -0.8647
  O  O57  1  0.393900  0.349400  0.722800  1.0  -0.7477
  O  O58  1  0.752200  0.354300  0.974700  1.0  -0.8484
  O  O59  1  0.316800  0.350400  0.482000  1.0  -0.715
  O  O60  1  0.524800  0.359200  0.828500  1.0  -0.7926
  O  O61  1  0.440900  0.050400  0.828700  1.0  -0.4638
  O  O62  1  0.857900  0.542700  0.092400  1.0  -0.7949
  O  O63  1  0.328600  0.358700  0.267100  1.0  -0.8152
  O  O64  1  0.218000  0.534000  0.348900  1.0  -0.7934
  O  O65  1  0.861900  0.169000  0.085500  1.0  -0.7944
  O  O66  1  0.222500  0.159500  0.346700  1.0  -0.808
  O  O67  1  0.408600  0.355700  0.941400  1.0  -0.8559
  O  O68  1  0.760800  0.341900  0.190400  1.0  -0.8644
  F  F69  1  0.329000  0.838700  0.422200  1.0  -0.4289
  F  F70  1  0.829000  0.338700  0.422200  1.0  -0.4289
  F  F71  1  0.671000  0.838700  0.577800  1.0  -0.4275
  F  F72  1  0.171000  0.338700  0.577800  1.0  -0.4275
