# generated using pymatgen
data_Zr2P3HO12F
_symmetry_space_group_name_H-M   'P 1'
_cell_length_a   17.22400000
_cell_length_b   6.63000000
_cell_length_c   23.18100000
_cell_angle_alpha   90.00000000
_cell_angle_beta   94.53000000
_cell_angle_gamma   90.00000000
_symmetry_Int_Tables_number   1
_chemical_formula_structural   Zr2P3HO12F
_chemical_formula_sum   'Zr16 P24 H8 O96 F8'
_cell_volume   2638.88766506
_cell_formula_units_Z   8
loop_
 _symmetry_equiv_pos_site_id
 _symmetry_equiv_pos_as_xyz
  1  'x, y, z'
loop_
 _atom_site_type_symbol
 _atom_site_label
 _atom_site_symmetry_multiplicity
 _atom_site_fract_x
 _atom_site_fract_y
 _atom_site_fract_z
 _atom_site_occupancy
 _atom_site_charge
  Zr  Zr1  1  0.359170  0.998500  0.299750  1.0  2.0726
  Zr  Zr2  1  0.220130  0.494500  0.425390  1.0  2.1258
  Zr  Zr3  1  0.859170  0.498500  0.299750  1.0  2.0726
  Zr  Zr4  1  0.720130  0.994500  0.425390  1.0  2.1258
  Zr  Zr5  1  0.640830  0.998500  0.200250  1.0  2.0781
  Zr  Zr6  1  0.779870  0.494500  0.074610  1.0  2.1242
  Zr  Zr7  1  0.140830  0.498500  0.200250  1.0  2.0781
  Zr  Zr8  1  0.279870  0.994500  0.074610  1.0  2.1242
  Zr  Zr9  1  0.640830  0.001500  0.700250  1.0  2.0791
  Zr  Zr10  1  0.779870  0.505500  0.574610  1.0  2.1242
  Zr  Zr11  1  0.140830  0.501500  0.700250  1.0  2.0791
  Zr  Zr12  1  0.279870  0.005500  0.574610  1.0  2.1242
  Zr  Zr13  1  0.359170  0.001500  0.799750  1.0  2.0737
  Zr  Zr14  1  0.220130  0.505500  0.925390  1.0  2.1257
  Zr  Zr15  1  0.859170  0.501500  0.799750  1.0  2.0737
  Zr  Zr16  1  0.720130  0.005500  0.925390  1.0  2.1257
  P  P17  1  0.308020  0.498600  0.293120  1.0  1.7969
  P  P18  1  0.269070  0.997300  0.430440  1.0  1.7601
  P  P19  1  0.442200  0.072500  0.165990  1.0  1.8419
  P  P20  1  0.808020  0.998600  0.293120  1.0  1.7969
  P  P21  1  0.769070  0.497300  0.430440  1.0  1.7601
  P  P22  1  0.942200  0.572500  0.165990  1.0  1.8419
  P  P23  1  0.691980  0.498600  0.206880  1.0  1.7967
  P  P24  1  0.730930  0.997300  0.069560  1.0  1.7592
  P  P25  1  0.557800  0.072500  0.334010  1.0  1.8422
  P  P26  1  0.191980  0.998600  0.206880  1.0  1.7967
  P  P27  1  0.230930  0.497300  0.069560  1.0  1.7592
  P  P28  1  0.057800  0.572500  0.334010  1.0  1.8422
  P  P29  1  0.691980  0.501400  0.706880  1.0  1.797
  P  P30  1  0.730930  0.002700  0.569560  1.0  1.7592
  P  P31  1  0.557800  0.927500  0.834010  1.0  1.8414
  P  P32  1  0.191980  0.001400  0.706880  1.0  1.797
  P  P33  1  0.230930  0.502700  0.569560  1.0  1.7592
  P  P34  1  0.057800  0.427500  0.834010  1.0  1.8414
  P  P35  1  0.308020  0.501400  0.793120  1.0  1.7974
  P  P36  1  0.269070  0.002700  0.930440  1.0  1.7601
  P  P37  1  0.442200  0.927500  0.665990  1.0  1.8417
  P  P38  1  0.808020  0.001400  0.793120  1.0  1.7974
  P  P39  1  0.769070  0.502700  0.930440  1.0  1.7601
  P  P40  1  0.942200  0.427500  0.665990  1.0  1.8417
  H  H41  1  0.455200  0.386000  0.194600  1.0  0.351
  H  H42  1  0.955200  0.886000  0.194600  1.0  0.351
  H  H43  1  0.544800  0.386000  0.305400  1.0  0.3523
  H  H44  1  0.044800  0.886000  0.305400  1.0  0.3523
  H  H45  1  0.544800  0.614000  0.805400  1.0  0.3515
  H  H46  1  0.044800  0.114000  0.805400  1.0  0.3515
  H  H47  1  0.455200  0.614000  0.694600  1.0  0.3506
  H  H48  1  0.955200  0.114000  0.694600  1.0  0.3506
  O  O49  1  0.362500  0.682400  0.293200  1.0  -0.7839
  O  O50  1  0.253100  0.495400  0.237300  1.0  -0.8633
  O  O51  1  0.259900  0.509800  0.345200  1.0  -0.8619
  O  O52  1  0.359100  0.309400  0.296500  1.0  -0.8386
  O  O53  1  0.316200  0.009600  0.489800  1.0  -0.7161
  O  O54  1  0.218500  0.808900  0.428000  1.0  -0.7936
  O  O55  1  0.326000  0.991400  0.382900  1.0  -0.8148
  O  O56  1  0.215600  0.181400  0.422300  1.0  -0.785
  O  O57  1  0.407500  0.997800  0.220200  1.0  -0.8654
  O  O58  1  0.395200  0.005000  0.110700  1.0  -0.7719
  O  O59  1  0.526000  0.998800  0.164100  1.0  -0.8243
  O  O60  1  0.440100  0.308000  0.163800  1.0  -0.5788
  O  O61  1  0.862500  0.182400  0.293200  1.0  -0.7839
  O  O62  1  0.753100  0.995400  0.237300  1.0  -0.8633
  O  O63  1  0.759900  0.009800  0.345200  1.0  -0.8619
  O  O64  1  0.859100  0.809400  0.296500  1.0  -0.8384
  O  O65  1  0.816200  0.509600  0.489800  1.0  -0.7161
  O  O66  1  0.718500  0.308900  0.428000  1.0  -0.7936
  O  O67  1  0.826000  0.491400  0.382900  1.0  -0.8148
  O  O68  1  0.715600  0.681400  0.422300  1.0  -0.785
  O  O69  1  0.907500  0.497800  0.220200  1.0  -0.8654
  O  O70  1  0.895200  0.505000  0.110700  1.0  -0.7719
  O  O71  1  0.026000  0.498800  0.164100  1.0  -0.8243
  O  O72  1  0.940100  0.808000  0.163800  1.0  -0.5788
  O  O73  1  0.637500  0.682400  0.206800  1.0  -0.7835
  O  O74  1  0.746900  0.495400  0.262700  1.0  -0.8623
  O  O75  1  0.740100  0.509800  0.154800  1.0  -0.8635
  O  O76  1  0.640900  0.309400  0.203500  1.0  -0.8387
  O  O77  1  0.683800  0.009600  0.010200  1.0  -0.7156
  O  O78  1  0.781500  0.808900  0.072000  1.0  -0.7922
  O  O79  1  0.674000  0.991400  0.117100  1.0  -0.8145
  O  O80  1  0.784400  0.181400  0.077700  1.0  -0.7853
  O  O81  1  0.592500  0.997800  0.279800  1.0  -0.865
  O  O82  1  0.604800  0.005000  0.389300  1.0  -0.7707
  O  O83  1  0.474000  0.998800  0.335900  1.0  -0.8234
  O  O84  1  0.559900  0.308000  0.336200  1.0  -0.5773
  O  O85  1  0.137500  0.182400  0.206800  1.0  -0.7835
  O  O86  1  0.246900  0.995400  0.262700  1.0  -0.8623
  O  O87  1  0.240100  0.009800  0.154800  1.0  -0.8635
  O  O88  1  0.140900  0.809400  0.203500  1.0  -0.8381
  O  O89  1  0.183800  0.509600  0.010200  1.0  -0.7156
  O  O90  1  0.281500  0.308900  0.072000  1.0  -0.7922
  O  O91  1  0.174000  0.491400  0.117100  1.0  -0.8145
  O  O92  1  0.284400  0.681400  0.077700  1.0  -0.7853
  O  O93  1  0.092500  0.497800  0.279800  1.0  -0.865
  O  O94  1  0.104800  0.505000  0.389300  1.0  -0.7707
  O  O95  1  0.974000  0.498800  0.335900  1.0  -0.8234
  O  O96  1  0.059900  0.808000  0.336200  1.0  -0.5773
  O  O97  1  0.637500  0.317600  0.706800  1.0  -0.7839
  O  O98  1  0.746900  0.504600  0.762700  1.0  -0.8622
  O  O99  1  0.740100  0.490200  0.654800  1.0  -0.8636
  O  O100  1  0.640900  0.690600  0.703500  1.0  -0.8384
  O  O101  1  0.683800  0.990400  0.510200  1.0  -0.7155
  O  O102  1  0.781500  0.191100  0.572000  1.0  -0.7919
  O  O103  1  0.674000  0.008600  0.617100  1.0  -0.8144
  O  O104  1  0.784400  0.818600  0.577700  1.0  -0.7851
  O  O105  1  0.592500  0.002200  0.779800  1.0  -0.8672
  O  O106  1  0.604800  0.995000  0.889300  1.0  -0.7701
  O  O107  1  0.474000  0.001200  0.835900  1.0  -0.8244
  O  O108  1  0.559900  0.692000  0.836200  1.0  -0.5772
  O  O109  1  0.137500  0.817600  0.706800  1.0  -0.7838
  O  O110  1  0.246900  0.004600  0.762700  1.0  -0.8622
  O  O111  1  0.240100  0.990200  0.654800  1.0  -0.8636
  O  O112  1  0.140900  0.190600  0.703500  1.0  -0.8384
  O  O113  1  0.183800  0.490400  0.510200  1.0  -0.7155
  O  O114  1  0.281500  0.691100  0.572000  1.0  -0.7919
  O  O115  1  0.174000  0.508600  0.617100  1.0  -0.8144
  O  O116  1  0.284400  0.318600  0.577700  1.0  -0.7851
  O  O117  1  0.092500  0.502200  0.779800  1.0  -0.8672
  O  O118  1  0.104800  0.495000  0.889300  1.0  -0.7701
  O  O119  1  0.974000  0.501200  0.835900  1.0  -0.8244
  O  O120  1  0.059900  0.192000  0.836200  1.0  -0.5772
  O  O121  1  0.362500  0.317600  0.793200  1.0  -0.7845
  O  O122  1  0.253100  0.504600  0.737300  1.0  -0.8632
  O  O123  1  0.259900  0.490200  0.845200  1.0  -0.8619
  O  O124  1  0.359100  0.690600  0.796500  1.0  -0.8379
  O  O125  1  0.316200  0.990400  0.989800  1.0  -0.7161
  O  O126  1  0.218500  0.191100  0.928000  1.0  -0.7937
  O  O127  1  0.326000  0.008600  0.882900  1.0  -0.8145
  O  O128  1  0.215600  0.818600  0.922300  1.0  -0.7848
  O  O129  1  0.407500  0.002200  0.720200  1.0  -0.8671
  O  O130  1  0.395200  0.995000  0.610700  1.0  -0.7706
  O  O131  1  0.526000  0.001200  0.664100  1.0  -0.825
  O  O132  1  0.440100  0.692000  0.663800  1.0  -0.5787
  O  O133  1  0.862500  0.817600  0.793200  1.0  -0.7846
  O  O134  1  0.753100  0.004600  0.737300  1.0  -0.8632
  O  O135  1  0.759900  0.990200  0.845200  1.0  -0.8619
  O  O136  1  0.859100  0.190600  0.796500  1.0  -0.8374
  O  O137  1  0.816200  0.490400  0.989800  1.0  -0.7161
  O  O138  1  0.718500  0.691100  0.928000  1.0  -0.7937
  O  O139  1  0.826000  0.508600  0.882900  1.0  -0.8145
  O  O140  1  0.715600  0.318600  0.922300  1.0  -0.7848
  O  O141  1  0.907500  0.502200  0.720200  1.0  -0.8671
  O  O142  1  0.895200  0.495000  0.610700  1.0  -0.7706
  O  O143  1  0.026000  0.501200  0.664100  1.0  -0.825
  O  O144  1  0.940100  0.192000  0.663800  1.0  -0.5787
  F  F145  1  0.330300  0.485400  0.458500  1.0  -0.4559
  F  F146  1  0.830300  0.985400  0.458500  1.0  -0.4559
  F  F147  1  0.669700  0.485400  0.041500  1.0  -0.455
  F  F148  1  0.169700  0.985400  0.041500  1.0  -0.455
  F  F149  1  0.669700  0.514600  0.541500  1.0  -0.4551
  F  F150  1  0.169700  0.014600  0.541500  1.0  -0.4551
  F  F151  1  0.330300  0.514600  0.958500  1.0  -0.4558
  F  F152  1  0.830300  0.014600  0.958500  1.0  -0.4558
