# generated using pymatgen
data_SrH14C8(SO2)2
_symmetry_space_group_name_H-M   'P 1'
_cell_length_a   11.07110000
_cell_length_b   11.07110000
_cell_length_c   11.62240000
_cell_angle_alpha   117.99800000
_cell_angle_beta   117.99800000
_cell_angle_gamma   90.82340000
_symmetry_Int_Tables_number   1
_chemical_formula_structural   SrH14C8(SO2)2
_chemical_formula_sum   'Sr2 H28 C16 S4 O8'
_cell_volume   1059.07375813
_cell_formula_units_Z   2
loop_
 _symmetry_equiv_pos_site_id
 _symmetry_equiv_pos_as_xyz
  1  'x, y, z'
loop_
 _atom_site_type_symbol
 _atom_site_label
 _atom_site_symmetry_multiplicity
 _atom_site_fract_x
 _atom_site_fract_y
 _atom_site_fract_z
 _atom_site_occupancy
 _atom_site_charge
  Sr  Sr1  1  0.733540  0.266460  0.000000  1.0  1.5439
  Sr  Sr2  1  0.983540  0.016460  0.500000  1.0  1.5439
  H  H3  1  0.748700  0.860500  0.606400  1.0  0.059
  H  H4  1  0.806900  0.866500  0.874800  1.0  0.1214
  H  H5  1  0.925500  0.878300  0.835600  1.0  0.1207
  H  H6  1  0.795200  0.733600  0.726400  1.0  0.1297
  H  H7  1  0.541200  0.749400  0.574000  1.0  0.1238
  H  H8  1  0.530800  0.894200  0.575800  1.0  0.1224
  H  H9  1  0.569900  0.892300  0.726000  1.0  0.1239
  H  H10  1  0.139500  0.251300  0.393600  1.0  0.0579
  H  H11  1  0.133500  0.193100  0.125200  1.0  0.1228
  H  H12  1  0.121700  0.074500  0.164400  1.0  0.1239
  H  H13  1  0.266400  0.204800  0.273600  1.0  0.1292
  H  H14  1  0.250600  0.458800  0.426000  1.0  0.125
  H  H15  1  0.105800  0.469200  0.424200  1.0  0.122
  H  H16  1  0.107700  0.430100  0.274000  1.0  0.1249
  H  H17  1  0.995900  0.607700  0.106400  1.0  0.0543
  H  H18  1  0.258300  0.817900  0.374800  1.0  0.1233
  H  H19  1  0.207300  0.660100  0.335600  1.0  0.1234
  H  H20  1  0.242800  0.681200  0.226400  1.0  0.1295
  H  H21  1  0.074600  0.782800  0.074000  1.0  0.1256
  H  H22  1  0.931600  0.795000  0.075800  1.0  0.1245
  H  H23  1  0.083700  0.906100  0.226000  1.0  0.1235
  H  H24  1  0.392300  0.004100  0.893600  1.0  0.0572
  H  H25  1  0.182100  0.741700  0.625200  1.0  0.1227
  H  H26  1  0.339900  0.792700  0.664400  1.0  0.1222
  H  H27  1  0.318800  0.757200  0.773600  1.0  0.1282
  H  H28  1  0.217200  0.925400  0.926000  1.0  0.1251
  H  H29  1  0.205000  0.068400  0.924200  1.0  0.1233
  H  H30  1  0.093900  0.916300  0.774000  1.0  0.1221
  C  C31  1  0.879000  0.117000  0.217800  1.0  0.6325
  C  C32  1  0.737000  0.894400  0.695800  1.0  0.3523
  C  C33  1  0.823500  0.838500  0.791200  1.0  -0.4168
  C  C34  1  0.581400  0.854000  0.638000  1.0  -0.4149
  C  C35  1  0.883000  0.121000  0.782200  1.0  0.655
  C  C36  1  0.105600  0.263000  0.304200  1.0  0.353
  C  C37  1  0.161500  0.176500  0.208800  1.0  -0.4203
  C  C38  1  0.146000  0.418600  0.362000  1.0  -0.4191
  C  C39  1  0.350800  0.088800  0.717800  1.0  0.6575
  C  C40  1  0.051400  0.708800  0.195800  1.0  0.3545
  C  C41  1  0.202700  0.717700  0.291200  1.0  -0.4217
  C  C42  1  0.034000  0.806600  0.138000  1.0  -0.4207
  C  C43  1  0.911200  0.649200  0.282200  1.0  0.6458
  C  C44  1  0.291200  0.948600  0.804200  1.0  0.3538
  C  C45  1  0.282300  0.797300  0.708800  1.0  -0.423
  C  C46  1  0.193400  0.966000  0.862000  1.0  -0.4206
  S  S47  1  0.698350  0.053910  0.088460  1.0  -0.6707
  S  S48  1  0.946090  0.301650  0.911540  1.0  -0.6465
  S  S49  1  0.284550  0.140110  0.588460  1.0  -0.664
  S  S50  1  0.859890  0.715450  0.411540  1.0  -0.6664
  O  O51  1  0.947700  0.088500  0.314200  1.0  -0.6364
  O  O52  1  0.947200  0.211400  0.206600  1.0  -0.4377
  O  O53  1  0.911500  0.052300  0.685800  1.0  -0.6356
  O  O54  1  0.788600  0.052800  0.793400  1.0  -0.439
  O  O55  1  0.475700  0.116500  0.814200  1.0  -0.6346
  O  O56  1  0.245200  0.009400  0.706600  1.0  -0.4407
  O  O57  1  0.883500  0.524300  0.185800  1.0  -0.6342
  O  O58  1  0.990600  0.754800  0.293400  1.0  -0.4404
