# generated using pymatgen
data_Mg(CO2)3
_symmetry_space_group_name_H-M   'P 1'
_cell_length_a   8.99000000
_cell_length_b   12.14000000
_cell_length_c   8.51100000
_cell_angle_alpha   90.00000000
_cell_angle_beta   90.00000000
_cell_angle_gamma   90.00000000
_symmetry_Int_Tables_number   1
_chemical_formula_structural   Mg(CO2)3
_chemical_formula_sum   'Mg4 C12 O24'
_cell_volume   928.87862460
_cell_formula_units_Z   4
loop_
 _symmetry_equiv_pos_site_id
 _symmetry_equiv_pos_as_xyz
  1  'x, y, z'
loop_
 _atom_site_type_symbol
 _atom_site_label
 _atom_site_symmetry_multiplicity
 _atom_site_fract_x
 _atom_site_fract_y
 _atom_site_fract_z
 _atom_site_occupancy
 _atom_site_charge
  Mg  Mg1  1  0.000000  0.500000  0.000000  1.0  1.4044
  Mg  Mg2  1  0.500000  0.000000  0.500000  1.0  1.4044
  Mg  Mg3  1  0.000000  0.000000  0.000000  1.0  1.4044
  Mg  Mg4  1  0.500000  0.500000  0.500000  1.0  1.4044
  C  C5  1  0.000000  0.250000  0.054400  1.0  0.5028
  C  C6  1  0.500000  0.750000  0.554400  1.0  0.5028
  C  C7  1  0.000000  0.750000  0.945600  1.0  0.5046
  C  C8  1  0.500000  0.250000  0.445600  1.0  0.5046
  C  C9  1  0.250000  0.501500  0.250000  1.0  0.6054
  C  C10  1  0.750000  0.998500  0.250000  1.0  0.6049
  C  C11  1  0.750000  0.001500  0.750000  1.0  0.6054
  C  C12  1  0.250000  0.498500  0.750000  1.0  0.6049
  C  C13  1  0.750000  0.498500  0.750000  1.0  0.6047
  C  C14  1  0.250000  0.998500  0.250000  1.0  0.6047
  C  C15  1  0.250000  0.001500  0.750000  1.0  0.6056
  C  C16  1  0.750000  0.501500  0.250000  1.0  0.6056
  O  O17  1  0.161500  0.546700  0.163400  1.0  -0.5081
  O  O18  1  0.661500  0.046700  0.663400  1.0  -0.5081
  O  O19  1  0.838500  0.953300  0.163400  1.0  -0.5115
  O  O20  1  0.338500  0.453300  0.663400  1.0  -0.5082
  O  O21  1  0.838500  0.046700  0.836600  1.0  -0.5075
  O  O22  1  0.338500  0.546700  0.336600  1.0  -0.5075
  O  O23  1  0.161500  0.453300  0.836600  1.0  -0.5116
  O  O24  1  0.661500  0.953300  0.336600  1.0  -0.5083
  O  O25  1  0.838500  0.453300  0.836600  1.0  -0.5081
  O  O26  1  0.338500  0.953300  0.336600  1.0  -0.5081
  O  O27  1  0.161500  0.046700  0.836600  1.0  -0.5073
  O  O28  1  0.661500  0.546700  0.336600  1.0  -0.5101
  O  O29  1  0.161500  0.953300  0.163400  1.0  -0.5077
  O  O30  1  0.661500  0.453300  0.663400  1.0  -0.5077
  O  O31  1  0.838500  0.546700  0.163400  1.0  -0.5105
  O  O32  1  0.338500  0.046700  0.663400  1.0  -0.5076
  O  O33  1  0.000000  0.339900  0.081000  1.0  -0.5426
  O  O34  1  0.500000  0.839900  0.581000  1.0  -0.5426
  O  O35  1  0.000000  0.160100  0.081000  1.0  -0.5425
  O  O36  1  0.500000  0.660100  0.581000  1.0  -0.5425
  O  O37  1  0.000000  0.839900  0.919000  1.0  -0.5415
  O  O38  1  0.500000  0.339900  0.419000  1.0  -0.5415
  O  O39  1  0.000000  0.660100  0.919000  1.0  -0.5414
  O  O40  1  0.500000  0.160100  0.419000  1.0  -0.5414
