# generated using pymatgen
data_MgH3(CO2)3
_symmetry_space_group_name_H-M   'P 1'
_cell_length_a   8.39570000
_cell_length_b   8.39570000
_cell_length_c   21.73320000
_cell_angle_alpha   90.00000000
_cell_angle_beta   90.00000000
_cell_angle_gamma   120.00000000
_symmetry_Int_Tables_number   1
_chemical_formula_structural   MgH3(CO2)3
_chemical_formula_sum   'Mg6 H18 C18 O36'
_cell_volume   1326.68595585
_cell_formula_units_Z   6
loop_
 _symmetry_equiv_pos_site_id
 _symmetry_equiv_pos_as_xyz
  1  'x, y, z'
loop_
 _atom_site_type_symbol
 _atom_site_label
 _atom_site_symmetry_multiplicity
 _atom_site_fract_x
 _atom_site_fract_y
 _atom_site_fract_z
 _atom_site_occupancy
 _atom_site_charge
  Mg  Mg1  1  0.000000  0.000000  0.000000  1.0  1.3908
  Mg  Mg2  1  0.666667  0.333333  0.333333  1.0  1.3968
  Mg  Mg3  1  0.333333  0.666667  0.666667  1.0  1.3976
  Mg  Mg4  1  0.333333  0.666667  0.166670  1.0  1.5141
  Mg  Mg5  1  0.000000  0.000000  0.500000  1.0  1.5157
  Mg  Mg6  1  0.666667  0.333333  0.833330  1.0  1.5137
  H  H7  1  0.081300  0.299900  0.100600  1.0  0.0092
  H  H8  1  0.747970  0.633230  0.433930  1.0  0.0087
  H  H9  1  0.414630  0.966570  0.767270  1.0  0.0092
  H  H10  1  0.700100  0.781400  0.100600  1.0  0.0132
  H  H11  1  0.366770  0.114730  0.433930  1.0  0.0123
  H  H12  1  0.033430  0.448070  0.767270  1.0  0.0132
  H  H13  1  0.218600  0.918700  0.100600  1.0  0.0106
  H  H14  1  0.885270  0.252030  0.433930  1.0  0.0083
  H  H15  1  0.551930  0.585370  0.767270  1.0  0.0106
  H  H16  1  0.918700  0.700100  0.899400  1.0  0.0087
  H  H17  1  0.585370  0.033430  0.232730  1.0  0.0087
  H  H18  1  0.252030  0.366770  0.566070  1.0  0.0081
  H  H19  1  0.299900  0.218600  0.899400  1.0  0.0132
  H  H20  1  0.966570  0.551930  0.232730  1.0  0.0132
  H  H21  1  0.633230  0.885270  0.566070  1.0  0.0119
  H  H22  1  0.781400  0.081300  0.899400  1.0  0.0112
  H  H23  1  0.448070  0.414630  0.232730  1.0  0.0112
  H  H24  1  0.114730  0.747970  0.566070  1.0  0.0087
  C  C25  1  0.197700  0.324400  0.088500  1.0  0.7182
  C  C26  1  0.864370  0.657730  0.421830  1.0  0.7182
  C  C27  1  0.531030  0.991070  0.755170  1.0  0.7182
  C  C28  1  0.675600  0.873300  0.088500  1.0  0.7169
  C  C29  1  0.342270  0.206630  0.421830  1.0  0.7169
  C  C30  1  0.008930  0.539970  0.755170  1.0  0.7169
  C  C31  1  0.126700  0.802300  0.088500  1.0  0.7172
  C  C32  1  0.793370  0.135630  0.421830  1.0  0.7172
  C  C33  1  0.460030  0.468970  0.755170  1.0  0.7172
  C  C34  1  0.802300  0.675600  0.911500  1.0  0.717
  C  C35  1  0.468970  0.008930  0.244830  1.0  0.717
  C  C36  1  0.135630  0.342270  0.578170  1.0  0.717
  C  C37  1  0.324400  0.126700  0.911500  1.0  0.7158
  C  C38  1  0.991070  0.460030  0.244830  1.0  0.7158
  C  C39  1  0.657730  0.793370  0.578170  1.0  0.7158
  C  C40  1  0.873300  0.197700  0.911500  1.0  0.7171
  C  C41  1  0.539970  0.531030  0.244830  1.0  0.7171
  C  C42  1  0.206630  0.864370  0.578170  1.0  0.7171
  O  O43  1  0.200600  0.212000  0.052820  1.0  -0.6071
  O  O44  1  0.325000  0.462200  0.110040  1.0  -0.607
  O  O45  1  0.867270  0.545330  0.386150  1.0  -0.6071
  O  O46  1  0.991670  0.795530  0.443370  1.0  -0.6021
  O  O47  1  0.533930  0.878670  0.719490  1.0  -0.6071
  O  O48  1  0.658330  0.128870  0.776710  1.0  -0.607
  O  O49  1  0.788000  0.988600  0.052820  1.0  -0.6075
  O  O50  1  0.537800  0.862800  0.110040  1.0  -0.6046
  O  O51  1  0.454670  0.321930  0.386150  1.0  -0.6075
  O  O52  1  0.204470  0.196130  0.443370  1.0  -0.6077
  O  O53  1  0.121330  0.655270  0.719490  1.0  -0.6075
  O  O54  1  0.871130  0.529470  0.776710  1.0  -0.6046
  O  O55  1  0.011400  0.799400  0.052820  1.0  -0.606
  O  O56  1  0.137200  0.675000  0.110040  1.0  -0.6071
  O  O57  1  0.678070  0.132730  0.386150  1.0  -0.606
  O  O58  1  0.803870  0.008330  0.443370  1.0  -0.6062
  O  O59  1  0.344730  0.466070  0.719490  1.0  -0.606
  O  O60  1  0.470530  0.341670  0.776710  1.0  -0.6071
  O  O61  1  0.799400  0.788000  0.947180  1.0  -0.6069
  O  O62  1  0.675000  0.537800  0.889960  1.0  -0.607
  O  O63  1  0.466070  0.121330  0.280510  1.0  -0.6069
  O  O64  1  0.341670  0.871130  0.223290  1.0  -0.607
  O  O65  1  0.132730  0.454670  0.613850  1.0  -0.6069
  O  O66  1  0.008330  0.204470  0.556630  1.0  -0.6015
  O  O67  1  0.212000  0.011400  0.947180  1.0  -0.6064
  O  O68  1  0.462200  0.137200  0.889960  1.0  -0.6035
  O  O69  1  0.878670  0.344730  0.280510  1.0  -0.6064
  O  O70  1  0.128870  0.470530  0.223290  1.0  -0.6035
  O  O71  1  0.545330  0.678070  0.613850  1.0  -0.6064
  O  O72  1  0.795530  0.803870  0.556630  1.0  -0.6072
  O  O73  1  0.988600  0.200600  0.947180  1.0  -0.608
  O  O74  1  0.862800  0.325000  0.889960  1.0  -0.6055
  O  O75  1  0.655270  0.533930  0.280510  1.0  -0.608
  O  O76  1  0.529470  0.658330  0.223290  1.0  -0.6055
  O  O77  1  0.321930  0.867270  0.613850  1.0  -0.608
  O  O78  1  0.196130  0.991670  0.556630  1.0  -0.6055
