# generated using pymatgen
data_CdH8C14(NO2)2
_symmetry_space_group_name_H-M   'P 1'
_cell_length_a   11.10200000
_cell_length_b   15.90040000
_cell_length_c   15.90040000
_cell_angle_alpha   65.24440000
_cell_angle_beta   76.54160000
_cell_angle_gamma   103.45800000
_symmetry_Int_Tables_number   1
_chemical_formula_structural   CdH8C14(NO2)2
_chemical_formula_sum   'Cd6 H48 C84 N12 O24'
_cell_volume   2299.13058185
_cell_formula_units_Z   6
loop_
 _symmetry_equiv_pos_site_id
 _symmetry_equiv_pos_as_xyz
  1  'x, y, z'
loop_
 _atom_site_type_symbol
 _atom_site_label
 _atom_site_symmetry_multiplicity
 _atom_site_fract_x
 _atom_site_fract_y
 _atom_site_fract_z
 _atom_site_occupancy
 _atom_site_charge
  Cd  Cd1  1  0.228040  0.756970  0.631710  1.0  1.0502
  Cd  Cd2  1  0.771960  0.243030  0.368290  1.0  1.0567
  Cd  Cd3  1  0.471070  0.611320  0.756970  1.0  1.0506
  Cd  Cd4  1  0.528930  0.388680  0.243030  1.0  1.0551
  Cd  Cd5  1  0.859750  0.631710  0.611320  1.0  1.0542
  Cd  Cd6  1  0.140250  0.368290  0.388680  1.0  1.0594
  H  H7  1  0.716500  0.036200  0.228900  1.0  0.1116
  H  H8  1  0.296400  0.097600  0.520400  1.0  0.1353
  H  H9  1  0.385300  0.832800  0.270900  1.0  0.0983
  H  H10  1  0.153100  0.145000  0.606200  1.0  0.1155
  H  H11  1  0.069800  0.955700  0.306700  1.0  0.1148
  H  H12  1  0.846900  0.855000  0.393800  1.0  0.1155
  H  H13  1  0.614100  0.914400  0.198300  1.0  0.1241
  H  H14  1  0.385900  0.085600  0.801700  1.0  0.124
  H  H15  1  0.614700  0.167200  0.729100  1.0  0.0977
  H  H16  1  0.151000  0.105100  0.302500  1.0  0.1156
  H  H17  1  0.283500  0.963800  0.771100  1.0  0.1121
  H  H18  1  0.849000  0.894900  0.697500  1.0  0.1163
  H  H19  1  0.741500  0.129900  0.622500  1.0  0.1202
  H  H20  1  0.258500  0.870100  0.377500  1.0  0.1202
  H  H21  1  0.703600  0.902400  0.479600  1.0  0.1353
  H  H22  1  0.930200  0.044300  0.693300  1.0  0.1152
  H  H23  1  0.552500  0.896300  0.832800  1.0  0.1007
  H  H24  1  0.954100  0.407600  0.894900  1.0  0.1165
  H  H25  1  0.319700  0.265100  0.963800  1.0  0.1115
  H  H26  1  0.114100  0.737600  0.955700  1.0  0.1145
  H  H27  1  0.388400  0.752400  0.870100  1.0  0.1195
  H  H28  1  0.991900  0.751200  0.855000  1.0  0.1183
  H  H29  1  0.801200  0.618000  0.902400  1.0  0.1356
  H  H30  1  0.699700  0.887300  0.914400  1.0  0.1218
  H  H31  1  0.008100  0.248800  0.145000  1.0  0.1182
  H  H32  1  0.680300  0.734900  0.036200  1.0  0.1121
  H  H33  1  0.045900  0.592400  0.105100  1.0  0.1166
  H  H34  1  0.885900  0.262400  0.044300  1.0  0.1148
  H  H35  1  0.447500  0.103700  0.167200  1.0  0.1007
  H  H36  1  0.300300  0.112700  0.085600  1.0  0.1212
  H  H37  1  0.198800  0.382000  0.097600  1.0  0.1366
  H  H38  1  0.611600  0.247600  0.129900  1.0  0.1193
  H  H39  1  0.812400  0.198300  0.887300  1.0  0.1222
  H  H40  1  0.945400  0.228900  0.734900  1.0  0.1124
  H  H41  1  0.636000  0.377500  0.752400  1.0  0.12
  H  H42  1  0.183200  0.479600  0.618000  1.0  0.1364
  H  H43  1  0.343800  0.729100  0.103700  1.0  0.0996
  H  H44  1  0.759300  0.606200  0.248800  1.0  0.116
  H  H45  1  0.376500  0.306700  0.737600  1.0  0.117
  H  H46  1  0.656200  0.270900  0.896300  1.0  0.1007
  H  H47  1  0.187600  0.801700  0.112700  1.0  0.1201
  H  H48  1  0.054600  0.771100  0.265100  1.0  0.1119
  H  H49  1  0.453500  0.302500  0.592400  1.0  0.1157
  H  H50  1  0.364000  0.622500  0.247600  1.0  0.1205
  H  H51  1  0.240700  0.393800  0.751200  1.0  0.1153
  H  H52  1  0.546500  0.697500  0.407600  1.0  0.1155
  H  H53  1  0.816800  0.520400  0.382000  1.0  0.1366
  H  H54  1  0.623500  0.693300  0.262400  1.0  0.1153
  C  C55  1  0.436860  0.069470  0.759890  1.0  -0.0942
  C  C56  1  0.550140  0.029620  0.320000  1.0  -0.1771
  C  C57  1  0.563140  0.930530  0.240110  1.0  -0.0953
  C  C58  1  0.793620  0.943230  0.444170  1.0  -0.0937
  C  C59  1  0.350460  0.904030  0.347350  1.0  -0.1239
  C  C60  1  0.206380  0.056770  0.555830  1.0  -0.0944
  C  C61  1  0.649540  0.095970  0.652650  1.0  -0.1197
  C  C62  1  0.012450  0.975430  0.340380  1.0  -0.0789
  C  C63  1  0.624260  0.003750  0.258370  1.0  -0.0117
  C  C64  1  0.426540  0.881400  0.283980  1.0  -0.101
  C  C65  1  0.987550  0.024570  0.659620  1.0  -0.0808
  C  C66  1  0.939100  0.934980  0.662160  1.0  -0.0394
  C  C67  1  0.034960  0.194170  0.381880  1.0  0.717
  C  C68  1  0.842870  0.032630  0.442520  1.0  0.1438
  C  C69  1  0.411700  0.977530  0.365890  1.0  0.1671
  C  C70  1  0.060900  0.065020  0.337840  1.0  -0.0338
  C  C71  1  0.588300  0.022470  0.634110  1.0  0.1671
  C  C72  1  0.377400  0.889740  0.664010  1.0  0.6738
  C  C73  1  0.622600  0.110260  0.335990  1.0  0.677
  C  C74  1  0.120670  0.084990  0.607180  1.0  -0.0842
  C  C75  1  0.965040  0.805830  0.618120  1.0  0.7178
  C  C76  1  0.375740  0.996250  0.741630  1.0  -0.0111
  C  C77  1  0.157130  0.967370  0.557480  1.0  0.144
  C  C78  1  0.573460  0.118600  0.716020  1.0  -0.0956
  C  C79  1  0.023110  0.903940  0.612580  1.0  -0.1195
  C  C80  1  0.449860  0.970380  0.680000  1.0  -0.1773
  C  C81  1  0.879330  0.915010  0.392820  1.0  -0.0858
  C  C82  1  0.976890  0.096060  0.387420  1.0  -0.119
  C  C83  1  0.545140  0.834620  0.881400  1.0  -0.0972
  C  C84  1  0.995880  0.597140  0.065020  1.0  -0.0339
  C  C85  1  0.810240  0.524850  0.032630  1.0  0.1437
  C  C86  1  0.434170  0.656580  0.977530  1.0  0.1632
  C  C87  1  0.119170  0.483480  0.903940  1.0  -0.1188
  C  C88  1  0.004120  0.402860  0.934980  1.0  -0.0348
  C  C89  1  0.479480  0.349620  0.970380  1.0  -0.1787
  C  C90  1  0.880830  0.516520  0.096060  1.0  -0.1191
  C  C91  1  0.035680  0.307830  0.084990  1.0  -0.0874
  C  C92  1  0.159210  0.576050  0.805830  1.0  0.7196
  C  C93  1  0.454860  0.165380  0.118600  1.0  -0.0989
  C  C94  1  0.446430  0.748620  0.904030  1.0  -0.1202
  C  C95  1  0.149610  0.387400  0.056770  1.0  -0.0972
  C  C96  1  0.189760  0.475150  0.967370  1.0  0.1439
  C  C97  1  0.367390  0.170640  0.069470  1.0  -0.0928
  C  C98  1  0.512340  0.553750  0.110260  1.0  0.673
  C  C99  1  0.964320  0.692170  0.915010  1.0  -0.0858
  C  C100  1  0.632610  0.829360  0.930530  1.0  -0.0946
  C  C101  1  0.565830  0.343420  0.022470  1.0  0.1652
  C  C102  1  0.850390  0.612600  0.943230  1.0  -0.0957
  C  C103  1  0.620510  0.737880  0.003750  1.0  -0.0131
  C  C104  1  0.037020  0.684190  0.975430  1.0  -0.0792
  C  C105  1  0.520520  0.650380  0.029620  1.0  -0.1803
  C  C106  1  0.840790  0.423950  0.194170  1.0  0.7199
  C  C107  1  0.487660  0.446250  0.889740  1.0  0.6771
  C  C108  1  0.553570  0.251380  0.095970  1.0  -0.1215
  C  C109  1  0.962980  0.315810  0.024570  1.0  -0.079
  C  C110  1  0.379490  0.262120  0.996250  1.0  -0.0139
  C  C111  1  0.398740  0.337840  0.597140  1.0  -0.0304
  C  C112  1  0.710520  0.283980  0.834620  1.0  -0.0935
  C  C113  1  0.714610  0.557480  0.475150  1.0  0.1465
  C  C114  1  0.289480  0.716020  0.165380  1.0  -0.0956
  C  C115  1  0.352830  0.340380  0.684190  1.0  -0.0794
  C  C116  1  0.635690  0.612580  0.483480  1.0  -0.1177
  C  C117  1  0.222410  0.634110  0.343420  1.0  0.1671
  C  C118  1  0.777590  0.365890  0.656580  1.0  0.1655
  C  C119  1  0.762210  0.555830  0.387400  1.0  -0.0931
  C  C120  1  0.117370  0.741630  0.262120  1.0  -0.0149
  C  C121  1  0.601260  0.662160  0.402860  1.0  -0.0339
  C  C122  1  0.727850  0.607180  0.307830  1.0  -0.0941
  C  C123  1  0.958590  0.335990  0.553750  1.0  0.6714
  C  C124  1  0.129860  0.680000  0.349620  1.0  -0.1756
  C  C125  1  0.364310  0.387420  0.516520  1.0  -0.1175
  C  C126  1  0.647170  0.659620  0.315810  1.0  -0.0785
  C  C127  1  0.237790  0.444170  0.612600  1.0  -0.0939
  C  C128  1  0.583160  0.618120  0.576050  1.0  0.7181
  C  C129  1  0.285390  0.442520  0.524850  1.0  0.1468
  C  C130  1  0.697810  0.347350  0.748620  1.0  -0.1235
  C  C131  1  0.196750  0.759890  0.170640  1.0  -0.0929
  C  C132  1  0.803250  0.240110  0.829360  1.0  -0.0937
  C  C133  1  0.041410  0.664010  0.446250  1.0  0.6711
  C  C134  1  0.882630  0.258370  0.737880  1.0  -0.0142
  C  C135  1  0.416840  0.381880  0.423950  1.0  0.7191
  C  C136  1  0.272150  0.392820  0.692170  1.0  -0.0879
  C  C137  1  0.302190  0.652650  0.251380  1.0  -0.1243
  C  C138  1  0.870140  0.320000  0.650380  1.0  -0.177
  N  N139  1  0.329060  0.007630  0.422150  1.0  -0.1935
  N  N140  1  0.245280  0.937020  0.504480  1.0  -0.1607
  N  N141  1  0.670940  0.992370  0.577850  1.0  -0.1928
  N  N142  1  0.754720  0.062980  0.495520  1.0  -0.1621
  N  N143  1  0.691740  0.441500  0.062980  1.0  -0.1614
  N  N144  1  0.678570  0.429780  0.992370  1.0  -0.1915
  N  N145  1  0.308260  0.558500  0.937020  1.0  -0.1607
  N  N146  1  0.321430  0.570220  0.007630  1.0  -0.1918
  N  N147  1  0.749760  0.504480  0.558500  1.0  -0.162
  N  N148  1  0.248790  0.577850  0.429780  1.0  -0.1933
  N  N149  1  0.250240  0.495520  0.441500  1.0  -0.1629
  N  N150  1  0.751210  0.422150  0.570220  1.0  -0.1924
  O  O151  1  0.155490  0.228160  0.367390  1.0  -0.6064
  O  O152  1  0.439870  0.869360  0.602860  1.0  -0.5616
  O  O153  1  0.844510  0.771840  0.632610  1.0  -0.6057
  O  O154  1  0.036550  0.756840  0.608100  1.0  -0.6751
  O  O155  1  0.253440  0.845140  0.712890  1.0  -0.5779
  O  O156  1  0.963450  0.243160  0.391900  1.0  -0.6759
  O  O157  1  0.746560  0.154860  0.287110  1.0  -0.5776
  O  O158  1  0.560130  0.130640  0.397140  1.0  -0.559
  O  O159  1  0.591700  0.558030  0.154860  1.0  -0.5812
  O  O160  1  0.720290  0.364940  0.243160  1.0  -0.6763
  O  O161  1  0.072670  0.595550  0.771840  1.0  -0.606
  O  O162  1  0.279710  0.635060  0.756840  1.0  -0.6757
  O  O163  1  0.429490  0.472220  0.130640  1.0  -0.56
  O  O164  1  0.927330  0.404450  0.228160  1.0  -0.6066
  O  O165  1  0.570510  0.527780  0.869360  1.0  -0.5593
  O  O166  1  0.408300  0.441970  0.845140  1.0  -0.5783
  O  O167  1  0.033670  0.287110  0.558030  1.0  -0.5771
  O  O168  1  0.477120  0.632610  0.595550  1.0  -0.6077
  O  O169  1  0.957270  0.397140  0.472220  1.0  -0.5633
  O  O170  1  0.042730  0.602860  0.527780  1.0  -0.5649
  O  O171  1  0.355350  0.391900  0.364940  1.0  -0.6775
  O  O172  1  0.644650  0.608100  0.635060  1.0  -0.6769
  O  O173  1  0.522880  0.367390  0.404450  1.0  -0.6068
  O  O174  1  0.966330  0.712890  0.441970  1.0  -0.5781
