# generated using pymatgen
data_SrNiH10C14(NO5)2
_symmetry_space_group_name_H-M   'P 1'
_cell_length_a   8.76350000
_cell_length_b   11.46780000
_cell_length_c   11.46780000
_cell_angle_alpha   106.05600000
_cell_angle_beta   103.82600000
_cell_angle_gamma   76.17370000
_symmetry_Int_Tables_number   1
_chemical_formula_structural   SrNiH10C14(NO5)2
_chemical_formula_sum   'Sr2 Ni2 H20 C28 N4 O20'
_cell_volume   1056.82680955
_cell_formula_units_Z   2
loop_
 _symmetry_equiv_pos_site_id
 _symmetry_equiv_pos_as_xyz
  1  'x, y, z'
loop_
 _atom_site_type_symbol
 _atom_site_label
 _atom_site_symmetry_multiplicity
 _atom_site_fract_x
 _atom_site_fract_y
 _atom_site_fract_z
 _atom_site_occupancy
 _atom_site_charge
  Sr  Sr1  1  0.750000  0.461650  0.461650  1.0  1.5791
  Sr  Sr2  1  0.250000  0.538350  0.538350  1.0  1.5793
  Ni  Ni3  1  0.000000  0.500000  0.000000  1.0  0.5344
  Ni  Ni4  1  0.500000  0.000000  0.500000  1.0  0.5344
  H  H5  1  0.475700  0.306300  0.459900  1.0  0.4316
  H  H6  1  0.463900  0.347300  0.355100  1.0  0.4488
  H  H7  1  0.570300  0.297300  0.741700  1.0  0.1098
  H  H8  1  0.462000  0.266700  0.895900  1.0  0.1119
  H  H9  1  0.773500  0.452700  0.147900  1.0  0.0801
  H  H10  1  0.024300  0.459900  0.306300  1.0  0.4316
  H  H11  1  0.036100  0.355100  0.347300  1.0  0.4471
  H  H12  1  0.929700  0.741700  0.297300  1.0  0.1099
  H  H13  1  0.038000  0.895900  0.266700  1.0  0.1119
  H  H14  1  0.726500  0.147900  0.452700  1.0  0.0804
  H  H15  1  0.524300  0.693700  0.540100  1.0  0.4311
  H  H16  1  0.536100  0.652700  0.644900  1.0  0.4475
  H  H17  1  0.429700  0.702700  0.258300  1.0  0.1101
  H  H18  1  0.538000  0.733300  0.104100  1.0  0.1126
  H  H19  1  0.226500  0.547300  0.852100  1.0  0.0797
  H  H20  1  0.975700  0.540100  0.693700  1.0  0.4315
  H  H21  1  0.963900  0.644900  0.652700  1.0  0.4469
  H  H22  1  0.070300  0.258300  0.702700  1.0  0.1098
  H  H23  1  0.962000  0.104100  0.733300  1.0  0.1123
  H  H24  1  0.273500  0.852100  0.547300  1.0  0.0792
  C  C25  1  0.735100  0.390970  0.859190  1.0  0.0959
  C  C26  1  0.610300  0.327760  0.824640  1.0  -0.0825
  C  C27  1  0.545300  0.310280  0.916720  1.0  0.0166
  C  C28  1  0.605500  0.358240  0.039440  1.0  -0.1805
  C  C29  1  0.732000  0.420150  0.065710  1.0  0.1733
  C  C30  1  0.809700  0.420190  0.766970  1.0  0.6312
  C  C31  1  0.540100  0.346980  0.144820  1.0  0.7055
  C  C32  1  0.764900  0.859190  0.390970  1.0  0.0964
  C  C33  1  0.889700  0.824640  0.327760  1.0  -0.0851
  C  C34  1  0.954700  0.916720  0.310280  1.0  0.0194
  C  C35  1  0.894500  0.039440  0.358240  1.0  -0.1797
  C  C36  1  0.768000  0.065710  0.420150  1.0  0.1734
  C  C37  1  0.690300  0.766970  0.420190  1.0  0.6338
  C  C38  1  0.959900  0.144820  0.346980  1.0  0.7068
  C  C39  1  0.264900  0.609030  0.140810  1.0  0.0943
  C  C40  1  0.389700  0.672240  0.175360  1.0  -0.0864
  C  C41  1  0.454700  0.689720  0.083280  1.0  0.0145
  C  C42  1  0.394500  0.641760  0.960560  1.0  -0.1792
  C  C43  1  0.268000  0.579850  0.934290  1.0  0.179
  C  C44  1  0.190300  0.579810  0.233030  1.0  0.6299
  C  C45  1  0.459900  0.653020  0.855180  1.0  0.7064
  C  C46  1  0.235100  0.140810  0.609030  1.0  0.0986
  C  C47  1  0.110300  0.175360  0.672240  1.0  -0.0833
  C  C48  1  0.045300  0.083280  0.689720  1.0  0.0173
  C  C49  1  0.105500  0.960560  0.641760  1.0  -0.1786
  C  C50  1  0.232000  0.934290  0.579850  1.0  0.1744
  C  C51  1  0.309700  0.233030  0.579810  1.0  0.6311
  C  C52  1  0.040100  0.855180  0.653020  1.0  0.7077
  N  N53  1  0.796700  0.434770  0.977650  1.0  -0.253
  N  N54  1  0.703300  0.977650  0.434770  1.0  -0.2547
  N  N55  1  0.203300  0.565230  0.022350  1.0  -0.2531
  N  N56  1  0.296700  0.022350  0.565230  1.0  -0.2556
  O  O57  1  0.930700  0.472300  0.812680  1.0  -0.5181
  O  O58  1  0.751600  0.392580  0.656520  1.0  -0.6035
  O  O59  1  0.426400  0.292230  0.122170  1.0  -0.5956
  O  O60  1  0.603900  0.395410  0.249650  1.0  -0.7133
  O  O61  1  0.467200  0.369770  0.432690  1.0  -0.91
  O  O62  1  0.569300  0.812680  0.472300  1.0  -0.5191
  O  O63  1  0.748400  0.656520  0.392580  1.0  -0.6005
  O  O64  1  0.073600  0.122170  0.292230  1.0  -0.5974
  O  O65  1  0.896100  0.249650  0.395410  1.0  -0.7187
  O  O66  1  0.032800  0.432690  0.369770  1.0  -0.9131
  O  O67  1  0.069300  0.527700  0.187320  1.0  -0.5202
  O  O68  1  0.248400  0.607420  0.343480  1.0  -0.6018
  O  O69  1  0.573600  0.707770  0.877830  1.0  -0.5975
  O  O70  1  0.396100  0.604590  0.750350  1.0  -0.7151
  O  O71  1  0.532800  0.630230  0.567310  1.0  -0.9137
  O  O72  1  0.430700  0.187320  0.527700  1.0  -0.5181
  O  O73  1  0.251600  0.343480  0.607420  1.0  -0.6007
  O  O74  1  0.926400  0.877830  0.707770  1.0  -0.5963
  O  O75  1  0.103900  0.750350  0.604590  1.0  -0.7178
  O  O76  1  0.967200  0.567310  0.630230  1.0  -0.9146
