# generated using pymatgen
data_Gd4H14C36S6O25
_symmetry_space_group_name_H-M   'P 1'
_cell_length_a   10.92530000
_cell_length_b   17.73500000
_cell_length_c   16.85300000
_cell_angle_alpha   89.67300000
_cell_angle_beta   90.00000000
_cell_angle_gamma   90.00000000
_symmetry_Int_Tables_number   1
_chemical_formula_structural   Gd4H14C36S6O25
_chemical_formula_sum   'Gd8 H28 C72 S12 O50'
_cell_volume   3265.38739323
_cell_formula_units_Z   2
loop_
 _symmetry_equiv_pos_site_id
 _symmetry_equiv_pos_as_xyz
  1  'x, y, z'
loop_
 _atom_site_type_symbol
 _atom_site_label
 _atom_site_symmetry_multiplicity
 _atom_site_fract_x
 _atom_site_fract_y
 _atom_site_fract_z
 _atom_site_occupancy
 _atom_site_charge
  Gd  Gd1  1  0.961720  0.332640  0.474500  1.0  2.2398
  Gd  Gd2  1  0.589720  0.830940  0.407530  1.0  2.1771
  Gd  Gd3  1  0.141570  0.325130  0.260190  1.0  2.2277
  Gd  Gd4  1  0.858430  0.325130  0.760190  1.0  2.2264
  Gd  Gd5  1  0.604450  0.829310  0.124940  1.0  2.2121
  Gd  Gd6  1  0.395550  0.829310  0.624940  1.0  2.2112
  Gd  Gd7  1  0.410280  0.830940  0.907530  1.0  2.1776
  Gd  Gd8  1  0.038280  0.332640  0.974500  1.0  2.2322
  H  H9  1  0.165600  0.138300  0.556300  1.0  0.1107
  H  H10  1  0.615900  0.637200  0.816000  1.0  0.1157
  H  H11  1  0.093800  0.512900  0.654000  1.0  0.1082
  H  H12  1  0.610200  0.025100  0.713900  1.0  0.1137
  H  H13  1  0.384100  0.637200  0.316000  1.0  0.1162
  H  H14  1  0.264100  0.013400  0.575000  1.0  0.0968
  H  H15  1  0.879300  0.547700  0.492200  1.0  0.1097
  H  H16  1  0.120700  0.547700  0.992200  1.0  0.1097
  H  H17  1  0.188100  0.638200  0.642200  1.0  0.1187
  H  H18  1  0.569700  0.873900  0.765300  1.0  0.2606
  H  H19  1  0.430300  0.786300  0.266300  1.0  0.2784
  H  H20  1  0.654400  0.050300  0.392100  1.0  0.1116
  H  H21  1  0.225600  0.168900  0.910300  1.0  0.0985
  H  H22  1  0.345600  0.050300  0.892100  1.0  0.1118
  H  H23  1  0.569700  0.786300  0.766300  1.0  0.2785
  H  H24  1  0.811900  0.638200  0.142200  1.0  0.1186
  H  H25  1  0.692800  0.152000  0.722700  1.0  0.112
  H  H26  1  0.282800  0.513200  0.298000  1.0  0.1051
  H  H27  1  0.906200  0.512900  0.154000  1.0  0.1089
  H  H28  1  0.430300  0.873900  0.265300  1.0  0.2615
  H  H29  1  0.225100  0.667600  0.973700  1.0  0.1165
  H  H30  1  0.389800  0.025100  0.213900  1.0  0.1135
  H  H31  1  0.717200  0.513200  0.798000  1.0  0.1053
  H  H32  1  0.774900  0.667600  0.473700  1.0  0.1165
  H  H33  1  0.735900  0.013400  0.075000  1.0  0.0961
  H  H34  1  0.774400  0.168900  0.410300  1.0  0.0988
  H  H35  1  0.307200  0.152000  0.222700  1.0  0.112
  H  H36  1  0.834400  0.138300  0.056300  1.0  0.1108
  C  C37  1  0.317600  0.011600  0.106000  1.0  -0.194
  C  C38  1  0.739700  0.034100  0.285500  1.0  -0.1839
  C  C39  1  0.260300  0.034100  0.785500  1.0  -0.1848
  C  C40  1  0.830500  0.212500  0.597500  1.0  0.7343
  C  C41  1  0.697900  0.708900  0.270200  1.0  0.7684
  C  C42  1  0.602900  0.946900  0.954200  1.0  0.7762
  C  C43  1  0.188800  0.610100  0.689000  1.0  -0.0576
  C  C44  1  0.810900  0.214100  0.913000  1.0  0.7417
  C  C45  1  0.211000  0.113500  0.517800  1.0  -0.0813
  C  C46  1  0.307200  0.956400  0.763600  1.0  0.7361
  C  C47  1  0.855500  0.509800  0.269600  1.0  -0.2081
  C  C48  1  0.670500  0.018300  0.964200  1.0  -0.1549
  C  C49  1  0.637000  0.938100  0.578200  1.0  0.7409
  C  C50  1  0.144500  0.509800  0.769600  1.0  -0.2071
  C  C51  1  0.664400  0.614100  0.854400  1.0  -0.0592
  C  C52  1  0.343400  0.047100  0.173800  1.0  -0.0242
  C  C53  1  0.779300  0.138800  0.365400  1.0  -0.063
  C  C54  1  0.771600  0.138600  0.614400  1.0  -0.2105
  C  C55  1  0.223200  0.528700  0.090200  1.0  -0.1867
  C  C56  1  0.133000  0.537700  0.695400  1.0  -0.0694
  C  C57  1  0.295100  0.120200  0.179700  1.0  -0.0733
  C  C58  1  0.776800  0.528700  0.590200  1.0  -0.1873
  C  C59  1  0.363000  0.938100  0.078200  1.0  0.7415
  C  C60  1  0.767800  0.140200  0.943600  1.0  -0.2049
  C  C61  1  0.682400  0.011600  0.606000  1.0  -0.192
  C  C62  1  0.302100  0.708900  0.770200  1.0  0.7675
  C  C63  1  0.268700  0.041300  0.528300  1.0  -0.0434
  C  C64  1  0.150800  0.154400  0.803600  1.0  -0.1824
  C  C65  1  0.819900  0.451500  0.617100  1.0  0.8043
  C  C66  1  0.648600  0.721100  0.957800  1.0  0.7739
  C  C67  1  0.848100  0.450400  0.924700  1.0  0.7516
  C  C68  1  0.064700  0.220100  0.793000  1.0  0.7362
  C  C69  1  0.325300  0.649500  0.072500  1.0  -0.1978
  C  C70  1  0.232200  0.140200  0.443600  1.0  -0.2054
  C  C71  1  0.721400  0.541700  0.844000  1.0  -0.0872
  C  C72  1  0.397100  0.946900  0.454200  1.0  0.7757
  C  C73  1  0.781500  0.521100  0.910100  1.0  -0.1917
  C  C74  1  0.169500  0.212500  0.097500  1.0  0.7351
  C  C75  1  0.220700  0.138800  0.865400  1.0  -0.0643
  C  C76  1  0.710700  0.068900  0.355500  1.0  -0.0857
  C  C77  1  0.241400  0.634800  0.015600  1.0  -0.0603
  C  C78  1  0.151900  0.450400  0.424700  1.0  0.7526
  C  C79  1  0.351400  0.721100  0.457800  1.0  0.7739
  C  C80  1  0.704900  0.120200  0.679700  1.0  -0.0732
  C  C81  1  0.867000  0.537700  0.195400  1.0  -0.0696
  C  C82  1  0.692800  0.956400  0.263600  1.0  0.7377
  C  C83  1  0.656600  0.047100  0.673800  1.0  -0.025
  C  C84  1  0.181500  0.565700  0.025700  1.0  -0.0731
  C  C85  1  0.278600  0.541700  0.344000  1.0  -0.0881
  C  C86  1  0.789000  0.113500  0.017800  1.0  -0.081
  C  C87  1  0.189100  0.214100  0.413000  1.0  0.7432
  C  C88  1  0.818500  0.565700  0.525700  1.0  -0.0736
  C  C89  1  0.674700  0.649500  0.572500  1.0  -0.1985
  C  C90  1  0.289300  0.068900  0.855500  1.0  -0.086
  C  C91  1  0.228400  0.138600  0.114400  1.0  -0.2117
  C  C92  1  0.758000  0.634400  0.255200  1.0  -0.1834
  C  C93  1  0.329500  0.018300  0.464200  1.0  -0.1564
  C  C94  1  0.935300  0.220100  0.293000  1.0  0.7375
  C  C95  1  0.218500  0.521100  0.410100  1.0  -0.1908
  C  C96  1  0.093800  0.438400  0.801400  1.0  0.7444
  C  C97  1  0.689000  0.645600  0.926600  1.0  -0.2124
  C  C98  1  0.811200  0.610100  0.189000  1.0  -0.0583
  C  C99  1  0.758600  0.634800  0.515600  1.0  -0.0615
  C  C100  1  0.731300  0.041300  0.028300  1.0  -0.0425
  C  C101  1  0.242000  0.634400  0.755200  1.0  -0.1841
  C  C102  1  0.407300  0.716600  0.080900  1.0  0.7564
  C  C103  1  0.335600  0.614100  0.354400  1.0  -0.059
  C  C104  1  0.592700  0.716600  0.580900  1.0  0.756
  C  C105  1  0.180100  0.451500  0.117100  1.0  0.8066
  C  C106  1  0.906200  0.438400  0.301400  1.0  0.7435
  C  C107  1  0.311000  0.645600  0.426600  1.0  -0.2127
  C  C108  1  0.849200  0.154400  0.303600  1.0  -0.1824
  S  S109  1  0.839900  0.085430  0.230530  1.0  0.1647
  S  S110  1  0.776000  0.587750  0.984310  1.0  0.1774
  S  S111  1  0.773400  0.067350  0.547770  1.0  0.1477
  S  S112  1  0.678200  0.081800  0.889380  1.0  0.1674
  S  S113  1  0.226600  0.067350  0.047770  1.0  0.1489
  S  S114  1  0.670200  0.578550  0.642200  1.0  0.1576
  S  S115  1  0.224000  0.587750  0.484310  1.0  0.1776
  S  S116  1  0.774300  0.569580  0.330590  1.0  0.1574
  S  S117  1  0.329800  0.578550  0.142200  1.0  0.1569
  S  S118  1  0.160100  0.085430  0.730530  1.0  0.1654
  S  S119  1  0.225700  0.569580  0.830590  1.0  0.1576
  S  S120  1  0.321800  0.081800  0.389380  1.0  0.167
  O  O121  1  0.791100  0.227500  0.842100  1.0  -0.6639
  O  O122  1  0.327500  0.736600  0.527100  1.0  -0.7265
  O  O123  1  0.949700  0.263700  0.352600  1.0  -0.8186
  O  O124  1  0.208900  0.227500  0.342100  1.0  -0.6636
  O  O125  1  0.450800  0.935600  0.389600  1.0  -0.6475
  O  O126  1  0.038100  0.396400  0.750200  1.0  -0.6635
  O  O127  1  0.534000  0.724700  0.644400  1.0  -0.6531
  O  O128  1  0.667400  0.942700  0.195000  1.0  -0.6756
  O  O129  1  0.689100  0.911100  0.320900  1.0  -0.7241
  O  O130  1  0.351400  0.719700  0.834900  1.0  -0.6569
  O  O131  1  0.594700  0.761700  0.907000  1.0  -0.7105
  O  O132  1  0.133200  0.255600  0.462100  1.0  -0.7463
  O  O133  1  0.154200  0.399800  0.370500  1.0  -0.8436
  O  O134  1  0.672500  0.736600  0.027100  1.0  -0.7264
  O  O135  1  0.417500  0.897700  0.127300  1.0  -0.6484
  O  O136  1  0.104900  0.219300  0.039200  1.0  -0.5948
  O  O137  1  0.400100  0.900700  0.509800  1.0  -0.8372
  O  O138  1  0.342000  0.921100  0.005900  1.0  -0.7164
  O  O139  1  0.292900  0.755500  0.714100  1.0  -0.7387
  O  O140  1  0.405300  0.761700  0.407000  1.0  -0.7091
  O  O141  1  0.332600  0.942700  0.695000  1.0  -0.6781
  O  O142  1  0.961900  0.396400  0.250200  1.0  -0.6638
  O  O143  1  0.123000  0.414300  0.067600  1.0  -0.7553
  O  O144  1  0.466000  0.724700  0.144400  1.0  -0.6539
  O  O145  1  0.549200  0.935600  0.889600  1.0  -0.6469
  O  O146  1  0.797500  0.432400  0.685900  1.0  -0.6571
  O  O147  1  0.895100  0.219300  0.539200  1.0  -0.5952
  O  O148  1  0.599900  0.900700  0.009800  1.0  -0.8362
  O  O149  1  0.800800  0.265700  0.645000  1.0  -0.7203
  O  O150  1  0.582500  0.897700  0.627300  1.0  -0.6481
  O  O151  1  0.866800  0.255600  0.962100  1.0  -0.7476
  O  O152  1  0.906400  0.441800  0.987300  1.0  -0.6145
  O  O153  1  0.707100  0.755500  0.214100  1.0  -0.7376
  O  O154  1  0.310900  0.911100  0.820900  1.0  -0.722
  O  O155  1  0.093600  0.441800  0.487300  1.0  -0.6148
  O  O156  1  0.985700  0.228600  0.229600  1.0  -0.5781
  O  O157  1  0.877000  0.414300  0.567600  1.0  -0.7564
  O  O158  1  0.411000  0.761900  0.025700  1.0  -0.7442
  O  O159  1  0.483600  0.830100  0.266700  1.0  -0.7854
  O  O160  1  0.648600  0.719700  0.334900  1.0  -0.657
  O  O161  1  0.893500  0.424700  0.373000  1.0  -0.7354
  O  O162  1  0.658000  0.921100  0.505900  1.0  -0.7135
  O  O163  1  0.014300  0.228600  0.729600  1.0  -0.5789
  O  O164  1  0.845800  0.399800  0.870500  1.0  -0.8457
  O  O165  1  0.199200  0.265700  0.145000  1.0  -0.7205
  O  O166  1  0.050300  0.263700  0.852600  1.0  -0.8183
  O  O167  1  0.106500  0.424700  0.873000  1.0  -0.736
  O  O168  1  0.202500  0.432400  0.185900  1.0  -0.6569
  O  O169  1  0.516400  0.830100  0.766700  1.0  -0.7882
  O  O170  1  0.589000  0.761900  0.525700  1.0  -0.7446
