# generated using pymatgen
data_Sm4H14C36S6O25
_symmetry_space_group_name_H-M   'P 1'
_cell_length_a   10.91110000
_cell_length_b   17.82040000
_cell_length_c   16.88130000
_cell_angle_alpha   89.76200000
_cell_angle_beta   90.00000000
_cell_angle_gamma   90.00000000
_symmetry_Int_Tables_number   1
_chemical_formula_structural   Sm4H14C36S6O25
_chemical_formula_sum   'Sm8 H28 C72 S12 O50'
_cell_volume   3282.37446325
_cell_formula_units_Z   2
loop_
 _symmetry_equiv_pos_site_id
 _symmetry_equiv_pos_as_xyz
  1  'x, y, z'
loop_
 _atom_site_type_symbol
 _atom_site_label
 _atom_site_symmetry_multiplicity
 _atom_site_fract_x
 _atom_site_fract_y
 _atom_site_fract_z
 _atom_site_occupancy
 _atom_site_charge
  Sm  Sm1  1  0.411170  0.831050  0.908370  1.0  2.2829
  Sm  Sm2  1  0.588830  0.831050  0.408370  1.0  2.283
  Sm  Sm3  1  0.393570  0.829120  0.624270  1.0  2.2965
  Sm  Sm4  1  0.041650  0.332760  0.973660  1.0  2.3189
  Sm  Sm5  1  0.606430  0.829120  0.124270  1.0  2.2972
  Sm  Sm6  1  0.958350  0.332760  0.473660  1.0  2.325
  Sm  Sm7  1  0.140390  0.325190  0.260740  1.0  2.3163
  Sm  Sm8  1  0.859610  0.325190  0.760740  1.0  2.3192
  H  H9  1  0.606300  0.024900  0.714500  1.0  0.1134
  H  H10  1  0.569900  0.787300  0.767300  1.0  0.2788
  H  H11  1  0.835400  0.136800  0.054600  1.0  0.1079
  H  H12  1  0.568900  0.874400  0.766300  1.0  0.2586
  H  H13  1  0.265700  0.014600  0.574300  1.0  0.0969
  H  H14  1  0.283900  0.511100  0.301200  1.0  0.112
  H  H15  1  0.773100  0.667900  0.477100  1.0  0.1085
  H  H16  1  0.430100  0.787300  0.267300  1.0  0.2779
  H  H17  1  0.226900  0.667900  0.977100  1.0  0.1082
  H  H18  1  0.164600  0.136800  0.554600  1.0  0.1082
  H  H19  1  0.092800  0.515300  0.654700  1.0  0.1104
  H  H20  1  0.308900  0.151200  0.226100  1.0  0.111
  H  H21  1  0.218000  0.164800  0.912400  1.0  0.0984
  H  H22  1  0.431100  0.874400  0.266300  1.0  0.2593
  H  H23  1  0.691100  0.151200  0.726100  1.0  0.111
  H  H24  1  0.867200  0.543800  0.488600  1.0  0.1036
  H  H25  1  0.782000  0.164800  0.412400  1.0  0.0989
  H  H26  1  0.132800  0.543800  0.988600  1.0  0.1032
  H  H27  1  0.907200  0.515300  0.154700  1.0  0.1107
  H  H28  1  0.619500  0.635900  0.816200  1.0  0.1096
  H  H29  1  0.346100  0.049500  0.890700  1.0  0.102
  H  H30  1  0.807700  0.636400  0.140800  1.0  0.1141
  H  H31  1  0.393700  0.024900  0.214500  1.0  0.1136
  H  H32  1  0.192300  0.636400  0.640800  1.0  0.114
  H  H33  1  0.734300  0.014600  0.074300  1.0  0.0963
  H  H34  1  0.653900  0.049500  0.390700  1.0  0.1018
  H  H35  1  0.380500  0.635900  0.316200  1.0  0.1102
  H  H36  1  0.716100  0.511100  0.801200  1.0  0.1121
  C  C37  1  0.269400  0.041300  0.526900  1.0  -0.0266
  C  C38  1  0.588500  0.715900  0.582700  1.0  0.7525
  C  C39  1  0.671700  0.017000  0.965300  1.0  -0.1328
  C  C40  1  0.255000  0.033600  0.786500  1.0  -0.126
  C  C41  1  0.242300  0.634500  0.755100  1.0  -0.2112
  C  C42  1  0.745000  0.033600  0.286500  1.0  -0.1254
  C  C43  1  0.767900  0.139100  0.942700  1.0  -0.1973
  C  C44  1  0.855300  0.450700  0.926700  1.0  0.7745
  C  C45  1  0.277400  0.540600  0.346300  1.0  -0.0751
  C  C46  1  0.411500  0.715900  0.082700  1.0  0.7502
  C  C47  1  0.348300  0.719000  0.457400  1.0  0.7587
  C  C48  1  0.397000  0.946500  0.452800  1.0  0.7675
  C  C49  1  0.722600  0.540600  0.846300  1.0  -0.0755
  C  C50  1  0.188400  0.563500  0.024700  1.0  -0.0946
  C  C51  1  0.300500  0.708800  0.769500  1.0  0.7678
  C  C52  1  0.696000  0.955700  0.264800  1.0  0.7177
  C  C53  1  0.190500  0.609500  0.688100  1.0  -0.0554
  C  C54  1  0.328300  0.017000  0.465300  1.0  -0.1291
  C  C55  1  0.699500  0.708800  0.269500  1.0  0.7688
  C  C56  1  0.185100  0.451400  0.116700  1.0  0.7881
  C  C57  1  0.309800  0.643600  0.427600  1.0  -0.2059
  C  C58  1  0.855100  0.510900  0.269500  1.0  -0.2186
  C  C59  1  0.233700  0.139900  0.114800  1.0  -0.2204
  C  C60  1  0.783800  0.135900  0.366700  1.0  -0.0805
  C  C61  1  0.210800  0.112500  0.516200  1.0  -0.0957
  C  C62  1  0.786300  0.520600  0.912100  1.0  -0.2042
  C  C63  1  0.789200  0.112500  0.016200  1.0  -0.0948
  C  C64  1  0.304000  0.955700  0.764800  1.0  0.7167
  C  C65  1  0.185900  0.211600  0.413700  1.0  0.7267
  C  C66  1  0.213700  0.520600  0.412100  1.0  -0.2067
  C  C67  1  0.603000  0.946500  0.952800  1.0  0.7679
  C  C68  1  0.902300  0.438700  0.300000  1.0  0.7534
  C  C69  1  0.064500  0.218300  0.792000  1.0  0.7464
  C  C70  1  0.097700  0.438700  0.800000  1.0  0.7544
  C  C71  1  0.682000  0.011900  0.607800  1.0  -0.217
  C  C72  1  0.298000  0.120400  0.182300  1.0  -0.0929
  C  C73  1  0.328900  0.648900  0.074000  1.0  -0.1824
  C  C74  1  0.287200  0.067500  0.855600  1.0  -0.1103
  C  C75  1  0.774400  0.529100  0.590500  1.0  -0.1413
  C  C76  1  0.809500  0.609500  0.188100  1.0  -0.0559
  C  C77  1  0.814100  0.211600  0.913700  1.0  0.7268
  C  C78  1  0.730600  0.041300  0.026900  1.0  -0.0278
  C  C79  1  0.702000  0.120400  0.682300  1.0  -0.0948
  C  C80  1  0.133600  0.539400  0.695700  1.0  -0.0593
  C  C81  1  0.757700  0.634500  0.255100  1.0  -0.211
  C  C82  1  0.245500  0.634200  0.017600  1.0  -0.0692
  C  C83  1  0.866400  0.539400  0.195700  1.0  -0.0592
  C  C84  1  0.825900  0.213800  0.597600  1.0  0.6973
  C  C85  1  0.144700  0.450700  0.426700  1.0  0.7899
  C  C86  1  0.651700  0.719000  0.957400  1.0  0.7588
  C  C87  1  0.712800  0.067500  0.355600  1.0  -0.1094
  C  C88  1  0.671100  0.648900  0.574000  1.0  -0.1832
  C  C89  1  0.814900  0.451400  0.616700  1.0  0.7869
  C  C90  1  0.346000  0.047100  0.175100  1.0  -0.0563
  C  C91  1  0.852200  0.152200  0.302900  1.0  -0.1437
  C  C92  1  0.147800  0.152200  0.802900  1.0  -0.1442
  C  C93  1  0.811600  0.563500  0.524700  1.0  -0.0945
  C  C94  1  0.174100  0.213800  0.097600  1.0  0.6985
  C  C95  1  0.225600  0.529100  0.090500  1.0  -0.1409
  C  C96  1  0.144900  0.510900  0.769500  1.0  -0.2179
  C  C97  1  0.666500  0.612800  0.855200  1.0  -0.0725
  C  C98  1  0.636300  0.938200  0.579200  1.0  0.7671
  C  C99  1  0.690200  0.643600  0.927600  1.0  -0.2053
  C  C100  1  0.232100  0.139100  0.442700  1.0  -0.1971
  C  C101  1  0.363700  0.938200  0.079200  1.0  0.7675
  C  C102  1  0.654000  0.047100  0.675100  1.0  -0.0576
  C  C103  1  0.318000  0.011900  0.107800  1.0  -0.2172
  C  C104  1  0.216200  0.135900  0.866700  1.0  -0.0799
  C  C105  1  0.333500  0.612800  0.355200  1.0  -0.0726
  C  C106  1  0.935500  0.218300  0.292000  1.0  0.7456
  C  C107  1  0.754500  0.634200  0.517600  1.0  -0.07
  C  C108  1  0.766300  0.139900  0.614800  1.0  -0.2206
  S  S109  1  0.229400  0.068410  0.049300  1.0  0.1454
  S  S110  1  0.839500  0.085320  0.230000  1.0  0.1668
  S  S111  1  0.780000  0.587980  0.984600  1.0  0.1506
  S  S112  1  0.227100  0.569790  0.829400  1.0  0.1584
  S  S113  1  0.667400  0.578160  0.643100  1.0  0.1516
  S  S114  1  0.332600  0.578160  0.143100  1.0  0.1493
  S  S115  1  0.679700  0.081230  0.889200  1.0  0.1666
  S  S116  1  0.160500  0.085320  0.730000  1.0  0.1673
  S  S117  1  0.320300  0.081230  0.389200  1.0  0.1655
  S  S118  1  0.770600  0.068410  0.549300  1.0  0.1444
  S  S119  1  0.772900  0.569790  0.329400  1.0  0.1587
  S  S120  1  0.220000  0.587980  0.484600  1.0  0.1528
  O  O121  1  0.986600  0.228400  0.227100  1.0  -0.6273
  O  O122  1  0.950000  0.263500  0.349700  1.0  -0.8686
  O  O123  1  0.598600  0.899500  0.007100  1.0  -0.8609
  O  O124  1  0.130900  0.412800  0.067900  1.0  -0.7402
  O  O125  1  0.869100  0.412800  0.567900  1.0  -0.7414
  O  O126  1  0.548600  0.936800  0.886800  1.0  -0.637
  O  O127  1  0.671600  0.942600  0.194900  1.0  -0.692
  O  O128  1  0.467200  0.723200  0.147000  1.0  -0.6612
  O  O129  1  0.204100  0.432700  0.186400  1.0  -0.6419
  O  O130  1  0.289700  0.756300  0.715500  1.0  -0.7525
  O  O131  1  0.350000  0.720300  0.835600  1.0  -0.6935
  O  O132  1  0.130300  0.252500  0.462700  1.0  -0.7347
  O  O133  1  0.532800  0.723200  0.647000  1.0  -0.6618
  O  O134  1  0.147600  0.400400  0.373500  1.0  -0.8421
  O  O135  1  0.579800  0.899700  0.627700  1.0  -0.662
  O  O136  1  0.852400  0.400400  0.873500  1.0  -0.8428
  O  O137  1  0.869700  0.252500  0.962700  1.0  -0.7363
  O  O138  1  0.110600  0.425300  0.871200  1.0  -0.7266
  O  O139  1  0.791100  0.227300  0.844300  1.0  -0.662
  O  O140  1  0.420200  0.899700  0.127700  1.0  -0.662
  O  O141  1  0.328400  0.942600  0.694900  1.0  -0.6968
  O  O142  1  0.795800  0.264800  0.646000  1.0  -0.7202
  O  O143  1  0.650000  0.720300  0.335600  1.0  -0.693
  O  O144  1  0.959100  0.397500  0.249600  1.0  -0.6866
  O  O145  1  0.013400  0.228400  0.727100  1.0  -0.6263
  O  O146  1  0.404500  0.760200  0.406800  1.0  -0.6869
  O  O147  1  0.109500  0.219000  0.040800  1.0  -0.612
  O  O148  1  0.204200  0.264800  0.146000  1.0  -0.7204
  O  O149  1  0.208900  0.227300  0.344300  1.0  -0.6626
  O  O150  1  0.483900  0.830600  0.267800  1.0  -0.7834
  O  O151  1  0.415000  0.761000  0.029000  1.0  -0.7413
  O  O152  1  0.674300  0.736800  0.026000  1.0  -0.7453
  O  O153  1  0.710300  0.756300  0.215500  1.0  -0.7496
  O  O154  1  0.795900  0.432700  0.686400  1.0  -0.641
  O  O155  1  0.889400  0.425300  0.371200  1.0  -0.7249
  O  O156  1  0.451400  0.936800  0.386800  1.0  -0.6369
  O  O157  1  0.595500  0.760200  0.906800  1.0  -0.6867
  O  O158  1  0.585000  0.761000  0.529000  1.0  -0.741
  O  O159  1  0.691500  0.910200  0.321200  1.0  -0.776
  O  O160  1  0.909600  0.443700  0.989600  1.0  -0.6001
  O  O161  1  0.325700  0.736800  0.526000  1.0  -0.7451
  O  O162  1  0.308500  0.910200  0.821200  1.0  -0.7779
  O  O163  1  0.516100  0.830600  0.767800  1.0  -0.7843
  O  O164  1  0.401400  0.899500  0.507100  1.0  -0.8618
  O  O165  1  0.040900  0.397500  0.749600  1.0  -0.6863
  O  O166  1  0.340900  0.921500  0.009000  1.0  -0.7639
  O  O167  1  0.090400  0.443700  0.489600  1.0  -0.5982
  O  O168  1  0.890500  0.219000  0.540800  1.0  -0.6109
  O  O169  1  0.050000  0.263500  0.849700  1.0  -0.8682
  O  O170  1  0.659100  0.921500  0.509000  1.0  -0.7624
