# generated using pymatgen
data_Eu4H14C36S6O25
_symmetry_space_group_name_H-M   'P 1'
_cell_length_a   10.92680000
_cell_length_b   17.77500000
_cell_length_c   16.87400000
_cell_angle_alpha   90.21100000
_cell_angle_beta   90.00000000
_cell_angle_gamma   90.00000000
_symmetry_Int_Tables_number   1
_chemical_formula_structural   Eu4H14C36S6O25
_chemical_formula_sum   'Eu8 H28 C72 S12 O50'
_cell_volume   3277.31135902
_cell_formula_units_Z   2
loop_
 _symmetry_equiv_pos_site_id
 _symmetry_equiv_pos_as_xyz
  1  'x, y, z'
loop_
 _atom_site_type_symbol
 _atom_site_label
 _atom_site_symmetry_multiplicity
 _atom_site_fract_x
 _atom_site_fract_y
 _atom_site_fract_z
 _atom_site_occupancy
 _atom_site_charge
  Eu  Eu1  1  0.590650  0.830860  0.407760  1.0  2.1327
  Eu  Eu2  1  0.038980  0.332370  0.973800  1.0  2.1954
  Eu  Eu3  1  0.396000  0.829260  0.624670  1.0  2.1593
  Eu  Eu4  1  0.604000  0.829260  0.124670  1.0  2.1601
  Eu  Eu5  1  0.141220  0.325600  0.260850  1.0  2.1781
  Eu  Eu6  1  0.409350  0.830860  0.907760  1.0  2.1332
  Eu  Eu7  1  0.961020  0.332370  0.473800  1.0  2.1957
  Eu  Eu8  1  0.858780  0.325600  0.760850  1.0  2.1791
  H  H9  1  0.745300  0.008100  0.070600  1.0  0.1056
  H  H10  1  0.616800  0.636700  0.817800  1.0  0.1107
  H  H11  1  0.834000  0.135100  0.058100  1.0  0.113
  H  H12  1  0.432200  0.786800  0.269100  1.0  0.2592
  H  H13  1  0.567800  0.786800  0.769100  1.0  0.2594
  H  H14  1  0.715000  0.510400  0.801200  1.0  0.1022
  H  H15  1  0.873400  0.544200  0.490500  1.0  0.1081
  H  H16  1  0.774900  0.667400  0.475900  1.0  0.1192
  H  H17  1  0.383200  0.636700  0.317800  1.0  0.1112
  H  H18  1  0.395000  0.024400  0.213700  1.0  0.1136
  H  H19  1  0.218000  0.165500  0.912900  1.0  0.1136
  H  H20  1  0.432700  0.874100  0.268900  1.0  0.29
  H  H21  1  0.225100  0.667400  0.975900  1.0  0.119
  H  H22  1  0.285000  0.510400  0.301200  1.0  0.102
  H  H23  1  0.126600  0.544200  0.990500  1.0  0.1075
  H  H24  1  0.343400  0.049300  0.894100  1.0  0.1066
  H  H25  1  0.696700  0.149400  0.728000  1.0  0.1149
  H  H26  1  0.303300  0.149400  0.228000  1.0  0.1145
  H  H27  1  0.912300  0.513900  0.155700  1.0  0.1091
  H  H28  1  0.087700  0.513900  0.655700  1.0  0.1086
  H  H29  1  0.166000  0.135100  0.558100  1.0  0.113
  H  H30  1  0.782000  0.165500  0.412900  1.0  0.1141
  H  H31  1  0.806300  0.637400  0.140700  1.0  0.1098
  H  H32  1  0.254700  0.008100  0.570600  1.0  0.1061
  H  H33  1  0.193700  0.637400  0.640700  1.0  0.1099
  H  H34  1  0.567300  0.874100  0.768900  1.0  0.2863
  H  H35  1  0.605000  0.024400  0.713700  1.0  0.1129
  H  H36  1  0.656600  0.049300  0.394100  1.0  0.1064
  C  C37  1  0.065800  0.220200  0.792200  1.0  0.7831
  C  C38  1  0.783200  0.136200  0.367100  1.0  -0.0679
  C  C39  1  0.182400  0.451700  0.116900  1.0  0.783
  C  C40  1  0.305000  0.707400  0.770200  1.0  0.718
  C  C41  1  0.146400  0.510800  0.769900  1.0  -0.2069
  C  C42  1  0.705000  0.119000  0.683400  1.0  -0.0573
  C  C43  1  0.216800  0.136200  0.867100  1.0  -0.0688
  C  C44  1  0.651600  0.720600  0.956600  1.0  0.7687
  C  C45  1  0.278500  0.540200  0.346500  1.0  -0.0794
  C  C46  1  0.302700  0.955200  0.762700  1.0  0.7408
  C  C47  1  0.210000  0.110600  0.518500  1.0  -0.0879
  C  C48  1  0.346000  0.046500  0.175000  1.0  -0.0325
  C  C49  1  0.295000  0.119000  0.183400  1.0  -0.0561
  C  C50  1  0.783300  0.521400  0.910800  1.0  -0.1302
  C  C51  1  0.790000  0.110600  0.018500  1.0  -0.0883
  C  C52  1  0.817600  0.451700  0.616900  1.0  0.7812
  C  C53  1  0.815100  0.563400  0.525300  1.0  -0.0773
  C  C54  1  0.672000  0.648800  0.573400  1.0  -0.1952
  C  C55  1  0.813300  0.212200  0.913300  1.0  0.7702
  C  C56  1  0.681000  0.012600  0.607200  1.0  -0.1461
  C  C57  1  0.184900  0.563400  0.025300  1.0  -0.0771
  C  C58  1  0.243200  0.634100  0.016700  1.0  -0.0595
  C  C59  1  0.851000  0.153200  0.302000  1.0  -0.1909
  C  C60  1  0.365500  0.938400  0.079200  1.0  0.7234
  C  C61  1  0.590100  0.715700  0.582700  1.0  0.7627
  C  C62  1  0.131100  0.538100  0.695800  1.0  -0.0865
  C  C63  1  0.934200  0.220200  0.292200  1.0  0.7824
  C  C64  1  0.695000  0.707400  0.270200  1.0  0.7194
  C  C65  1  0.319000  0.012600  0.107200  1.0  -0.1463
  C  C66  1  0.808400  0.610200  0.187700  1.0  -0.0495
  C  C67  1  0.327400  0.017900  0.463600  1.0  -0.1064
  C  C68  1  0.742700  0.032600  0.285400  1.0  -0.1851
  C  C69  1  0.186700  0.212200  0.413300  1.0  0.77
  C  C70  1  0.664900  0.613900  0.856300  1.0  -0.0613
  C  C71  1  0.689600  0.645000  0.926400  1.0  -0.1997
  C  C72  1  0.697300  0.955200  0.262700  1.0  0.7382
  C  C73  1  0.853600  0.510800  0.269900  1.0  -0.2066
  C  C74  1  0.149000  0.153200  0.802000  1.0  -0.1917
  C  C75  1  0.757200  0.632800  0.253400  1.0  -0.1597
  C  C76  1  0.756800  0.634100  0.516700  1.0  -0.0594
  C  C77  1  0.721500  0.540200  0.846500  1.0  -0.0788
  C  C78  1  0.216700  0.521400  0.410800  1.0  -0.1299
  C  C79  1  0.151500  0.449400  0.425400  1.0  0.7519
  C  C80  1  0.604600  0.946700  0.955300  1.0  0.7436
  C  C81  1  0.395400  0.946700  0.455300  1.0  0.7431
  C  C82  1  0.257300  0.032600  0.785400  1.0  -0.1852
  C  C83  1  0.169200  0.212000  0.097600  1.0  0.702
  C  C84  1  0.736300  0.038100  0.026000  1.0  -0.0309
  C  C85  1  0.713100  0.067600  0.357600  1.0  -0.0543
  C  C86  1  0.848500  0.449400  0.925400  1.0  0.7508
  C  C87  1  0.335100  0.613900  0.356300  1.0  -0.0607
  C  C88  1  0.770400  0.138800  0.615000  1.0  -0.2111
  C  C89  1  0.348400  0.720600  0.456600  1.0  0.7681
  C  C90  1  0.263700  0.038100  0.526000  1.0  -0.0312
  C  C91  1  0.409900  0.715700  0.082700  1.0  0.76
  C  C92  1  0.232100  0.139200  0.444800  1.0  -0.203
  C  C93  1  0.286900  0.067600  0.857600  1.0  -0.0547
  C  C94  1  0.672600  0.017900  0.963600  1.0  -0.1053
  C  C95  1  0.634500  0.938400  0.579200  1.0  0.724
  C  C96  1  0.654000  0.046500  0.675000  1.0  -0.034
  C  C97  1  0.774900  0.527800  0.590700  1.0  -0.1431
  C  C98  1  0.229600  0.138800  0.115000  1.0  -0.2135
  C  C99  1  0.094800  0.439000  0.800700  1.0  0.6981
  C  C100  1  0.191600  0.610200  0.687700  1.0  -0.0493
  C  C101  1  0.242800  0.632800  0.753400  1.0  -0.159
  C  C102  1  0.328000  0.648800  0.073400  1.0  -0.1951
  C  C103  1  0.310400  0.645000  0.426400  1.0  -0.1994
  C  C104  1  0.905200  0.439000  0.300700  1.0  0.696
  C  C105  1  0.225100  0.527800  0.090700  1.0  -0.1435
  C  C106  1  0.767900  0.139200  0.944800  1.0  -0.2029
  C  C107  1  0.830800  0.212000  0.597600  1.0  0.7009
  C  C108  1  0.868900  0.538100  0.195800  1.0  -0.0858
  S  S109  1  0.225900  0.569540  0.829600  1.0  0.169
  S  S110  1  0.669900  0.578440  0.642960  1.0  0.1787
  S  S111  1  0.322200  0.081720  0.389600  1.0  0.1764
  S  S112  1  0.772300  0.067730  0.548400  1.0  0.1421
  S  S113  1  0.222800  0.587660  0.484900  1.0  0.1478
  S  S114  1  0.838200  0.085380  0.229700  1.0  0.1752
  S  S115  1  0.330100  0.578440  0.142960  1.0  0.1776
  S  S116  1  0.227700  0.067730  0.048400  1.0  0.1426
  S  S117  1  0.161800  0.085380  0.729700  1.0  0.1708
  S  S118  1  0.774100  0.569540  0.329600  1.0  0.1688
  S  S119  1  0.677800  0.081720  0.889600  1.0  0.1771
  S  S120  1  0.777200  0.587660  0.984900  1.0  0.1479
  O  O121  1  0.485800  0.830300  0.269500  1.0  -0.7876
  O  O122  1  0.670200  0.942000  0.195700  1.0  -0.6617
  O  O123  1  0.691400  0.910700  0.320700  1.0  -0.7423
  O  O124  1  0.151100  0.399800  0.372600  1.0  -0.8128
  O  O125  1  0.452100  0.935700  0.387700  1.0  -0.6561
  O  O126  1  0.202900  0.432600  0.187500  1.0  -0.6487
  O  O127  1  0.092100  0.441200  0.489300  1.0  -0.6339
  O  O128  1  0.352600  0.719300  0.835600  1.0  -0.6517
  O  O129  1  0.108100  0.425600  0.871500  1.0  -0.7101
  O  O130  1  0.948600  0.262900  0.351200  1.0  -0.8082
  O  O131  1  0.891900  0.425600  0.371500  1.0  -0.7102
  O  O132  1  0.593800  0.760900  0.907500  1.0  -0.679
  O  O133  1  0.416300  0.897700  0.126300  1.0  -0.6538
  O  O134  1  0.874600  0.411200  0.569200  1.0  -0.7382
  O  O135  1  0.208200  0.226800  0.343100  1.0  -0.6718
  O  O136  1  0.848900  0.399800  0.872600  1.0  -0.8152
  O  O137  1  0.012800  0.228900  0.727600  1.0  -0.6185
  O  O138  1  0.707200  0.756400  0.213800  1.0  -0.7385
  O  O139  1  0.791800  0.226800  0.843100  1.0  -0.6726
  O  O140  1  0.599600  0.899700  0.008800  1.0  -0.8328
  O  O141  1  0.647400  0.719300  0.335600  1.0  -0.6515
  O  O142  1  0.536000  0.723400  0.645200  1.0  -0.6256
  O  O143  1  0.797100  0.432600  0.687500  1.0  -0.6482
  O  O144  1  0.406200  0.760900  0.407500  1.0  -0.6788
  O  O145  1  0.959600  0.397200  0.249400  1.0  -0.6954
  O  O146  1  0.051400  0.262900  0.851200  1.0  -0.8071
  O  O147  1  0.547900  0.935700  0.887700  1.0  -0.6554
  O  O148  1  0.040400  0.397200  0.749400  1.0  -0.6946
  O  O149  1  0.583700  0.897700  0.626300  1.0  -0.654
  O  O150  1  0.464000  0.723400  0.145200  1.0  -0.6256
  O  O151  1  0.107100  0.218900  0.040900  1.0  -0.5971
  O  O152  1  0.339700  0.922100  0.005900  1.0  -0.7196
  O  O153  1  0.201100  0.264800  0.146400  1.0  -0.7149
  O  O154  1  0.673700  0.737500  0.026600  1.0  -0.764
  O  O155  1  0.868800  0.252500  0.962700  1.0  -0.7202
  O  O156  1  0.798900  0.264800  0.646400  1.0  -0.7146
  O  O157  1  0.987200  0.228900  0.227600  1.0  -0.6186
  O  O158  1  0.514200  0.830300  0.769500  1.0  -0.7889
  O  O159  1  0.412300  0.761300  0.025600  1.0  -0.7607
  O  O160  1  0.329800  0.942000  0.695700  1.0  -0.6646
  O  O161  1  0.587700  0.761300  0.525600  1.0  -0.7599
  O  O162  1  0.131200  0.252500  0.462700  1.0  -0.7183
  O  O163  1  0.907900  0.441200  0.989300  1.0  -0.6347
  O  O164  1  0.326300  0.737500  0.526600  1.0  -0.7658
  O  O165  1  0.292800  0.756400  0.713800  1.0  -0.7393
  O  O166  1  0.400400  0.899700  0.508800  1.0  -0.8334
  O  O167  1  0.660300  0.922100  0.505900  1.0  -0.7205
  O  O168  1  0.308600  0.910700  0.820700  1.0  -0.7408
  O  O169  1  0.892900  0.218900  0.540900  1.0  -0.5971
  O  O170  1  0.125400  0.411200  0.069200  1.0  -0.7367
