# generated using pymatgen
data_Nd4H14C36S6O25
_symmetry_space_group_name_H-M   'P 1'
_cell_length_a   10.93500000
_cell_length_b   17.91500000
_cell_length_c   16.95300000
_cell_angle_alpha   89.83200000
_cell_angle_beta   90.00000000
_cell_angle_gamma   90.00000000
_symmetry_Int_Tables_number   1
_chemical_formula_structural   Nd4H14C36S6O25
_chemical_formula_sum   'Nd8 H28 C72 S12 O50'
_cell_volume   3321.08732371
_cell_formula_units_Z   2
loop_
 _symmetry_equiv_pos_site_id
 _symmetry_equiv_pos_as_xyz
  1  'x, y, z'
loop_
 _atom_site_type_symbol
 _atom_site_label
 _atom_site_symmetry_multiplicity
 _atom_site_fract_x
 _atom_site_fract_y
 _atom_site_fract_z
 _atom_site_occupancy
 _atom_site_charge
  Nd  Nd1  1  0.607900  0.828890  0.123740  1.0  2.2815
  Nd  Nd2  1  0.955090  0.332780  0.472730  1.0  2.3211
  Nd  Nd3  1  0.411270  0.831030  0.908920  1.0  2.2798
  Nd  Nd4  1  0.044910  0.332780  0.972730  1.0  2.3214
  Nd  Nd5  1  0.139930  0.325400  0.261500  1.0  2.3123
  Nd  Nd6  1  0.392100  0.828890  0.623740  1.0  2.2818
  Nd  Nd7  1  0.860070  0.325400  0.761500  1.0  2.3159
  Nd  Nd8  1  0.588730  0.831030  0.408920  1.0  2.2797
  H  H9  1  0.735600  0.011600  0.075800  1.0  0.0979
  H  H10  1  0.791200  0.161600  0.412700  1.0  0.1063
  H  H11  1  0.264400  0.011600  0.575800  1.0  0.099
  H  H12  1  0.569800  0.786300  0.766800  1.0  0.284
  H  H13  1  0.160100  0.133400  0.555900  1.0  0.1009
  H  H14  1  0.570200  0.873000  0.765800  1.0  0.2753
  H  H15  1  0.600600  0.026500  0.715300  1.0  0.1119
  H  H16  1  0.240800  0.663200  0.972700  1.0  0.1127
  H  H17  1  0.862400  0.543900  0.489500  1.0  0.1051
  H  H18  1  0.277500  0.511600  0.304100  1.0  0.1036
  H  H19  1  0.430200  0.786300  0.266800  1.0  0.2834
  H  H20  1  0.088300  0.516700  0.653900  1.0  0.1034
  H  H21  1  0.208800  0.161600  0.912700  1.0  0.1062
  H  H22  1  0.722500  0.511600  0.804100  1.0  0.1042
  H  H23  1  0.429800  0.873000  0.265800  1.0  0.2747
  H  H24  1  0.839900  0.133400  0.055900  1.0  0.1008
  H  H25  1  0.399400  0.026500  0.215300  1.0  0.1123
  H  H26  1  0.911700  0.516700  0.153900  1.0  0.1032
  H  H27  1  0.672700  0.044400  0.396300  1.0  0.1134
  H  H28  1  0.618400  0.631200  0.818900  1.0  0.1071
  H  H29  1  0.311900  0.151800  0.225900  1.0  0.1089
  H  H30  1  0.327300  0.044400  0.896300  1.0  0.1134
  H  H31  1  0.759200  0.663200  0.472700  1.0  0.1129
  H  H32  1  0.803500  0.637300  0.141500  1.0  0.1089
  H  H33  1  0.137600  0.543900  0.989500  1.0  0.1048
  H  H34  1  0.688100  0.151800  0.725900  1.0  0.1088
  H  H35  1  0.196500  0.637300  0.641500  1.0  0.1092
  H  H36  1  0.381600  0.631200  0.318900  1.0  0.107
  C  C37  1  0.237200  0.140200  0.116700  1.0  -0.2139
  C  C38  1  0.762800  0.140200  0.616700  1.0  -0.2132
  C  C39  1  0.188800  0.450800  0.116900  1.0  0.7745
  C  C40  1  0.726700  0.540600  0.849500  1.0  -0.0284
  C  C41  1  0.811200  0.450800  0.616900  1.0  0.7738
  C  C42  1  0.301700  0.121000  0.182300  1.0  -0.0604
  C  C43  1  0.814500  0.210800  0.914300  1.0  0.7695
  C  C44  1  0.698300  0.121000  0.682300  1.0  -0.06
  C  C45  1  0.901400  0.439200  0.298000  1.0  0.7713
  C  C46  1  0.297900  0.709100  0.769600  1.0  0.7761
  C  C47  1  0.692600  0.643500  0.926600  1.0  -0.2055
  C  C48  1  0.180700  0.213800  0.099600  1.0  0.7763
  C  C49  1  0.702100  0.709100  0.269600  1.0  0.7772
  C  C50  1  0.792600  0.109800  0.017800  1.0  -0.0646
  C  C51  1  0.759800  0.635600  0.254500  1.0  -0.1814
  C  C52  1  0.635300  0.940200  0.579800  1.0  0.7573
  C  C53  1  0.307400  0.643500  0.426600  1.0  -0.2064
  C  C54  1  0.195300  0.562800  0.024400  1.0  -0.1017
  C  C55  1  0.364700  0.940200  0.079800  1.0  0.7569
  C  C56  1  0.300700  0.955900  0.764200  1.0  0.7187
  C  C57  1  0.331700  0.610400  0.357500  1.0  -0.0548
  C  C58  1  0.699300  0.955900  0.264200  1.0  0.7215
  C  C59  1  0.725000  0.064200  0.358400  1.0  -0.0448
  C  C60  1  0.664000  0.647300  0.575000  1.0  -0.1896
  C  C61  1  0.588700  0.713700  0.584700  1.0  0.7545
  C  C62  1  0.792000  0.133200  0.366900  1.0  -0.0623
  C  C63  1  0.855300  0.151900  0.302400  1.0  -0.1416
  C  C64  1  0.240200  0.635600  0.754500  1.0  -0.1813
  C  C65  1  0.851300  0.511600  0.267800  1.0  -0.207
  C  C66  1  0.336000  0.647300  0.075000  1.0  -0.19
  C  C67  1  0.804700  0.562800  0.524400  1.0  -0.101
  C  C68  1  0.396800  0.946800  0.452000  1.0  0.74
  C  C69  1  0.654100  0.718400  0.956900  1.0  0.755
  C  C70  1  0.678000  0.013800  0.607400  1.0  -0.2199
  C  C71  1  0.771600  0.137400  0.946200  1.0  -0.1543
  C  C72  1  0.273300  0.540600  0.349500  1.0  -0.0283
  C  C73  1  0.322000  0.013800  0.107400  1.0  -0.2188
  C  C74  1  0.819300  0.213800  0.599600  1.0  0.7752
  C  C75  1  0.131800  0.539700  0.694200  1.0  -0.1007
  C  C76  1  0.345900  0.718400  0.456900  1.0  0.7535
  C  C77  1  0.254800  0.631300  0.015200  1.0  -0.0728
  C  C78  1  0.603200  0.946800  0.952000  1.0  0.74
  C  C79  1  0.191900  0.610700  0.688600  1.0  -0.0539
  C  C80  1  0.935400  0.218800  0.290100  1.0  0.779
  C  C81  1  0.351500  0.048400  0.176200  1.0  -0.0571
  C  C82  1  0.251200  0.031500  0.786200  1.0  -0.1803
  C  C83  1  0.212000  0.520700  0.413400  1.0  -0.118
  C  C84  1  0.672800  0.016300  0.963500  1.0  -0.2102
  C  C85  1  0.668300  0.610400  0.857500  1.0  -0.0547
  C  C86  1  0.648500  0.048400  0.676200  1.0  -0.0578
  C  C87  1  0.207400  0.109800  0.517800  1.0  -0.0645
  C  C88  1  0.868200  0.539700  0.194200  1.0  -0.0999
  C  C89  1  0.411300  0.713700  0.084700  1.0  0.7606
  C  C90  1  0.275000  0.064200  0.858400  1.0  -0.0453
  C  C91  1  0.228400  0.137400  0.446200  1.0  -0.1541
  C  C92  1  0.267000  0.038800  0.529000  1.0  -0.0564
  C  C93  1  0.748800  0.031500  0.286200  1.0  -0.1789
  C  C94  1  0.327200  0.016300  0.463500  1.0  -0.2102
  C  C95  1  0.064600  0.218800  0.790100  1.0  0.7795
  C  C96  1  0.144700  0.151900  0.802400  1.0  -0.1412
  C  C97  1  0.233300  0.527900  0.090800  1.0  -0.188
  C  C98  1  0.098600  0.439200  0.798000  1.0  0.7723
  C  C99  1  0.733000  0.038800  0.029000  1.0  -0.0573
  C  C100  1  0.808100  0.610700  0.188600  1.0  -0.0546
  C  C101  1  0.788000  0.520700  0.913400  1.0  -0.1194
  C  C102  1  0.148700  0.511600  0.767800  1.0  -0.2069
  C  C103  1  0.208000  0.133200  0.866900  1.0  -0.0632
  C  C104  1  0.141500  0.452100  0.429600  1.0  0.721
  C  C105  1  0.185500  0.210800  0.414300  1.0  0.7682
  C  C106  1  0.766700  0.527900  0.590800  1.0  -0.1882
  C  C107  1  0.745200  0.631300  0.515200  1.0  -0.0736
  C  C108  1  0.858500  0.452100  0.929600  1.0  0.7203
  S  S109  1  0.318800  0.081310  0.389670  1.0  0.1781
  S  S110  1  0.681200  0.081310  0.889670  1.0  0.1771
  S  S111  1  0.233100  0.069630  0.050120  1.0  0.1556
  S  S112  1  0.226000  0.570540  0.828050  1.0  0.1627
  S  S113  1  0.774000  0.570540  0.328050  1.0  0.1621
  S  S114  1  0.666667  0.578690  0.644200  1.0  0.1617
  S  S115  1  0.163100  0.085880  0.728250  1.0  0.171
  S  S116  1  0.836900  0.085880  0.228250  1.0  0.1723
  S  S117  1  0.218100  0.587710  0.485520  1.0  0.1424
  S  S118  1  0.766900  0.069630  0.550120  1.0  0.1552
  S  S119  1  0.781900  0.587710  0.985520  1.0  0.1426
  S  S120  1  0.333333  0.578690  0.144200  1.0  0.1604
  O  O121  1  0.142100  0.399700  0.377000  1.0  -0.8495
  O  O122  1  0.417200  0.761200  0.030200  1.0  -0.8439
  O  O123  1  0.205800  0.264700  0.147600  1.0  -0.7527
  O  O124  1  0.351000  0.719200  0.834400  1.0  -0.7062
  O  O125  1  0.339900  0.922400  0.009700  1.0  -0.7169
  O  O126  1  0.322600  0.734900  0.525700  1.0  -0.7428
  O  O127  1  0.885100  0.219900  0.540200  1.0  -0.6446
  O  O128  1  0.115700  0.425300  0.869700  1.0  -0.7681
  O  O129  1  0.792400  0.226600  0.845200  1.0  -0.6954
  O  O130  1  0.793500  0.433700  0.687700  1.0  -0.649
  O  O131  1  0.595800  0.758300  0.907300  1.0  -0.7076
  O  O132  1  0.548700  0.937700  0.886000  1.0  -0.6493
  O  O133  1  0.451300  0.937700  0.386000  1.0  -0.6493
  O  O134  1  0.957800  0.398500  0.249300  1.0  -0.7117
  O  O135  1  0.660100  0.922400  0.509700  1.0  -0.7163
  O  O136  1  0.516900  0.829800  0.767300  1.0  -0.7954
  O  O137  1  0.014500  0.228400  0.725000  1.0  -0.6341
  O  O138  1  0.948000  0.262400  0.347500  1.0  -0.8173
  O  O139  1  0.598000  0.899800  0.004200  1.0  -0.7895
  O  O140  1  0.404200  0.758300  0.407300  1.0  -0.7072
  O  O141  1  0.042200  0.398500  0.749300  1.0  -0.7114
  O  O142  1  0.713700  0.756800  0.216200  1.0  -0.7435
  O  O143  1  0.207600  0.226600  0.345200  1.0  -0.6961
  O  O144  1  0.419800  0.900800  0.127200  1.0  -0.6676
  O  O145  1  0.052000  0.262400  0.847500  1.0  -0.8168
  O  O146  1  0.677400  0.734900  0.025700  1.0  -0.7429
  O  O147  1  0.308400  0.910600  0.820500  1.0  -0.7683
  O  O148  1  0.676200  0.942500  0.194500  1.0  -0.703
  O  O149  1  0.085700  0.445900  0.490500  1.0  -0.6089
  O  O150  1  0.531500  0.721200  0.649100  1.0  -0.6813
  O  O151  1  0.582800  0.761200  0.530200  1.0  -0.843
  O  O152  1  0.649000  0.719200  0.334400  1.0  -0.7061
  O  O153  1  0.402000  0.899800  0.504200  1.0  -0.7886
  O  O154  1  0.873200  0.251200  0.962200  1.0  -0.7373
  O  O155  1  0.580200  0.900800  0.627200  1.0  -0.6665
  O  O156  1  0.985500  0.228400  0.225000  1.0  -0.6335
  O  O157  1  0.206500  0.433700  0.187700  1.0  -0.6496
  O  O158  1  0.861800  0.412300  0.568200  1.0  -0.7484
  O  O159  1  0.114900  0.219900  0.040200  1.0  -0.6491
  O  O160  1  0.286300  0.756800  0.716200  1.0  -0.7448
  O  O161  1  0.138200  0.412300  0.068200  1.0  -0.7479
  O  O162  1  0.914300  0.445900  0.990500  1.0  -0.6092
  O  O163  1  0.126800  0.251200  0.462200  1.0  -0.7365
  O  O164  1  0.857900  0.399700  0.877000  1.0  -0.8513
  O  O165  1  0.794200  0.264700  0.647600  1.0  -0.7544
  O  O166  1  0.691600  0.910600  0.320500  1.0  -0.7691
  O  O167  1  0.323800  0.942500  0.694500  1.0  -0.7061
  O  O168  1  0.884300  0.425300  0.369700  1.0  -0.7682
  O  O169  1  0.483100  0.829800  0.267300  1.0  -0.793
  O  O170  1  0.468500  0.721200  0.149100  1.0  -0.681
