# generated using pymatgen
data_Zn2H24C19N2O7
_symmetry_space_group_name_H-M   'P 1'
_cell_length_a   13.12200000
_cell_length_b   20.28810000
_cell_length_c   20.28810000
_cell_angle_alpha   83.99690000
_cell_angle_beta   71.13180000
_cell_angle_gamma   71.13190000
_symmetry_Int_Tables_number   1
_chemical_formula_structural   Zn2H24C19N2O7
_chemical_formula_sum   'Zn16 H192 C152 N16 O56'
_cell_volume   4836.24832885
_cell_formula_units_Z   8
loop_
 _symmetry_equiv_pos_site_id
 _symmetry_equiv_pos_as_xyz
  1  'x, y, z'
loop_
 _atom_site_type_symbol
 _atom_site_label
 _atom_site_symmetry_multiplicity
 _atom_site_fract_x
 _atom_site_fract_y
 _atom_site_fract_z
 _atom_site_occupancy
 _atom_site_charge
  Zn  Zn1  1  0.434970  0.162870  0.113170  1.0  0.8786
  Zn  Zn2  1  0.451860  0.113170  0.337130  1.0  0.8797
  Zn  Zn3  1  0.469030  0.529080  0.802440  1.0  0.8373
  Zn  Zn4  1  0.728530  0.802440  0.970920  1.0  0.8399
  Zn  Zn5  1  0.565030  0.837130  0.886830  1.0  0.8793
  Zn  Zn6  1  0.211010  0.337130  0.386830  1.0  0.8806
  Zn  Zn7  1  0.998110  0.302440  0.470920  1.0  0.8398
  Zn  Zn8  1  0.548140  0.886830  0.662870  1.0  0.8784
  Zn  Zn9  1  0.001890  0.697560  0.529080  1.0  0.8425
  Zn  Zn10  1  0.300550  0.970920  0.697560  1.0  0.8348
  Zn  Zn11  1  0.402160  0.386830  0.162870  1.0  0.8786
  Zn  Zn12  1  0.788990  0.662870  0.613170  1.0  0.8812
  Zn  Zn13  1  0.271470  0.197560  0.029080  1.0  0.8365
  Zn  Zn14  1  0.597840  0.613170  0.837130  1.0  0.8784
  Zn  Zn15  1  0.699450  0.029080  0.302440  1.0  0.8377
  Zn  Zn16  1  0.530970  0.470920  0.197560  1.0  0.8377
  H  H17  1  0.441800  0.753500  0.402300  1.0  0.1117
  H  H18  1  0.701400  0.012800  0.829800  1.0  0.1156
  H  H19  1  0.512600  0.634100  0.640500  1.0  0.0748
  H  H20  1  0.159800  0.462400  0.238600  1.0  0.1109
  H  H21  1  0.277200  0.814400  0.990400  1.0  0.0948
  H  H22  1  0.824500  0.545000  0.935000  1.0  0.0848
  H  H23  1  0.673500  0.016500  0.147700  1.0  0.0751
  H  H24  1  0.659800  0.525400  0.055600  1.0  0.0781
  H  H25  1  0.368900  0.790100  0.860900  1.0  0.096
  H  H26  1  0.840200  0.537600  0.761400  1.0  0.1111
  H  H27  1  0.493800  0.273000  0.674400  1.0  0.1145
  H  H28  1  0.358600  0.891700  0.490300  1.0  0.1242
  H  H29  1  0.897600  0.408300  0.614500  1.0  0.0633
  H  H30  1  0.449500  0.343000  0.884800  1.0  0.0759
  H  H31  1  0.678900  0.567900  0.186900  1.0  0.0914
  H  H32  1  0.195500  0.045000  0.435000  1.0  0.0836
  H  H33  1  0.601600  0.238600  0.037600  1.0  0.1124
  H  H34  1  0.753200  0.313100  0.567900  1.0  0.0906
  H  H35  1  0.995300  0.728900  0.153700  1.0  0.1037
  H  H36  1  0.956000  0.512800  0.329800  1.0  0.1175
  H  H37  1  0.420400  0.091700  0.885500  1.0  0.0638
  H  H38  1  0.195300  0.902300  0.246500  1.0  0.1114
  H  H39  1  0.281100  0.425400  0.927400  1.0  0.0827
  H  H40  1  0.035800  0.316600  0.712000  1.0  0.0875
  H  H41  1  0.178800  0.147700  0.483500  1.0  0.0747
  H  H42  1  0.149000  0.846300  0.228900  1.0  0.1012
  H  H43  1  0.626100  0.775700  0.163100  1.0  0.0806
  H  H44  1  0.792500  0.384800  0.657000  1.0  0.0742
  H  H45  1  0.102400  0.591700  0.385500  1.0  0.063
  H  H46  1  0.519900  0.709900  0.639100  1.0  0.097
  H  H47  1  0.229800  0.139100  0.290100  1.0  0.0953
  H  H48  1  0.506200  0.727000  0.325600  1.0  0.1166
  H  H49  1  0.213800  0.478700  0.378300  1.0  0.0812
  H  H50  1  0.558200  0.246500  0.597700  1.0  0.1116
  H  H51  1  0.246800  0.686900  0.432100  1.0  0.0914
  H  H52  1  0.259200  0.025400  0.555600  1.0  0.0756
  H  H53  1  0.398400  0.761400  0.962400  1.0  0.1123
  H  H54  1  0.908400  0.509600  0.814400  1.0  0.0968
  H  H55  1  0.153100  0.359500  0.134100  1.0  0.0785
  H  H56  1  0.714200  0.329800  0.987200  1.0  0.1167
  H  H57  1  0.334600  0.344300  0.604700  1.0  0.1017
  H  H58  1  0.293500  0.572600  0.425400  1.0  0.0809
  H  H59  1  0.334100  0.269700  0.903700  1.0  0.0933
  H  H60  1  0.848900  0.509700  0.391700  1.0  0.122
  H  H61  1  0.429200  0.978700  0.878300  1.0  0.0764
  H  H62  1  0.866100  0.925400  0.427400  1.0  0.0837
  H  H63  1  0.066300  0.067900  0.686900  1.0  0.0906
  H  H64  1  0.373900  0.224300  0.836900  1.0  0.0811
  H  H65  1  0.307500  0.121700  0.478700  1.0  0.0735
  H  H66  1  0.310000  0.352300  0.016500  1.0  0.0741
  H  H67  1  0.284600  0.055600  0.974600  1.0  0.0784
  H  H68  1  0.804500  0.955000  0.565000  1.0  0.0845
  H  H69  1  0.665700  0.884800  0.157000  1.0  0.0761
  H  H70  1  0.097600  0.746500  0.097700  1.0  0.1108
  H  H71  1  0.134200  0.186900  0.932100  1.0  0.091
  H  H72  1  0.665900  0.730300  0.096300  1.0  0.0951
  H  H73  1  0.004700  0.271100  0.846300  1.0  0.1049
  H  H74  1  0.401800  0.663100  0.224300  1.0  0.0813
  H  H75  1  0.269600  0.487600  0.062800  1.0  0.0742
  H  H76  1  0.718900  0.574600  0.072600  1.0  0.0838
  H  H77  1  0.044000  0.487200  0.670200  1.0  0.1163
  H  H78  1  0.853300  0.859500  0.634100  1.0  0.0742
  H  H79  1  0.240600  0.608300  0.009700  1.0  0.1243
  H  H80  1  0.185700  0.231900  0.870900  1.0  0.08
  H  H81  1  0.185200  0.555600  0.474600  1.0  0.0769
  H  H82  1  0.762200  0.903700  0.230300  1.0  0.0942
  H  H83  1  0.007500  0.230300  0.596300  1.0  0.0935
  H  H84  1  0.822700  0.843000  0.384800  1.0  0.0757
  H  H85  1  0.352400  0.212000  0.683400  1.0  0.0869
  H  H86  1  0.058800  0.773000  0.174400  1.0  0.1142
  H  H87  1  0.582000  0.685600  0.509600  1.0  0.0923
  H  H88  1  0.159000  0.360900  0.209900  1.0  0.0971
  H  H89  1  0.168200  0.325600  0.773000  1.0  0.1129
  H  H90  1  0.759400  0.391700  0.990300  1.0  0.1247
  H  H91  1  0.831800  0.674400  0.227000  1.0  0.1161
  H  H92  1  0.690000  0.647700  0.983500  1.0  0.0728
  H  H93  1  0.788500  0.268100  0.629100  1.0  0.0803
  H  H94  1  0.631100  0.209900  0.139100  1.0  0.0953
  H  H95  1  0.789200  0.836900  0.275700  1.0  0.0802
  H  H96  1  0.694100  0.885500  0.408300  1.0  0.0687
  H  H97  1  0.240500  0.935000  0.955000  1.0  0.0852
  H  H98  1  0.216400  0.844300  0.104700  1.0  0.1012
  H  H99  1  0.759500  0.065000  0.045000  1.0  0.086
  H  H100  1  0.091600  0.490400  0.185600  1.0  0.0928
  H  H101  1  0.603800  0.403700  0.730300  1.0  0.0934
  H  H102  1  0.207500  0.615200  0.343000  1.0  0.0731
  H  H103  1  0.814300  0.768100  0.129100  1.0  0.0786
  H  H104  1  0.579600  0.908300  0.114500  1.0  0.0639
  H  H105  1  0.662300  0.516500  0.647700  1.0  0.0747
  H  H106  1  0.133900  0.074600  0.572600  1.0  0.0827
  H  H107  1  0.377800  0.261400  0.462400  1.0  0.1119
  H  H108  1  0.724200  0.653700  0.271100  1.0  0.1019
  H  H109  1  0.174100  0.033000  0.176400  1.0  0.13
  H  H110  1  0.639200  0.962400  0.738600  1.0  0.1111
  H  H111  1  0.369500  0.435000  0.455000  1.0  0.0836
  H  H112  1  0.592100  0.621700  0.978700  1.0  0.0786
  H  H113  1  0.846900  0.640500  0.865900  1.0  0.0788
  H  H114  1  0.340200  0.474600  0.944400  1.0  0.0764
  H  H115  1  0.155900  0.402300  0.746500  1.0  0.1089
  H  H116  1  0.825900  0.967000  0.823600  1.0  0.1332
  H  H117  1  0.680000  0.987600  0.562800  1.0  0.0721
  H  H118  1  0.933700  0.932100  0.313100  1.0  0.0903
  H  H119  1  0.935100  0.275700  0.663100  1.0  0.0799
  H  H120  1  0.722800  0.185600  0.009600  1.0  0.1011
  H  H121  1  0.791500  0.927400  0.074600  1.0  0.0847
  H  H122  1  0.582400  0.629100  0.231900  1.0  0.0788
  H  H123  1  0.943400  0.870900  0.268100  1.0  0.0798
  H  H124  1  0.883500  0.467000  0.323600  1.0  0.132
  H  H125  1  0.377900  0.771100  0.346300  1.0  0.1046
  H  H126  1  0.622200  0.738600  0.537600  1.0  0.1109
  H  H127  1  0.564400  0.183400  0.788000  1.0  0.088
  H  H128  1  0.305900  0.114500  0.591700  1.0  0.0686
  H  H129  1  0.706500  0.427400  0.574600  1.0  0.0791
  H  H130  1  0.321100  0.432100  0.813100  1.0  0.092
  H  H131  1  0.766800  0.174400  0.727000  1.0  0.1162
  H  H132  1  0.321100  0.895300  0.344300  1.0  0.1023
  H  H133  1  0.732400  0.990400  0.685600  1.0  0.099
  H  H134  1  0.570800  0.021300  0.121700  1.0  0.0779
  H  H135  1  0.116500  0.533000  0.676400  1.0  0.1312
  H  H136  1  0.298600  0.987200  0.170200  1.0  0.1144
  H  H137  1  0.641400  0.108300  0.509700  1.0  0.1239
  H  H138  1  0.814800  0.444400  0.525400  1.0  0.076
  H  H139  1  0.250300  0.990300  0.108300  1.0  0.1255
  H  H140  1  0.622100  0.228900  0.653700  1.0  0.1033
  H  H141  1  0.865800  0.813100  0.067900  1.0  0.0906
  H  H142  1  0.649500  0.176400  0.467000  1.0  0.132
  H  H143  1  0.678900  0.104700  0.655700  1.0  0.1017
  H  H144  1  0.730400  0.512400  0.937200  1.0  0.0764
  H  H145  1  0.630500  0.565000  0.545000  1.0  0.0839
  H  H146  1  0.841000  0.639100  0.790100  1.0  0.0951
  H  H147  1  0.175500  0.455000  0.065000  1.0  0.0841
  H  H148  1  0.350500  0.823600  0.533000  1.0  0.1314
  H  H149  1  0.770200  0.860900  0.709900  1.0  0.0939
  H  H150  1  0.056600  0.129100  0.731900  1.0  0.08
  H  H151  1  0.480100  0.290100  0.360900  1.0  0.0969
  H  H152  1  0.964200  0.683400  0.288000  1.0  0.0877
  H  H153  1  0.531200  0.170200  0.512800  1.0  0.1159
  H  H154  1  0.715400  0.944400  0.025400  1.0  0.0799
  H  H155  1  0.804700  0.097700  0.753500  1.0  0.1125
  H  H156  1  0.665400  0.655700  0.395300  1.0  0.1011
  H  H157  1  0.992500  0.769700  0.403700  1.0  0.0936
  H  H158  1  0.487400  0.365900  0.359500  1.0  0.074
  H  H159  1  0.418000  0.314400  0.490400  1.0  0.0932
  H  H160  1  0.740800  0.974600  0.444400  1.0  0.0755
  H  H161  1  0.064900  0.724300  0.336900  1.0  0.0806
  H  H162  1  0.487900  0.614500  0.091700  1.0  0.0661
  H  H163  1  0.821200  0.852300  0.516500  1.0  0.0758
  H  H164  1  0.747800  0.288000  0.816600  1.0  0.0873
  H  H165  1  0.783600  0.155700  0.895300  1.0  0.1018
  H  H166  1  0.435600  0.816600  0.212000  1.0  0.0882
  H  H167  1  0.396200  0.596300  0.269700  1.0  0.0931
  H  H168  1  0.360800  0.037600  0.261400  1.0  0.1112
  H  H169  1  0.233200  0.825600  0.273000  1.0  0.1157
  H  H170  1  0.210800  0.163100  0.724300  1.0  0.0816
  H  H171  1  0.211500  0.731900  0.370900  1.0  0.0809
  H  H172  1  0.939300  0.395300  0.844300  1.0  0.1004
  H  H173  1  0.757200  0.562800  0.512400  1.0  0.0732
  H  H174  1  0.285800  0.670200  0.012800  1.0  0.1153
  H  H175  1  0.844100  0.597700  0.253500  1.0  0.1101
  H  H176  1  0.207100  0.676400  0.967000  1.0  0.1316
  H  H177  1  0.941200  0.227000  0.825600  1.0  0.114
  H  H178  1  0.512100  0.385500  0.908300  1.0  0.0655
  H  H179  1  0.792900  0.323600  0.033000  1.0  0.1322
  H  H180  1  0.749700  0.009700  0.891700  1.0  0.1263
  H  H181  1  0.598200  0.336900  0.775700  1.0  0.0793
  H  H182  1  0.267600  0.009600  0.314400  1.0  0.0933
  H  H183  1  0.786200  0.521300  0.621700  1.0  0.0826
  H  H184  1  0.337700  0.483500  0.352300  1.0  0.076
  H  H185  1  0.468800  0.829800  0.487200  1.0  0.1178
  H  H186  1  0.177300  0.157000  0.615200  1.0  0.0754
  H  H187  1  0.334300  0.115200  0.843000  1.0  0.0759
  H  H188  1  0.647600  0.788000  0.316600  1.0  0.0881
  H  H189  1  0.902400  0.253500  0.902300  1.0  0.1104
  H  H190  1  0.275800  0.346300  0.728900  1.0  0.1049
  H  H191  1  0.151100  0.490300  0.608300  1.0  0.1235
  H  H192  1  0.712800  0.134100  0.140500  1.0  0.0759
  H  H193  1  0.326500  0.983500  0.852300  1.0  0.0769
  H  H194  1  0.417600  0.370900  0.768100  1.0  0.0798
  H  H195  1  0.332400  0.937200  0.987600  1.0  0.0734
  H  H196  1  0.667600  0.062800  0.012400  1.0  0.0738
  H  H197  1  0.208500  0.072600  0.925400  1.0  0.0828
  H  H198  1  0.252200  0.712000  0.183400  1.0  0.0873
  H  H199  1  0.146700  0.140500  0.365900  1.0  0.0737
  H  H200  1  0.060700  0.604700  0.155700  1.0  0.0998
  H  H201  1  0.287200  0.865900  0.859500  1.0  0.0746
  H  H202  1  0.550500  0.657000  0.115200  1.0  0.0755
  H  H203  1  0.407900  0.378300  0.021300  1.0  0.08
  H  H204  1  0.242800  0.437200  0.487600  1.0  0.0735
  H  H205  1  0.851000  0.153700  0.771100  1.0  0.1041
  H  H206  1  0.692500  0.878300  0.521300  1.0  0.0755
  H  H207  1  0.320000  0.012400  0.437200  1.0  0.0723
  H  H208  1  0.237800  0.096300  0.769700  1.0  0.0938
  C  C209  1  0.335900  0.021400  0.308800  1.0  -0.0565
  C  C210  1  0.239900  0.669700  0.181500  1.0  -0.1912
  C  C211  1  0.750200  0.983600  0.854800  1.0  -0.4544
  C  C212  1  0.912900  0.964300  0.218900  1.0  0.7145
  C  C213  1  0.744600  0.681300  0.456300  1.0  0.0383
  C  C214  1  0.622300  0.891200  0.303400  1.0  0.0184
  C  C215  1  0.631100  0.777500  0.114100  1.0  -0.054
  C  C216  1  0.074300  0.303400  0.608800  1.0  0.0174
  C  C217  1  0.344200  0.426300  0.941900  1.0  -0.1416
  C  C218  1  0.651700  0.013900  0.106900  1.0  -0.157
  C  C219  1  0.398100  0.418800  0.782000  1.0  -0.0475
  C  C220  1  0.016800  0.577100  0.615100  1.0  0.7176
  C  C221  1  0.286100  0.058100  0.926300  1.0  -0.1446
  C  C222  1  0.254800  0.114100  0.722500  1.0  -0.0552
  C  C223  1  0.617800  0.181300  0.956300  1.0  0.0441
  C  C224  1  0.760100  0.330300  0.818500  1.0  -0.1905
  C  C225  1  0.156200  0.307200  0.544400  1.0  0.1977
  C  C226  1  0.749800  0.555400  0.930000  1.0  -0.0257
  C  C227  1  0.587300  0.647500  0.709300  1.0  0.7332
  C  C228  1  0.578600  0.181500  0.830300  1.0  -0.1906
  C  C229  1  0.769700  0.889700  0.390300  1.0  -0.011
  C  C230  1  0.733800  0.354800  0.016400  1.0  -0.4555
  C  C231  1  0.250200  0.444600  0.070000  1.0  -0.0268
  C  C232  1  0.183100  0.718000  0.418800  1.0  -0.0446
  C  C233  1  0.131800  0.781100  0.464300  1.0  0.7214
  C  C234  1  0.574100  0.043700  0.681300  1.0  0.0421
  C  C235  1  0.977300  0.277500  0.614100  1.0  -0.0526
  C  C236  1  0.868200  0.218900  0.535700  1.0  0.7206
  C  C237  1  0.264800  0.055400  0.430000  1.0  -0.0247
  C  C238  1  0.444100  0.852500  0.790700  1.0  0.7358
  C  C239  1  0.486500  0.196600  0.891200  1.0  0.0178
  C  C240  1  0.180100  0.218000  0.918800  1.0  -0.0445
  C  C241  1  0.787600  0.926300  0.441900  1.0  -0.1427
  C  C242  1  0.310900  0.836000  0.170200  1.0  0.0735
  C  C243  1  0.665600  0.606900  0.986100  1.0  -0.1566
  C  C244  1  0.320200  0.930000  0.944600  1.0  -0.0237
  C  C245  1  0.212400  0.073700  0.558100  1.0  -0.1414
  C  C246  1  0.709000  0.922900  0.884900  1.0  0.7171
  C  C247  1  0.799100  0.456300  0.818700  1.0  0.0437
  C  C248  1  0.875200  0.394100  0.834700  1.0  -0.1427
  C  C249  1  0.382200  0.818700  0.043700  1.0  0.0409
  C  C250  1  0.507800  0.192800  0.955600  1.0  0.1946
  C  C251  1  0.340600  0.109700  0.889700  1.0  -0.0103
  C  C252  1  0.241400  0.106900  0.486100  1.0  -0.1567
  C  C253  1  0.636200  0.160900  0.141700  1.0  -0.1854
  C  C254  1  0.098900  0.081200  0.718000  1.0  -0.0437
  C  C255  1  0.765200  0.790700  0.647500  1.0  0.7304
  C  C256  1  0.408900  0.169700  0.681500  1.0  -0.1915
  C  C257  1  0.604000  0.105900  0.665300  1.0  -0.1421
  C  C258  1  0.425900  0.956300  0.318700  1.0  0.0408
  C  C259  1  0.601900  0.581200  0.218000  1.0  -0.0475
  C  C260  1  0.853100  0.329800  0.836000  1.0  0.0734
  C  C261  1  0.561200  0.660900  0.641700  1.0  -0.1916
  C  C262  1  0.549700  0.610300  0.109700  1.0  -0.011
  C  C263  1  0.124800  0.605900  0.165300  1.0  -0.1409
  C  C264  1  0.396000  0.894100  0.334700  1.0  -0.1448
  C  C265  1  0.911400  0.483600  0.354800  1.0  -0.4534
  C  C266  1  0.272500  0.486100  0.393100  1.0  -0.1563
  C  C267  1  0.689100  0.164000  0.829800  1.0  0.0718
  C  C268  1  0.901100  0.918800  0.282000  1.0  -0.0435
  C  C269  1  0.492200  0.807200  0.044400  1.0  0.1949
  C  C270  1  0.450300  0.389700  0.890300  1.0  -0.0118
  C  C271  1  0.481100  0.829800  0.336000  1.0  0.0746
  C  C272  1  0.694800  0.570000  0.555400  1.0  -0.0246
  C  C273  1  0.230300  0.110300  0.609700  1.0  -0.0108
  C  C274  1  0.727500  0.513900  0.606900  1.0  -0.1563
  C  C275  1  0.843800  0.692800  0.455600  1.0  0.1967
  C  C276  1  0.368100  0.615100  0.922900  1.0  0.7221
  C  C277  1  0.160000  0.609700  0.389700  1.0  -0.0133
  C  C278  1  0.664100  0.978600  0.691200  1.0  -0.0579
  C  C279  1  0.735200  0.944600  0.570000  1.0  -0.0245
  C  C280  1  0.166100  0.478600  0.191200  1.0  -0.0547
  C  C281  1  0.745200  0.885900  0.277500  1.0  -0.0553
  C  C282  1  0.357300  0.808800  0.978600  1.0  -0.0561
  C  C283  1  0.631900  0.384900  0.077100  1.0  0.7207
  C  C284  1  0.291000  0.077100  0.115100  1.0  0.7187
  C  C285  1  0.200900  0.543700  0.181300  1.0  0.0419
  C  C286  1  0.833900  0.521400  0.808800  1.0  -0.054
  C  C287  1  0.591100  0.830300  0.318500  1.0  -0.1846
  C  C288  1  0.642700  0.191200  0.021400  1.0  -0.0554
  C  C289  1  0.088600  0.516400  0.645200  1.0  -0.4558
  C  C290  1  0.819900  0.782000  0.081200  1.0  -0.0483
  C  C291  1  0.803000  0.645800  0.264600  1.0  -0.3773
  C  C292  1  0.730700  0.665300  0.394100  1.0  -0.1439
  C  C293  1  0.305200  0.430000  0.444600  1.0  -0.0253
  C  C294  1  0.644700  0.691200  0.521400  1.0  -0.057
  C  C295  1  0.348300  0.986100  0.893100  1.0  -0.1583
  C  C296  1  0.448800  0.764600  0.354200  1.0  -0.3744
  C  C297  1  0.316900  0.608800  0.196600  1.0  0.0185
  C  C298  1  0.513500  0.803400  0.108800  1.0  0.0205
  C  C299  1  0.605000  0.145200  0.483600  1.0  -0.4582
  C  C300  1  0.377700  0.108800  0.696600  1.0  0.0172
  C  C301  1  0.709900  0.165300  0.894100  1.0  -0.1453
  C  C302  1  0.266200  0.645200  0.983600  1.0  -0.4536
  C  C303  1  0.659400  0.890300  0.110300  1.0  -0.0116
  C  C304  1  0.213400  0.854200  0.235400  1.0  -0.3765
  C  C305  1  0.770500  0.441900  0.573700  1.0  -0.1453
  C  C306  1  0.202900  0.358300  0.160900  1.0  -0.1894
  C  C307  1  0.299400  0.544400  0.192800  1.0  0.1945
  C  C308  1  0.518900  0.170200  0.664000  1.0  0.0729
  C  C309  1  0.925700  0.696600  0.391200  1.0  0.0174
  C  C310  1  0.593900  0.115100  0.422900  1.0  0.72
  C  C311  1  0.438800  0.339100  0.358300  1.0  -0.1902
  C  C312  1  0.713900  0.941900  0.073700  1.0  -0.1461
  C  C313  1  0.463400  0.044400  0.692800  1.0  0.1946
  C  C314  1  0.816900  0.282000  0.581200  1.0  -0.0486
  C  C315  1  0.817100  0.664000  0.329800  1.0  0.0741
  C  C316  1  0.797100  0.641700  0.839100  1.0  -0.1866
  C  C317  1  0.536600  0.955600  0.307200  1.0  0.1942
  C  C318  1  0.403900  0.464300  0.718900  1.0  0.727
  C  C319  1  0.334400  0.393100  0.013900  1.0  -0.1568
  C  C320  1  0.222100  0.141700  0.339100  1.0  -0.1868
  C  C321  1  0.932400  0.264600  0.854200  1.0  -0.3746
  C  C322  1  0.197000  0.354200  0.735400  1.0  -0.3764
  C  C323  1  0.368900  0.222500  0.885900  1.0  -0.0537
  C  C324  1  0.877200  0.718900  0.035700  1.0  0.7149
  C  C325  1  0.022700  0.722500  0.385900  1.0  -0.0516
  C  C326  1  0.249800  0.016400  0.145200  1.0  -0.453
  C  C327  1  0.596100  0.535700  0.281100  1.0  0.7261
  C  C328  1  0.703400  0.709300  0.852500  1.0  0.7327
  C  C329  1  0.655800  0.573700  0.058100  1.0  -0.1435
  C  C330  1  0.551200  0.235400  0.645800  1.0  -0.3754
  C  C331  1  0.255400  0.318700  0.543700  1.0  0.0425
  C  C332  1  0.067600  0.735400  0.145800  1.0  -0.3759
  C  C333  1  0.412700  0.352500  0.290700  1.0  0.7346
  C  C334  1  0.234800  0.209300  0.352500  1.0  0.7311
  C  C335  1  0.229500  0.558100  0.426300  1.0  -0.1456
  C  C336  1  0.355300  0.308800  0.478600  1.0  -0.0557
  C  C337  1  0.122800  0.281100  0.964300  1.0  0.7175
  C  C338  1  0.786600  0.145800  0.764600  1.0  -0.3779
  C  C339  1  0.983200  0.422900  0.384900  1.0  0.7195
  C  C340  1  0.290100  0.834700  0.105900  1.0  -0.1431
  C  C341  1  0.555900  0.147500  0.209300  1.0  0.7362
  C  C342  1  0.591400  0.385900  0.777500  1.0  -0.0539
  C  C343  1  0.758600  0.893100  0.513900  1.0  -0.1564
  C  C344  1  0.090400  0.318500  0.669700  1.0  -0.1886
  C  C345  1  0.182900  0.336000  0.670200  1.0  0.0739
  C  C346  1  0.840000  0.390300  0.610300  1.0  -0.0119
  C  C347  1  0.679800  0.070000  0.055400  1.0  -0.0235
  C  C348  1  0.406100  0.884900  0.577100  1.0  0.7224
  C  C349  1  0.363800  0.839100  0.858300  1.0  -0.1861
  C  C350  1  0.146900  0.670200  0.164000  1.0  0.0729
  C  C351  1  0.087100  0.035700  0.781100  1.0  0.7174
  C  C352  1  0.909600  0.681500  0.330300  1.0  -0.1913
  C  C353  1  0.683100  0.391200  0.803400  1.0  0.0182
  C  C354  1  0.269300  0.334700  0.605900  1.0  -0.1469
  C  C355  1  0.296600  0.290700  0.147500  1.0  0.7314
  C  C356  1  0.421400  0.818500  0.169700  1.0  -0.185
  C  C357  1  0.777900  0.858300  0.660900  1.0  -0.1882
  C  C358  1  0.700600  0.455600  0.807200  1.0  0.1942
  C  C359  1  0.408600  0.614100  0.222500  1.0  -0.0566
  C  C360  1  0.395000  0.854800  0.516400  1.0  -0.4593
  N  N361  1  0.612620  0.142370  0.079790  1.0  -0.1413
  N  N362  1  0.474200  0.423300  0.819500  1.0  -0.2101
  N  N363  1  0.217000  0.076700  0.680500  1.0  -0.2092
  N  N364  1  0.783000  0.923300  0.319500  1.0  -0.2105
  N  N365  1  0.293700  0.180500  0.923300  1.0  -0.2085
  N  N366  1  0.706300  0.819500  0.076700  1.0  -0.2038
  N  N367  1  0.334780  0.357630  0.420210  1.0  -0.1418
  N  N368  1  0.754990  0.579790  0.857630  1.0  -0.1415
  N  N369  1  0.525800  0.576700  0.180500  1.0  -0.2095
  N  N370  1  0.307590  0.079790  0.357630  1.0  -0.1394
  N  N371  1  0.102500  0.680500  0.423300  1.0  -0.2107
  N  N372  1  0.897500  0.319500  0.576700  1.0  -0.206
  N  N373  1  0.387380  0.857630  0.920210  1.0  -0.1392
  N  N374  1  0.692410  0.920210  0.642370  1.0  -0.1413
  N  N375  1  0.245010  0.420210  0.142370  1.0  -0.1401
  N  N376  1  0.665220  0.642370  0.579790  1.0  -0.1399
  O  O377  1  0.430600  0.520500  0.720300  1.0  -0.5822
  O  O378  1  0.569400  0.479500  0.279700  1.0  -0.5836
  O  O379  1  0.461700  0.143520  0.209880  1.0  -0.5979
  O  O380  1  0.079500  0.419300  0.380300  1.0  -0.5889
  O  O381  1  0.488800  0.357690  0.236510  1.0  -0.6498
  O  O382  1  0.684900  0.643520  0.709880  1.0  -0.5968
  O  O383  1  0.849100  0.720300  0.979500  1.0  -0.5818
  O  O384  1  0.583000  0.142310  0.263490  1.0  -0.6518
  O  O385  1  0.538300  0.856480  0.790120  1.0  -0.598
  O  O386  1  0.383600  0.447000  0.669400  1.0  -0.5653
  O  O387  1  0.328420  0.209880  0.356480  1.0  -0.5978
  O  O388  1  0.274690  0.236510  0.142310  1.0  -0.6481
  O  O389  1  0.048900  0.779700  0.520500  1.0  -0.5865
  O  O390  1  0.379100  0.080700  0.119700  1.0  -0.59
  O  O391  1  0.688000  0.084700  0.377500  1.0  -0.613
  O  O392  1  0.153510  0.263490  0.357690  1.0  -0.6523
  O  O393  1  0.000000  0.947000  0.169400  1.0  -0.5689
  O  O394  1  0.053000  0.330600  0.947000  1.0  -0.5646
  O  O395  1  0.616400  0.553000  0.330600  1.0  -0.5637
  O  O396  1  0.920500  0.580700  0.619700  1.0  -0.5879
  O  O397  1  0.934500  0.377500  0.415300  1.0  -0.6137
  O  O398  1  0.169400  0.830600  0.447000  1.0  -0.5642
  O  O399  1  0.374670  0.483900  0.203560  1.0  -0.6515
  O  O400  1  0.605220  0.709880  0.856480  1.0  -0.5962
  O  O401  1  0.394780  0.290120  0.143520  1.0  -0.5977
  O  O402  1  0.498800  0.880300  0.580700  1.0  -0.5897
  O  O403  1  0.511200  0.642310  0.763490  1.0  -0.6499
  O  O404  1  0.625330  0.516100  0.796440  1.0  -0.6501
  O  O405  1  0.065500  0.622500  0.584700  1.0  -0.6132
  O  O406  1  0.459800  0.619700  0.919300  1.0  -0.5898
  O  O407  1  0.349800  0.584700  0.877500  1.0  -0.6202
  O  O408  1  0.858570  0.703560  0.516100  1.0  -0.651
  O  O409  1  0.540200  0.380300  0.080700  1.0  -0.5879
  O  O410  1  0.501200  0.119700  0.419300  1.0  -0.5892
  O  O411  1  0.620900  0.919300  0.880300  1.0  -0.5881
  O  O412  1  0.000000  0.053000  0.830600  1.0  -0.5641
  O  O413  1  0.947000  0.669400  0.053000  1.0  -0.5667
  O  O414  1  0.150900  0.279700  0.020500  1.0  -0.5803
  O  O415  1  0.437870  0.983900  0.703560  1.0  -0.6504
  O  O416  1  0.421770  0.203560  0.016100  1.0  -0.6497
  O  O417  1  0.141430  0.296440  0.483900  1.0  -0.6512
  O  O418  1  0.171400  0.979500  0.779700  1.0  -0.5786
  O  O419  1  0.227300  0.122500  0.084700  1.0  -0.6121
  O  O420  1  0.312000  0.915300  0.622500  1.0  -0.6114
  O  O421  1  0.671580  0.790120  0.643520  1.0  -0.5978
  O  O422  1  0.772700  0.877500  0.915300  1.0  -0.6116
  O  O423  1  0.315100  0.356480  0.290120  1.0  -0.5965
  O  O424  1  0.830600  0.169400  0.553000  1.0  -0.5652
  O  O425  1  0.417000  0.857690  0.736510  1.0  -0.6527
  O  O426  1  0.828600  0.020500  0.220300  1.0  -0.5789
  O  O427  1  0.725310  0.763490  0.857690  1.0  -0.6512
  O  O428  1  0.650200  0.415300  0.122500  1.0  -0.6195
  O  O429  1  0.846490  0.736510  0.642310  1.0  -0.653
  O  O430  1  0.562130  0.016100  0.296440  1.0  -0.6507
  O  O431  1  0.578230  0.796440  0.983900  1.0  -0.6508
  O  O432  1  0.951100  0.220300  0.479500  1.0  -0.5862
