# generated using pymatgen
data_ZnH6(CN2)4
_symmetry_space_group_name_H-M   'P 1'
_cell_length_a   13.29250000
_cell_length_b   13.66000000
_cell_length_c   9.56310000
_cell_angle_alpha   90.00000000
_cell_angle_beta   126.84000000
_cell_angle_gamma   90.00000000
_symmetry_Int_Tables_number   1
_chemical_formula_structural   ZnH6(CN2)4
_chemical_formula_sum   'Zn4 H24 C16 N32'
_cell_volume   1389.68357748
_cell_formula_units_Z   4
loop_
 _symmetry_equiv_pos_site_id
 _symmetry_equiv_pos_as_xyz
  1  'x, y, z'
loop_
 _atom_site_type_symbol
 _atom_site_label
 _atom_site_symmetry_multiplicity
 _atom_site_fract_x
 _atom_site_fract_y
 _atom_site_fract_z
 _atom_site_occupancy
 _atom_site_charge
  Zn  Zn1  1  0.166400  0.356450  0.870100  1.0  0.7987
  Zn  Zn2  1  0.666400  0.856450  0.870100  1.0  0.7989
  Zn  Zn3  1  0.166400  0.643550  0.370100  1.0  0.7987
  Zn  Zn4  1  0.666400  0.143550  0.370100  1.0  0.7986
  H  H5  1  0.014300  0.367300  0.463900  1.0  0.1351
  H  H6  1  0.065200  0.401700  0.360600  1.0  0.1301
  H  H7  1  0.957700  0.460600  0.345100  1.0  0.1396
  H  H8  1  0.435900  0.430800  0.102500  1.0  0.1372
  H  H9  1  0.557200  0.380200  0.145100  1.0  0.1395
  H  H10  1  0.541800  0.396400  0.293600  1.0  0.1426
  H  H11  1  0.514300  0.867300  0.463900  1.0  0.1351
  H  H12  1  0.565200  0.901700  0.360600  1.0  0.1301
  H  H13  1  0.457700  0.960600  0.345100  1.0  0.1396
  H  H14  1  0.935900  0.930800  0.102500  1.0  0.1372
  H  H15  1  0.057200  0.880200  0.145100  1.0  0.1395
  H  H16  1  0.041800  0.896400  0.293600  1.0  0.1426
  H  H17  1  0.014300  0.632700  0.963900  1.0  0.1356
  H  H18  1  0.065200  0.598300  0.860600  1.0  0.13
  H  H19  1  0.957700  0.539400  0.845100  1.0  0.1402
  H  H20  1  0.435900  0.569200  0.602500  1.0  0.1372
  H  H21  1  0.557200  0.619800  0.645100  1.0  0.1399
  H  H22  1  0.541800  0.603600  0.793600  1.0  0.1428
  H  H23  1  0.514300  0.132700  0.963900  1.0  0.1356
  H  H24  1  0.565200  0.098300  0.860600  1.0  0.13
  H  H25  1  0.457700  0.039400  0.845100  1.0  0.1402
  H  H26  1  0.935900  0.069200  0.602500  1.0  0.1372
  H  H27  1  0.057200  0.119800  0.645100  1.0  0.1399
  H  H28  1  0.041800  0.103600  0.793600  1.0  0.1428
  C  C29  1  0.033000  0.423200  0.422300  1.0  -0.47
  C  C30  1  0.435600  0.283300  0.132300  1.0  0.4305
  C  C31  1  0.127700  0.484500  0.571800  1.0  0.4245
  C  C32  1  0.498300  0.381600  0.172000  1.0  -0.4582
  C  C33  1  0.533000  0.923200  0.422300  1.0  -0.47
  C  C34  1  0.935600  0.783300  0.132300  1.0  0.4305
  C  C35  1  0.627700  0.984500  0.571800  1.0  0.4245
  C  C36  1  0.998300  0.881600  0.172000  1.0  -0.4582
  C  C37  1  0.033000  0.576800  0.922300  1.0  -0.4697
  C  C38  1  0.435600  0.716700  0.632300  1.0  0.4305
  C  C39  1  0.127700  0.515500  0.071800  1.0  0.4246
  C  C40  1  0.498300  0.618400  0.672000  1.0  -0.4588
  C  C41  1  0.533000  0.076800  0.922300  1.0  -0.4697
  C  C42  1  0.935600  0.216700  0.632300  1.0  0.4305
  C  C43  1  0.627700  0.015500  0.071800  1.0  0.4246
  C  C44  1  0.998300  0.118400  0.672000  1.0  -0.4588
  N  N45  1  0.494100  0.200400  0.208900  1.0  -0.304
  N  N46  1  0.312500  0.268200  0.020700  1.0  -0.2702
  N  N47  1  0.180700  0.465000  0.738200  1.0  -0.2716
  N  N48  1  0.176300  0.567700  0.562200  1.0  -0.3039
  N  N49  1  0.261000  0.598300  0.729600  1.0  -0.1113
  N  N50  1  0.402300  0.130300  0.136900  1.0  -0.0574
  N  N51  1  0.262900  0.537800  0.834800  1.0  -0.1517
  N  N52  1  0.295700  0.170700  0.026100  1.0  -0.08
  N  N53  1  0.994100  0.700400  0.208900  1.0  -0.304
  N  N54  1  0.812500  0.768200  0.020700  1.0  -0.2702
  N  N55  1  0.680700  0.965000  0.738200  1.0  -0.2716
  N  N56  1  0.676300  0.067700  0.562200  1.0  -0.3039
  N  N57  1  0.761000  0.098300  0.729600  1.0  -0.1113
  N  N58  1  0.902300  0.630300  0.136900  1.0  -0.0574
  N  N59  1  0.762900  0.037800  0.834800  1.0  -0.1517
  N  N60  1  0.795700  0.670700  0.026100  1.0  -0.08
  N  N61  1  0.494100  0.799600  0.708900  1.0  -0.3041
  N  N62  1  0.312500  0.731800  0.520700  1.0  -0.2702
  N  N63  1  0.180700  0.535000  0.238200  1.0  -0.2718
  N  N64  1  0.176300  0.432300  0.062200  1.0  -0.3043
  N  N65  1  0.261000  0.401700  0.229600  1.0  -0.1121
  N  N66  1  0.402300  0.869700  0.636900  1.0  -0.0579
  N  N67  1  0.262900  0.462200  0.334800  1.0  -0.1503
  N  N68  1  0.295700  0.829300  0.526100  1.0  -0.0798
  N  N69  1  0.994100  0.299600  0.708900  1.0  -0.3041
  N  N70  1  0.812500  0.231800  0.520700  1.0  -0.2702
  N  N71  1  0.680700  0.035000  0.238200  1.0  -0.2718
  N  N72  1  0.676300  0.932300  0.062200  1.0  -0.3043
  N  N73  1  0.761000  0.901700  0.229600  1.0  -0.1121
  N  N74  1  0.902300  0.369700  0.636900  1.0  -0.0579
  N  N75  1  0.762900  0.962200  0.334800  1.0  -0.1503
  N  N76  1  0.795700  0.329300  0.526100  1.0  -0.0798
