# generated using pymatgen
data_Zn2H13C25O12
_symmetry_space_group_name_H-M   'P 1'
_cell_length_a   17.49300000
_cell_length_b   15.09200000
_cell_length_c   23.74500000
_cell_angle_alpha   90.00000000
_cell_angle_beta   97.06000000
_cell_angle_gamma   90.00000000
_symmetry_Int_Tables_number   1
_chemical_formula_structural   Zn2H13C25O12
_chemical_formula_sum   'Zn8 H52 C100 O48'
_cell_volume   6221.25343048
_cell_formula_units_Z   4
loop_
 _symmetry_equiv_pos_site_id
 _symmetry_equiv_pos_as_xyz
  1  'x, y, z'
loop_
 _atom_site_type_symbol
 _atom_site_label
 _atom_site_symmetry_multiplicity
 _atom_site_fract_x
 _atom_site_fract_y
 _atom_site_fract_z
 _atom_site_occupancy
 _atom_site_charge
  Zn  Zn1  1  0.166250  0.866690  0.482190  1.0  1.0867
  Zn  Zn2  1  0.310190  0.933530  0.410300  1.0  1.0738
  Zn  Zn3  1  0.833750  0.366690  0.017810  1.0  1.0867
  Zn  Zn4  1  0.689810  0.433530  0.089700  1.0  1.0762
  Zn  Zn5  1  0.833750  0.133310  0.517810  1.0  1.0857
  Zn  Zn6  1  0.689810  0.066470  0.589700  1.0  1.0762
  Zn  Zn7  1  0.166250  0.633310  0.982190  1.0  1.087
  Zn  Zn8  1  0.310190  0.566470  0.910300  1.0  1.0736
  H  H9  1  0.344100  0.676700  0.347800  1.0  0.1063
  H  H10  1  0.266000  0.426900  0.342800  1.0  0.1092
  H  H11  1  0.169300  0.608900  0.433500  1.0  0.1067
  H  H12  1  0.417100  0.558300  0.304800  1.0  0.0727
  H  H13  1  0.381100  0.462500  0.298200  1.0  0.0769
  H  H14  1  0.459400  0.522200  0.065000  1.0  0.0967
  H  H15  1  0.474300  0.497000  0.234000  1.0  0.1212
  H  H16  1  0.275100  0.578700  0.145300  1.0  0.1293
  H  H17  1  0.142700  0.450900  0.447600  1.0  0.068
  H  H18  1  0.101800  0.447300  0.384700  1.0  0.0735
  H  H19  1  0.044800  0.081600  0.458000  1.0  0.1061
  H  H20  1  0.045000  0.345000  0.439000  1.0  0.1101
  H  H21  1  0.222500  0.202000  0.399600  1.0  0.1224
  H  H22  1  0.655900  0.176700  0.152200  1.0  0.1062
  H  H23  1  0.734000  0.926900  0.157200  1.0  0.1097
  H  H24  1  0.830700  0.108900  0.066500  1.0  0.1068
  H  H25  1  0.582900  0.058300  0.195200  1.0  0.0731
  H  H26  1  0.618900  0.962500  0.201800  1.0  0.0766
  H  H27  1  0.540600  0.022200  0.435000  1.0  0.0968
  H  H28  1  0.525700  0.997000  0.266000  1.0  0.1224
  H  H29  1  0.724900  0.078700  0.354700  1.0  0.1287
  H  H30  1  0.857300  0.950900  0.052400  1.0  0.0681
  H  H31  1  0.898200  0.947300  0.115300  1.0  0.075
  H  H32  1  0.955200  0.581600  0.042000  1.0  0.106
  H  H33  1  0.955000  0.845000  0.061000  1.0  0.11
  H  H34  1  0.777500  0.702000  0.100400  1.0  0.1231
  H  H35  1  0.655900  0.323300  0.652200  1.0  0.106
  H  H36  1  0.734000  0.573100  0.657200  1.0  0.1092
  H  H37  1  0.830700  0.391100  0.566500  1.0  0.1066
  H  H38  1  0.582900  0.441700  0.695200  1.0  0.0728
  H  H39  1  0.618900  0.537500  0.701800  1.0  0.0779
  H  H40  1  0.540600  0.477800  0.935000  1.0  0.0968
  H  H41  1  0.525700  0.503000  0.766000  1.0  0.1217
  H  H42  1  0.724900  0.421300  0.854700  1.0  0.1281
  H  H43  1  0.857300  0.549100  0.552400  1.0  0.069
  H  H44  1  0.898200  0.552700  0.615300  1.0  0.0748
  H  H45  1  0.955200  0.918400  0.542000  1.0  0.1052
  H  H46  1  0.955000  0.655000  0.561000  1.0  0.11
  H  H47  1  0.777500  0.798000  0.600400  1.0  0.123
  H  H48  1  0.344100  0.823300  0.847800  1.0  0.1063
  H  H49  1  0.266000  0.073100  0.842800  1.0  0.1091
  H  H50  1  0.169300  0.891100  0.933500  1.0  0.1068
  H  H51  1  0.417100  0.941700  0.804800  1.0  0.0721
  H  H52  1  0.381100  0.037500  0.798200  1.0  0.0778
  H  H53  1  0.459400  0.977800  0.565000  1.0  0.0966
  H  H54  1  0.474300  0.003000  0.734000  1.0  0.1207
  H  H55  1  0.275100  0.921300  0.645300  1.0  0.1299
  H  H56  1  0.142700  0.049100  0.947600  1.0  0.068
  H  H57  1  0.101800  0.052700  0.884700  1.0  0.0735
  H  H58  1  0.044800  0.418400  0.958000  1.0  0.1056
  H  H59  1  0.045000  0.155000  0.939000  1.0  0.111
  H  H60  1  0.222500  0.298000  0.899600  1.0  0.1223
  C  C61  1  0.248200  0.751400  0.412200  1.0  0.7321
  C  C62  1  0.254100  0.657600  0.392500  1.0  -0.1512
  C  C63  1  0.309900  0.634200  0.358100  1.0  -0.0416
  C  C64  1  0.314500  0.548400  0.339400  1.0  0.0779
  C  C65  1  0.263400  0.485000  0.355600  1.0  -0.091
  C  C66  1  0.209100  0.508300  0.390600  1.0  0.1072
  C  C67  1  0.205200  0.593800  0.409300  1.0  -0.0611
  C  C68  1  0.369400  0.525300  0.296800  1.0  0.0522
  C  C69  1  0.313400  0.578000  0.040500  1.0  0.7285
  C  C70  1  0.562000  0.475200  0.151500  1.0  0.6534
  C  C71  1  0.360800  0.556300  0.095300  1.0  -0.1712
  C  C72  1  0.436700  0.527000  0.098300  1.0  0.034
  C  C73  1  0.478200  0.505200  0.148200  1.0  -0.1692
  C  C74  1  0.445600  0.511600  0.199600  1.0  -0.187
  C  C75  1  0.371000  0.539700  0.197900  1.0  0.2884
  C  C76  1  0.326200  0.561400  0.146000  1.0  -0.0894
  C  C77  1  0.150800  0.441200  0.408400  1.0  0.0439
  C  C78  1  0.183400  0.041200  0.429400  1.0  0.7364
  C  C79  1  0.954800  0.219800  0.472200  1.0  0.6779
  C  C80  1  0.140500  0.128800  0.429900  1.0  -0.1591
  C  C81  1  0.069400  0.133200  0.448600  1.0  -0.0205
  C  C82  1  0.034700  0.213400  0.453300  1.0  -0.137
  C  C83  1  0.069700  0.290700  0.437100  1.0  -0.1542
  C  C84  1  0.141000  0.286500  0.418300  1.0  0.3261
  C  C85  1  0.175300  0.205500  0.413700  1.0  -0.074
  C  C86  1  0.751800  0.251400  0.087800  1.0  0.7318
  C  C87  1  0.745900  0.157600  0.107500  1.0  -0.1512
  C  C88  1  0.690100  0.134200  0.141900  1.0  -0.0421
  C  C89  1  0.685500  0.048400  0.160600  1.0  0.0784
  C  C90  1  0.736600  0.985000  0.144400  1.0  -0.0913
  C  C91  1  0.790900  0.008300  0.109400  1.0  0.1083
  C  C92  1  0.794800  0.093800  0.090700  1.0  -0.0608
  C  C93  1  0.630600  0.025300  0.203200  1.0  0.0505
  C  C94  1  0.686600  0.078000  0.459500  1.0  0.7279
  C  C95  1  0.438000  0.975200  0.348500  1.0  0.6542
  C  C96  1  0.639200  0.056300  0.404700  1.0  -0.1724
  C  C97  1  0.563300  0.027000  0.401700  1.0  0.0337
  C  C98  1  0.521800  0.005200  0.351800  1.0  -0.1702
  C  C99  1  0.554400  0.011600  0.300400  1.0  -0.1874
  C  C100  1  0.629000  0.039700  0.302100  1.0  0.288
  C  C101  1  0.673800  0.061400  0.354000  1.0  -0.0855
  C  C102  1  0.849200  0.941200  0.091600  1.0  0.0461
  C  C103  1  0.816600  0.541200  0.070600  1.0  0.7361
  C  C104  1  0.045200  0.719800  0.027800  1.0  0.6826
  C  C105  1  0.859500  0.628800  0.070100  1.0  -0.1599
  C  C106  1  0.930600  0.633200  0.051400  1.0  -0.0212
  C  C107  1  0.965300  0.713400  0.046700  1.0  -0.1354
  C  C108  1  0.930300  0.790700  0.062900  1.0  -0.1527
  C  C109  1  0.859000  0.786500  0.081700  1.0  0.3259
  C  C110  1  0.824700  0.705500  0.086300  1.0  -0.0748
  C  C111  1  0.751800  0.248600  0.587800  1.0  0.732
  C  C112  1  0.745900  0.342400  0.607500  1.0  -0.1518
  C  C113  1  0.690100  0.365800  0.641900  1.0  -0.0409
  C  C114  1  0.685500  0.451600  0.660600  1.0  0.0785
  C  C115  1  0.736600  0.515000  0.644400  1.0  -0.0916
  C  C116  1  0.790900  0.491700  0.609400  1.0  0.1081
  C  C117  1  0.794800  0.406200  0.590700  1.0  -0.0606
  C  C118  1  0.630600  0.474700  0.703200  1.0  0.0496
  C  C119  1  0.686600  0.422000  0.959500  1.0  0.7283
  C  C120  1  0.438000  0.524800  0.848500  1.0  0.6541
  C  C121  1  0.639200  0.443700  0.904700  1.0  -0.1723
  C  C122  1  0.563300  0.473000  0.901700  1.0  0.0339
  C  C123  1  0.521800  0.494800  0.851800  1.0  -0.17
  C  C124  1  0.554400  0.488400  0.800400  1.0  -0.188
  C  C125  1  0.629000  0.460300  0.802100  1.0  0.2883
  C  C126  1  0.673800  0.438600  0.854000  1.0  -0.0854
  C  C127  1  0.849200  0.558800  0.591600  1.0  0.0464
  C  C128  1  0.816600  0.958800  0.570600  1.0  0.7364
  C  C129  1  0.045200  0.780200  0.527800  1.0  0.6785
  C  C130  1  0.859500  0.871200  0.570100  1.0  -0.1595
  C  C131  1  0.930600  0.866800  0.551400  1.0  -0.022
  C  C132  1  0.965300  0.786600  0.546700  1.0  -0.1364
  C  C133  1  0.930300  0.709300  0.562900  1.0  -0.1525
  C  C134  1  0.859000  0.713500  0.581700  1.0  0.3259
  C  C135  1  0.824700  0.794500  0.586300  1.0  -0.0747
  C  C136  1  0.248200  0.748600  0.912200  1.0  0.7321
  C  C137  1  0.254100  0.842400  0.892500  1.0  -0.1519
  C  C138  1  0.309900  0.865800  0.858100  1.0  -0.0413
  C  C139  1  0.314500  0.951600  0.839400  1.0  0.0777
  C  C140  1  0.263400  0.015000  0.855600  1.0  -0.0922
  C  C141  1  0.209100  0.991700  0.890600  1.0  0.1071
  C  C142  1  0.205200  0.906200  0.909300  1.0  -0.0604
  C  C143  1  0.369400  0.974700  0.796800  1.0  0.0514
  C  C144  1  0.313400  0.922000  0.540500  1.0  0.7289
  C  C145  1  0.562000  0.024800  0.651500  1.0  0.6528
  C  C146  1  0.360800  0.943700  0.595300  1.0  -0.172
  C  C147  1  0.436700  0.973000  0.598300  1.0  0.0341
  C  C148  1  0.478200  0.994800  0.648200  1.0  -0.1696
  C  C149  1  0.445600  0.988400  0.699600  1.0  -0.1875
  C  C150  1  0.371000  0.960300  0.697900  1.0  0.2886
  C  C151  1  0.326200  0.938600  0.646000  1.0  -0.0895
  C  C152  1  0.150800  0.058800  0.908400  1.0  0.0437
  C  C153  1  0.183400  0.458800  0.929400  1.0  0.7361
  C  C154  1  0.954800  0.280200  0.972200  1.0  0.6831
  C  C155  1  0.140500  0.371200  0.929900  1.0  -0.1588
  C  C156  1  0.069400  0.366800  0.948600  1.0  -0.0218
  C  C157  1  0.034700  0.286600  0.953300  1.0  -0.1359
  C  C158  1  0.069700  0.209300  0.937100  1.0  -0.1544
  C  C159  1  0.141000  0.213500  0.918300  1.0  0.3261
  C  C160  1  0.175300  0.294500  0.913700  1.0  -0.0743
  O  O161  1  0.191700  0.769700  0.437000  1.0  -0.6344
  O  O162  1  0.300500  0.805200  0.403100  1.0  -0.6391
  O  O163  1  0.243200  0.599400  0.042550  1.0  -0.6324
  O  O164  1  0.344800  0.571500  0.997170  1.0  -0.6077
  O  O165  1  0.599200  0.458900  0.198500  1.0  -0.5018
  O  O166  1  0.586200  0.469800  0.104040  1.0  -0.5761
  O  O167  1  0.922700  0.289000  0.474300  1.0  -0.4452
  O  O168  1  0.929800  0.144100  0.487300  1.0  -0.6057
  O  O169  1  0.249700  0.041900  0.418800  1.0  -0.5714
  O  O170  1  0.144800  0.973600  0.437000  1.0  -0.6413
  O  O171  1  0.331500  0.548500  0.243570  1.0  -0.2904
  O  O172  1  0.181700  0.356600  0.401900  1.0  -0.2729
  O  O173  1  0.808300  0.269700  0.063000  1.0  -0.6338
  O  O174  1  0.699500  0.305200  0.096900  1.0  -0.6393
  O  O175  1  0.756800  0.099400  0.457450  1.0  -0.6304
  O  O176  1  0.655200  0.071500  0.502830  1.0  -0.6071
  O  O177  1  0.400800  0.958900  0.301500  1.0  -0.5013
  O  O178  1  0.413800  0.969800  0.395960  1.0  -0.577
  O  O179  1  0.077300  0.789000  0.025700  1.0  -0.4447
  O  O180  1  0.070200  0.644100  0.012700  1.0  -0.6055
  O  O181  1  0.750300  0.541900  0.081200  1.0  -0.5714
  O  O182  1  0.855200  0.473600  0.063000  1.0  -0.641
  O  O183  1  0.668500  0.048500  0.256430  1.0  -0.2894
  O  O184  1  0.818300  0.856600  0.098100  1.0  -0.2697
  O  O185  1  0.808300  0.230300  0.563000  1.0  -0.6337
  O  O186  1  0.699500  0.194800  0.596900  1.0  -0.6393
  O  O187  1  0.756800  0.400600  0.957450  1.0  -0.6311
  O  O188  1  0.655200  0.428500  0.002830  1.0  -0.6105
  O  O189  1  0.400800  0.541100  0.801500  1.0  -0.5015
  O  O190  1  0.413800  0.530200  0.895960  1.0  -0.5771
  O  O191  1  0.077300  0.711000  0.525700  1.0  -0.4436
  O  O192  1  0.070200  0.855900  0.512700  1.0  -0.6084
  O  O193  1  0.750300  0.958100  0.581200  1.0  -0.5713
  O  O194  1  0.855200  0.026400  0.563000  1.0  -0.6415
  O  O195  1  0.668500  0.451500  0.756430  1.0  -0.2892
  O  O196  1  0.818300  0.643400  0.598100  1.0  -0.2699
  O  O197  1  0.191700  0.730300  0.937000  1.0  -0.6344
  O  O198  1  0.300500  0.694800  0.903100  1.0  -0.6383
  O  O199  1  0.243200  0.900600  0.542550  1.0  -0.6321
  O  O200  1  0.344800  0.928500  0.497170  1.0  -0.6079
  O  O201  1  0.599200  0.041100  0.698500  1.0  -0.5022
  O  O202  1  0.586200  0.030200  0.604040  1.0  -0.576
  O  O203  1  0.922700  0.211000  0.974300  1.0  -0.4444
  O  O204  1  0.929800  0.355900  0.987300  1.0  -0.6081
  O  O205  1  0.249700  0.458100  0.918800  1.0  -0.5706
  O  O206  1  0.144800  0.526400  0.937000  1.0  -0.6409
  O  O207  1  0.331500  0.951500  0.743570  1.0  -0.2912
  O  O208  1  0.181700  0.143400  0.901900  1.0  -0.273
