# generated using pymatgen
data_ZnH6(CN2)4
_symmetry_space_group_name_H-M   'P 1'
_cell_length_a   12.98900000
_cell_length_b   13.82180000
_cell_length_c   9.27660000
_cell_angle_alpha   90.00000000
_cell_angle_beta   124.43000000
_cell_angle_gamma   90.00000000
_symmetry_Int_Tables_number   1
_chemical_formula_structural   ZnH6(CN2)4
_chemical_formula_sum   'Zn4 H24 C16 N32'
_cell_volume   1373.68468049
_cell_formula_units_Z   4
loop_
 _symmetry_equiv_pos_site_id
 _symmetry_equiv_pos_as_xyz
  1  'x, y, z'
loop_
 _atom_site_type_symbol
 _atom_site_label
 _atom_site_symmetry_multiplicity
 _atom_site_fract_x
 _atom_site_fract_y
 _atom_site_fract_z
 _atom_site_occupancy
 _atom_site_charge
  Zn  Zn1  1  0.720460  0.849780  0.383180  1.0  0.8256
  Zn  Zn2  1  0.220460  0.349780  0.383180  1.0  0.8256
  Zn  Zn3  1  0.720460  0.150220  0.883180  1.0  0.8255
  Zn  Zn4  1  0.220460  0.650220  0.883180  1.0  0.8255
  H  H5  1  0.484900  0.571400  0.128200  1.0  0.1476
  H  H6  1  0.583400  0.605400  0.320500  1.0  0.153
  H  H7  1  0.609600  0.620200  0.176300  1.0  0.1491
  H  H8  1  0.559400  0.035700  0.328900  1.0  0.1532
  H  H9  1  0.614400  0.132300  0.434100  1.0  0.1466
  H  H10  1  0.510300  0.076900  0.436800  1.0  0.1357
  H  H11  1  0.984900  0.071400  0.128200  1.0  0.1476
  H  H12  1  0.083400  0.105400  0.320500  1.0  0.153
  H  H13  1  0.109600  0.120200  0.176300  1.0  0.1491
  H  H14  1  0.059400  0.535700  0.328900  1.0  0.1532
  H  H15  1  0.114400  0.632300  0.434100  1.0  0.1466
  H  H16  1  0.010300  0.576900  0.436800  1.0  0.1357
  H  H17  1  0.484900  0.428600  0.628200  1.0  0.1486
  H  H18  1  0.583400  0.394600  0.820500  1.0  0.1528
  H  H19  1  0.609600  0.379800  0.676300  1.0  0.1486
  H  H20  1  0.559400  0.964300  0.828900  1.0  0.1528
  H  H21  1  0.614400  0.867700  0.934100  1.0  0.1449
  H  H22  1  0.510300  0.923100  0.936800  1.0  0.1358
  H  H23  1  0.984900  0.928600  0.628200  1.0  0.1486
  H  H24  1  0.083400  0.894600  0.820500  1.0  0.1528
  H  H25  1  0.109600  0.879800  0.676300  1.0  0.1486
  H  H26  1  0.059400  0.464300  0.828900  1.0  0.1528
  H  H27  1  0.114400  0.367700  0.934100  1.0  0.1449
  H  H28  1  0.010300  0.423100  0.936800  1.0  0.1358
  C  C29  1  0.485100  0.716700  0.157200  1.0  0.4067
  C  C30  1  0.681500  0.012800  0.591500  1.0  0.4531
  C  C31  1  0.546200  0.619800  0.199300  1.0  -0.4668
  C  C32  1  0.582300  0.069600  0.433400  1.0  -0.4547
  C  C33  1  0.985100  0.216700  0.157200  1.0  0.4067
  C  C34  1  0.181500  0.512800  0.591500  1.0  0.4531
  C  C35  1  0.046200  0.119800  0.199300  1.0  -0.4668
  C  C36  1  0.082300  0.569600  0.433400  1.0  -0.4547
  C  C37  1  0.485100  0.283300  0.657200  1.0  0.407
  C  C38  1  0.681500  0.987200  0.091500  1.0  0.4531
  C  C39  1  0.546200  0.380200  0.699300  1.0  -0.4656
  C  C40  1  0.582300  0.930400  0.933400  1.0  -0.4552
  C  C41  1  0.985100  0.783300  0.657200  1.0  0.407
  C  C42  1  0.181500  0.487200  0.091500  1.0  0.4531
  C  C43  1  0.046200  0.880200  0.699300  1.0  -0.4656
  C  C44  1  0.082300  0.430400  0.933400  1.0  -0.4552
  N  N45  1  0.367400  0.733600  0.043900  1.0  -0.1941
  N  N46  1  0.545600  0.800600  0.232400  1.0  -0.3296
  N  N47  1  0.815400  0.966500  0.853500  1.0  -0.1036
  N  N48  1  0.725600  0.928200  0.580200  1.0  -0.328
  N  N49  1  0.811600  0.902300  0.748800  1.0  -0.1287
  N  N50  1  0.349800  0.832300  0.046900  1.0  -0.1534
  N  N51  1  0.735000  0.039500  0.756700  1.0  -0.3157
  N  N52  1  0.456300  0.871300  0.161200  1.0  -0.0946
  N  N53  1  0.867400  0.233600  0.043900  1.0  -0.1941
  N  N54  1  0.045600  0.300600  0.232400  1.0  -0.3296
  N  N55  1  0.315400  0.466500  0.853500  1.0  -0.1036
  N  N56  1  0.225600  0.428200  0.580200  1.0  -0.328
  N  N57  1  0.311600  0.402300  0.748800  1.0  -0.1287
  N  N58  1  0.849800  0.332300  0.046900  1.0  -0.1529
  N  N59  1  0.235000  0.539500  0.756700  1.0  -0.3157
  N  N60  1  0.956300  0.371300  0.161200  1.0  -0.0946
  N  N61  1  0.367400  0.266400  0.543900  1.0  -0.1938
  N  N62  1  0.545600  0.199400  0.732400  1.0  -0.3298
  N  N63  1  0.815400  0.033500  0.353500  1.0  -0.1044
  N  N64  1  0.725600  0.071800  0.080200  1.0  -0.33
  N  N65  1  0.811600  0.097700  0.248800  1.0  -0.1292
  N  N66  1  0.349800  0.167700  0.546900  1.0  -0.1541
  N  N67  1  0.735000  0.960500  0.256700  1.0  -0.316
  N  N68  1  0.456300  0.128700  0.661200  1.0  -0.0927
  N  N69  1  0.867400  0.766400  0.543900  1.0  -0.1938
  N  N70  1  0.045600  0.699400  0.732400  1.0  -0.3298
  N  N71  1  0.315400  0.533500  0.353500  1.0  -0.1044
  N  N72  1  0.225600  0.571800  0.080200  1.0  -0.33
  N  N73  1  0.311600  0.597700  0.248800  1.0  -0.1292
  N  N74  1  0.849800  0.667700  0.546900  1.0  -0.1536
  N  N75  1  0.235000  0.460500  0.256700  1.0  -0.316
  N  N76  1  0.956300  0.628700  0.661200  1.0  -0.0927
