# generated using pymatgen
data_Cd6H40C68N11O23
_symmetry_space_group_name_H-M   'P 1'
_cell_length_a   12.04800000
_cell_length_b   12.28000000
_cell_length_c   19.09200000
_cell_angle_alpha   91.92000000
_cell_angle_beta   98.10000000
_cell_angle_gamma   117.88000000
_symmetry_Int_Tables_number   1
_chemical_formula_structural   Cd6H40C68N11O23
_chemical_formula_sum   'Cd6 H40 C68 N11 O23'
_cell_volume   2455.88652764
_cell_formula_units_Z   1
loop_
 _symmetry_equiv_pos_site_id
 _symmetry_equiv_pos_as_xyz
  1  'x, y, z'
loop_
 _atom_site_type_symbol
 _atom_site_label
 _atom_site_symmetry_multiplicity
 _atom_site_fract_x
 _atom_site_fract_y
 _atom_site_fract_z
 _atom_site_occupancy
 _atom_site_charge
  Cd  Cd1  1  0.766250  0.507090  0.279210  1.0  0.9815
  Cd  Cd2  1  0.578760  0.670860  0.200260  1.0  0.9802
  Cd  Cd3  1  0.420960  0.325410  0.299190  1.0  1.0533
  Cd  Cd4  1  0.233750  0.492910  0.720790  1.0  0.9785
  Cd  Cd5  1  0.421240  0.329140  0.799750  1.0  0.982
  Cd  Cd6  1  0.579040  0.674590  0.700810  1.0  1.0516
  H  H7  1  0.704600  0.541300  0.475400  1.0  0.105
  H  H8  1  0.519600  0.765400  0.549000  1.0  0.0627
  H  H9  1  0.525100  0.742100  0.430200  1.0  0.1198
  H  H10  1  0.679100  0.475900  0.060900  1.0  0.1114
  H  H11  1  0.280100  0.223200  0.933200  1.0  0.0747
  H  H12  1  0.309500  0.245000  0.055300  1.0  0.0992
  H  H13  1  0.706900  0.582600  0.594000  1.0  0.069
  H  H14  1  0.097200  0.865500  0.327800  1.0  0.1119
  H  H15  1  0.644200  0.439500  0.939100  1.0  0.0632
  H  H16  1  0.140300  0.182500  0.196200  1.0  0.0641
  H  H17  1  0.285000  0.051100  0.343500  1.0  0.0668
  H  H18  1  0.460700  0.987900  0.318700  1.0  0.106
  H  H19  1  0.699900  0.138900  0.181400  1.0  0.1091
  H  H20  1  0.452900  0.801300  0.287700  1.0  0.0735
  H  H21  1  0.951400  0.001100  0.174200  1.0  0.1097
  H  H22  1  0.689000  0.949800  0.156100  1.0  0.0691
  H  H23  1  0.207000  0.655100  0.188600  1.0  0.1096
  H  H24  1  0.016900  0.651000  0.195500  1.0  0.0677
  H  H25  1  0.083600  0.338700  0.279300  1.0  0.1079
  H  H26  1  0.893500  0.339000  0.276400  1.0  0.0645
  H  H27  1  0.295400  0.458700  0.524600  1.0  0.1045
  H  H28  1  0.480400  0.234600  0.451000  1.0  0.0644
  H  H29  1  0.474900  0.257900  0.569800  1.0  0.12
  H  H30  1  0.320900  0.524100  0.939100  1.0  0.1114
  H  H31  1  0.719900  0.776800  0.066800  1.0  0.0727
  H  H32  1  0.690500  0.755000  0.944700  1.0  0.0993
  H  H33  1  0.293100  0.417400  0.406000  1.0  0.0678
  H  H34  1  0.902800  0.134500  0.672200  1.0  0.1119
  H  H35  1  0.355800  0.560500  0.060900  1.0  0.0662
  H  H36  1  0.859700  0.817500  0.803800  1.0  0.0643
  H  H37  1  0.715000  0.948900  0.656500  1.0  0.066
  H  H38  1  0.539300  0.012100  0.681300  1.0  0.1051
  H  H39  1  0.300100  0.861100  0.818600  1.0  0.1096
  H  H40  1  0.547100  0.198700  0.712300  1.0  0.0728
  H  H41  1  0.048600  0.998900  0.825800  1.0  0.1099
  H  H42  1  0.311000  0.050200  0.843900  1.0  0.0699
  H  H43  1  0.793000  0.344900  0.811400  1.0  0.1092
  H  H44  1  0.983100  0.349000  0.804500  1.0  0.068
  H  H45  1  0.916400  0.661300  0.720700  1.0  0.1062
  H  H46  1  0.106500  0.661000  0.723600  1.0  0.0642
  C  C47  1  0.613200  0.612200  0.360560  1.0  0.6735
  C  C48  1  0.614100  0.637700  0.438890  1.0  -0.0781
  C  C49  1  0.496500  0.367300  0.072000  1.0  -0.0639
  C  C50  1  0.512400  0.392700  0.151160  1.0  0.6687
  C  C51  1  0.294300  0.499800  0.235090  1.0  0.6707
  C  C52  1  0.668100  0.588700  0.489340  1.0  -0.1482
  C  C53  1  0.169700  0.498200  0.233100  1.0  -0.1092
  C  C54  1  0.558300  0.720900  0.533900  1.0  0.161
  C  C55  1  0.560000  0.706300  0.462360  1.0  -0.1625
  C  C56  1  0.592500  0.210200  0.275000  1.0  0.6951
  C  C57  1  0.597200  0.423800  0.035960  1.0  -0.1826
  C  C58  1  0.361500  0.273800  0.959100  1.0  0.1438
  C  C59  1  0.876400  0.794600  0.239200  1.0  0.7212
  C  C60  1  0.378300  0.288500  0.032500  1.0  -0.1156
  C  C61  1  0.002200  0.913400  0.249800  1.0  -0.0775
  C  C62  1  0.666667  0.611700  0.560330  1.0  0.152
  C  C63  1  0.103800  0.928900  0.300400  1.0  -0.1551
  C  C64  1  0.575300  0.402400  0.962660  1.0  0.1714
  C  C65  1  0.583900  0.085500  0.254600  1.0  -0.0847
  C  C66  1  0.131500  0.118000  0.223000  1.0  0.1621
  C  C67  1  0.216300  0.041300  0.309800  1.0  0.1598
  C  C68  1  0.508000  0.982300  0.285600  1.0  -0.1366
  C  C69  1  0.650400  0.071800  0.204400  1.0  -0.1324
  C  C70  1  0.503800  0.870400  0.266500  1.0  0.1495
  C  C71  1  0.017300  0.009500  0.209700  1.0  -0.1424
  C  C72  1  0.642100  0.957400  0.188900  1.0  0.1504
  C  C73  1  0.145600  0.590400  0.208000  1.0  -0.1509
  C  C74  1  0.030100  0.586700  0.211700  1.0  0.1573
  C  C75  1  0.072100  0.402500  0.260800  1.0  -0.1606
  C  C76  1  0.959100  0.404900  0.260100  1.0  0.16
  C  C77  1  0.975900  0.568000  0.413000  1.0  0.6316
  C  C78  1  0.034000  0.548300  0.482600  1.0  0.2852
  C  C79  1  0.800700  0.398200  0.420800  1.0  0.1994
  C  C80  1  0.856600  0.380000  0.487100  1.0  0.1297
  C  C81  1  0.386800  0.387800  0.639440  1.0  0.673
  C  C82  1  0.385900  0.362300  0.561110  1.0  -0.0795
  C  C83  1  0.503500  0.632700  0.928000  1.0  -0.0614
  C  C84  1  0.487600  0.607300  0.848840  1.0  0.6669
  C  C85  1  0.705700  0.500200  0.764910  1.0  0.6718
  C  C86  1  0.331900  0.411300  0.510660  1.0  -0.1459
  C  C87  1  0.830300  0.501800  0.766900  1.0  -0.1097
  C  C88  1  0.441700  0.279100  0.466100  1.0  0.161
  C  C89  1  0.440000  0.293700  0.537640  1.0  -0.1572
  C  C90  1  0.407500  0.789800  0.725000  1.0  0.695
  C  C91  1  0.402800  0.576200  0.964040  1.0  -0.1821
  C  C92  1  0.638500  0.726200  0.040900  1.0  0.143
  C  C93  1  0.123600  0.205400  0.760800  1.0  0.7208
  C  C94  1  0.621700  0.711500  0.967500  1.0  -0.1166
  C  C95  1  0.997800  0.086600  0.750200  1.0  -0.0744
  C  C96  1  0.333333  0.388300  0.439670  1.0  0.1496
  C  C97  1  0.896200  0.071100  0.699600  1.0  -0.1549
  C  C98  1  0.424700  0.597600  0.037340  1.0  0.1711
  C  C99  1  0.416100  0.914500  0.745400  1.0  -0.0856
  C  C100  1  0.868500  0.882000  0.777000  1.0  0.1623
  C  C101  1  0.783700  0.958700  0.690200  1.0  0.1582
  C  C102  1  0.492000  0.017700  0.714400  1.0  -0.1376
  C  C103  1  0.349600  0.928200  0.795600  1.0  -0.1337
  C  C104  1  0.496200  0.129600  0.733500  1.0  0.1504
  C  C105  1  0.982700  0.990500  0.790300  1.0  -0.1433
  C  C106  1  0.357900  0.042600  0.811100  1.0  0.15
  C  C107  1  0.854400  0.409600  0.792000  1.0  -0.1509
  C  C108  1  0.969900  0.413300  0.788300  1.0  0.1583
  C  C109  1  0.927900  0.597500  0.739200  1.0  -0.1624
  C  C110  1  0.040900  0.595100  0.739900  1.0  0.1594
  C  C111  1  0.024100  0.432000  0.587000  1.0  0.6353
  C  C112  1  0.966000  0.451700  0.517400  1.0  0.2951
  C  C113  1  0.199300  0.601800  0.579200  1.0  0.1826
  C  C114  1  0.143400  0.620000  0.512900  1.0  0.1274
  N  N115  1  0.459000  0.330300  0.923870  1.0  -0.364
  N  N116  1  0.230100  0.135600  0.272490  1.0  -0.3569
  N  N117  1  0.609800  0.674100  0.582670  1.0  -0.3709
  N  N118  1  0.569900  0.856800  0.218740  1.0  -0.3607
  N  N119  1  0.937700  0.496200  0.237300  1.0  -0.3663
  N  N120  1  0.857300  0.490600  0.389700  1.0  -0.2441
  N  N121  1  0.541000  0.669700  0.076130  1.0  -0.3663
  N  N122  1  0.769900  0.864400  0.727510  1.0  -0.3547
  N  N123  1  0.390200  0.325900  0.417330  1.0  -0.374
  N  N124  1  0.430100  0.143200  0.781260  1.0  -0.3633
  N  N125  1  0.062300  0.503800  0.762700  1.0  -0.3693
  O  O126  1  0.430800  0.314800  0.181330  1.0  -0.5956
  O  O127  1  0.615800  0.513900  0.341420  1.0  -0.6961
  O  O128  1  0.610300  0.493700  0.181080  1.0  -0.7125
  O  O129  1  0.522800  0.212400  0.316140  1.0  -0.6069
  O  O130  1  0.607000  0.688200  0.320930  1.0  -0.5858
  O  O131  1  0.319200  0.437400  0.279180  1.0  -0.6553
  O  O132  1  0.365200  0.564700  0.193560  1.0  -0.6642
  O  O133  1  0.786000  0.791700  0.197300  1.0  -0.6096
  O  O134  1  0.670000  0.299700  0.247900  1.0  -0.6455
  O  O135  1  0.874200  0.710400  0.275740  1.0  -0.6867
  O  O136  1  0.032700  0.652500  0.384600  1.0  -0.4606
  O  O137  1  0.142700  0.509400  0.610300  1.0  -0.513
  O  O138  1  0.569200  0.685200  0.818670  1.0  -0.5953
  O  O139  1  0.384200  0.486100  0.658580  1.0  -0.6947
  O  O140  1  0.389700  0.506300  0.818920  1.0  -0.7134
  O  O141  1  0.477200  0.787600  0.683860  1.0  -0.6069
  O  O142  1  0.393000  0.311800  0.679070  1.0  -0.5864
  O  O143  1  0.680800  0.562600  0.720820  1.0  -0.655
  O  O144  1  0.634800  0.435300  0.806440  1.0  -0.6621
  O  O145  1  0.214000  0.208300  0.802700  1.0  -0.6093
  O  O146  1  0.330000  0.700300  0.752100  1.0  -0.6451
  O  O147  1  0.125800  0.289600  0.724260  1.0  -0.6858
  O  O148  1  0.967300  0.347500  0.615400  1.0  -0.4575
