# generated using pymatgen
data_MnAg2H4(C5N3)2
_symmetry_space_group_name_H-M   'P 1'
_cell_length_a   7.58310000
_cell_length_b   13.79890000
_cell_length_c   31.08640000
_cell_angle_alpha   90.00000000
_cell_angle_beta   90.00000000
_cell_angle_gamma   90.00000000
_symmetry_Int_Tables_number   1
_chemical_formula_structural   MnAg2H4(C5N3)2
_chemical_formula_sum   'Mn8 Ag16 H32 C80 N48'
_cell_volume   3252.83235738
_cell_formula_units_Z   8
loop_
 _symmetry_equiv_pos_site_id
 _symmetry_equiv_pos_as_xyz
  1  'x, y, z'
loop_
 _atom_site_type_symbol
 _atom_site_label
 _atom_site_symmetry_multiplicity
 _atom_site_fract_x
 _atom_site_fract_y
 _atom_site_fract_z
 _atom_site_occupancy
 _atom_site_charge
  Mn  Mn1  1  0.946000  0.087020  0.250000  1.0  1.1992
  Mn  Mn2  1  0.554000  0.587020  0.750000  1.0  1.2
  Mn  Mn3  1  0.054000  0.912980  0.750000  1.0  1.2001
  Mn  Mn4  1  0.446000  0.412980  0.250000  1.0  1.1993
  Mn  Mn5  1  0.500000  0.500000  0.500000  1.0  0.8122
  Mn  Mn6  1  0.000000  0.000000  0.500000  1.0  0.8122
  Mn  Mn7  1  0.500000  0.500000  0.000000  1.0  0.8122
  Mn  Mn8  1  0.000000  0.000000  0.000000  1.0  0.8122
  Ag  Ag9  1  0.495850  0.056190  0.381290  1.0  0.1747
  Ag  Ag10  1  0.237040  0.242060  0.389740  1.0  0.1707
  Ag  Ag11  1  0.004150  0.556190  0.618710  1.0  0.1741
  Ag  Ag12  1  0.262960  0.742060  0.610260  1.0  0.1701
  Ag  Ag13  1  0.504150  0.943810  0.881290  1.0  0.1747
  Ag  Ag14  1  0.762960  0.757940  0.889740  1.0  0.1708
  Ag  Ag15  1  0.995850  0.443810  0.118710  1.0  0.1746
  Ag  Ag16  1  0.737040  0.257940  0.110260  1.0  0.1701
  Ag  Ag17  1  0.504150  0.943810  0.618710  1.0  0.1744
  Ag  Ag18  1  0.762960  0.757940  0.610260  1.0  0.1701
  Ag  Ag19  1  0.995850  0.443810  0.381290  1.0  0.1747
  Ag  Ag20  1  0.737040  0.257940  0.389740  1.0  0.1707
  Ag  Ag21  1  0.495850  0.056190  0.118710  1.0  0.1744
  Ag  Ag22  1  0.237040  0.242060  0.110260  1.0  0.1701
  Ag  Ag23  1  0.004150  0.556190  0.881290  1.0  0.1745
  Ag  Ag24  1  0.262960  0.742060  0.889740  1.0  0.1708
  H  H25  1  0.643700  0.371300  0.654100  1.0  0.1429
  H  H26  1  0.696300  0.167600  0.563000  1.0  0.1324
  H  H27  1  0.574300  0.479900  0.601000  1.0  0.0784
  H  H28  1  0.636800  0.283600  0.512400  1.0  0.0816
  H  H29  1  0.856300  0.871300  0.345900  1.0  0.1434
  H  H30  1  0.803700  0.667600  0.437000  1.0  0.1325
  H  H31  1  0.925700  0.979900  0.399000  1.0  0.0781
  H  H32  1  0.863200  0.783600  0.487600  1.0  0.0817
  H  H33  1  0.356300  0.628700  0.154100  1.0  0.1429
  H  H34  1  0.303700  0.832400  0.063000  1.0  0.1328
  H  H35  1  0.425700  0.520100  0.101000  1.0  0.0785
  H  H36  1  0.363200  0.716400  0.012400  1.0  0.0814
  H  H37  1  0.143700  0.128700  0.845900  1.0  0.1435
  H  H38  1  0.196300  0.332400  0.937000  1.0  0.1323
  H  H39  1  0.074300  0.020100  0.899000  1.0  0.079
  H  H40  1  0.136800  0.216400  0.987600  1.0  0.0817
  H  H41  1  0.356300  0.628700  0.345900  1.0  0.1435
  H  H42  1  0.303700  0.832400  0.437000  1.0  0.1324
  H  H43  1  0.425700  0.520100  0.399000  1.0  0.0785
  H  H44  1  0.363200  0.716400  0.487600  1.0  0.0816
  H  H45  1  0.143700  0.128700  0.654100  1.0  0.1431
  H  H46  1  0.196300  0.332400  0.563000  1.0  0.1326
  H  H47  1  0.074300  0.020100  0.601000  1.0  0.0789
  H  H48  1  0.136800  0.216400  0.512400  1.0  0.0815
  H  H49  1  0.643700  0.371300  0.845900  1.0  0.1434
  H  H50  1  0.696300  0.167600  0.937000  1.0  0.1326
  H  H51  1  0.574300  0.479900  0.899000  1.0  0.0787
  H  H52  1  0.636800  0.283600  0.987600  1.0  0.0818
  H  H53  1  0.856300  0.871300  0.154100  1.0  0.1427
  H  H54  1  0.803700  0.667600  0.063000  1.0  0.1324
  H  H55  1  0.925700  0.979900  0.101000  1.0  0.078
  H  H56  1  0.863200  0.783600  0.012400  1.0  0.0816
  C  C57  1  0.657200  0.056500  0.328270  1.0  0.0659
  C  C58  1  0.336200  0.039230  0.434110  1.0  -0.0189
  C  C59  1  0.639500  0.351800  0.625510  1.0  -0.1662
  C  C60  1  0.708300  0.185500  0.647240  1.0  0.2975
  C  C61  1  0.672600  0.256700  0.613960  1.0  0.0493
  C  C62  1  0.672200  0.231000  0.571350  1.0  -0.1632
  C  C63  1  0.600100  0.416300  0.593380  1.0  0.1681
  C  C64  1  0.162800  0.166440  0.335610  1.0  0.0551
  C  C65  1  0.319400  0.327400  0.440140  1.0  -0.0144
  C  C66  1  0.635200  0.300750  0.541340  1.0  0.1735
  C  C67  1  0.842800  0.556500  0.671730  1.0  0.0661
  C  C68  1  0.163800  0.539230  0.565890  1.0  -0.0207
  C  C69  1  0.860500  0.851800  0.374490  1.0  -0.1664
  C  C70  1  0.791700  0.685500  0.352760  1.0  0.2938
  C  C71  1  0.827400  0.756700  0.386040  1.0  0.0455
  C  C72  1  0.827800  0.731000  0.428650  1.0  -0.1646
  C  C73  1  0.899900  0.916300  0.406620  1.0  0.1697
  C  C74  1  0.337200  0.666440  0.664390  1.0  0.0559
  C  C75  1  0.180600  0.827400  0.559860  1.0  -0.0147
  C  C76  1  0.864800  0.800750  0.458660  1.0  0.1735
  C  C77  1  0.342800  0.943500  0.828270  1.0  0.0654
  C  C78  1  0.663800  0.960770  0.934110  1.0  -0.0187
  C  C79  1  0.360500  0.648200  0.125510  1.0  -0.1656
  C  C80  1  0.291700  0.814500  0.147240  1.0  0.2942
  C  C81  1  0.327400  0.743300  0.113960  1.0  0.05
  C  C82  1  0.327800  0.769000  0.071350  1.0  -0.1639
  C  C83  1  0.399900  0.583700  0.093380  1.0  0.1691
  C  C84  1  0.837200  0.833560  0.835610  1.0  0.055
  C  C85  1  0.680600  0.672600  0.940140  1.0  -0.0161
  C  C86  1  0.364800  0.699250  0.041340  1.0  0.1732
  C  C87  1  0.157200  0.443500  0.171730  1.0  0.0665
  C  C88  1  0.836200  0.460770  0.065890  1.0  -0.0205
  C  C89  1  0.139500  0.148200  0.874490  1.0  -0.1659
  C  C90  1  0.208300  0.314500  0.852760  1.0  0.2919
  C  C91  1  0.172600  0.243300  0.886040  1.0  0.0486
  C  C92  1  0.172200  0.269000  0.928650  1.0  -0.1631
  C  C93  1  0.100100  0.083700  0.906620  1.0  0.1686
  C  C94  1  0.662800  0.333560  0.164390  1.0  0.0555
  C  C95  1  0.819400  0.172600  0.059860  1.0  -0.015
  C  C96  1  0.135200  0.199250  0.958660  1.0  0.1733
  C  C97  1  0.342800  0.943500  0.671730  1.0  0.0653
  C  C98  1  0.663800  0.960770  0.565890  1.0  -0.0206
  C  C99  1  0.360500  0.648200  0.374490  1.0  -0.1658
  C  C100  1  0.291700  0.814500  0.352760  1.0  0.2917
  C  C101  1  0.327400  0.743300  0.386040  1.0  0.0486
  C  C102  1  0.327800  0.769000  0.428650  1.0  -0.1643
  C  C103  1  0.399900  0.583700  0.406620  1.0  0.1693
  C  C104  1  0.837200  0.833560  0.664390  1.0  0.0557
  C  C105  1  0.680600  0.672600  0.559860  1.0  -0.0164
  C  C106  1  0.364800  0.699250  0.458660  1.0  0.1733
  C  C107  1  0.157200  0.443500  0.328270  1.0  0.0654
  C  C108  1  0.836200  0.460770  0.434110  1.0  -0.0186
  C  C109  1  0.139500  0.148200  0.625510  1.0  -0.1657
  C  C110  1  0.208300  0.314500  0.647240  1.0  0.2941
  C  C111  1  0.172600  0.243300  0.613960  1.0  0.0503
  C  C112  1  0.172200  0.269000  0.571350  1.0  -0.1625
  C  C113  1  0.100100  0.083700  0.593380  1.0  0.1683
  C  C114  1  0.662800  0.333560  0.335610  1.0  0.055
  C  C115  1  0.819400  0.172600  0.440140  1.0  -0.0153
  C  C116  1  0.135200  0.199250  0.541340  1.0  0.1732
  C  C117  1  0.657200  0.056500  0.171730  1.0  0.0659
  C  C118  1  0.336200  0.039230  0.065890  1.0  -0.0206
  C  C119  1  0.639500  0.351800  0.874490  1.0  -0.1667
  C  C120  1  0.708300  0.185500  0.852760  1.0  0.2937
  C  C121  1  0.672600  0.256700  0.886040  1.0  0.0459
  C  C122  1  0.672200  0.231000  0.928650  1.0  -0.1634
  C  C123  1  0.600100  0.416300  0.906620  1.0  0.1685
  C  C124  1  0.162800  0.166440  0.164390  1.0  0.0557
  C  C125  1  0.319400  0.327400  0.059860  1.0  -0.0138
  C  C126  1  0.635200  0.300750  0.958660  1.0  0.1736
  C  C127  1  0.842800  0.556500  0.828270  1.0  0.0647
  C  C128  1  0.163800  0.539230  0.934110  1.0  -0.0188
  C  C129  1  0.860500  0.851800  0.125510  1.0  -0.1659
  C  C130  1  0.791700  0.685500  0.147240  1.0  0.2977
  C  C131  1  0.827400  0.756700  0.113960  1.0  0.0488
  C  C132  1  0.827800  0.731000  0.071350  1.0  -0.1645
  C  C133  1  0.899900  0.916300  0.093380  1.0  0.1694
  C  C134  1  0.337200  0.666440  0.835610  1.0  0.055
  C  C135  1  0.180600  0.827400  0.940140  1.0  -0.0159
  C  C136  1  0.864800  0.800750  0.041340  1.0  0.1735
  N  N137  1  0.750800  0.055600  0.299840  1.0  -0.4402
  N  N138  1  0.370200  0.378950  0.465710  1.0  -0.3367
  N  N139  1  0.736700  0.130900  0.673490  1.0  -0.3674
  N  N140  1  0.596800  0.392470  0.551810  1.0  -0.3116
  N  N141  1  0.235300  0.027690  0.460670  1.0  -0.3321
  N  N142  1  0.120900  0.130050  0.304600  1.0  -0.4401
  N  N143  1  0.749200  0.555600  0.700160  1.0  -0.4393
  N  N144  1  0.129800  0.878950  0.534290  1.0  -0.334
  N  N145  1  0.763300  0.630900  0.326510  1.0  -0.369
  N  N146  1  0.903200  0.892470  0.448190  1.0  -0.3118
  N  N147  1  0.264700  0.527690  0.539330  1.0  -0.3319
  N  N148  1  0.379100  0.630050  0.695400  1.0  -0.4396
  N  N149  1  0.249200  0.944400  0.799840  1.0  -0.4401
  N  N150  1  0.629800  0.621050  0.965710  1.0  -0.338
  N  N151  1  0.263300  0.869100  0.173490  1.0  -0.3689
  N  N152  1  0.403200  0.607530  0.051810  1.0  -0.3131
  N  N153  1  0.764700  0.972310  0.960670  1.0  -0.332
  N  N154  1  0.879100  0.869950  0.804600  1.0  -0.4399
  N  N155  1  0.250800  0.444400  0.200160  1.0  -0.4395
  N  N156  1  0.870200  0.121050  0.034290  1.0  -0.3353
  N  N157  1  0.236700  0.369100  0.826510  1.0  -0.3682
  N  N158  1  0.096800  0.107530  0.948190  1.0  -0.3122
  N  N159  1  0.735300  0.472310  0.039330  1.0  -0.331
  N  N160  1  0.620900  0.369950  0.195400  1.0  -0.44
  N  N161  1  0.249200  0.944400  0.700160  1.0  -0.4396
  N  N162  1  0.629800  0.621050  0.534290  1.0  -0.3351
  N  N163  1  0.263300  0.869100  0.326510  1.0  -0.3687
  N  N164  1  0.403200  0.607530  0.448190  1.0  -0.3123
  N  N165  1  0.764700  0.972310  0.539330  1.0  -0.3318
  N  N166  1  0.879100  0.869950  0.695400  1.0  -0.4401
  N  N167  1  0.250800  0.444400  0.299840  1.0  -0.4404
  N  N168  1  0.870200  0.121050  0.465710  1.0  -0.3379
  N  N169  1  0.236700  0.369100  0.673490  1.0  -0.3687
  N  N170  1  0.096800  0.107530  0.551810  1.0  -0.3133
  N  N171  1  0.735300  0.472310  0.460670  1.0  -0.3317
  N  N172  1  0.620900  0.369950  0.304600  1.0  -0.4399
  N  N173  1  0.750800  0.055600  0.200160  1.0  -0.4399
  N  N174  1  0.370200  0.378950  0.034290  1.0  -0.3342
  N  N175  1  0.736700  0.130900  0.826510  1.0  -0.3681
  N  N176  1  0.596800  0.392470  0.948190  1.0  -0.3117
  N  N177  1  0.235300  0.027690  0.039330  1.0  -0.3311
  N  N178  1  0.120900  0.130050  0.195400  1.0  -0.4395
  N  N179  1  0.749200  0.555600  0.799840  1.0  -0.4405
  N  N180  1  0.129800  0.878950  0.965710  1.0  -0.3368
  N  N181  1  0.763300  0.630900  0.173490  1.0  -0.3682
  N  N182  1  0.903200  0.892470  0.051810  1.0  -0.3117
  N  N183  1  0.264700  0.527690  0.960670  1.0  -0.3322
  N  N184  1  0.379100  0.630050  0.804600  1.0  -0.4399
