# generated using pymatgen
data_Cd2H8C12S(NO4)2
_symmetry_space_group_name_H-M   'P 1'
_cell_length_a   10.39000000
_cell_length_b   12.29500000
_cell_length_c   12.49700000
_cell_angle_alpha   79.31000000
_cell_angle_beta   68.20000000
_cell_angle_gamma   69.58000000
_symmetry_Int_Tables_number   1
_chemical_formula_structural   Cd2H8C12S(NO4)2
_chemical_formula_sum   'Cd4 H16 C24 S2 N4 O16'
_cell_volume   1386.24546413
_cell_formula_units_Z   2
loop_
 _symmetry_equiv_pos_site_id
 _symmetry_equiv_pos_as_xyz
  1  'x, y, z'
loop_
 _atom_site_type_symbol
 _atom_site_label
 _atom_site_symmetry_multiplicity
 _atom_site_fract_x
 _atom_site_fract_y
 _atom_site_fract_z
 _atom_site_occupancy
 _atom_site_charge
  Cd  Cd1  1  0.400380  0.696320  0.021580  1.0  1.0687
  Cd  Cd2  1  0.048690  0.527070  0.814380  1.0  1.0623
  Cd  Cd3  1  0.599620  0.303680  0.978420  1.0  1.0677
  Cd  Cd4  1  0.951310  0.472930  0.185620  1.0  1.0566
  H  H5  1  0.024600  0.629300  0.425300  1.0  0.128
  H  H6  1  0.115500  0.673200  0.230700  1.0  0.0798
  H  H7  1  0.505000  0.605200  0.241800  1.0  0.0913
  H  H8  1  0.426100  0.566000  0.437400  1.0  0.1233
  H  H9  1  0.995600  0.070400  0.061100  1.0  0.1176
  H  H10  1  0.342600  0.071800  0.129300  1.0  0.1135
  H  H11  1  0.893700  0.263300  0.100000  1.0  0.0819
  H  H12  1  0.228000  0.262400  0.171200  1.0  0.0899
  H  H13  1  0.975400  0.370700  0.574700  1.0  0.1281
  H  H14  1  0.884500  0.326800  0.769300  1.0  0.0791
  H  H15  1  0.495000  0.394800  0.758200  1.0  0.0934
  H  H16  1  0.573900  0.434000  0.562600  1.0  0.1235
  H  H17  1  0.004400  0.929600  0.938900  1.0  0.1175
  H  H18  1  0.657400  0.928200  0.870700  1.0  0.1138
  H  H19  1  0.106300  0.736700  0.900000  1.0  0.082
  H  H20  1  0.772000  0.737600  0.828800  1.0  0.0898
  C  C21  1  0.159500  0.568900  0.584100  1.0  0.7057
  C  C22  1  0.216800  0.593800  0.453800  1.0  -0.0927
  C  C23  1  0.122100  0.625100  0.390000  1.0  -0.1162
  C  C24  1  0.178800  0.649500  0.273000  1.0  0.1787
  C  C25  1  0.407400  0.610600  0.279600  1.0  0.1748
  C  C26  1  0.361100  0.586700  0.396800  1.0  -0.1042
  C  C27  1  0.258500  0.922000  0.063200  1.0  0.701
  C  C28  1  0.183400  0.047400  0.089600  1.0  -0.094
  C  C29  1  0.045700  0.107500  0.082500  1.0  -0.1313
  C  C30  1  0.250300  0.108600  0.123600  1.0  -0.1143
  C  C31  1  0.984300  0.223100  0.107600  1.0  0.1654
  C  C32  1  0.180700  0.223300  0.148800  1.0  0.1849
  C  C33  1  0.840500  0.431100  0.415900  1.0  0.7042
  C  C34  1  0.783200  0.406200  0.546200  1.0  -0.0914
  C  C35  1  0.877900  0.374900  0.610000  1.0  -0.1149
  C  C36  1  0.821200  0.350500  0.727000  1.0  0.1779
  C  C37  1  0.592600  0.389400  0.720400  1.0  0.1721
  C  C38  1  0.638900  0.413300  0.603200  1.0  -0.1039
  C  C39  1  0.741500  0.078000  0.936800  1.0  0.701
  C  C40  1  0.816600  0.952600  0.910400  1.0  -0.094
  C  C41  1  0.954300  0.892500  0.917500  1.0  -0.1308
  C  C42  1  0.749700  0.891400  0.876400  1.0  -0.1127
  C  C43  1  0.015700  0.776900  0.892400  1.0  0.1655
  C  C44  1  0.819300  0.776700  0.851200  1.0  0.1854
  S  S45  1  0.735200  0.514930  0.004920  1.0  1.6479
  S  S46  1  0.264800  0.485070  0.995080  1.0  1.6467
  N  N47  1  0.317300  0.641500  0.216700  1.0  -0.3371
  N  N48  1  0.049200  0.280300  0.142600  1.0  -0.3369
  N  N49  1  0.682700  0.358500  0.783300  1.0  -0.3358
  N  N50  1  0.950800  0.719700  0.857400  1.0  -0.334
  O  O51  1  0.383500  0.876600  0.064500  1.0  -0.6012
  O  O52  1  0.190700  0.867900  0.040700  1.0  -0.6646
  O  O53  1  0.826600  0.504300  0.069000  1.0  -0.7538
  O  O54  1  0.668700  0.422100  0.042300  1.0  -0.7803
  O  O55  1  0.821100  0.508500  0.884500  1.0  -0.7024
  O  O56  1  0.629700  0.628900  0.026800  1.0  -0.7177
  O  O57  1  0.029500  0.578500  0.630200  1.0  -0.5781
  O  O58  1  0.247000  0.541500  0.638100  1.0  -0.5871
  O  O59  1  0.616500  0.123400  0.935500  1.0  -0.6025
  O  O60  1  0.809300  0.132100  0.959300  1.0  -0.6642
  O  O61  1  0.173400  0.495700  0.931000  1.0  -0.7547
  O  O62  1  0.331300  0.577900  0.957700  1.0  -0.783
  O  O63  1  0.178900  0.491500  0.115500  1.0  -0.7026
  O  O64  1  0.370300  0.371100  0.973200  1.0  -0.7166
  O  O65  1  0.970500  0.421500  0.369800  1.0  -0.5809
  O  O66  1  0.753000  0.458500  0.361900  1.0  -0.585
