# generated using pymatgen
data_FeH42(C5N2)6
_symmetry_space_group_name_H-M   'P 1'
_cell_length_a   13.32820000
_cell_length_b   13.32820000
_cell_length_c   13.05010000
_cell_angle_alpha   90.00000000
_cell_angle_beta   90.00000000
_cell_angle_gamma   120.00000000
_symmetry_Int_Tables_number   1
_chemical_formula_structural   FeH42(C5N2)6
_chemical_formula_sum   'Fe2 H84 C60 N24'
_cell_volume   2007.64755096
_cell_formula_units_Z   2
loop_
 _symmetry_equiv_pos_site_id
 _symmetry_equiv_pos_as_xyz
  1  'x, y, z'
loop_
 _atom_site_type_symbol
 _atom_site_label
 _atom_site_symmetry_multiplicity
 _atom_site_fract_x
 _atom_site_fract_y
 _atom_site_fract_z
 _atom_site_occupancy
 _atom_site_charge
  Fe  Fe1  1  0.333333  0.666667  0.766890  1.0  0.4949
  Fe  Fe2  1  0.666667  0.333333  0.266890  1.0  0.4949
  H  H3  1  0.244500  0.704100  0.535800  1.0  0.0761
  H  H4  1  0.926000  0.574100  0.639300  1.0  0.1139
  H  H5  1  0.957100  0.619600  0.442800  1.0  0.0707
  H  H6  1  0.079800  0.655900  0.398600  1.0  0.0672
  H  H7  1  0.045800  0.562000  0.772600  1.0  0.0753
  H  H8  1  0.588900  0.208900  0.503500  1.0  0.0814
  H  H9  1  0.395500  0.066800  0.559500  1.0  0.1151
  H  H10  1  0.378900  0.149100  0.272300  1.0  0.0869
  H  H11  1  0.181600  0.022700  0.466500  1.0  0.0624
  H  H12  1  0.186400  0.004000  0.348200  1.0  0.0588
  H  H13  1  0.030000  0.812400  0.496700  1.0  0.055
  H  H14  1  0.025900  0.797700  0.377200  1.0  0.0597
  H  H15  1  0.227600  0.857200  0.378900  1.0  0.0388
  H  H16  1  0.230000  0.878300  0.497300  1.0  0.0444
  H  H17  1  0.295900  0.540400  0.535800  1.0  0.0753
  H  H18  1  0.425900  0.351900  0.639300  1.0  0.1137
  H  H19  1  0.380400  0.337500  0.442800  1.0  0.0635
  H  H20  1  0.344100  0.423900  0.398600  1.0  0.0666
  H  H21  1  0.438000  0.483800  0.772600  1.0  0.0748
  H  H22  1  0.791100  0.380000  0.503500  1.0  0.0821
  H  H23  1  0.933200  0.328700  0.559500  1.0  0.115
  H  H24  1  0.850900  0.229800  0.272300  1.0  0.0872
  H  H25  1  0.977300  0.158900  0.466500  1.0  0.0629
  H  H26  1  0.996000  0.182400  0.348200  1.0  0.0592
  H  H27  1  0.187600  0.217600  0.496700  1.0  0.0562
  H  H28  1  0.202300  0.228200  0.377200  1.0  0.0596
  H  H29  1  0.142800  0.370400  0.378900  1.0  0.041
  H  H30  1  0.121700  0.351700  0.497300  1.0  0.0446
  H  H31  1  0.459600  0.755500  0.535800  1.0  0.0769
  H  H32  1  0.648100  0.074000  0.639300  1.0  0.1154
  H  H33  1  0.662500  0.042900  0.442800  1.0  0.0727
  H  H34  1  0.576100  0.920200  0.398600  1.0  0.0663
  H  H35  1  0.516200  0.954200  0.772600  1.0  0.0744
  H  H36  1  0.620000  0.411100  0.503500  1.0  0.0814
  H  H37  1  0.671300  0.604500  0.559500  1.0  0.1147
  H  H38  1  0.770200  0.621100  0.272300  1.0  0.0867
  H  H39  1  0.841100  0.818400  0.466500  1.0  0.0609
  H  H40  1  0.817600  0.813600  0.348200  1.0  0.0586
  H  H41  1  0.782400  0.970000  0.496700  1.0  0.0551
  H  H42  1  0.771800  0.974100  0.377200  1.0  0.061
  H  H43  1  0.629600  0.772400  0.378900  1.0  0.0409
  H  H44  1  0.648300  0.770000  0.497300  1.0  0.0448
  H  H45  1  0.704100  0.244500  0.035800  1.0  0.0765
  H  H46  1  0.574100  0.926000  0.139300  1.0  0.1161
  H  H47  1  0.619600  0.957100  0.942800  1.0  0.0734
  H  H48  1  0.655900  0.079800  0.898600  1.0  0.067
  H  H49  1  0.562000  0.045800  0.272600  1.0  0.0744
  H  H50  1  0.208900  0.588900  0.003500  1.0  0.0812
  H  H51  1  0.066800  0.395500  0.059500  1.0  0.1148
  H  H52  1  0.149100  0.378900  0.772300  1.0  0.0865
  H  H53  1  0.022700  0.181600  0.966500  1.0  0.062
  H  H54  1  0.004000  0.186400  0.848200  1.0  0.0585
  H  H55  1  0.812400  0.030000  0.996700  1.0  0.0553
  H  H56  1  0.797700  0.025900  0.877200  1.0  0.0611
  H  H57  1  0.857200  0.227600  0.878900  1.0  0.0415
  H  H58  1  0.878300  0.230000  0.997300  1.0  0.0449
  H  H59  1  0.540400  0.295900  0.035800  1.0  0.0758
  H  H60  1  0.351900  0.425900  0.139300  1.0  0.1139
  H  H61  1  0.337500  0.380400  0.942800  1.0  0.0705
  H  H62  1  0.423900  0.344100  0.898600  1.0  0.0672
  H  H63  1  0.483800  0.438000  0.272600  1.0  0.075
  H  H64  1  0.380000  0.791100  0.003500  1.0  0.0817
  H  H65  1  0.328700  0.933200  0.059500  1.0  0.1149
  H  H66  1  0.229800  0.850900  0.772300  1.0  0.0873
  H  H67  1  0.158900  0.977300  0.966500  1.0  0.0622
  H  H68  1  0.182400  0.996000  0.848200  1.0  0.0586
  H  H69  1  0.217600  0.187600  0.996700  1.0  0.055
  H  H70  1  0.228200  0.202300  0.877200  1.0  0.0592
  H  H71  1  0.370400  0.142800  0.878900  1.0  0.0386
  H  H72  1  0.351700  0.121700  0.997300  1.0  0.0444
  H  H73  1  0.755500  0.459600  0.035800  1.0  0.0761
  H  H74  1  0.074000  0.648100  0.139300  1.0  0.1138
  H  H75  1  0.042900  0.662500  0.942800  1.0  0.0634
  H  H76  1  0.920200  0.576100  0.898600  1.0  0.0661
  H  H77  1  0.954200  0.516200  0.272600  1.0  0.0749
  H  H78  1  0.411100  0.620000  0.003500  1.0  0.0821
  H  H79  1  0.604500  0.671300  0.059500  1.0  0.115
  H  H80  1  0.621100  0.770200  0.772300  1.0  0.0872
  H  H81  1  0.818400  0.841100  0.966500  1.0  0.0612
  H  H82  1  0.813600  0.817600  0.848200  1.0  0.0589
  H  H83  1  0.970000  0.782400  0.996700  1.0  0.0551
  H  H84  1  0.974100  0.771800  0.877200  1.0  0.0601
  H  H85  1  0.772400  0.629600  0.878900  1.0  0.0405
  H  H86  1  0.770000  0.648300  0.997300  1.0  0.0444
  C  C87  1  0.180400  0.670200  0.578900  1.0  0.1168
  C  C88  1  0.004600  0.598900  0.634600  1.0  -0.1838
  C  C89  1  0.039400  0.672200  0.452000  1.0  -0.0279
  C  C90  1  0.071400  0.592600  0.707500  1.0  0.0175
  C  C91  1  0.522000  0.179800  0.463900  1.0  -0.0135
  C  C92  1  0.416000  0.101500  0.495300  1.0  -0.1731
  C  C93  1  0.407600  0.147900  0.336900  1.0  0.1275
  C  C94  1  0.218500  0.000700  0.414000  1.0  0.01
  C  C95  1  0.063100  0.792600  0.439400  1.0  -0.1352
  C  C96  1  0.193700  0.880100  0.433400  1.0  -0.1314
  C  C97  1  0.329800  0.510200  0.578900  1.0  0.1165
  C  C98  1  0.401100  0.405700  0.634600  1.0  -0.1852
  C  C99  1  0.327800  0.367200  0.452000  1.0  -0.0253
  C  C100  1  0.407400  0.478800  0.707500  1.0  0.018
  C  C101  1  0.820200  0.342200  0.463900  1.0  -0.0153
  C  C102  1  0.898500  0.314500  0.495300  1.0  -0.1736
  C  C103  1  0.852100  0.259700  0.336900  1.0  0.1264
  C  C104  1  0.999300  0.217800  0.414000  1.0  0.0039
  C  C105  1  0.207400  0.270500  0.439400  1.0  -0.1396
  C  C106  1  0.119900  0.313600  0.433400  1.0  -0.1382
  C  C107  1  0.489800  0.819600  0.578900  1.0  0.1158
  C  C108  1  0.594300  0.995400  0.634600  1.0  -0.1837
  C  C109  1  0.632800  0.960600  0.452000  1.0  -0.0251
  C  C110  1  0.521200  0.928600  0.707500  1.0  0.0181
  C  C111  1  0.657800  0.478000  0.463900  1.0  -0.0149
  C  C112  1  0.685500  0.584000  0.495300  1.0  -0.1749
  C  C113  1  0.740300  0.592400  0.336900  1.0  0.1263
  C  C114  1  0.782200  0.781500  0.414000  1.0  0.0074
  C  C115  1  0.729500  0.936900  0.439400  1.0  -0.1394
  C  C116  1  0.686400  0.806300  0.433400  1.0  -0.1377
  C  C117  1  0.670200  0.180400  0.078900  1.0  0.1152
  C  C118  1  0.598900  0.004600  0.134600  1.0  -0.1833
  C  C119  1  0.672200  0.039400  0.952000  1.0  -0.0255
  C  C120  1  0.592600  0.071400  0.207500  1.0  0.0181
  C  C121  1  0.179800  0.522000  0.963900  1.0  -0.014
  C  C122  1  0.101500  0.416000  0.995300  1.0  -0.1749
  C  C123  1  0.147900  0.407600  0.836900  1.0  0.1266
  C  C124  1  0.000700  0.218500  0.914000  1.0  0.0073
  C  C125  1  0.792600  0.063100  0.939400  1.0  -0.1395
  C  C126  1  0.880100  0.193700  0.933400  1.0  -0.1368
  C  C127  1  0.510200  0.329800  0.078900  1.0  0.1165
  C  C128  1  0.405700  0.401100  0.134600  1.0  -0.1842
  C  C129  1  0.367200  0.327800  0.952000  1.0  -0.0276
  C  C130  1  0.478800  0.407400  0.207500  1.0  0.0172
  C  C131  1  0.342200  0.820200  0.963900  1.0  -0.0137
  C  C132  1  0.314500  0.898500  0.995300  1.0  -0.1735
  C  C133  1  0.259700  0.852100  0.836900  1.0  0.1272
  C  C134  1  0.217800  0.999300  0.914000  1.0  0.0105
  C  C135  1  0.270500  0.207400  0.939400  1.0  -0.1354
  C  C136  1  0.313600  0.119900  0.933400  1.0  -0.1312
  C  C137  1  0.819600  0.489800  0.078900  1.0  0.1171
  C  C138  1  0.995400  0.594300  0.134600  1.0  -0.1862
  C  C139  1  0.960600  0.632800  0.952000  1.0  -0.0257
  C  C140  1  0.928600  0.521200  0.207500  1.0  0.0175
  C  C141  1  0.478000  0.657800  0.963900  1.0  -0.0152
  C  C142  1  0.584000  0.685500  0.995300  1.0  -0.1735
  C  C143  1  0.592400  0.740300  0.836900  1.0  0.1264
  C  C144  1  0.781500  0.782200  0.914000  1.0  0.0046
  C  C145  1  0.936900  0.729500  0.939400  1.0  -0.1395
  C  C146  1  0.806300  0.686400  0.933400  1.0  -0.1385
  N  N147  1  0.074300  0.648800  0.552100  1.0  0.0351
  N  N148  1  0.182700  0.637700  0.673200  1.0  -0.4142
  N  N149  1  0.517700  0.211200  0.364200  1.0  -0.4228
  N  N150  1  0.343400  0.082300  0.414400  1.0  0.0371
  N  N151  1  0.351200  0.425500  0.552100  1.0  0.0349
  N  N152  1  0.362300  0.545000  0.673200  1.0  -0.4162
  N  N153  1  0.788800  0.306500  0.364200  1.0  -0.4223
  N  N154  1  0.917700  0.261100  0.414400  1.0  0.0364
  N  N155  1  0.574500  0.925700  0.552100  1.0  0.0357
  N  N156  1  0.455000  0.817300  0.673200  1.0  -0.4154
  N  N157  1  0.693500  0.482300  0.364200  1.0  -0.4229
  N  N158  1  0.738900  0.656600  0.414400  1.0  0.0368
  N  N159  1  0.648800  0.074300  0.052100  1.0  0.0355
  N  N160  1  0.637700  0.182700  0.173200  1.0  -0.4159
  N  N161  1  0.211200  0.517700  0.864200  1.0  -0.4226
  N  N162  1  0.082300  0.343400  0.914400  1.0  0.037
  N  N163  1  0.425500  0.351200  0.052100  1.0  0.0349
  N  N164  1  0.545000  0.362300  0.173200  1.0  -0.4144
  N  N165  1  0.306500  0.788800  0.864200  1.0  -0.4225
  N  N166  1  0.261100  0.917700  0.914400  1.0  0.0368
  N  N167  1  0.925700  0.574500  0.052100  1.0  0.0349
  N  N168  1  0.817300  0.455000  0.173200  1.0  -0.4154
  N  N169  1  0.482300  0.693500  0.864200  1.0  -0.4223
  N  N170  1  0.656600  0.738900  0.914400  1.0  0.0365
