# generated using pymatgen
data_CdH8C12(NO2)2
_symmetry_space_group_name_H-M   'P 1'
_cell_length_a   9.86000000
_cell_length_b   11.65000000
_cell_length_c   13.11300000
_cell_angle_alpha   90.00000000
_cell_angle_beta   90.00000000
_cell_angle_gamma   101.99000000
_symmetry_Int_Tables_number   1
_chemical_formula_structural   CdH8C12(NO2)2
_chemical_formula_sum   'Cd4 H32 C48 N8 O16'
_cell_volume   1473.41606278
_cell_formula_units_Z   4
loop_
 _symmetry_equiv_pos_site_id
 _symmetry_equiv_pos_as_xyz
  1  'x, y, z'
loop_
 _atom_site_type_symbol
 _atom_site_label
 _atom_site_symmetry_multiplicity
 _atom_site_fract_x
 _atom_site_fract_y
 _atom_site_fract_z
 _atom_site_occupancy
 _atom_site_charge
  Cd  Cd1  1  0.256720  0.494020  0.504690  1.0  1.0425
  Cd  Cd2  1  0.743280  0.505980  0.495310  1.0  1.0415
  Cd  Cd3  1  0.743280  0.005980  0.004690  1.0  1.0416
  Cd  Cd4  1  0.256720  0.994020  0.995310  1.0  1.0424
  H  H5  1  0.276600  0.002600  0.239400  1.0  0.0862
  H  H6  1  0.663200  0.375500  0.877500  1.0  0.1312
  H  H7  1  0.021100  0.608800  0.367200  1.0  0.0806
  H  H8  1  0.336800  0.124500  0.377500  1.0  0.1317
  H  H9  1  0.663200  0.875500  0.622500  1.0  0.132
  H  H10  1  0.405500  0.259200  0.049500  1.0  0.0837
  H  H11  1  0.723400  0.497400  0.739400  1.0  0.0858
  H  H12  1  0.487200  0.887300  0.317300  1.0  0.1322
  H  H13  1  0.106500  0.743000  0.241600  1.0  0.1138
  H  H14  1  0.336800  0.624500  0.122500  1.0  0.1319
  H  H15  1  0.487200  0.387300  0.182700  1.0  0.1326
  H  H16  1  0.405500  0.759200  0.450500  1.0  0.0831
  H  H17  1  0.714200  0.263800  0.324600  1.0  0.1235
  H  H18  1  0.644800  0.643100  0.313300  1.0  0.068
  H  H19  1  0.644800  0.143100  0.186700  1.0  0.0676
  H  H20  1  0.512800  0.612700  0.817300  1.0  0.1321
  H  H21  1  0.893500  0.757000  0.741600  1.0  0.1138
  H  H22  1  0.978900  0.391200  0.632800  1.0  0.0801
  H  H23  1  0.285800  0.736200  0.675400  1.0  0.1231
  H  H24  1  0.276600  0.502600  0.260600  1.0  0.0854
  H  H25  1  0.594500  0.740800  0.950500  1.0  0.083
  H  H26  1  0.285800  0.236200  0.824600  1.0  0.1232
  H  H27  1  0.355200  0.356900  0.686700  1.0  0.0682
  H  H28  1  0.106500  0.243000  0.258400  1.0  0.1136
  H  H29  1  0.594500  0.240800  0.549500  1.0  0.0833
  H  H30  1  0.723400  0.997400  0.760600  1.0  0.0857
  H  H31  1  0.021100  0.108800  0.132800  1.0  0.0803
  H  H32  1  0.978900  0.891200  0.867200  1.0  0.0804
  H  H33  1  0.893500  0.257000  0.758400  1.0  0.1136
  H  H34  1  0.355200  0.856900  0.813300  1.0  0.0687
  H  H35  1  0.714200  0.763800  0.175400  1.0  0.1232
  H  H36  1  0.512800  0.112700  0.682700  1.0  0.1319
  C  C37  1  0.919300  0.268800  0.304700  1.0  -0.1342
  C  C38  1  0.536700  0.646300  0.615200  1.0  0.6977
  C  C39  1  0.315200  0.081500  0.228400  1.0  0.1567
  C  C40  1  0.039700  0.854600  0.831700  1.0  0.1834
  C  C41  1  0.684800  0.918500  0.771600  1.0  0.1557
  C  C42  1  0.418400  0.771200  0.204000  1.0  -0.0466
  C  C43  1  0.463300  0.853700  0.115200  1.0  0.6976
  C  C44  1  0.221000  0.763000  0.715500  1.0  -0.1102
  C  C45  1  0.030400  0.647100  0.609200  1.0  0.7343
  C  C46  1  0.988300  0.277400  0.745900  1.0  -0.101
  C  C47  1  0.581600  0.728800  0.704000  1.0  -0.0473
  C  C48  1  0.011700  0.722600  0.254100  1.0  -0.1002
  C  C49  1  0.988300  0.777400  0.754100  1.0  -0.1001
  C  C50  1  0.646300  0.346200  0.811700  1.0  -0.1198
  C  C51  1  0.261000  0.836000  0.798400  1.0  0.199
  C  C52  1  0.418400  0.271200  0.296000  1.0  -0.0478
  C  C53  1  0.919300  0.768800  0.195300  1.0  -0.1337
  C  C54  1  0.353700  0.653800  0.188300  1.0  -0.1164
  C  C55  1  0.969600  0.852900  0.109200  1.0  0.7343
  C  C56  1  0.646300  0.846200  0.688300  1.0  -0.1185
  C  C57  1  0.536700  0.146300  0.884800  1.0  0.6976
  C  C58  1  0.739000  0.164000  0.201600  1.0  0.2001
  C  C59  1  0.463300  0.353700  0.384800  1.0  0.6979
  C  C60  1  0.960300  0.145400  0.168300  1.0  0.1829
  C  C61  1  0.441200  0.310700  0.196300  1.0  -0.1628
  C  C62  1  0.558800  0.689300  0.803700  1.0  -0.1626
  C  C63  1  0.393400  0.232300  0.116300  1.0  0.1764
  C  C64  1  0.261000  0.336000  0.701600  1.0  0.1991
  C  C65  1  0.011700  0.222600  0.245900  1.0  -0.0988
  C  C66  1  0.684800  0.418500  0.728400  1.0  0.1562
  C  C67  1  0.606600  0.267700  0.616300  1.0  0.1766
  C  C68  1  0.353700  0.153800  0.311700  1.0  -0.1174
  C  C69  1  0.739000  0.664000  0.298400  1.0  0.2004
  C  C70  1  0.558800  0.189300  0.696300  1.0  -0.1613
  C  C71  1  0.779000  0.737000  0.215500  1.0  -0.1093
  C  C72  1  0.315200  0.581500  0.271600  1.0  0.1563
  C  C73  1  0.441200  0.810700  0.303700  1.0  -0.1633
  C  C74  1  0.221000  0.263000  0.784500  1.0  -0.1104
  C  C75  1  0.080700  0.731200  0.695300  1.0  -0.1342
  C  C76  1  0.779000  0.237000  0.284500  1.0  -0.1093
  C  C77  1  0.969600  0.352900  0.390800  1.0  0.7346
  C  C78  1  0.960300  0.645400  0.331700  1.0  0.183
  C  C79  1  0.030400  0.147100  0.890800  1.0  0.7338
  C  C80  1  0.393400  0.732300  0.383700  1.0  0.1757
  C  C81  1  0.080700  0.231200  0.804700  1.0  -0.1338
  C  C82  1  0.581600  0.228800  0.796000  1.0  -0.047
  C  C83  1  0.606600  0.767700  0.883700  1.0  0.175
  C  C84  1  0.039700  0.354600  0.668300  1.0  0.1832
  N  N85  1  0.331700  0.121600  0.132400  1.0  -0.3521
  N  N86  1  0.668300  0.378400  0.632400  1.0  -0.3509
  N  N87  1  0.174600  0.878700  0.857700  1.0  -0.3316
  N  N88  1  0.825400  0.621300  0.357700  1.0  -0.3327
  N  N89  1  0.174600  0.378700  0.642300  1.0  -0.3328
  N  N90  1  0.668300  0.878400  0.867600  1.0  -0.349
  N  N91  1  0.825400  0.121300  0.142300  1.0  -0.3308
  N  N92  1  0.331700  0.621600  0.367600  1.0  -0.3488
  O  O93  1  0.583700  0.412600  0.379500  1.0  -0.6346
  O  O94  1  0.903600  0.105800  0.892200  1.0  -0.6673
  O  O95  1  0.380800  0.852700  0.043800  1.0  -0.6826
  O  O96  1  0.882100  0.872800  0.046400  1.0  -0.6682
  O  O97  1  0.583700  0.912600  0.120500  1.0  -0.6348
  O  O98  1  0.619200  0.147300  0.956200  1.0  -0.6822
  O  O99  1  0.416300  0.087400  0.879500  1.0  -0.6365
  O  O100  1  0.380800  0.352700  0.456200  1.0  -0.6812
  O  O101  1  0.619200  0.647300  0.543800  1.0  -0.6823
  O  O102  1  0.903600  0.605800  0.607800  1.0  -0.6687
  O  O103  1  0.096400  0.394200  0.392200  1.0  -0.667
  O  O104  1  0.117900  0.127200  0.953600  1.0  -0.6687
  O  O105  1  0.416300  0.587400  0.620500  1.0  -0.6367
  O  O106  1  0.882100  0.372800  0.453600  1.0  -0.6675
  O  O107  1  0.117900  0.627200  0.546400  1.0  -0.6684
  O  O108  1  0.096400  0.894200  0.107800  1.0  -0.6677
