# generated using pymatgen
data_CdH11C19NO4
_symmetry_space_group_name_H-M   'P 1'
_cell_length_a   10.66000000
_cell_length_b   12.48970000
_cell_length_c   12.48970000
_cell_angle_alpha   92.12810000
_cell_angle_beta   92.85740000
_cell_angle_gamma   92.85740000
_symmetry_Int_Tables_number   1
_chemical_formula_structural   CdH11C19NO4
_chemical_formula_sum   'Cd4 H44 C76 N4 O16'
_cell_volume   1657.43998024
_cell_formula_units_Z   4
loop_
 _symmetry_equiv_pos_site_id
 _symmetry_equiv_pos_as_xyz
  1  'x, y, z'
loop_
 _atom_site_type_symbol
 _atom_site_label
 _atom_site_symmetry_multiplicity
 _atom_site_fract_x
 _atom_site_fract_y
 _atom_site_fract_z
 _atom_site_occupancy
 _atom_site_charge
  Cd  Cd1  1  0.750000  0.140520  0.859480  1.0  1.0102
  Cd  Cd2  1  0.500000  0.000000  0.000000  1.0  1.145
  Cd  Cd3  1  0.250000  0.859480  0.140520  1.0  1.0107
  Cd  Cd4  1  0.000000  0.000000  0.000000  1.0  1.145
  H  H5  1  0.997000  0.169600  0.436400  1.0  0.1187
  H  H6  1  0.011800  0.098200  0.745400  1.0  0.0919
  H  H7  1  0.508200  0.704600  0.677800  1.0  0.1155
  H  H8  1  0.488200  0.254600  0.901800  1.0  0.092
  H  H9  1  0.670500  0.422900  0.113100  1.0  0.1122
  H  H10  1  0.140600  0.882100  0.696100  1.0  0.1039
  H  H11  1  0.303600  0.814400  0.387600  1.0  0.0868
  H  H12  1  0.450000  0.772800  0.840200  1.0  0.1064
  H  H13  1  0.011700  0.562100  0.085100  1.0  0.1039
  H  H14  1  0.008200  0.677800  0.704600  1.0  0.1143
  H  H15  1  0.550000  0.227200  0.159800  1.0  0.1064
  H  H16  1  0.950000  0.840200  0.772800  1.0  0.1055
  H  H17  1  0.640600  0.696100  0.882100  1.0  0.1037
  H  H18  1  0.988300  0.437900  0.914900  1.0  0.1035
  H  H19  1  0.511800  0.745400  0.098200  1.0  0.0918
  H  H20  1  0.859400  0.117900  0.303900  1.0  0.104
  H  H21  1  0.881300  0.407900  0.093500  1.0  0.1221
  H  H22  1  0.329500  0.577100  0.886900  1.0  0.1116
  H  H23  1  0.497000  0.436400  0.169600  1.0  0.1187
  H  H24  1  0.618700  0.906500  0.592100  1.0  0.1227
  H  H25  1  0.503000  0.563600  0.830400  1.0  0.1177
  H  H26  1  0.696400  0.185600  0.612400  1.0  0.088
  H  H27  1  0.382800  0.722600  0.524800  1.0  0.1231
  H  H28  1  0.381300  0.093500  0.407900  1.0  0.1222
  H  H29  1  0.991800  0.322200  0.295400  1.0  0.115
  H  H30  1  0.617200  0.277400  0.475200  1.0  0.1241
  H  H31  1  0.882800  0.524800  0.722600  1.0  0.1235
  H  H32  1  0.359400  0.303900  0.117900  1.0  0.1037
  H  H33  1  0.003000  0.830400  0.563600  1.0  0.119
  H  H34  1  0.196400  0.612400  0.185600  1.0  0.0881
  H  H35  1  0.788100  0.890300  0.256100  1.0  0.108
  H  H36  1  0.488300  0.914900  0.437900  1.0  0.1024
  H  H37  1  0.803600  0.387600  0.814400  1.0  0.0869
  H  H38  1  0.170500  0.113100  0.422900  1.0  0.1113
  H  H39  1  0.118700  0.592100  0.906500  1.0  0.1224
  H  H40  1  0.211900  0.109700  0.743900  1.0  0.1081
  H  H41  1  0.829500  0.886900  0.577100  1.0  0.112
  H  H42  1  0.491800  0.295400  0.322200  1.0  0.1153
  H  H43  1  0.511700  0.085100  0.562100  1.0  0.1026
  H  H44  1  0.288100  0.256100  0.890300  1.0  0.1082
  H  H45  1  0.711900  0.743900  0.109700  1.0  0.1083
  H  H46  1  0.050000  0.159800  0.227200  1.0  0.1056
  H  H47  1  0.117200  0.475200  0.277400  1.0  0.124
  H  H48  1  0.988200  0.901800  0.254600  1.0  0.0919
  C  C49  1  0.751700  0.195100  0.405700  1.0  -0.0006
  C  C50  1  0.425600  0.090600  0.568000  1.0  -0.0804
  C  C51  1  0.574400  0.909400  0.432000  1.0  -0.0809
  C  C52  1  0.214300  0.845700  0.692700  1.0  -0.0786
  C  C53  1  0.331800  0.504700  0.175900  1.0  0.0603
  C  C54  1  0.538700  0.921000  0.234000  1.0  0.6833
  C  C55  1  0.777800  0.891100  0.515300  1.0  -0.117
  C  C56  1  0.958300  0.160400  0.500800  1.0  -0.1371
  C  C57  1  0.152200  0.524700  0.902900  1.0  -0.1451
  C  C58  1  0.752800  0.123000  0.107400  1.0  0.7068
  C  C59  1  0.831000  0.885500  0.415100  1.0  -0.0098
  C  C60  1  0.246200  0.106200  0.677000  1.0  -0.0818
  C  C61  1  0.458300  0.500800  0.160400  1.0  -0.1313
  C  C62  1  0.747200  0.892600  0.877000  1.0  0.7056
  C  C63  1  0.253800  0.323000  0.893800  1.0  -0.0817
  C  C64  1  0.858900  0.590100  0.751300  1.0  -0.1085
  C  C65  1  0.713400  0.166400  0.213800  1.0  -0.1218
  C  C66  1  0.714300  0.692700  0.845700  1.0  -0.0774
  C  C67  1  0.961300  0.766000  0.079000  1.0  0.6841
  C  C68  1  0.124400  0.330100  0.907700  1.0  -0.1473
  C  C69  1  0.669000  0.584900  0.114500  1.0  -0.0102
  C  C70  1  0.041700  0.839600  0.499200  1.0  -0.1341
  C  C71  1  0.031900  0.878600  0.315000  1.0  0.1374
  C  C72  1  0.785700  0.154300  0.307300  1.0  -0.0791
  C  C73  1  0.652200  0.902900  0.524700  1.0  -0.1443
  C  C74  1  0.222200  0.108900  0.484700  1.0  -0.1178
  C  C75  1  0.601200  0.219400  0.221200  1.0  -0.0624
  C  C76  1  0.433700  0.739900  0.681700  1.0  -0.0676
  C  C77  1  0.251700  0.405700  0.195100  1.0  -0.0021
  C  C78  1  0.141100  0.409900  0.248700  1.0  -0.1114
  C  C79  1  0.933700  0.681700  0.739900  1.0  -0.0694
  C  C80  1  0.277800  0.515300  0.891100  1.0  -0.1184
  C  C81  1  0.468100  0.685000  0.121400  1.0  0.1407
  C  C82  1  0.358900  0.751300  0.590100  1.0  -0.1141
  C  C83  1  0.347800  0.097100  0.475300  1.0  -0.1443
  C  C84  1  0.719700  0.394100  0.829700  1.0  0.1386
  C  C85  1  0.566300  0.260100  0.318300  1.0  -0.0665
  C  C86  1  0.280300  0.605900  0.170300  1.0  0.1395
  C  C87  1  0.168200  0.824100  0.495300  1.0  0.0625
  C  C88  1  0.968100  0.121400  0.685000  1.0  0.1401
  C  C89  1  0.375600  0.092300  0.669900  1.0  -0.1456
  C  C90  1  0.530700  0.590600  0.131200  1.0  0.0654
  C  C91  1  0.219700  0.829700  0.394100  1.0  0.1353
  C  C92  1  0.285700  0.307300  0.154300  1.0  -0.0772
  C  C93  1  0.169000  0.114500  0.584900  1.0  -0.0105
  C  C94  1  0.780300  0.170300  0.605900  1.0  0.1376
  C  C95  1  0.461300  0.079000  0.766000  1.0  0.6829
  C  C96  1  0.247200  0.877000  0.892600  1.0  0.7054
  C  C97  1  0.898800  0.778800  0.780600  1.0  -0.0622
  C  C98  1  0.624400  0.907700  0.330100  1.0  -0.1454
  C  C99  1  0.286600  0.833600  0.786200  1.0  -0.1227
  C  C100  1  0.748300  0.594300  0.804900  1.0  -0.003
  C  C101  1  0.831800  0.175900  0.504700  1.0  0.0629
  C  C102  1  0.252800  0.107400  0.123000  1.0  0.7061
  C  C103  1  0.875600  0.669900  0.092300  1.0  -0.1475
  C  C104  1  0.925600  0.568000  0.090600  1.0  -0.0809
  C  C105  1  0.248300  0.804900  0.594300  1.0  1e-04
  C  C106  1  0.469300  0.409400  0.868800  1.0  0.063
  C  C107  1  0.541700  0.499200  0.839600  1.0  -0.1355
  C  C108  1  0.030700  0.131200  0.590600  1.0  0.0668
  C  C109  1  0.066300  0.318300  0.260100  1.0  -0.0691
  C  C110  1  0.398800  0.780600  0.778800  1.0  -0.0637
  C  C111  1  0.668200  0.495300  0.824100  1.0  0.055
  C  C112  1  0.722200  0.484700  0.108900  1.0  -0.1179
  C  C113  1  0.786600  0.786200  0.833600  1.0  -0.1211
  C  C114  1  0.969300  0.868800  0.409400  1.0  0.067
  C  C115  1  0.213400  0.213800  0.166400  1.0  -0.1207
  C  C116  1  0.101200  0.221200  0.219400  1.0  -0.0615
  C  C117  1  0.641100  0.248700  0.409900  1.0  -0.1134
  C  C118  1  0.074400  0.432000  0.909400  1.0  -0.0814
  C  C119  1  0.753800  0.893800  0.323000  1.0  -0.0818
  C  C120  1  0.531900  0.315000  0.878600  1.0  0.1405
  C  C121  1  0.038700  0.234000  0.921000  1.0  0.6841
  C  C122  1  0.331000  0.415100  0.885500  1.0  -0.0138
  C  C123  1  0.746200  0.677000  0.106200  1.0  -0.0801
  C  C124  1  0.847800  0.475300  0.097100  1.0  -0.1474
  N  N125  1  0.153000  0.855900  0.307700  1.0  -0.3388
  N  N126  1  0.347000  0.692300  0.144100  1.0  -0.3388
  N  N127  1  0.847000  0.144100  0.692300  1.0  -0.339
  N  N128  1  0.653000  0.307700  0.855900  1.0  -0.3367
  O  O129  1  0.826100  0.972400  0.872200  1.0  -0.6642
  O  O130  1  0.589300  0.931300  0.145100  1.0  -0.5968
  O  O131  1  0.860300  0.088100  0.105100  1.0  -0.6673
  O  O132  1  0.422700  0.918900  0.246500  1.0  -0.6328
  O  O133  1  0.077300  0.753500  0.081100  1.0  -0.6332
  O  O134  1  0.910700  0.854900  0.068700  1.0  -0.5978
  O  O135  1  0.922700  0.246500  0.918900  1.0  -0.6326
  O  O136  1  0.360300  0.105100  0.088100  1.0  -0.6665
  O  O137  1  0.410700  0.068700  0.854900  1.0  -0.5982
  O  O138  1  0.639700  0.894900  0.911900  1.0  -0.6668
  O  O139  1  0.577300  0.081100  0.753500  1.0  -0.6337
  O  O140  1  0.173900  0.027600  0.127800  1.0  -0.6647
  O  O141  1  0.139700  0.911900  0.894900  1.0  -0.6672
  O  O142  1  0.326100  0.872200  0.972400  1.0  -0.6669
  O  O143  1  0.673900  0.127800  0.027600  1.0  -0.6669
  O  O144  1  0.089300  0.145100  0.931300  1.0  -0.596
