# generated using pymatgen
data_MnH3(CO2)3
_symmetry_space_group_name_H-M   'P 1'
_cell_length_a   16.13700000
_cell_length_b   7.60500000
_cell_length_c   16.14000000
_cell_angle_alpha   90.00000000
_cell_angle_beta   119.98400000
_cell_angle_gamma   90.00000000
_symmetry_Int_Tables_number   1
_chemical_formula_structural   MnH3(CO2)3
_chemical_formula_sum   'Mn8 H24 C24 O48'
_cell_volume   1715.64005333
_cell_formula_units_Z   8
loop_
 _symmetry_equiv_pos_site_id
 _symmetry_equiv_pos_as_xyz
  1  'x, y, z'
loop_
 _atom_site_type_symbol
 _atom_site_label
 _atom_site_symmetry_multiplicity
 _atom_site_fract_x
 _atom_site_fract_y
 _atom_site_fract_z
 _atom_site_occupancy
 _atom_site_charge
  Mn  Mn1  1  0.183120  0.376700  0.333960  1.0  1.0677
  Mn  Mn2  1  0.334000  0.876600  0.151010  1.0  1.0694
  Mn  Mn3  1  0.849230  0.876590  0.182890  1.0  1.0851
  Mn  Mn4  1  0.666780  0.357220  0.333333  1.0  1.0633
  Mn  Mn5  1  0.816880  0.876700  0.666040  1.0  1.0686
  Mn  Mn6  1  0.666000  0.376600  0.848990  1.0  1.0679
  Mn  Mn7  1  0.150770  0.376590  0.817110  1.0  1.0862
  Mn  Mn8  1  0.333220  0.857220  0.666667  1.0  1.0635
  H  H9  1  0.996700  0.578200  0.225600  1.0  0.0756
  H  H10  1  0.288300  0.624600  0.272100  1.0  0.0492
  H  H11  1  0.796800  0.595000  0.296300  1.0  0.0461
  H  H12  1  0.242300  0.593100  0.508300  1.0  0.0536
  H  H13  1  0.229100  0.577300  0.004300  1.0  0.0849
  H  H14  1  0.497600  0.594100  0.202600  1.0  0.0422
  H  H15  1  0.020000  0.121900  0.290300  1.0  0.061
  H  H16  1  0.735700  0.095000  0.239700  1.0  0.0589
  H  H17  1  0.728800  0.618100  0.018700  1.0  0.0676
  H  H18  1  0.506900  0.094200  0.266100  1.0  0.0693
  H  H19  1  0.706300  0.592500  0.504800  1.0  0.042
  H  H20  1  0.225300  0.079500  0.228000  1.0  0.079
  H  H21  1  0.003300  0.078200  0.774400  1.0  0.0747
  H  H22  1  0.711700  0.124600  0.727900  1.0  0.0497
  H  H23  1  0.203200  0.095000  0.703700  1.0  0.0464
  H  H24  1  0.757700  0.093100  0.491700  1.0  0.0528
  H  H25  1  0.770900  0.077300  0.995700  1.0  0.0853
  H  H26  1  0.502400  0.094100  0.797400  1.0  0.0415
  H  H27  1  0.980000  0.621900  0.709700  1.0  0.0616
  H  H28  1  0.264300  0.595000  0.760300  1.0  0.0595
  H  H29  1  0.271200  0.118100  0.981300  1.0  0.067
  H  H30  1  0.493100  0.594200  0.733900  1.0  0.0697
  H  H31  1  0.293700  0.092500  0.495200  1.0  0.0422
  H  H32  1  0.774700  0.579500  0.772000  1.0  0.0783
  C  C33  1  0.014500  0.612500  0.289000  1.0  0.7372
  C  C34  1  0.226500  0.631900  0.216900  1.0  0.7396
  C  C35  1  0.739700  0.602600  0.236100  1.0  0.7123
  C  C36  1  0.300500  0.605800  0.507500  1.0  0.7209
  C  C37  1  0.274200  0.611800  0.986100  1.0  0.7045
  C  C38  1  0.495700  0.603700  0.260400  1.0  0.7244
  C  C39  1  0.011700  0.131500  0.227900  1.0  0.7378
  C  C40  1  0.793800  0.105500  0.298800  1.0  0.72
  C  C41  1  0.782900  0.630000  0.010500  1.0  0.7199
  C  C42  1  0.506700  0.105700  0.207400  1.0  0.7246
  C  C43  1  0.765400  0.603200  0.505700  1.0  0.726
  C  C44  1  0.288800  0.112700  0.274000  1.0  0.7113
  C  C45  1  0.985500  0.112500  0.711000  1.0  0.7372
  C  C46  1  0.773500  0.131900  0.783100  1.0  0.7397
  C  C47  1  0.260300  0.102600  0.763900  1.0  0.7119
  C  C48  1  0.699500  0.105800  0.492500  1.0  0.7203
  C  C49  1  0.725800  0.111800  0.013900  1.0  0.7052
  C  C50  1  0.504300  0.103700  0.739600  1.0  0.7229
  C  C51  1  0.988300  0.631500  0.772100  1.0  0.736
  C  C52  1  0.206200  0.605500  0.701200  1.0  0.7211
  C  C53  1  0.217100  0.130000  0.989500  1.0  0.7199
  C  C54  1  0.493300  0.605700  0.792600  1.0  0.7247
  C  C55  1  0.234600  0.103200  0.494300  1.0  0.7248
  C  C56  1  0.711200  0.612700  0.726000  1.0  0.7121
  O  O57  1  0.218500  0.724000  0.148200  1.0  -0.5782
  O  O58  1  0.082000  0.530600  0.356300  1.0  -0.5754
  O  O59  1  0.739800  0.705700  0.175200  1.0  -0.57
  O  O60  1  0.968400  0.736600  0.298900  1.0  -0.5798
  O  O61  1  0.671800  0.510300  0.224300  1.0  -0.5633
  O  O62  1  0.161400  0.550700  0.218800  1.0  -0.5432
  O  O63  1  0.070400  0.223800  0.218400  1.0  -0.5857
  O  O64  1  0.776000  0.511500  0.447800  1.0  -0.5676
  O  O65  1  0.864500  0.021800  0.307300  1.0  -0.578
  O  O66  1  0.569200  0.203700  0.206900  1.0  -0.572
  O  O67  1  0.356200  0.030800  0.274600  1.0  -0.5666
  O  O68  1  0.307200  0.522400  0.443200  1.0  -0.576
  O  O69  1  0.852000  0.724000  0.070200  1.0  -0.5886
  O  O70  1  0.330700  0.736800  0.031200  1.0  -0.5838
  O  O71  1  0.274600  0.530900  0.918500  1.0  -0.5803
  O  O72  1  0.792800  0.202900  0.361900  1.0  -0.5744
  O  O73  1  0.443400  0.021100  0.136200  1.0  -0.5683
  O  O74  1  0.552700  0.512100  0.328100  1.0  -0.5603
  O  O75  1  0.942600  0.050200  0.161600  1.0  -0.5584
  O  O76  1  0.781300  0.553100  0.942300  1.0  -0.5584
  O  O77  1  0.362000  0.702100  0.569200  1.0  -0.5627
  O  O78  1  0.824500  0.706500  0.564200  1.0  -0.5582
  O  O79  1  0.436000  0.707500  0.260300  1.0  -0.5585
  O  O80  1  0.299400  0.236700  0.330500  1.0  -0.5855
  O  O81  1  0.781500  0.224000  0.851800  1.0  -0.5789
  O  O82  1  0.918000  0.030600  0.643700  1.0  -0.5758
  O  O83  1  0.260200  0.205700  0.824800  1.0  -0.5704
  O  O84  1  0.031600  0.236600  0.701100  1.0  -0.5785
  O  O85  1  0.328200  0.010300  0.775700  1.0  -0.5612
  O  O86  1  0.838600  0.050700  0.781200  1.0  -0.5439
  O  O87  1  0.929600  0.723800  0.781600  1.0  -0.586
  O  O88  1  0.224000  0.011500  0.552200  1.0  -0.5655
  O  O89  1  0.135500  0.521800  0.692700  1.0  -0.5787
  O  O90  1  0.430800  0.703700  0.793100  1.0  -0.5745
  O  O91  1  0.643800  0.530800  0.725400  1.0  -0.5663
  O  O92  1  0.692800  0.022400  0.556800  1.0  -0.5743
  O  O93  1  0.148000  0.224000  0.929800  1.0  -0.5883
  O  O94  1  0.669300  0.236800  0.968800  1.0  -0.5853
  O  O95  1  0.725400  0.030900  0.081500  1.0  -0.581
  O  O96  1  0.207200  0.702900  0.638100  1.0  -0.5722
  O  O97  1  0.556600  0.521100  0.863800  1.0  -0.5701
  O  O98  1  0.447300  0.012100  0.671900  1.0  -0.5609
  O  O99  1  0.057400  0.550200  0.838400  1.0  -0.5577
  O  O100  1  0.218700  0.053100  0.057700  1.0  -0.558
  O  O101  1  0.638000  0.202100  0.430800  1.0  -0.5626
  O  O102  1  0.175500  0.206500  0.435800  1.0  -0.5582
  O  O103  1  0.564000  0.207500  0.739700  1.0  -0.5584
  O  O104  1  0.700600  0.736700  0.669500  1.0  -0.584
