# generated using pymatgen
data_CoH7C11N3O5
_symmetry_space_group_name_H-M   'P 1'
_cell_length_a   9.42930000
_cell_length_b   10.22590000
_cell_length_c   17.15330000
_cell_angle_alpha   91.63400000
_cell_angle_beta   99.93300000
_cell_angle_gamma   93.06200000
_symmetry_Int_Tables_number   1
_chemical_formula_structural   CoH7C11N3O5
_chemical_formula_sum   'Co4 H28 C44 N12 O20'
_cell_volume   1625.65794414
_cell_formula_units_Z   4
loop_
 _symmetry_equiv_pos_site_id
 _symmetry_equiv_pos_as_xyz
  1  'x, y, z'
loop_
 _atom_site_type_symbol
 _atom_site_label
 _atom_site_symmetry_multiplicity
 _atom_site_fract_x
 _atom_site_fract_y
 _atom_site_fract_z
 _atom_site_occupancy
 _atom_site_charge
  Co  Co1  1  0.802480  0.178900  0.708490  1.0  0.9911
  Co  Co2  1  0.821720  0.392790  0.868780  1.0  1.0546
  Co  Co3  1  0.197520  0.821100  0.291510  1.0  0.991
  Co  Co4  1  0.178280  0.607210  0.131220  1.0  1.0579
  H  H5  1  0.770400  0.726600  0.729600  1.0  0.118
  H  H6  1  0.666400  0.857300  0.509300  1.0  0.1189
  H  H7  1  0.686000  0.471300  0.542300  1.0  0.1266
  H  H8  1  0.588700  0.787600  0.387500  1.0  0.1025
  H  H9  1  0.611000  0.679300  0.325000  1.0  0.1248
  H  H10  1  0.023600  0.990300  0.405500  1.0  0.0849
  H  H11  1  0.896900  0.643700  0.320700  1.0  0.1091
  H  H12  1  0.335700  0.339800  0.843800  1.0  0.1274
  H  H13  1  0.448200  0.979300  0.790300  1.0  0.1262
  H  H14  1  0.044200  0.034400  0.819200  1.0  0.1229
  H  H15  1  0.083700  0.697200  0.794500  1.0  0.1172
  H  H16  1  0.013800  0.832800  0.796900  1.0  0.0842
  H  H17  1  0.111400  0.893100  0.065100  1.0  0.0885
  H  H18  1  0.150500  0.594000  0.932800  1.0  0.1039
  H  H19  1  0.229600  0.273400  0.270400  1.0  0.118
  H  H20  1  0.333600  0.142700  0.490700  1.0  0.119
  H  H21  1  0.314000  0.528700  0.457700  1.0  0.1272
  H  H22  1  0.411300  0.212400  0.612500  1.0  0.1022
  H  H23  1  0.389000  0.320700  0.675000  1.0  0.1252
  H  H24  1  0.976400  0.009700  0.594500  1.0  0.0845
  H  H25  1  0.103100  0.356300  0.679300  1.0  0.1081
  H  H26  1  0.664300  0.660200  0.156200  1.0  0.1274
  H  H27  1  0.551800  0.020700  0.209700  1.0  0.1262
  H  H28  1  0.955800  0.965600  0.180800  1.0  0.1229
  H  H29  1  0.916300  0.302800  0.205500  1.0  0.1185
  H  H30  1  0.986200  0.167200  0.203100  1.0  0.0846
  H  H31  1  0.888600  0.106900  0.934900  1.0  0.0881
  H  H32  1  0.849500  0.406000  0.067200  1.0  0.1042
  C  C33  1  0.729400  0.580700  0.644000  1.0  -0.1412
  C  C34  1  0.744500  0.709900  0.675300  1.0  -0.0097
  C  C35  1  0.720400  0.812200  0.624400  1.0  -0.1285
  C  C36  1  0.684100  0.788300  0.543100  1.0  -0.1615
  C  C37  1  0.674500  0.659600  0.513000  1.0  0.2478
  C  C38  1  0.695100  0.556900  0.563100  1.0  -0.1111
  C  C39  1  0.761600  0.470400  0.699300  1.0  0.7118
  C  C40  1  0.744600  0.950800  0.657400  1.0  0.6327
  C  C41  1  0.650100  0.718500  0.377000  1.0  0.022
  C  C42  1  0.966400  0.913700  0.390800  1.0  0.2988
  C  C43  1  0.901400  0.726900  0.344700  1.0  0.1549
  C  C44  1  0.173200  0.200200  0.831800  1.0  -0.1249
  C  C45  1  0.311800  0.251000  0.832600  1.0  -0.0309
  C  C46  1  0.415800  0.166800  0.816300  1.0  -0.1446
  C  C47  1  0.379800  0.034700  0.803000  1.0  -0.0948
  C  C48  1  0.244400  0.983700  0.808300  1.0  0.2794
  C  C49  1  0.138200  0.067300  0.819700  1.0  -0.1351
  C  C50  1  0.054600  0.288000  0.842200  1.0  0.6419
  C  C51  1  0.566900  0.219200  0.810000  1.0  0.7167
  C  C52  1  0.096900  0.785000  0.818500  1.0  0.0035
  C  C53  1  0.112900  0.840300  0.020300  1.0  0.2531
  C  C54  1  0.135300  0.677800  0.950800  1.0  0.1469
  C  C55  1  0.270600  0.419300  0.356000  1.0  -0.1411
  C  C56  1  0.255500  0.290100  0.324700  1.0  -0.0102
  C  C57  1  0.279600  0.187800  0.375600  1.0  -0.1289
  C  C58  1  0.315900  0.211700  0.456900  1.0  -0.1599
  C  C59  1  0.325500  0.340400  0.487000  1.0  0.2473
  C  C60  1  0.304900  0.443100  0.436900  1.0  -0.1109
  C  C61  1  0.238400  0.529600  0.300700  1.0  0.7127
  C  C62  1  0.255400  0.049200  0.342600  1.0  0.6322
  C  C63  1  0.349900  0.281500  0.623000  1.0  0.0205
  C  C64  1  0.033600  0.086300  0.609200  1.0  0.299
  C  C65  1  0.098600  0.273100  0.655300  1.0  0.1544
  C  C66  1  0.826800  0.799800  0.168200  1.0  -0.1269
  C  C67  1  0.688200  0.749000  0.167400  1.0  -0.0305
  C  C68  1  0.584200  0.833200  0.183700  1.0  -0.1443
  C  C69  1  0.620200  0.965300  0.197000  1.0  -0.0965
  C  C70  1  0.755600  0.016300  0.191700  1.0  0.2812
  C  C71  1  0.861800  0.932700  0.180300  1.0  -0.1356
  C  C72  1  0.945400  0.712000  0.157800  1.0  0.6441
  C  C73  1  0.433100  0.780800  0.190000  1.0  0.718
  C  C74  1  0.903100  0.215000  0.181500  1.0  0.0039
  C  C75  1  0.887100  0.159700  0.979700  1.0  0.2536
  C  C76  1  0.864700  0.322200  0.049200  1.0  0.1464
  N  N77  1  0.794900  0.775900  0.376000  1.0  0.1716
  N  N78  1  0.835800  0.898700  0.406200  1.0  -0.3732
  N  N79  1  0.014500  0.811200  0.352100  1.0  -0.4175
  N  N80  1  0.105900  0.777700  0.903800  1.0  0.2108
  N  N81  1  0.088700  0.885800  0.949000  1.0  -0.3762
  N  N82  1  0.140200  0.711600  0.025100  1.0  -0.3914
  N  N83  1  0.205100  0.224100  0.624000  1.0  0.1706
  N  N84  1  0.164200  0.101300  0.593800  1.0  -0.3706
  N  N85  1  0.985500  0.188800  0.647900  1.0  -0.4173
  N  N86  1  0.894100  0.222300  0.096200  1.0  0.2103
  N  N87  1  0.911300  0.114200  0.051000  1.0  -0.3759
  N  N88  1  0.859800  0.288400  0.974900  1.0  -0.3929
  O  O89  1  0.745700  0.356500  0.668860  1.0  -0.6195
  O  O90  1  0.803300  0.500900  0.771400  1.0  -0.6159
  O  O91  1  0.823200  0.972000  0.724060  1.0  -0.5724
  O  O92  1  0.692700  0.043000  0.616600  1.0  -0.563
  O  O93  1  0.646700  0.622900  0.433780  1.0  -0.2743
  O  O94  1  0.925800  0.245300  0.817230  1.0  -0.6704
  O  O95  1  0.081800  0.397100  0.876700  1.0  -0.6734
  O  O96  1  0.611700  0.324900  0.847500  1.0  -0.5922
  O  O97  1  0.631700  0.152900  0.768500  1.0  -0.5963
  O  O98  1  0.223300  0.848400  0.799300  1.0  -0.2787
  O  O99  1  0.254300  0.643500  0.331140  1.0  -0.6193
  O  O100  1  0.196700  0.499100  0.228600  1.0  -0.6144
  O  O101  1  0.176800  0.028000  0.275940  1.0  -0.5705
  O  O102  1  0.307300  0.957000  0.383400  1.0  -0.5627
  O  O103  1  0.353300  0.377100  0.566220  1.0  -0.2758
  O  O104  1  0.074200  0.754700  0.182770  1.0  -0.6714
  O  O105  1  0.918200  0.602900  0.123300  1.0  -0.6724
  O  O106  1  0.388300  0.675100  0.152500  1.0  -0.5915
  O  O107  1  0.368300  0.847100  0.231500  1.0  -0.5963
  O  O108  1  0.776700  0.151600  0.200700  1.0  -0.2787
