# generated using pymatgen
data_CdH7C11N3O5
_symmetry_space_group_name_H-M   'P 1'
_cell_length_a   8.80560000
_cell_length_b   17.55160000
_cell_length_c   13.91960000
_cell_angle_alpha   90.00000000
_cell_angle_beta   126.48300000
_cell_angle_gamma   90.00000000
_symmetry_Int_Tables_number   1
_chemical_formula_structural   CdH7C11N3O5
_chemical_formula_sum   'Cd4 H28 C44 N12 O20'
_cell_volume   1729.72261846
_cell_formula_units_Z   4
loop_
 _symmetry_equiv_pos_site_id
 _symmetry_equiv_pos_as_xyz
  1  'x, y, z'
loop_
 _atom_site_type_symbol
 _atom_site_label
 _atom_site_symmetry_multiplicity
 _atom_site_fract_x
 _atom_site_fract_y
 _atom_site_fract_z
 _atom_site_occupancy
 _atom_site_charge
  Cd  Cd1  1  0.388510  0.547390  0.342900  1.0  1.0992
  Cd  Cd2  1  0.611490  0.047390  0.157100  1.0  1.0981
  Cd  Cd3  1  0.611490  0.452610  0.657100  1.0  1.0974
  Cd  Cd4  1  0.388510  0.952610  0.842900  1.0  1.0989
  H  H5  1  0.507200  0.785900  0.208400  1.0  0.1045
  H  H6  1  0.639300  0.793700  0.978000  1.0  0.1174
  H  H7  1  0.574500  0.592300  0.084400  1.0  0.1101
  H  H8  1  0.612400  0.563400  0.851000  1.0  0.1022
  H  H9  1  0.514900  0.557500  0.915500  1.0  0.0795
  H  H10  1  0.003500  0.431300  0.226200  1.0  0.0863
  H  H11  1  0.013200  0.603100  0.060900  1.0  0.1064
  H  H12  1  0.492800  0.285900  0.291600  1.0  0.1051
  H  H13  1  0.360700  0.293700  0.522000  1.0  0.1176
  H  H14  1  0.425500  0.092300  0.415600  1.0  0.1102
  H  H15  1  0.387600  0.063400  0.649000  1.0  0.1021
  H  H16  1  0.485100  0.057500  0.584500  1.0  0.0799
  H  H17  1  0.996500  0.931300  0.273800  1.0  0.0844
  H  H18  1  0.986800  0.103100  0.439100  1.0  0.1063
  H  H19  1  0.492800  0.214100  0.791600  1.0  0.105
  H  H20  1  0.360700  0.206300  0.022000  1.0  0.1175
  H  H21  1  0.425500  0.407700  0.915600  1.0  0.1115
  H  H22  1  0.387600  0.436600  0.149000  1.0  0.103
  H  H23  1  0.485100  0.442500  0.084500  1.0  0.0799
  H  H24  1  0.996500  0.568700  0.773800  1.0  0.0855
  H  H25  1  0.986800  0.396900  0.939100  1.0  0.1065
  H  H26  1  0.507200  0.714100  0.708400  1.0  0.1047
  H  H27  1  0.639300  0.706300  0.478000  1.0  0.1171
  H  H28  1  0.574500  0.907700  0.584400  1.0  0.1113
  H  H29  1  0.612400  0.936600  0.351000  1.0  0.102
  H  H30  1  0.514900  0.942500  0.415500  1.0  0.0795
  H  H31  1  0.003500  0.068700  0.726200  1.0  0.0859
  H  H32  1  0.013200  0.896900  0.560900  1.0  0.106
  C  C33  1  0.533500  0.682800  0.157400  1.0  -0.1253
  C  C34  1  0.535000  0.761000  0.161500  1.0  -0.0147
  C  C35  1  0.578000  0.803100  0.095700  1.0  -0.1484
  C  C36  1  0.612200  0.765800  0.023000  1.0  -0.1287
  C  C37  1  0.606500  0.687600  0.016800  1.0  0.2707
  C  C38  1  0.572000  0.645300  0.085700  1.0  -0.1994
  C  C39  1  0.483700  0.635000  0.225700  1.0  0.6971
  C  C40  1  0.585700  0.888500  0.101100  1.0  0.7184
  C  C41  1  0.624800  0.576700  0.923000  1.0  0.0771
  C  C42  1  0.963900  0.469900  0.170200  1.0  0.2812
  C  C43  1  0.972700  0.562200  0.082700  1.0  0.1642
  C  C44  1  0.466500  0.182800  0.342600  1.0  -0.1256
  C  C45  1  0.465000  0.261000  0.338500  1.0  -0.0149
  C  C46  1  0.422000  0.303100  0.404300  1.0  -0.1482
  C  C47  1  0.387800  0.265800  0.477000  1.0  -0.1301
  C  C48  1  0.393500  0.187600  0.483200  1.0  0.2703
  C  C49  1  0.428000  0.145300  0.414300  1.0  -0.201
  C  C50  1  0.516300  0.135000  0.274300  1.0  0.6962
  C  C51  1  0.414300  0.388500  0.398900  1.0  0.7185
  C  C52  1  0.375200  0.076700  0.577000  1.0  0.0763
  C  C53  1  0.036100  0.969900  0.329800  1.0  0.2806
  C  C54  1  0.027300  0.062200  0.417300  1.0  0.1636
  C  C55  1  0.466500  0.317200  0.842600  1.0  -0.1252
  C  C56  1  0.465000  0.239000  0.838500  1.0  -0.015
  C  C57  1  0.422000  0.196900  0.904300  1.0  -0.1485
  C  C58  1  0.387800  0.234200  0.977000  1.0  -0.1293
  C  C59  1  0.393500  0.312400  0.983200  1.0  0.2707
  C  C60  1  0.428000  0.354700  0.914300  1.0  -0.2004
  C  C61  1  0.516300  0.365000  0.774300  1.0  0.6963
  C  C62  1  0.414300  0.111500  0.898900  1.0  0.7188
  C  C63  1  0.375200  0.423300  0.077000  1.0  0.0763
  C  C64  1  0.036100  0.530100  0.829800  1.0  0.2815
  C  C65  1  0.027300  0.437800  0.917300  1.0  0.1628
  C  C66  1  0.533500  0.817200  0.657400  1.0  -0.1257
  C  C67  1  0.535000  0.739000  0.661500  1.0  -0.0141
  C  C68  1  0.578000  0.696900  0.595700  1.0  -0.1487
  C  C69  1  0.612200  0.734200  0.523000  1.0  -0.1288
  C  C70  1  0.606500  0.812400  0.516800  1.0  0.2707
  C  C71  1  0.572000  0.854700  0.585700  1.0  -0.1987
  C  C72  1  0.483700  0.865000  0.725700  1.0  0.6977
  C  C73  1  0.585700  0.611500  0.601100  1.0  0.7188
  C  C74  1  0.624800  0.923300  0.423000  1.0  0.0768
  C  C75  1  0.963900  0.030100  0.670200  1.0  0.2809
  C  C76  1  0.972700  0.937800  0.582700  1.0  0.1631
  N  N77  1  0.794300  0.542200  0.025900  1.0  0.1688
  N  N78  1  0.783900  0.481500  0.082100  1.0  -0.3698
  N  N79  1  0.085500  0.517600  0.173200  1.0  -0.393
  N  N80  1  0.205700  0.042200  0.474100  1.0  0.1685
  N  N81  1  0.216100  0.981500  0.417900  1.0  -0.3697
  N  N82  1  0.914500  0.017600  0.326800  1.0  -0.3953
  N  N83  1  0.205700  0.457800  0.974100  1.0  0.1686
  N  N84  1  0.216100  0.518500  0.917900  1.0  -0.3721
  N  N85  1  0.914500  0.482400  0.826800  1.0  -0.3955
  N  N86  1  0.794300  0.957800  0.525900  1.0  0.1688
  N  N87  1  0.783900  0.018500  0.582100  1.0  -0.3715
  N  N88  1  0.085500  0.982400  0.673200  1.0  -0.3934
  O  O89  1  0.537700  0.568000  0.249500  1.0  -0.5934
  O  O90  1  0.389000  0.664800  0.254600  1.0  -0.5923
  O  O91  1  0.559600  0.921200  0.169700  1.0  -0.6155
  O  O92  1  0.623600  0.925080  0.039700  1.0  -0.7105
  O  O93  1  0.634800  0.656370  0.936700  1.0  -0.2881
  O  O94  1  0.462300  0.068000  0.250500  1.0  -0.5917
  O  O95  1  0.611000  0.164800  0.245400  1.0  -0.5935
  O  O96  1  0.440400  0.421200  0.330300  1.0  -0.6138
  O  O97  1  0.376400  0.425080  0.460300  1.0  -0.7113
  O  O98  1  0.365200  0.156370  0.563300  1.0  -0.2867
  O  O99  1  0.462300  0.432000  0.750500  1.0  -0.5925
  O  O100  1  0.611000  0.335200  0.745400  1.0  -0.5941
  O  O101  1  0.440400  0.078800  0.830300  1.0  -0.6138
  O  O102  1  0.376400  0.074920  0.960300  1.0  -0.7098
  O  O103  1  0.365200  0.343630  0.063300  1.0  -0.2882
  O  O104  1  0.537700  0.932000  0.749500  1.0  -0.592
  O  O105  1  0.389000  0.835200  0.754600  1.0  -0.5922
  O  O106  1  0.559600  0.578800  0.669700  1.0  -0.6154
  O  O107  1  0.623600  0.574920  0.539700  1.0  -0.7097
  O  O108  1  0.634800  0.843630  0.436700  1.0  -0.2887
