# generated using pymatgen
data_Co5H30C44(N6O11)2
_symmetry_space_group_name_H-M   'P 1'
_cell_length_a   11.07880000
_cell_length_b   12.69650000
_cell_length_c   12.78790000
_cell_angle_alpha   65.77600000
_cell_angle_beta   86.62000000
_cell_angle_gamma   83.38700000
_symmetry_Int_Tables_number   1
_chemical_formula_structural   Co5H30C44(N6O11)2
_chemical_formula_sum   'Co5 H30 C44 N12 O22'
_cell_volume   1629.33645564
_cell_formula_units_Z   1
loop_
 _symmetry_equiv_pos_site_id
 _symmetry_equiv_pos_as_xyz
  1  'x, y, z'
loop_
 _atom_site_type_symbol
 _atom_site_label
 _atom_site_symmetry_multiplicity
 _atom_site_fract_x
 _atom_site_fract_y
 _atom_site_fract_z
 _atom_site_occupancy
 _atom_site_charge
  Co  Co1  1  0.750450  0.115330  0.051590  1.0  0.9333
  Co  Co2  1  0.102160  0.818730  0.231370  1.0  1.0101
  Co  Co3  1  0.249550  0.884670  0.948410  1.0  0.9304
  Co  Co4  1  0.897840  0.181270  0.768630  1.0  1.01
  Co  Co5  1  0.000000  0.000000  0.000000  1.0  0.9232
  H  H6  1  0.865500  0.155300  0.344000  1.0  0.1203
  H  H7  1  0.148500  0.135100  0.535100  1.0  0.1213
  H  H8  1  0.198000  0.033500  0.275700  1.0  0.1357
  H  H9  1  0.339500  0.932900  0.387100  1.0  0.0823
  H  H10  1  0.446000  0.934500  0.462000  1.0  0.1121
  H  H11  1  0.472400  0.192300  0.047500  1.0  0.1046
  H  H12  1  0.634500  0.994900  0.331100  1.0  0.1158
  H  H13  1  0.399400  0.110300  0.904100  1.0  0.1213
  H  H14  1  0.221800  0.282400  0.606200  1.0  0.1186
  H  H15  1  0.585200  0.268100  0.611500  1.0  0.128
  H  H16  1  0.284800  0.291000  0.430300  1.0  0.0928
  H  H17  1  0.366100  0.362700  0.326600  1.0  0.125
  H  H18  1  0.003900  0.582400  0.397300  1.0  0.0955
  H  H19  1  0.317600  0.596200  0.254300  1.0  0.1025
  H  H20  1  0.077000  0.796000  0.050000  1.0  0.4224
  H  H21  1  0.134500  0.844700  0.656000  1.0  0.121
  H  H22  1  0.851500  0.864900  0.464900  1.0  0.1219
  H  H23  1  0.802000  0.966500  0.724300  1.0  0.1353
  H  H24  1  0.660500  0.067100  0.612900  1.0  0.084
  H  H25  1  0.554000  0.065500  0.538000  1.0  0.1119
  H  H26  1  0.527600  0.807700  0.952500  1.0  0.1046
  H  H27  1  0.365500  0.005100  0.668900  1.0  0.1141
  H  H28  1  0.600600  0.889700  0.095900  1.0  0.1216
  H  H29  1  0.778200  0.717600  0.393800  1.0  0.1182
  H  H30  1  0.414800  0.731900  0.388500  1.0  0.1283
  H  H31  1  0.715200  0.709000  0.569700  1.0  0.0935
  H  H32  1  0.633900  0.637300  0.673400  1.0  0.1251
  H  H33  1  0.996100  0.417600  0.602700  1.0  0.0955
  H  H34  1  0.682400  0.403800  0.745700  1.0  0.1025
  H  H35  1  0.923000  0.204000  0.950000  1.0  0.4227
  C  C36  1  0.023900  0.091100  0.295700  1.0  -0.1313
  C  C37  1  0.947800  0.136300  0.360700  1.0  -0.0035
  C  C38  1  0.993900  0.153300  0.450300  1.0  -0.1388
  C  C39  1  0.116700  0.125000  0.474400  1.0  -0.1016
  C  C40  1  0.191800  0.081700  0.407800  1.0  0.2314
  C  C41  1  0.146700  0.063600  0.319100  1.0  -0.1473
  C  C42  1  0.970500  0.069000  0.202000  1.0  0.685
  C  C43  1  0.909200  0.191900  0.528300  1.0  0.7033
  C  C44  1  0.389400  0.983100  0.402000  1.0  0.0534
  C  C45  1  0.485600  0.143900  0.124300  1.0  0.27
  C  C46  1  0.575700  0.037600  0.276600  1.0  0.1668
  C  C47  1  0.510500  0.184200  0.768200  1.0  -0.1324
  C  C48  1  0.400700  0.153800  0.825200  1.0  -0.0435
  C  C49  1  0.293700  0.188300  0.764700  1.0  -0.1306
  C  C50  1  0.294200  0.256800  0.646400  1.0  -0.1516
  C  C51  1  0.404400  0.285700  0.590300  1.0  0.2416
  C  C52  1  0.511700  0.249200  0.650200  1.0  -0.1028
  C  C53  1  0.629900  0.148200  0.830500  1.0  0.7128
  C  C54  1  0.172700  0.154900  0.822700  1.0  0.6969
  C  C55  1  0.327800  0.359900  0.397700  1.0  0.0607
  C  C56  1  0.082200  0.560600  0.378200  1.0  0.2552
  C  C57  1  0.249800  0.570200  0.300300  1.0  0.1435
  C  C58  1  0.976100  0.908900  0.704300  1.0  -0.131
  C  C59  1  0.052200  0.863700  0.639300  1.0  -0.0052
  C  C60  1  0.006100  0.846700  0.549700  1.0  -0.1371
  C  C61  1  0.883300  0.875000  0.525600  1.0  -0.1019
  C  C62  1  0.808200  0.918300  0.592200  1.0  0.2324
  C  C63  1  0.853300  0.936400  0.680900  1.0  -0.1484
  C  C64  1  0.029500  0.931000  0.798000  1.0  0.6844
  C  C65  1  0.090800  0.808100  0.471700  1.0  0.7018
  C  C66  1  0.610600  0.016900  0.598000  1.0  0.0551
  C  C67  1  0.514400  0.856100  0.875700  1.0  0.2684
  C  C68  1  0.424300  0.962400  0.723400  1.0  0.1688
  C  C69  1  0.489500  0.815800  0.231800  1.0  -0.1325
  C  C70  1  0.599300  0.846200  0.174800  1.0  -0.0414
  C  C71  1  0.706300  0.811700  0.235300  1.0  -0.1317
  C  C72  1  0.705800  0.743200  0.353600  1.0  -0.1515
  C  C73  1  0.595600  0.714300  0.409700  1.0  0.2415
  C  C74  1  0.488300  0.750800  0.349800  1.0  -0.1015
  C  C75  1  0.370100  0.851800  0.169500  1.0  0.7114
  C  C76  1  0.827300  0.845100  0.177300  1.0  0.6968
  C  C77  1  0.672200  0.640100  0.602300  1.0  0.0608
  C  C78  1  0.917800  0.439400  0.621800  1.0  0.2555
  C  C79  1  0.750200  0.429800  0.699700  1.0  0.1429
  N  N80  1  0.456800  0.046900  0.298400  1.0  0.1848
  N  N81  1  0.397800  0.115400  0.199800  1.0  -0.356
  N  N82  1  0.598000  0.097500  0.166400  1.0  -0.4362
  N  N83  1  0.241600  0.461300  0.373400  1.0  0.1976
  N  N84  1  0.132300  0.453800  0.425300  1.0  -0.3561
  N  N85  1  0.150900  0.636400  0.300900  1.0  -0.3857
  N  N86  1  0.543200  0.953100  0.701600  1.0  0.1827
  N  N87  1  0.602200  0.884600  0.800200  1.0  -0.3566
  N  N88  1  0.402000  0.902500  0.833600  1.0  -0.4362
  N  N89  1  0.758400  0.538700  0.626600  1.0  0.1979
  N  N90  1  0.867700  0.546200  0.574700  1.0  -0.3571
  N  N91  1  0.849100  0.363600  0.699100  1.0  -0.3869
  O  O92  1  0.039400  0.017200  0.151200  1.0  -0.6387
  O  O93  1  0.861100  0.104400  0.180100  1.0  -0.619
  O  O94  1  0.801600  0.224000  0.501600  1.0  -0.5715
  O  O95  1  0.957800  0.182500  0.618600  1.0  -0.5901
  O  O96  1  0.314900  0.058300  0.439600  1.0  -0.2749
  O  O97  1  0.723000  0.148000  0.770600  1.0  -0.582
  O  O98  1  0.625200  0.123000  0.936300  1.0  -0.5883
  O  O99  1  0.172300  0.063600  0.915500  1.0  -0.6687
  O  O100  1  0.081400  0.220000  0.775500  1.0  -0.5939
  O  O101  1  0.417900  0.351900  0.474000  1.0  -0.2868
  O  O102  1  0.106300  0.848200  0.062700  1.0  -0.9721
  O  O103  1  0.960600  0.982800  0.848800  1.0  -0.6377
  O  O104  1  0.138900  0.895600  0.819900  1.0  -0.62
  O  O105  1  0.198400  0.776000  0.498400  1.0  -0.571
  O  O106  1  0.042200  0.817500  0.381400  1.0  -0.59
  O  O107  1  0.685100  0.941700  0.560400  1.0  -0.2761
  O  O108  1  0.277000  0.852000  0.229400  1.0  -0.5828
  O  O109  1  0.374800  0.877000  0.063700  1.0  -0.5893
  O  O110  1  0.827700  0.936400  0.084500  1.0  -0.6661
  O  O111  1  0.918600  0.780000  0.224500  1.0  -0.596
  O  O112  1  0.582100  0.648100  0.526000  1.0  -0.2853
  O  O113  1  0.893700  0.151800  0.937300  1.0  -0.9729
