# generated using pymatgen
data_MgH3(CO2)3
_symmetry_space_group_name_H-M   'P 1'
_cell_length_a   7.89280000
_cell_length_b   13.76930000
_cell_length_c   7.40070000
_cell_angle_alpha   90.00000000
_cell_angle_beta   90.00000000
_cell_angle_gamma   90.00000000
_symmetry_Int_Tables_number   1
_chemical_formula_structural   MgH3(CO2)3
_chemical_formula_sum   'Mg4 H12 C12 O24'
_cell_volume   804.29572453
_cell_formula_units_Z   4
loop_
 _symmetry_equiv_pos_site_id
 _symmetry_equiv_pos_as_xyz
  1  'x, y, z'
loop_
 _atom_site_type_symbol
 _atom_site_label
 _atom_site_symmetry_multiplicity
 _atom_site_fract_x
 _atom_site_fract_y
 _atom_site_fract_z
 _atom_site_occupancy
 _atom_site_charge
  Mg  Mg1  1  0.222790  0.164660  0.259590  1.0  1.5028
  Mg  Mg2  1  0.277210  0.835340  0.759590  1.0  1.5026
  Mg  Mg3  1  0.777210  0.664660  0.240410  1.0  1.5027
  Mg  Mg4  1  0.722790  0.335340  0.740410  1.0  1.503
  H  H5  1  0.943000  0.202200  0.972900  1.0  0.0285
  H  H6  1  0.505000  0.224700  0.497800  1.0  0.0227
  H  H7  1  0.308300  0.014700  0.978400  1.0  0.0193
  H  H8  1  0.557000  0.797800  0.472900  1.0  0.0287
  H  H9  1  0.995000  0.775300  0.997800  1.0  0.0224
  H  H10  1  0.191700  0.985300  0.478400  1.0  0.0193
  H  H11  1  0.057000  0.702200  0.527100  1.0  0.0284
  H  H12  1  0.495000  0.724700  0.002200  1.0  0.0227
  H  H13  1  0.691700  0.514700  0.521600  1.0  0.019
  H  H14  1  0.443000  0.297800  0.027100  1.0  0.0279
  H  H15  1  0.005000  0.275300  0.502200  1.0  0.0224
  H  H16  1  0.808300  0.485300  0.021600  1.0  0.019
  C  C17  1  0.989600  0.264630  0.995600  1.0  0.6863
  C  C18  1  0.445200  0.284580  0.493800  1.0  0.6872
  C  C19  1  0.194000  0.997870  0.003700  1.0  0.6891
  C  C20  1  0.510400  0.735370  0.495600  1.0  0.6861
  C  C21  1  0.054800  0.715420  0.993800  1.0  0.6868
  C  C22  1  0.306000  0.002130  0.503700  1.0  0.6891
  C  C23  1  0.010400  0.764630  0.504400  1.0  0.6868
  C  C24  1  0.554800  0.784580  0.006200  1.0  0.6868
  C  C25  1  0.806000  0.497870  0.496300  1.0  0.6891
  C  C26  1  0.489600  0.235370  0.004400  1.0  0.6864
  C  C27  1  0.945200  0.215420  0.506200  1.0  0.6856
  C  C28  1  0.694000  0.502130  0.996300  1.0  0.6892
  O  O29  1  0.104370  0.269520  0.108760  1.0  -0.6084
  O  O30  1  0.929470  0.333740  0.908630  1.0  -0.625
  O  O31  1  0.310920  0.285990  0.402480  1.0  -0.6046
  O  O32  1  0.507200  0.352900  0.578700  1.0  -0.5907
  O  O33  1  0.118380  0.048130  0.119350  1.0  -0.5916
  O  O34  1  0.134290  0.928510  0.919260  1.0  -0.6119
  O  O35  1  0.395630  0.730480  0.608760  1.0  -0.6093
  O  O36  1  0.570530  0.666260  0.408630  1.0  -0.6258
  O  O37  1  0.189080  0.714010  0.902480  1.0  -0.6031
  O  O38  1  0.992800  0.647100  0.078700  1.0  -0.5936
  O  O39  1  0.381620  0.951870  0.619350  1.0  -0.5932
  O  O40  1  0.365710  0.071490  0.419260  1.0  -0.6121
  O  O41  1  0.895630  0.769520  0.391240  1.0  -0.6107
  O  O42  1  0.070530  0.833740  0.591370  1.0  -0.626
  O  O43  1  0.689080  0.785990  0.097520  1.0  -0.6049
  O  O44  1  0.492800  0.852900  0.921300  1.0  -0.5919
  O  O45  1  0.881620  0.548130  0.380650  1.0  -0.5925
  O  O46  1  0.865710  0.428510  0.580740  1.0  -0.612
  O  O47  1  0.604370  0.230480  0.891240  1.0  -0.6074
  O  O48  1  0.429470  0.166260  0.091370  1.0  -0.6252
  O  O49  1  0.810920  0.214010  0.597520  1.0  -0.603
  O  O50  1  0.007200  0.147100  0.421300  1.0  -0.5925
  O  O51  1  0.618380  0.451870  0.880650  1.0  -0.5924
  O  O52  1  0.634290  0.571490  0.080740  1.0  -0.612
