# generated using pymatgen
data_MgH3(CO2)3
_symmetry_space_group_name_H-M   'P 1'
_cell_length_a   7.88880000
_cell_length_b   13.77990000
_cell_length_c   7.42950000
_cell_angle_alpha   90.00000000
_cell_angle_beta   90.00000000
_cell_angle_gamma   90.00000000
_symmetry_Int_Tables_number   1
_chemical_formula_structural   MgH3(CO2)3
_chemical_formula_sum   'Mg4 H12 C12 O24'
_cell_volume   807.63772870
_cell_formula_units_Z   4
loop_
 _symmetry_equiv_pos_site_id
 _symmetry_equiv_pos_as_xyz
  1  'x, y, z'
loop_
 _atom_site_type_symbol
 _atom_site_label
 _atom_site_symmetry_multiplicity
 _atom_site_fract_x
 _atom_site_fract_y
 _atom_site_fract_z
 _atom_site_occupancy
 _atom_site_charge
  Mg  Mg1  1  0.225870  0.164610  0.258580  1.0  1.4978
  Mg  Mg2  1  0.274130  0.835390  0.758580  1.0  1.4973
  Mg  Mg3  1  0.774130  0.664610  0.241420  1.0  1.4976
  Mg  Mg4  1  0.725870  0.335390  0.741420  1.0  1.498
  H  H5  1  0.947200  0.204600  0.973700  1.0  0.0129
  H  H6  1  0.503600  0.224900  0.501800  1.0  0.015
  H  H7  1  0.305800  0.014300  0.978400  1.0  0.0132
  H  H8  1  0.552800  0.795400  0.473700  1.0  0.0134
  H  H9  1  0.996400  0.775100  0.001800  1.0  0.0153
  H  H10  1  0.194200  0.985700  0.478400  1.0  0.0119
  H  H11  1  0.052800  0.704600  0.526300  1.0  0.0123
  H  H12  1  0.496400  0.724900  0.998200  1.0  0.0153
  H  H13  1  0.694200  0.514300  0.521600  1.0  0.0117
  H  H14  1  0.447200  0.295400  0.026300  1.0  0.0129
  H  H15  1  0.003600  0.275100  0.498200  1.0  0.0152
  H  H16  1  0.805800  0.485700  0.021600  1.0  0.0129
  C  C17  1  0.993100  0.265610  0.995800  1.0  0.6936
  C  C18  1  0.447000  0.283980  0.495100  1.0  0.6968
  C  C19  1  0.193600  0.998420  0.003000  1.0  0.7013
  C  C20  1  0.506900  0.734390  0.495800  1.0  0.6929
  C  C21  1  0.053000  0.716020  0.995100  1.0  0.6945
  C  C22  1  0.306400  0.001580  0.503000  1.0  0.7009
  C  C23  1  0.006900  0.765610  0.504200  1.0  0.6934
  C  C24  1  0.553000  0.783980  0.004900  1.0  0.6947
  C  C25  1  0.806400  0.498420  0.497000  1.0  0.7008
  C  C26  1  0.493100  0.234390  0.004200  1.0  0.6935
  C  C27  1  0.947000  0.216020  0.504900  1.0  0.6929
  C  C28  1  0.693600  0.501580  0.997000  1.0  0.701
  O  O29  1  0.107630  0.269880  0.108340  1.0  -0.606
  O  O30  1  0.932980  0.334050  0.909490  1.0  -0.6157
  O  O31  1  0.315960  0.285200  0.401690  1.0  -0.6054
  O  O32  1  0.510440  0.351450  0.579510  1.0  -0.6032
  O  O33  1  0.120160  0.048890  0.117860  1.0  -0.5884
  O  O34  1  0.133510  0.929600  0.918320  1.0  -0.6061
  O  O35  1  0.392370  0.730120  0.608340  1.0  -0.6074
  O  O36  1  0.567020  0.665950  0.409490  1.0  -0.6157
  O  O37  1  0.184040  0.714800  0.901690  1.0  -0.6039
  O  O38  1  0.989560  0.648550  0.079510  1.0  -0.6044
  O  O39  1  0.379840  0.951110  0.617860  1.0  -0.5894
  O  O40  1  0.366490  0.070400  0.418320  1.0  -0.6075
  O  O41  1  0.892370  0.769880  0.391660  1.0  -0.6083
  O  O42  1  0.067020  0.834050  0.590510  1.0  -0.6161
  O  O43  1  0.684040  0.785200  0.098310  1.0  -0.6061
  O  O44  1  0.489560  0.851450  0.920490  1.0  -0.6042
  O  O45  1  0.879840  0.548890  0.382140  1.0  -0.589
  O  O46  1  0.866490  0.429600  0.581680  1.0  -0.6076
  O  O47  1  0.607630  0.230120  0.891660  1.0  -0.6051
  O  O48  1  0.432980  0.165950  0.090510  1.0  -0.6159
  O  O49  1  0.815960  0.214800  0.598310  1.0  -0.6041
  O  O50  1  0.010440  0.148550  0.420490  1.0  -0.6041
  O  O51  1  0.620160  0.451110  0.882140  1.0  -0.5892
  O  O52  1  0.633510  0.570400  0.081680  1.0  -0.606
