# generated using pymatgen
data_MgH3(CO2)3
_symmetry_space_group_name_H-M   'P 1'
_cell_length_a   7.89990000
_cell_length_b   13.75050000
_cell_length_c   7.38290000
_cell_angle_alpha   90.00000000
_cell_angle_beta   90.00000000
_cell_angle_gamma   90.00000000
_symmetry_Int_Tables_number   1
_chemical_formula_structural   MgH3(CO2)3
_chemical_formula_sum   'Mg4 H12 C12 O24'
_cell_volume   801.98652310
_cell_formula_units_Z   4
loop_
 _symmetry_equiv_pos_site_id
 _symmetry_equiv_pos_as_xyz
  1  'x, y, z'
loop_
 _atom_site_type_symbol
 _atom_site_label
 _atom_site_symmetry_multiplicity
 _atom_site_fract_x
 _atom_site_fract_y
 _atom_site_fract_z
 _atom_site_occupancy
 _atom_site_charge
  Mg  Mg1  1  0.220980  0.164840  0.260010  1.0  1.4969
  Mg  Mg2  1  0.279020  0.835160  0.760010  1.0  1.4967
  Mg  Mg3  1  0.779020  0.664840  0.239990  1.0  1.4967
  Mg  Mg4  1  0.720980  0.335160  0.739990  1.0  1.4969
  H  H5  1  0.939900  0.201700  0.973700  1.0  0.0377
  H  H6  1  0.505900  0.225800  0.492300  1.0  0.0279
  H  H7  1  0.310800  0.013100  0.983100  1.0  0.0323
  H  H8  1  0.560100  0.798300  0.473700  1.0  0.0383
  H  H9  1  0.994100  0.774200  0.992300  1.0  0.0273
  H  H10  1  0.189200  0.986900  0.483100  1.0  0.0316
  H  H11  1  0.060100  0.701700  0.526300  1.0  0.0378
  H  H12  1  0.494100  0.725800  0.007700  1.0  0.0277
  H  H13  1  0.689200  0.513100  0.516900  1.0  0.0316
  H  H14  1  0.439900  0.298300  0.026300  1.0  0.0376
  H  H15  1  0.005900  0.274200  0.507700  1.0  0.0273
  H  H16  1  0.810800  0.486900  0.016900  1.0  0.0321
  C  C17  1  0.987210  0.264180  0.995300  1.0  0.6889
  C  C18  1  0.444130  0.285090  0.492200  1.0  0.6997
  C  C19  1  0.195670  0.997150  0.005500  1.0  0.6895
  C  C20  1  0.512790  0.735820  0.495300  1.0  0.6885
  C  C21  1  0.055870  0.714910  0.992200  1.0  0.699
  C  C22  1  0.304330  0.002850  0.505500  1.0  0.6892
  C  C23  1  0.012790  0.764180  0.504700  1.0  0.6892
  C  C24  1  0.555870  0.785090  0.007800  1.0  0.699
  C  C25  1  0.804330  0.497150  0.494500  1.0  0.6895
  C  C26  1  0.487210  0.235820  0.004700  1.0  0.6891
  C  C27  1  0.944130  0.214910  0.507800  1.0  0.6992
  C  C28  1  0.695670  0.502850  0.994500  1.0  0.6889
  O  O29  1  0.103280  0.269670  0.108640  1.0  -0.616
  O  O30  1  0.927760  0.333700  0.907610  1.0  -0.6314
  O  O31  1  0.307870  0.286670  0.403320  1.0  -0.6117
  O  O32  1  0.504940  0.353750  0.579420  1.0  -0.5944
  O  O33  1  0.117560  0.047860  0.119920  1.0  -0.603
  O  O34  1  0.134690  0.927850  0.919340  1.0  -0.6119
  O  O35  1  0.396720  0.730330  0.608640  1.0  -0.6171
  O  O36  1  0.572240  0.666300  0.407610  1.0  -0.6319
  O  O37  1  0.192130  0.713330  0.903320  1.0  -0.6104
  O  O38  1  0.995060  0.646250  0.079420  1.0  -0.5961
  O  O39  1  0.382440  0.952140  0.619920  1.0  -0.6057
  O  O40  1  0.365310  0.072150  0.419340  1.0  -0.6127
  O  O41  1  0.896720  0.769670  0.391360  1.0  -0.6179
  O  O42  1  0.072240  0.833700  0.592390  1.0  -0.6321
  O  O43  1  0.692130  0.786670  0.096680  1.0  -0.6123
  O  O44  1  0.495060  0.853750  0.920580  1.0  -0.5942
  O  O45  1  0.882440  0.547860  0.380080  1.0  -0.6049
  O  O46  1  0.865310  0.427850  0.580660  1.0  -0.6129
  O  O47  1  0.603280  0.230330  0.891360  1.0  -0.6152
  O  O48  1  0.427760  0.166300  0.092390  1.0  -0.6312
  O  O49  1  0.807870  0.213330  0.596680  1.0  -0.6101
  O  O50  1  0.004940  0.146250  0.420580  1.0  -0.5964
  O  O51  1  0.617560  0.452140  0.880080  1.0  -0.6043
  O  O52  1  0.634690  0.572150  0.080660  1.0  -0.6124
