# generated using pymatgen
data_FeH2C7O5
_symmetry_space_group_name_H-M   'P 1'
_cell_length_a   8.66400000
_cell_length_b   8.66400000
_cell_length_c   10.86100000
_cell_angle_alpha   90.00000000
_cell_angle_beta   90.00000000
_cell_angle_gamma   120.00000000
_symmetry_Int_Tables_number   1
_chemical_formula_structural   FeH2C7O5
_chemical_formula_sum   'Fe3 H6 C21 O15'
_cell_volume   706.05304870
_cell_formula_units_Z   3
loop_
 _symmetry_equiv_pos_site_id
 _symmetry_equiv_pos_as_xyz
  1  'x, y, z'
loop_
 _atom_site_type_symbol
 _atom_site_label
 _atom_site_symmetry_multiplicity
 _atom_site_fract_x
 _atom_site_fract_y
 _atom_site_fract_z
 _atom_site_occupancy
 _atom_site_charge
  Fe  Fe1  1  0.055970  0.055970  0.000000  1.0  1.2317
  Fe  Fe2  1  0.944030  0.000000  0.333333  1.0  1.2318
  Fe  Fe3  1  0.000000  0.944030  0.666667  1.0  1.2335
  H  H4  1  0.100250  0.462090  0.003040  1.0  0.2053
  H  H5  1  0.537910  0.638160  0.336370  1.0  0.2071
  H  H6  1  0.361840  0.899750  0.669710  1.0  0.2053
  H  H7  1  0.462090  0.100250  0.996960  1.0  0.2094
  H  H8  1  0.638160  0.537910  0.663630  1.0  0.2068
  H  H9  1  0.899750  0.361840  0.330290  1.0  0.2071
  C  C10  1  0.478360  0.942490  0.726770  1.0  0.0089
  C  C11  1  0.314880  0.940060  0.728830  1.0  0.0939
  C  C12  1  0.057510  0.535870  0.060100  1.0  0.0101
  C  C13  1  0.059940  0.374820  0.062160  1.0  0.0966
  C  C14  1  0.464130  0.521640  0.393440  1.0  0.0065
  C  C15  1  0.625180  0.685120  0.395500  1.0  0.0969
  C  C16  1  0.942490  0.478360  0.273230  1.0  0.0051
  C  C17  1  0.940060  0.314880  0.271170  1.0  0.0978
  C  C18  1  0.535870  0.057510  0.939900  1.0  0.0105
  C  C19  1  0.374820  0.059940  0.937840  1.0  0.0967
  C  C20  1  0.521640  0.464130  0.606560  1.0  0.0075
  C  C21  1  0.685120  0.625180  0.604500  1.0  0.0982
  C  C22  1  0.755800  0.000000  0.833330  1.0  0.7041
  C  C23  1  0.582180  0.000000  0.833330  1.0  -0.103
  C  C24  1  0.269500  0.000000  0.833330  1.0  0.2873
  C  C25  1  0.000000  0.755800  0.166670  1.0  0.7055
  C  C26  1  0.000000  0.582180  0.166670  1.0  -0.1022
  C  C27  1  0.000000  0.269500  0.166670  1.0  0.2869
  C  C28  1  0.244200  0.244200  0.500000  1.0  0.7062
  C  C29  1  0.417820  0.417820  0.500000  1.0  -0.1032
  C  C30  1  0.730500  0.730500  0.500000  1.0  0.2874
  O  O31  1  0.811240  0.977920  0.934630  1.0  -0.5601
  O  O32  1  0.193870  0.882080  0.637070  1.0  -0.5127
  O  O33  1  0.022080  0.833320  0.267960  1.0  -0.5582
  O  O34  1  0.117920  0.311790  0.970400  1.0  -0.5194
  O  O35  1  0.166680  0.188760  0.601300  1.0  -0.5597
  O  O36  1  0.688210  0.806130  0.303740  1.0  -0.5162
  O  O37  1  0.977920  0.811240  0.065370  1.0  -0.56
  O  O38  1  0.882080  0.193870  0.362930  1.0  -0.5159
  O  O39  1  0.833320  0.022080  0.732040  1.0  -0.5602
  O  O40  1  0.311790  0.117920  0.029600  1.0  -0.514
  O  O41  1  0.188760  0.166680  0.398700  1.0  -0.5591
  O  O42  1  0.806130  0.688210  0.696260  1.0  -0.5192
  O  O43  1  0.113300  0.000000  0.833330  1.0  -0.594
  O  O44  1  0.000000  0.113300  0.166670  1.0  -0.5928
  O  O45  1  0.886700  0.886700  0.500000  1.0  -0.5941
