# generated using pymatgen
data_CdH3(C3O2)3
_symmetry_space_group_name_H-M   'P 1'
_cell_length_a   12.61390000
_cell_length_b   15.70050000
_cell_length_c   16.64730000
_cell_angle_alpha   90.00000000
_cell_angle_beta   90.00000000
_cell_angle_gamma   90.00000000
_symmetry_Int_Tables_number   1
_chemical_formula_structural   CdH3(C3O2)3
_chemical_formula_sum   'Cd8 H24 C72 O48'
_cell_volume   3296.90681997
_cell_formula_units_Z   8
loop_
 _symmetry_equiv_pos_site_id
 _symmetry_equiv_pos_as_xyz
  1  'x, y, z'
loop_
 _atom_site_type_symbol
 _atom_site_label
 _atom_site_symmetry_multiplicity
 _atom_site_fract_x
 _atom_site_fract_y
 _atom_site_fract_z
 _atom_site_occupancy
 _atom_site_charge
  Cd  Cd1  1  0.899420  0.003860  0.581150  1.0  1.0845
  Cd  Cd2  1  0.600580  0.996140  0.081150  1.0  1.0869
  Cd  Cd3  1  0.100580  0.503860  0.918850  1.0  1.087
  Cd  Cd4  1  0.399420  0.496140  0.418850  1.0  1.0848
  Cd  Cd5  1  0.100580  0.996140  0.418850  1.0  1.0871
  Cd  Cd6  1  0.399420  0.003860  0.918850  1.0  1.0848
  Cd  Cd7  1  0.899420  0.496140  0.081150  1.0  1.0849
  Cd  Cd8  1  0.600580  0.503860  0.581150  1.0  1.0866
  H  H9  1  0.774200  0.036500  0.857800  1.0  0.1961
  H  H10  1  0.836900  0.242700  0.015400  1.0  0.1971
  H  H11  1  0.944700  0.246600  0.791800  1.0  0.2461
  H  H12  1  0.725800  0.963500  0.357800  1.0  0.1974
  H  H13  1  0.663100  0.757300  0.515400  1.0  0.1975
  H  H14  1  0.555300  0.753400  0.291800  1.0  0.2469
  H  H15  1  0.225800  0.536500  0.642200  1.0  0.1953
  H  H16  1  0.163100  0.742700  0.484600  1.0  0.1972
  H  H17  1  0.055300  0.746600  0.708200  1.0  0.2482
  H  H18  1  0.274200  0.463500  0.142200  1.0  0.1962
  H  H19  1  0.336900  0.257300  0.984600  1.0  0.1974
  H  H20  1  0.444700  0.253400  0.208200  1.0  0.2479
  H  H21  1  0.225800  0.963500  0.142200  1.0  0.1963
  H  H22  1  0.163100  0.757300  0.984600  1.0  0.1978
  H  H23  1  0.055300  0.753400  0.208200  1.0  0.2484
  H  H24  1  0.274200  0.036500  0.642200  1.0  0.195
  H  H25  1  0.336900  0.242700  0.484600  1.0  0.1969
  H  H26  1  0.444700  0.246600  0.708200  1.0  0.2477
  H  H27  1  0.774200  0.463500  0.357800  1.0  0.1975
  H  H28  1  0.836900  0.257300  0.515400  1.0  0.1974
  H  H29  1  0.944700  0.253400  0.291800  1.0  0.2466
  H  H30  1  0.725800  0.536500  0.857800  1.0  0.196
  H  H31  1  0.663100  0.742700  0.015400  1.0  0.1972
  H  H32  1  0.555300  0.746600  0.791800  1.0  0.2464
  C  C33  1  0.903380  0.263580  0.909280  1.0  -0.0153
  C  C34  1  0.803880  0.089800  0.866930  1.0  -0.0197
  C  C35  1  0.859540  0.132970  0.811250  1.0  -0.0147
  C  C36  1  0.960790  0.354240  0.930980  1.0  0.7063
  C  C37  1  0.867540  0.084010  0.729090  1.0  0.4628
  C  C38  1  0.845760  0.220310  0.964080  1.0  0.0211
  C  C39  1  0.907880  0.219180  0.832670  1.0  0.056
  C  C40  1  0.795020  0.135100  0.942690  1.0  -0.0436
  C  C41  1  0.729280  0.089980  0.999740  1.0  0.5086
  C  C42  1  0.596620  0.736420  0.409280  1.0  -0.0164
  C  C43  1  0.696120  0.910200  0.366930  1.0  -0.0198
  C  C44  1  0.640460  0.867030  0.311250  1.0  -0.0162
  C  C45  1  0.539210  0.645760  0.430980  1.0  0.7071
  C  C46  1  0.632460  0.915990  0.229090  1.0  0.4636
  C  C47  1  0.654240  0.779690  0.464080  1.0  0.0211
  C  C48  1  0.592120  0.780820  0.332670  1.0  0.0553
  C  C49  1  0.704980  0.864900  0.442690  1.0  -0.0434
  C  C50  1  0.770720  0.910020  0.499740  1.0  0.5085
  C  C51  1  0.096620  0.763580  0.590720  1.0  -0.016
  C  C52  1  0.196120  0.589800  0.633070  1.0  -0.0197
  C  C53  1  0.140460  0.632970  0.688750  1.0  -0.016
  C  C54  1  0.039210  0.854240  0.569020  1.0  0.707
  C  C55  1  0.132460  0.584010  0.770910  1.0  0.4647
  C  C56  1  0.154240  0.720310  0.535920  1.0  0.0213
  C  C57  1  0.092120  0.719180  0.667330  1.0  0.0568
  C  C58  1  0.204980  0.635100  0.557310  1.0  -0.0435
  C  C59  1  0.270720  0.589980  0.500260  1.0  0.5069
  C  C60  1  0.403380  0.236420  0.090720  1.0  -0.0158
  C  C61  1  0.303880  0.410200  0.133070  1.0  -0.0209
  C  C62  1  0.359540  0.367030  0.188750  1.0  -0.0147
  C  C63  1  0.460790  0.145760  0.069020  1.0  0.7062
  C  C64  1  0.367540  0.415990  0.270910  1.0  0.4634
  C  C65  1  0.345760  0.279690  0.035920  1.0  0.0217
  C  C66  1  0.407880  0.280820  0.167330  1.0  0.0568
  C  C67  1  0.295020  0.364900  0.057310  1.0  -0.0438
  C  C68  1  0.229280  0.410020  0.000260  1.0  0.5082
  C  C69  1  0.096620  0.736420  0.090720  1.0  -0.0166
  C  C70  1  0.196120  0.910200  0.133070  1.0  -0.0199
  C  C71  1  0.140460  0.867030  0.188750  1.0  -0.0154
  C  C72  1  0.039210  0.645760  0.069020  1.0  0.7069
  C  C73  1  0.132460  0.915990  0.270910  1.0  0.464
  C  C74  1  0.154240  0.779690  0.035920  1.0  0.0215
  C  C75  1  0.092120  0.780820  0.167330  1.0  0.0562
  C  C76  1  0.204980  0.864900  0.057310  1.0  -0.0433
  C  C77  1  0.270720  0.910020  0.000260  1.0  0.5079
  C  C78  1  0.403380  0.263580  0.590720  1.0  -0.0155
  C  C79  1  0.303880  0.089800  0.633070  1.0  -0.0205
  C  C80  1  0.359540  0.132970  0.688750  1.0  -0.0152
  C  C81  1  0.460790  0.354240  0.569020  1.0  0.7065
  C  C82  1  0.367540  0.084010  0.770910  1.0  0.4643
  C  C83  1  0.345760  0.220310  0.535920  1.0  0.0215
  C  C84  1  0.407880  0.219180  0.667330  1.0  0.057
  C  C85  1  0.295020  0.135100  0.557310  1.0  -0.0442
  C  C86  1  0.229280  0.089980  0.500260  1.0  0.5072
  C  C87  1  0.903380  0.236420  0.409280  1.0  -0.0155
  C  C88  1  0.803880  0.410200  0.366930  1.0  -0.0207
  C  C89  1  0.859540  0.367030  0.311250  1.0  -0.0146
  C  C90  1  0.960790  0.145760  0.430980  1.0  0.7063
  C  C91  1  0.867540  0.415990  0.229090  1.0  0.463
  C  C92  1  0.845760  0.279690  0.464080  1.0  0.021
  C  C93  1  0.907880  0.280820  0.332670  1.0  0.0558
  C  C94  1  0.795020  0.364900  0.442690  1.0  -0.0438
  C  C95  1  0.729280  0.410020  0.499740  1.0  0.5085
  C  C96  1  0.596620  0.763580  0.909280  1.0  -0.0158
  C  C97  1  0.696120  0.589800  0.866930  1.0  -0.0191
  C  C98  1  0.640460  0.632970  0.811250  1.0  -0.0163
  C  C99  1  0.539210  0.854240  0.930980  1.0  0.7069
  C  C100  1  0.632460  0.584010  0.729090  1.0  0.4634
  C  C101  1  0.654240  0.720310  0.964080  1.0  0.0212
  C  C102  1  0.592120  0.719180  0.832670  1.0  0.0559
  C  C103  1  0.704980  0.635100  0.942690  1.0  -0.0431
  C  C104  1  0.770720  0.589980  0.999740  1.0  0.5085
  O  O105  1  0.908170  0.135070  0.676190  1.0  -0.564
  O  O106  1  0.973770  0.375380  0.003140  1.0  -0.6513
  O  O107  1  0.996080  0.402380  0.873390  1.0  -0.5163
  O  O108  1  0.706770  0.142320  0.058720  1.0  -0.5084
  O  O109  1  0.834680  0.997310  0.714990  1.0  -0.5649
  O  O110  1  0.696550  0.003150  0.982890  1.0  -0.5803
  O  O111  1  0.591830  0.864930  0.176190  1.0  -0.5637
  O  O112  1  0.526230  0.624620  0.503140  1.0  -0.6519
  O  O113  1  0.503920  0.597620  0.373390  1.0  -0.5183
  O  O114  1  0.793230  0.857680  0.558720  1.0  -0.5093
  O  O115  1  0.665320  0.002690  0.214990  1.0  -0.5668
  O  O116  1  0.803450  0.996850  0.482890  1.0  -0.5801
  O  O117  1  0.091830  0.635070  0.823810  1.0  -0.5635
  O  O118  1  0.026230  0.875380  0.496860  1.0  -0.65
  O  O119  1  0.003920  0.902380  0.626610  1.0  -0.5159
  O  O120  1  0.293230  0.642320  0.441280  1.0  -0.51
  O  O121  1  0.165320  0.497310  0.785010  1.0  -0.565
  O  O122  1  0.303450  0.503150  0.517110  1.0  -0.5806
  O  O123  1  0.408170  0.364930  0.323810  1.0  -0.5628
  O  O124  1  0.473770  0.124620  0.996860  1.0  -0.6494
  O  O125  1  0.496080  0.097620  0.126610  1.0  -0.5158
  O  O126  1  0.206770  0.357680  0.941280  1.0  -0.5088
  O  O127  1  0.334680  0.502690  0.285010  1.0  -0.5674
  O  O128  1  0.196550  0.496850  0.017110  1.0  -0.5797
  O  O129  1  0.091830  0.864930  0.323810  1.0  -0.564
  O  O130  1  0.026230  0.624620  0.996860  1.0  -0.649
  O  O131  1  0.003920  0.597620  0.126610  1.0  -0.5168
  O  O132  1  0.293230  0.857680  0.941280  1.0  -0.5091
  O  O133  1  0.165320  0.002690  0.285010  1.0  -0.5668
  O  O134  1  0.303450  0.996850  0.017110  1.0  -0.5824
  O  O135  1  0.408170  0.135070  0.823810  1.0  -0.5636
  O  O136  1  0.473770  0.375380  0.496860  1.0  -0.6503
  O  O137  1  0.496080  0.402380  0.626610  1.0  -0.5171
  O  O138  1  0.206770  0.142320  0.441280  1.0  -0.5092
  O  O139  1  0.334680  0.997310  0.785010  1.0  -0.5648
  O  O140  1  0.196550  0.003150  0.517110  1.0  -0.5826
  O  O141  1  0.908170  0.364930  0.176190  1.0  -0.5644
  O  O142  1  0.973770  0.124620  0.503140  1.0  -0.6521
  O  O143  1  0.996080  0.097620  0.373390  1.0  -0.5164
  O  O144  1  0.706770  0.357680  0.558720  1.0  -0.5089
  O  O145  1  0.834680  0.502690  0.214990  1.0  -0.5674
  O  O146  1  0.696550  0.496850  0.482890  1.0  -0.582
  O  O147  1  0.591830  0.635070  0.676190  1.0  -0.5644
  O  O148  1  0.526230  0.875380  0.003140  1.0  -0.6512
  O  O149  1  0.503920  0.902380  0.873390  1.0  -0.5168
  O  O150  1  0.793230  0.642320  0.058720  1.0  -0.5091
  O  O151  1  0.665320  0.497310  0.714990  1.0  -0.5652
  O  O152  1  0.803450  0.503150  0.982890  1.0  -0.5829
