# generated using pymatgen
data_Cd2H3C9(ClO3)2
_symmetry_space_group_name_H-M   'P 1'
_cell_length_a   9.38030000
_cell_length_b   10.13950000
_cell_length_c   10.98160000
_cell_angle_alpha   87.65900000
_cell_angle_beta   81.27300000
_cell_angle_gamma   63.59900000
_symmetry_Int_Tables_number   1
_chemical_formula_structural   Cd2H3C9(ClO3)2
_chemical_formula_sum   'Cd4 H6 C18 Cl4 O12'
_cell_volume   924.29294820
_cell_formula_units_Z   2
loop_
 _symmetry_equiv_pos_site_id
 _symmetry_equiv_pos_as_xyz
  1  'x, y, z'
loop_
 _atom_site_type_symbol
 _atom_site_label
 _atom_site_symmetry_multiplicity
 _atom_site_fract_x
 _atom_site_fract_y
 _atom_site_fract_z
 _atom_site_occupancy
 _atom_site_charge
  Cd  Cd1  1  0.201890  0.376020  0.379990  1.0  1.1137
  Cd  Cd2  1  0.401470  0.100630  0.150320  1.0  0.8505
  Cd  Cd3  1  0.798110  0.623980  0.620010  1.0  1.1142
  Cd  Cd4  1  0.598530  0.899370  0.849680  1.0  0.8517
  H  H5  1  0.140400  0.853800  0.336800  1.0  0.1516
  H  H6  1  0.683900  0.902000  0.398800  1.0  0.1522
  H  H7  1  0.768500  0.260500  0.365700  1.0  0.1589
  H  H8  1  0.859600  0.146200  0.663200  1.0  0.1524
  H  H9  1  0.316100  0.098000  0.601200  1.0  0.1518
  H  H10  1  0.231500  0.739500  0.634300  1.0  0.1604
  C  C11  1  0.972160  0.066910  0.344560  1.0  -0.1115
  C  C12  1  0.028990  0.915010  0.349870  1.0  0.0186
  C  C13  1  0.922120  0.852600  0.374360  1.0  -0.1147
  C  C14  1  0.756570  0.943530  0.386150  1.0  0.0347
  C  C15  1  0.699310  0.095630  0.379130  1.0  -0.078
  C  C16  1  0.807330  0.157570  0.363460  1.0  0.0013
  C  C17  1  0.091480  0.129500  0.310920  1.0  0.7671
  C  C18  1  0.986780  0.689010  0.385850  1.0  0.7408
  C  C19  1  0.522890  0.192330  0.382660  1.0  0.7315
  C  C20  1  0.027840  0.933090  0.655440  1.0  -0.1116
  C  C21  1  0.971010  0.084990  0.650130  1.0  0.0186
  C  C22  1  0.077880  0.147400  0.625640  1.0  -0.1158
  C  C23  1  0.243430  0.056470  0.613850  1.0  0.034
  C  C24  1  0.300690  0.904370  0.620870  1.0  -0.0783
  C  C25  1  0.192670  0.842430  0.636540  1.0  -0.0008
  C  C26  1  0.908520  0.870500  0.689080  1.0  0.7651
  C  C27  1  0.013220  0.310990  0.614150  1.0  0.7405
  C  C28  1  0.477110  0.807670  0.617340  1.0  0.7321
  Cl  Cl29  1  0.299760  0.370510  0.129570  1.0  -0.4578
  Cl  Cl30  1  0.681640  0.945630  0.063980  1.0  -0.3922
  Cl  Cl31  1  0.700240  0.629490  0.870430  1.0  -0.4565
  Cl  Cl32  1  0.318360  0.054370  0.936020  1.0  -0.3947
  O  O33  1  0.218030  0.044630  0.244340  1.0  -0.5678
  O  O34  1  0.055110  0.256300  0.349030  1.0  -0.6044
  O  O35  1  0.890570  0.632730  0.417120  1.0  -0.6317
  O  O36  1  0.136600  0.612850  0.360560  1.0  -0.5396
  O  O37  1  0.464000  0.326020  0.411550  1.0  -0.5655
  O  O38  1  0.435870  0.134820  0.353840  1.0  -0.6585
  O  O39  1  0.781970  0.955370  0.755660  1.0  -0.5656
  O  O40  1  0.944890  0.743700  0.650970  1.0  -0.606
  O  O41  1  0.109430  0.367270  0.582880  1.0  -0.6321
  O  O42  1  0.863400  0.387150  0.639440  1.0  -0.5389
  O  O43  1  0.536000  0.673980  0.588450  1.0  -0.5613
  O  O44  1  0.564130  0.865180  0.646160  1.0  -0.6585
