# generated using pymatgen
data_Na4Mo5H6C5NO22
_symmetry_space_group_name_H-M   'P 1'
_cell_length_a   30.31700000
_cell_length_b   21.29500000
_cell_length_c   13.38400000
_cell_angle_alpha   90.00000000
_cell_angle_beta   114.19000000
_cell_angle_gamma   90.00000000
_symmetry_Int_Tables_number   1
_chemical_formula_structural   Na4Mo5H6C5NO22
_chemical_formula_sum   'Na32 Mo40 H48 C40 N8 O176'
_cell_volume   7881.99014153
_cell_formula_units_Z   8
loop_
 _symmetry_equiv_pos_site_id
 _symmetry_equiv_pos_as_xyz
  1  'x, y, z'
loop_
 _atom_site_type_symbol
 _atom_site_label
 _atom_site_symmetry_multiplicity
 _atom_site_fract_x
 _atom_site_fract_y
 _atom_site_fract_z
 _atom_site_occupancy
 _atom_site_charge
  Na  Na1  1  0.177900  0.034400  0.258300  1.0  0.9597
  Na  Na2  1  0.233700  0.964900  0.501000  1.0  0.9717
  Na  Na3  1  0.141900  0.371100  0.008400  1.0  0.9965
  Na  Na4  1  0.393400  0.232100  0.265900  1.0  0.9186
  Na  Na5  1  0.677900  0.534400  0.258300  1.0  0.9597
  Na  Na6  1  0.733700  0.464900  0.501000  1.0  0.9717
  Na  Na7  1  0.641900  0.871100  0.008400  1.0  0.9965
  Na  Na8  1  0.893400  0.732100  0.265900  1.0  0.9186
  Na  Na9  1  0.822100  0.034400  0.241700  1.0  0.9602
  Na  Na10  1  0.766300  0.964900  0.999000  1.0  0.973
  Na  Na11  1  0.858100  0.371100  0.491600  1.0  0.9978
  Na  Na12  1  0.606600  0.232100  0.234100  1.0  0.9217
  Na  Na13  1  0.322100  0.534400  0.241700  1.0  0.9602
  Na  Na14  1  0.266300  0.464900  0.999000  1.0  0.973
  Na  Na15  1  0.358100  0.871100  0.491600  1.0  0.9978
  Na  Na16  1  0.106600  0.732100  0.234100  1.0  0.9217
  Na  Na17  1  0.822100  0.965600  0.741700  1.0  0.9597
  Na  Na18  1  0.766300  0.035100  0.499000  1.0  0.9736
  Na  Na19  1  0.858100  0.628900  0.991600  1.0  0.9967
  Na  Na20  1  0.606600  0.767900  0.734100  1.0  0.9197
  Na  Na21  1  0.322100  0.465600  0.741700  1.0  0.9597
  Na  Na22  1  0.266300  0.535100  0.499000  1.0  0.9736
  Na  Na23  1  0.358100  0.128900  0.991600  1.0  0.9967
  Na  Na24  1  0.106600  0.267900  0.734100  1.0  0.9197
  Na  Na25  1  0.177900  0.965600  0.758300  1.0  0.9597
  Na  Na26  1  0.233700  0.035100  0.001000  1.0  0.9737
  Na  Na27  1  0.141900  0.628900  0.508400  1.0  0.9956
  Na  Na28  1  0.393400  0.767900  0.765900  1.0  0.9159
  Na  Na29  1  0.677900  0.465600  0.758300  1.0  0.9597
  Na  Na30  1  0.733700  0.535100  0.001000  1.0  0.9737
  Na  Na31  1  0.641900  0.128900  0.508400  1.0  0.9956
  Na  Na32  1  0.893400  0.267900  0.765900  1.0  0.9159
  Mo  Mo33  1  0.225330  0.210060  0.376970  1.0  2.2893
  Mo  Mo34  1  0.085690  0.152430  0.098410  1.0  1.4817
  Mo  Mo35  1  0.331330  0.297760  0.463930  1.0  1.4171
  Mo  Mo36  1  0.125300  0.299440  0.263480  1.0  1.418
  Mo  Mo37  1  0.228900  0.369500  0.324480  1.0  2.2436
  Mo  Mo38  1  0.725330  0.710060  0.376970  1.0  2.2893
  Mo  Mo39  1  0.585690  0.652430  0.098410  1.0  1.4817
  Mo  Mo40  1  0.831330  0.797760  0.463930  1.0  1.4171
  Mo  Mo41  1  0.625300  0.799440  0.263480  1.0  1.418
  Mo  Mo42  1  0.728900  0.869500  0.324480  1.0  2.2436
  Mo  Mo43  1  0.774670  0.210060  0.123030  1.0  2.2907
  Mo  Mo44  1  0.914310  0.152430  0.401590  1.0  1.4764
  Mo  Mo45  1  0.668670  0.297760  0.036070  1.0  1.4153
  Mo  Mo46  1  0.874700  0.299440  0.236520  1.0  1.4185
  Mo  Mo47  1  0.771100  0.369500  0.175520  1.0  2.2434
  Mo  Mo48  1  0.274670  0.710060  0.123030  1.0  2.2907
  Mo  Mo49  1  0.414310  0.652430  0.401590  1.0  1.4764
  Mo  Mo50  1  0.168670  0.797760  0.036070  1.0  1.4153
  Mo  Mo51  1  0.374700  0.799440  0.236520  1.0  1.4185
  Mo  Mo52  1  0.271100  0.869500  0.175520  1.0  2.2434
  Mo  Mo53  1  0.774670  0.789940  0.623030  1.0  2.2895
  Mo  Mo54  1  0.914310  0.847570  0.901590  1.0  1.4754
  Mo  Mo55  1  0.668670  0.702240  0.536070  1.0  1.4161
  Mo  Mo56  1  0.874700  0.700560  0.736520  1.0  1.4172
  Mo  Mo57  1  0.771100  0.630500  0.675520  1.0  2.2445
  Mo  Mo58  1  0.274670  0.289940  0.623030  1.0  2.2895
  Mo  Mo59  1  0.414310  0.347570  0.901590  1.0  1.4754
  Mo  Mo60  1  0.168670  0.202240  0.536070  1.0  1.4161
  Mo  Mo61  1  0.374700  0.200560  0.736520  1.0  1.4172
  Mo  Mo62  1  0.271100  0.130500  0.675520  1.0  2.2445
  Mo  Mo63  1  0.225330  0.789940  0.876970  1.0  2.288
  Mo  Mo64  1  0.085690  0.847570  0.598410  1.0  1.4791
  Mo  Mo65  1  0.331330  0.702240  0.963930  1.0  1.417
  Mo  Mo66  1  0.125300  0.700560  0.763480  1.0  1.4155
  Mo  Mo67  1  0.228900  0.630500  0.824480  1.0  2.2453
  Mo  Mo68  1  0.725330  0.289940  0.876970  1.0  2.288
  Mo  Mo69  1  0.585690  0.347570  0.598410  1.0  1.4791
  Mo  Mo70  1  0.831330  0.202240  0.963930  1.0  1.417
  Mo  Mo71  1  0.625300  0.200560  0.763480  1.0  1.4155
  Mo  Mo72  1  0.728900  0.130500  0.824480  1.0  2.2453
  H  H73  1  0.000800  0.251100  0.139900  1.0  0.1268
  H  H74  1  0.955800  0.218400  0.049500  1.0  0.1354
  H  H75  1  0.987200  0.070100  0.108200  1.0  0.1386
  H  H76  1  0.947800  0.117100  0.032700  1.0  0.134
  H  H77  1  0.043200  0.188700  0.278500  1.0  0.1297
  H  H78  1  0.040400  0.115400  0.267600  1.0  0.1237
  H  H79  1  0.500800  0.751100  0.139900  1.0  0.1268
  H  H80  1  0.455800  0.718400  0.049500  1.0  0.1354
  H  H81  1  0.487200  0.570100  0.108200  1.0  0.1386
  H  H82  1  0.447800  0.617100  0.032700  1.0  0.134
  H  H83  1  0.543200  0.688700  0.278500  1.0  0.1297
  H  H84  1  0.540400  0.615400  0.267600  1.0  0.1237
  H  H85  1  0.999200  0.251100  0.360100  1.0  0.1269
  H  H86  1  0.044200  0.218400  0.450500  1.0  0.1361
  H  H87  1  0.012800  0.070100  0.391800  1.0  0.1382
  H  H88  1  0.052200  0.117100  0.467300  1.0  0.1355
  H  H89  1  0.956800  0.188700  0.221500  1.0  0.1296
  H  H90  1  0.959600  0.115400  0.232400  1.0  0.1249
  H  H91  1  0.499200  0.751100  0.360100  1.0  0.1269
  H  H92  1  0.544200  0.718400  0.450500  1.0  0.1361
  H  H93  1  0.512800  0.570100  0.391800  1.0  0.1382
  H  H94  1  0.552200  0.617100  0.467300  1.0  0.1355
  H  H95  1  0.456800  0.688700  0.221500  1.0  0.1296
  H  H96  1  0.459600  0.615400  0.232400  1.0  0.1249
  H  H97  1  0.999200  0.748900  0.860100  1.0  0.1262
  H  H98  1  0.044200  0.781600  0.950500  1.0  0.1368
  H  H99  1  0.012800  0.929900  0.891800  1.0  0.1394
  H  H100  1  0.052200  0.882900  0.967300  1.0  0.1366
  H  H101  1  0.956800  0.811300  0.721500  1.0  0.1296
  H  H102  1  0.959600  0.884600  0.732400  1.0  0.1242
  H  H103  1  0.499200  0.248900  0.860100  1.0  0.1262
  H  H104  1  0.544200  0.281600  0.950500  1.0  0.1368
  H  H105  1  0.512800  0.429900  0.891800  1.0  0.1394
  H  H106  1  0.552200  0.382900  0.967300  1.0  0.1366
  H  H107  1  0.456800  0.311300  0.721500  1.0  0.1296
  H  H108  1  0.459600  0.384600  0.732400  1.0  0.1242
  H  H109  1  0.000800  0.748900  0.639900  1.0  0.1263
  H  H110  1  0.955800  0.781600  0.549500  1.0  0.1348
  H  H111  1  0.987200  0.929900  0.608200  1.0  0.1385
  H  H112  1  0.947800  0.882900  0.532700  1.0  0.1345
  H  H113  1  0.043200  0.811300  0.778500  1.0  0.1286
  H  H114  1  0.040400  0.884600  0.767600  1.0  0.1238
  H  H115  1  0.500800  0.248900  0.639900  1.0  0.1263
  H  H116  1  0.455800  0.281600  0.549500  1.0  0.1348
  H  H117  1  0.487200  0.429900  0.608200  1.0  0.1385
  H  H118  1  0.447800  0.382900  0.532700  1.0  0.1345
  H  H119  1  0.543200  0.311300  0.778500  1.0  0.1286
  H  H120  1  0.540400  0.384600  0.767600  1.0  0.1238
  C  C121  1  0.004700  0.247700  0.993200  1.0  0.7949
  C  C122  1  0.990800  0.221900  0.079100  1.0  -0.0719
  C  C123  1  0.981600  0.105500  0.058800  1.0  -0.1386
  C  C124  1  0.992000  0.085900  0.963500  1.0  0.771
  C  C125  1  0.022700  0.154000  0.239300  1.0  0.0328
  C  C126  1  0.504700  0.747700  0.993200  1.0  0.7949
  C  C127  1  0.490800  0.721900  0.079100  1.0  -0.0719
  C  C128  1  0.481600  0.605500  0.058800  1.0  -0.1386
  C  C129  1  0.492000  0.585900  0.963500  1.0  0.771
  C  C130  1  0.522700  0.654000  0.239300  1.0  0.0328
  C  C131  1  0.995300  0.247700  0.506800  1.0  0.7954
  C  C132  1  0.009200  0.221900  0.420900  1.0  -0.0715
  C  C133  1  0.018400  0.105500  0.441200  1.0  -0.1366
  C  C134  1  0.008000  0.085900  0.536500  1.0  0.7749
  C  C135  1  0.977300  0.154000  0.260700  1.0  0.0319
  C  C136  1  0.495300  0.747700  0.506800  1.0  0.7954
  C  C137  1  0.509200  0.721900  0.420900  1.0  -0.0715
  C  C138  1  0.518400  0.605500  0.441200  1.0  -0.1366
  C  C139  1  0.508000  0.585900  0.536500  1.0  0.7749
  C  C140  1  0.477300  0.654000  0.260700  1.0  0.0319
  C  C141  1  0.995300  0.752300  0.006800  1.0  0.7943
  C  C142  1  0.009200  0.778100  0.920900  1.0  -0.0718
  C  C143  1  0.018400  0.894500  0.941200  1.0  -0.136
  C  C144  1  0.008000  0.914100  0.036500  1.0  0.7737
  C  C145  1  0.977300  0.846000  0.760700  1.0  0.0322
  C  C146  1  0.495300  0.252300  0.006800  1.0  0.7943
  C  C147  1  0.509200  0.278100  0.920900  1.0  -0.0718
  C  C148  1  0.518400  0.394500  0.941200  1.0  -0.136
  C  C149  1  0.508000  0.414100  0.036500  1.0  0.7737
  C  C150  1  0.477300  0.346000  0.760700  1.0  0.0322
  C  C151  1  0.004700  0.752300  0.493200  1.0  0.7952
  C  C152  1  0.990800  0.778100  0.579100  1.0  -0.0734
  C  C153  1  0.981600  0.894500  0.558800  1.0  -0.1371
  C  C154  1  0.992000  0.914100  0.463500  1.0  0.7703
  C  C155  1  0.022700  0.846000  0.739300  1.0  0.033
  C  C156  1  0.504700  0.252300  0.493200  1.0  0.7952
  C  C157  1  0.490800  0.278100  0.579100  1.0  -0.0734
  C  C158  1  0.481600  0.394500  0.558800  1.0  -0.1371
  C  C159  1  0.492000  0.414100  0.463500  1.0  0.7703
  C  C160  1  0.522700  0.346000  0.739300  1.0  0.033
  N  N161  1  0.012210  0.159600  0.120400  1.0  -0.0761
  N  N162  1  0.512210  0.659600  0.120400  1.0  -0.0761
  N  N163  1  0.987790  0.159600  0.379600  1.0  -0.0773
  N  N164  1  0.487790  0.659600  0.379600  1.0  -0.0773
  N  N165  1  0.987790  0.840400  0.879600  1.0  -0.0773
  N  N166  1  0.487790  0.340400  0.879600  1.0  -0.0773
  N  N167  1  0.012210  0.840400  0.620400  1.0  -0.076
  N  N168  1  0.512210  0.340400  0.620400  1.0  -0.076
  O  O169  1  0.980800  0.290900  0.934700  1.0  -0.5627
  O  O170  1  0.284250  0.209300  0.383200  1.0  -0.7141
  O  O171  1  0.201400  0.141000  0.314700  1.0  -0.7538
  O  O172  1  0.106300  0.214300  0.200000  1.0  -0.6674
  O  O173  1  0.105000  0.333600  0.136900  1.0  -0.7333
  O  O174  1  0.197230  0.271700  0.267600  1.0  -0.8131
  O  O175  1  0.258930  0.307790  0.470400  1.0  -0.8249
  O  O176  1  0.098780  0.086800  0.176200  1.0  -0.6665
  O  O177  1  0.206900  0.394000  0.190600  1.0  -0.7525
  O  O178  1  0.165060  0.242100  0.407000  1.0  -0.741
  O  O179  1  0.033990  0.101400  0.967000  1.0  -0.5882
  O  O180  1  0.169190  0.365400  0.343600  1.0  -0.6922
  O  O181  1  0.251800  0.435000  0.400300  1.0  -0.8076
  O  O182  1  0.287210  0.332300  0.324600  1.0  -0.6668
  O  O183  1  0.373160  0.259400  0.430300  1.0  -0.6605
  O  O184  1  0.962700  0.054600  0.890400  1.0  -0.4624
  O  O185  1  0.042060  0.224000  0.985400  1.0  -0.5967
  O  O186  1  0.154500  0.018800  0.398800  1.0  -0.5385
  O  O187  1  0.256800  0.004400  0.370500  1.0  -0.5873
  O  O188  1  0.199700  0.063700  0.110700  1.0  -0.7168
  O  O189  1  0.314700  0.921700  0.597000  1.0  -0.6142
  O  O190  1  0.087400  0.304500  0.884000  1.0  -0.6337
  O  O191  1  0.480800  0.790900  0.934700  1.0  -0.5627
  O  O192  1  0.784250  0.709300  0.383200  1.0  -0.7141
  O  O193  1  0.701400  0.641000  0.314700  1.0  -0.7538
  O  O194  1  0.606300  0.714300  0.200000  1.0  -0.6674
  O  O195  1  0.605000  0.833600  0.136900  1.0  -0.7333
  O  O196  1  0.697230  0.771700  0.267600  1.0  -0.8131
  O  O197  1  0.758930  0.807790  0.470400  1.0  -0.8249
  O  O198  1  0.598780  0.586800  0.176200  1.0  -0.6665
  O  O199  1  0.706900  0.894000  0.190600  1.0  -0.7525
  O  O200  1  0.665060  0.742100  0.407000  1.0  -0.741
  O  O201  1  0.533990  0.601400  0.967000  1.0  -0.5882
  O  O202  1  0.669190  0.865400  0.343600  1.0  -0.6922
  O  O203  1  0.751800  0.935000  0.400300  1.0  -0.8076
  O  O204  1  0.787210  0.832300  0.324600  1.0  -0.6668
  O  O205  1  0.873160  0.759400  0.430300  1.0  -0.6605
  O  O206  1  0.462700  0.554600  0.890400  1.0  -0.4624
  O  O207  1  0.542060  0.724000  0.985400  1.0  -0.5967
  O  O208  1  0.654500  0.518800  0.398800  1.0  -0.5385
  O  O209  1  0.756800  0.504400  0.370500  1.0  -0.5873
  O  O210  1  0.699700  0.563700  0.110700  1.0  -0.7168
  O  O211  1  0.814700  0.421700  0.597000  1.0  -0.6142
  O  O212  1  0.587400  0.804500  0.884000  1.0  -0.6346
  O  O213  1  0.019200  0.290900  0.565300  1.0  -0.56
  O  O214  1  0.715750  0.209300  0.116800  1.0  -0.718
  O  O215  1  0.798600  0.141000  0.185300  1.0  -0.7543
  O  O216  1  0.893700  0.214300  0.300000  1.0  -0.6678
  O  O217  1  0.895000  0.333600  0.363100  1.0  -0.7335
  O  O218  1  0.802770  0.271700  0.232400  1.0  -0.8084
  O  O219  1  0.741070  0.307790  0.029600  1.0  -0.8255
  O  O220  1  0.901220  0.086800  0.323800  1.0  -0.6676
  O  O221  1  0.793100  0.394000  0.309400  1.0  -0.7524
  O  O222  1  0.834940  0.242100  0.093000  1.0  -0.7407
  O  O223  1  0.966010  0.101400  0.533000  1.0  -0.5876
  O  O224  1  0.830810  0.365400  0.156400  1.0  -0.6922
  O  O225  1  0.748200  0.435000  0.099700  1.0  -0.8085
  O  O226  1  0.712790  0.332300  0.175400  1.0  -0.669
  O  O227  1  0.626840  0.259400  0.069700  1.0  -0.663
  O  O228  1  0.037300  0.054600  0.609600  1.0  -0.4612
  O  O229  1  0.957940  0.224000  0.514600  1.0  -0.5978
  O  O230  1  0.845500  0.018800  0.101200  1.0  -0.5385
  O  O231  1  0.743200  0.004400  0.129500  1.0  -0.5872
  O  O232  1  0.800300  0.063700  0.389300  1.0  -0.7193
  O  O233  1  0.685300  0.921700  0.903000  1.0  -0.6146
  O  O234  1  0.912600  0.304500  0.616000  1.0  -0.6342
  O  O235  1  0.519200  0.790900  0.565300  1.0  -0.56
  O  O236  1  0.215750  0.709300  0.116800  1.0  -0.718
  O  O237  1  0.298600  0.641000  0.185300  1.0  -0.7543
  O  O238  1  0.393700  0.714300  0.300000  1.0  -0.6678
  O  O239  1  0.395000  0.833600  0.363100  1.0  -0.7335
  O  O240  1  0.302770  0.771700  0.232400  1.0  -0.8084
  O  O241  1  0.241070  0.807790  0.029600  1.0  -0.8255
  O  O242  1  0.401220  0.586800  0.323800  1.0  -0.6676
  O  O243  1  0.293100  0.894000  0.309400  1.0  -0.7524
  O  O244  1  0.334940  0.742100  0.093000  1.0  -0.7407
  O  O245  1  0.466010  0.601400  0.533000  1.0  -0.5876
  O  O246  1  0.330810  0.865400  0.156400  1.0  -0.6922
  O  O247  1  0.248200  0.935000  0.099700  1.0  -0.8085
  O  O248  1  0.212790  0.832300  0.175400  1.0  -0.669
  O  O249  1  0.126840  0.759400  0.069700  1.0  -0.663
  O  O250  1  0.537300  0.554600  0.609600  1.0  -0.4612
  O  O251  1  0.457940  0.724000  0.514600  1.0  -0.5978
  O  O252  1  0.345500  0.518800  0.101200  1.0  -0.5385
  O  O253  1  0.243200  0.504400  0.129500  1.0  -0.5872
  O  O254  1  0.300300  0.563700  0.389300  1.0  -0.7193
  O  O255  1  0.185300  0.421700  0.903000  1.0  -0.6146
  O  O256  1  0.412600  0.804500  0.616000  1.0  -0.6355
  O  O257  1  0.019200  0.709100  0.065300  1.0  -0.5615
  O  O258  1  0.715750  0.790700  0.616800  1.0  -0.7167
  O  O259  1  0.798600  0.859000  0.685300  1.0  -0.7546
  O  O260  1  0.893700  0.785700  0.800000  1.0  -0.668
  O  O261  1  0.895000  0.666400  0.863100  1.0  -0.7345
  O  O262  1  0.802770  0.728300  0.732400  1.0  -0.8086
  O  O263  1  0.741070  0.692210  0.529600  1.0  -0.8256
  O  O264  1  0.901220  0.913200  0.823800  1.0  -0.6681
  O  O265  1  0.793100  0.606000  0.809400  1.0  -0.7531
  O  O266  1  0.834940  0.757900  0.593000  1.0  -0.7403
  O  O267  1  0.966010  0.898600  0.033000  1.0  -0.5873
  O  O268  1  0.830810  0.634600  0.656400  1.0  -0.6899
  O  O269  1  0.748200  0.565000  0.599700  1.0  -0.8088
  O  O270  1  0.712790  0.667700  0.675400  1.0  -0.6691
  O  O271  1  0.626840  0.740600  0.569700  1.0  -0.6625
  O  O272  1  0.037300  0.945400  0.109600  1.0  -0.4621
  O  O273  1  0.957940  0.776000  0.014600  1.0  -0.597
  O  O274  1  0.845500  0.981200  0.601200  1.0  -0.54
  O  O275  1  0.743200  0.995600  0.629500  1.0  -0.5866
  O  O276  1  0.800300  0.936300  0.889300  1.0  -0.7183
  O  O277  1  0.685300  0.078300  0.403000  1.0  -0.6131
  O  O278  1  0.912600  0.695500  0.116000  1.0  -0.6344
  O  O279  1  0.519200  0.209100  0.065300  1.0  -0.5615
  O  O280  1  0.215750  0.290700  0.616800  1.0  -0.7167
  O  O281  1  0.298600  0.359000  0.685300  1.0  -0.7546
  O  O282  1  0.393700  0.285700  0.800000  1.0  -0.668
  O  O283  1  0.395000  0.166400  0.863100  1.0  -0.7345
  O  O284  1  0.302770  0.228300  0.732400  1.0  -0.8086
  O  O285  1  0.241070  0.192210  0.529600  1.0  -0.8256
  O  O286  1  0.401220  0.413200  0.823800  1.0  -0.6681
  O  O287  1  0.293100  0.106000  0.809400  1.0  -0.7531
  O  O288  1  0.334940  0.257900  0.593000  1.0  -0.7403
  O  O289  1  0.466010  0.398600  0.033000  1.0  -0.5873
  O  O290  1  0.330810  0.134600  0.656400  1.0  -0.6899
  O  O291  1  0.248200  0.065000  0.599700  1.0  -0.8088
  O  O292  1  0.212790  0.167700  0.675400  1.0  -0.6691
  O  O293  1  0.126840  0.240600  0.569700  1.0  -0.6625
  O  O294  1  0.537300  0.445400  0.109600  1.0  -0.4621
  O  O295  1  0.457940  0.276000  0.014600  1.0  -0.597
  O  O296  1  0.345500  0.481200  0.601200  1.0  -0.54
  O  O297  1  0.243200  0.495600  0.629500  1.0  -0.5866
  O  O298  1  0.300300  0.436300  0.889300  1.0  -0.7183
  O  O299  1  0.185300  0.578300  0.403000  1.0  -0.6131
  O  O300  1  0.412600  0.195500  0.116000  1.0  -0.6351
  O  O301  1  0.980800  0.709100  0.434700  1.0  -0.5602
  O  O302  1  0.284250  0.790700  0.883200  1.0  -0.716
  O  O303  1  0.201400  0.859000  0.814700  1.0  -0.7536
  O  O304  1  0.106300  0.785700  0.700000  1.0  -0.6675
  O  O305  1  0.105000  0.666400  0.636900  1.0  -0.7338
  O  O306  1  0.197230  0.728300  0.767600  1.0  -0.8125
  O  O307  1  0.258930  0.692210  0.970400  1.0  -0.8249
  O  O308  1  0.098780  0.913200  0.676200  1.0  -0.6668
  O  O309  1  0.206900  0.606000  0.690600  1.0  -0.7523
  O  O310  1  0.165060  0.757900  0.907000  1.0  -0.741
  O  O311  1  0.033990  0.898600  0.467000  1.0  -0.589
  O  O312  1  0.169190  0.634600  0.843600  1.0  -0.6932
  O  O313  1  0.251800  0.565000  0.900300  1.0  -0.808
  O  O314  1  0.287210  0.667700  0.824600  1.0  -0.6666
  O  O315  1  0.373160  0.740600  0.930300  1.0  -0.6617
  O  O316  1  0.962700  0.945400  0.390400  1.0  -0.4617
  O  O317  1  0.042060  0.776000  0.485400  1.0  -0.597
  O  O318  1  0.154500  0.981200  0.898800  1.0  -0.5392
  O  O319  1  0.256800  0.995600  0.870500  1.0  -0.5868
  O  O320  1  0.199700  0.936300  0.610700  1.0  -0.7162
  O  O321  1  0.314700  0.078300  0.097000  1.0  -0.6126
  O  O322  1  0.087400  0.695500  0.384000  1.0  -0.6319
  O  O323  1  0.480800  0.209100  0.434700  1.0  -0.5602
  O  O324  1  0.784250  0.290700  0.883200  1.0  -0.716
  O  O325  1  0.701400  0.359000  0.814700  1.0  -0.7536
  O  O326  1  0.606300  0.285700  0.700000  1.0  -0.6675
  O  O327  1  0.605000  0.166400  0.636900  1.0  -0.7338
  O  O328  1  0.697230  0.228300  0.767600  1.0  -0.8125
  O  O329  1  0.758930  0.192210  0.970400  1.0  -0.8249
  O  O330  1  0.598780  0.413200  0.676200  1.0  -0.6668
  O  O331  1  0.706900  0.106000  0.690600  1.0  -0.7523
  O  O332  1  0.665060  0.257900  0.907000  1.0  -0.741
  O  O333  1  0.533990  0.398600  0.467000  1.0  -0.589
  O  O334  1  0.669190  0.134600  0.843600  1.0  -0.6932
  O  O335  1  0.751800  0.065000  0.900300  1.0  -0.808
  O  O336  1  0.787210  0.167700  0.824600  1.0  -0.6666
  O  O337  1  0.873160  0.240600  0.930300  1.0  -0.6617
  O  O338  1  0.462700  0.445400  0.390400  1.0  -0.4617
  O  O339  1  0.542060  0.276000  0.485400  1.0  -0.597
  O  O340  1  0.654500  0.481200  0.898800  1.0  -0.5392
  O  O341  1  0.756800  0.495600  0.870500  1.0  -0.5868
  O  O342  1  0.699700  0.436300  0.610700  1.0  -0.7162
  O  O343  1  0.814700  0.578300  0.097000  1.0  -0.6126
  O  O344  1  0.587400  0.195500  0.384000  1.0  -0.6327
