# generated using pymatgen
data_CuH12C14(NO2)2
_symmetry_space_group_name_H-M   'P 1'
_cell_length_a   8.86210000
_cell_length_b   13.98120000
_cell_length_c   16.39930000
_cell_angle_alpha   66.35220000
_cell_angle_beta   74.32410000
_cell_angle_gamma   71.52280000
_symmetry_Int_Tables_number   1
_chemical_formula_structural   CuH12C14(NO2)2
_chemical_formula_sum   'Cu4 H48 C56 N8 O16'
_cell_volume   1741.24450173
_cell_formula_units_Z   4
loop_
 _symmetry_equiv_pos_site_id
 _symmetry_equiv_pos_as_xyz
  1  'x, y, z'
loop_
 _atom_site_type_symbol
 _atom_site_label
 _atom_site_symmetry_multiplicity
 _atom_site_fract_x
 _atom_site_fract_y
 _atom_site_fract_z
 _atom_site_occupancy
 _atom_site_charge
  Cu  Cu1  1  0.000000  0.000000  0.000000  1.0  0.6487
  Cu  Cu2  1  0.500000  0.500000  0.000000  1.0  0.7301
  Cu  Cu3  1  0.000000  0.000000  0.500000  1.0  0.7301
  Cu  Cu4  1  0.000000  0.500000  0.500000  1.0  0.6487
  H  H5  1  0.589700  0.134500  0.347100  1.0  0.1373
  H  H6  1  0.378500  0.549700  0.643100  1.0  0.1326
  H  H7  1  0.882100  0.396000  0.169200  1.0  0.1446
  H  H8  1  0.414600  0.715000  0.860200  1.0  0.0909
  H  H9  1  0.989800  0.785000  0.639800  1.0  0.093
  H  H10  1  0.962100  0.954500  0.346100  1.0  0.0945
  H  H11  1  0.252800  0.796000  0.014200  1.0  0.0877
  H  H12  1  0.447300  0.104000  0.330800  1.0  0.1441
  H  H13  1  0.290100  0.279900  0.371700  1.0  0.1206
  H  H14  1  0.621500  0.450300  0.356900  1.0  0.129
  H  H15  1  0.519200  0.712800  0.371200  1.0  0.1188
  H  H16  1  0.348900  0.461300  0.417700  1.0  0.0931
  H  H17  1  0.585400  0.285000  0.139800  1.0  0.0906
  H  H18  1  0.058300  0.779900  0.871700  1.0  0.1206
  H  H19  1  0.705300  0.532200  0.359200  1.0  0.1433
  H  H20  1  0.037900  0.045500  0.653900  1.0  0.0944
  H  H21  1  0.596700  0.967800  0.140800  1.0  0.142
  H  H22  1  0.294700  0.467800  0.640800  1.0  0.1427
  H  H23  1  0.928700  0.634500  0.847100  1.0  0.1393
  H  H24  1  0.117900  0.604000  0.830800  1.0  0.1454
  H  H25  1  0.937000  0.296000  0.514200  1.0  0.0882
  H  H26  1  0.626800  0.558100  0.275500  1.0  0.1407
  H  H27  1  0.024900  0.618700  0.756100  1.0  0.1376
  H  H28  1  0.709900  0.720100  0.628300  1.0  0.1211
  H  H29  1  0.460400  0.941900  0.224500  1.0  0.14
  H  H30  1  0.010200  0.215000  0.360200  1.0  0.0923
  H  H31  1  0.399700  0.881300  0.743900  1.0  0.138
  H  H32  1  0.071300  0.365500  0.152900  1.0  0.1353
  H  H33  1  0.063000  0.704000  0.485800  1.0  0.0874
  H  H34  1  0.603200  0.787200  0.128800  1.0  0.119
  H  H35  1  0.410300  0.865500  0.652900  1.0  0.1378
  H  H36  1  0.552700  0.896000  0.669200  1.0  0.1446
  H  H37  1  0.262700  0.545500  0.153900  1.0  0.0942
  H  H38  1  0.941700  0.220100  0.128300  1.0  0.121
  H  H39  1  0.403300  0.032200  0.859200  1.0  0.1463
  H  H40  1  0.975100  0.381300  0.243900  1.0  0.1377
  H  H41  1  0.373200  0.441900  0.724500  1.0  0.1398
  H  H42  1  0.737300  0.454500  0.846100  1.0  0.0942
  H  H43  1  0.747200  0.204000  0.985800  1.0  0.0868
  H  H44  1  0.539600  0.058100  0.775500  1.0  0.1404
  H  H45  1  0.480800  0.287200  0.628800  1.0  0.1192
  H  H46  1  0.396800  0.212800  0.871200  1.0  0.1193
  H  H47  1  0.428700  0.049700  0.143100  1.0  0.1329
  H  H48  1  0.227900  0.038700  0.082300  1.0  0.0926
  H  H49  1  0.651100  0.538700  0.582300  1.0  0.0926
  H  H50  1  0.772100  0.961300  0.917700  1.0  0.0928
  H  H51  1  0.571300  0.950300  0.856900  1.0  0.1297
  H  H52  1  0.600300  0.118700  0.256100  1.0  0.137
  C  C53  1  0.325560  0.315580  0.311300  1.0  -0.072
  C  C54  1  0.024000  0.644000  0.802800  1.0  -0.4058
  C  C55  1  0.083580  0.982740  0.820700  1.0  0.6729
  C  C56  1  0.993470  0.180260  0.326600  1.0  0.143
  C  C57  1  0.112980  0.482740  0.320700  1.0  0.6714
  C  C58  1  0.253090  0.421820  0.270800  1.0  -0.1792
  C  C59  1  0.459230  0.579240  0.384100  1.0  0.0753
  C  C60  1  0.382350  0.475000  0.660100  1.0  -0.3958
  C  C61  1  0.500330  0.319740  0.173400  1.0  0.1396
  C  C62  1  0.024920  0.761560  0.762200  1.0  0.0954
  C  C63  1  0.945710  0.078180  0.229200  1.0  -0.1803
  C  C64  1  0.047560  0.815580  0.811300  1.0  -0.0708
  C  C65  1  0.281120  0.970260  0.080700  1.0  0.1367
  C  C66  1  0.297110  0.828560  0.038620  1.0  0.1289
  C  C67  1  0.470800  0.856000  0.697200  1.0  -0.4035
  C  C68  1  0.743960  0.169780  0.554500  1.0  0.6863
  C  C69  1  0.548680  0.738440  0.737800  1.0  0.0944
  C  C70  1  0.332080  0.529740  0.419300  1.0  0.1421
  C  C71  1  0.952440  0.184420  0.188700  1.0  -0.0718
  C  C72  1  0.887020  0.517260  0.679300  1.0  0.6716
  C  C73  1  0.689590  0.526660  0.818560  1.0  0.1704
  C  C74  1  0.577430  0.079240  0.884100  1.0  0.0743
  C  C75  1  0.564680  0.322040  0.607600  1.0  -0.0749
  C  C76  1  0.835710  0.328560  0.538620  1.0  0.1332
  C  C77  1  0.494320  0.177960  0.892400  1.0  -0.0755
  C  C78  1  0.286570  0.725040  0.432220  1.0  -0.1916
  C  C79  1  0.482550  0.975000  0.160100  1.0  -0.3968
  C  C80  1  0.054290  0.921820  0.770800  1.0  -0.1805
  C  C81  1  0.451320  0.261560  0.262200  1.0  0.0956
  C  C82  1  0.531760  0.669780  0.054500  1.0  0.6865
  C  C83  1  0.164290  0.671440  0.461380  1.0  0.1324
  C  C84  1  0.517450  0.025000  0.839900  1.0  -0.3976
  C  C85  1  0.667920  0.470260  0.580700  1.0  0.1374
  C  C86  1  0.674440  0.684420  0.688700  1.0  -0.0726
  C  C87  1  0.435320  0.677960  0.392400  1.0  -0.0749
  C  C88  1  0.713430  0.274960  0.567780  1.0  -0.1939
  C  C89  1  0.529200  0.144000  0.302800  1.0  -0.4057
  C  C90  1  0.034810  0.973340  0.681440  1.0  0.1696
  C  C91  1  0.540770  0.420760  0.615900  1.0  0.0737
  C  C92  1  0.718880  0.029740  0.919300  1.0  0.1389
  C  C93  1  0.556170  0.225040  0.932220  1.0  -0.1913
  C  C94  1  0.422570  0.920760  0.115900  1.0  0.0733
  C  C95  1  0.965190  0.026660  0.318560  1.0  0.17
  C  C96  1  0.468240  0.330220  0.945500  1.0  0.6871
  C  C97  1  0.310410  0.473340  0.181440  1.0  0.1704
  C  C98  1  0.617650  0.525000  0.339900  1.0  -0.3959
  C  C99  1  0.499670  0.680260  0.826600  1.0  0.1394
  C  C100  1  0.702890  0.171440  0.961380  1.0  0.1354
  C  C101  1  0.443830  0.774960  0.067780  1.0  -0.1932
  C  C102  1  0.006530  0.819740  0.673400  1.0  0.1402
  C  C103  1  0.976000  0.356000  0.197200  1.0  -0.4037
  C  C104  1  0.746910  0.578180  0.729200  1.0  -0.1802
  C  C105  1  0.975080  0.238440  0.237800  1.0  0.0943
  C  C106  1  0.916420  0.017260  0.179300  1.0  0.6727
  C  C107  1  0.505680  0.822040  0.107600  1.0  -0.0757
  C  C108  1  0.256040  0.830220  0.445500  1.0  0.6866
  N  N109  1  0.011530  0.922970  0.632970  1.0  -0.3068
  N  N110  1  0.567470  0.577030  0.867030  1.0  -0.3024
  N  N111  1  0.185060  0.574700  0.455980  1.0  -0.3094
  N  N112  1  0.784260  0.074700  0.955980  1.0  -0.3065
  N  N113  1  0.215740  0.925300  0.044020  1.0  -0.309
  N  N114  1  0.988470  0.077030  0.367030  1.0  -0.3045
  N  N115  1  0.432530  0.422970  0.132970  1.0  -0.3033
  N  N116  1  0.814940  0.425300  0.544020  1.0  -0.3066
  O  O117  1  0.963780  0.428910  0.722730  1.0  -0.5465
  O  O118  1  0.633000  0.124400  0.575600  1.0  -0.5726
  O  O119  1  0.333000  0.375600  0.924400  1.0  -0.5715
  O  O120  1  0.087450  0.435860  0.405040  1.0  -0.5911
  O  O121  1  0.454790  0.635100  0.022120  1.0  -0.5945
  O  O122  1  0.071650  0.935860  0.905040  1.0  -0.5911
  O  O123  1  0.115420  0.071090  0.777270  1.0  -0.5509
  O  O124  1  0.884580  0.928910  0.222730  1.0  -0.549
  O  O125  1  0.367000  0.875600  0.424400  1.0  -0.5702
  O  O126  1  0.912550  0.564140  0.594960  1.0  -0.5907
  O  O127  1  0.928350  0.064140  0.094960  1.0  -0.5908
  O  O128  1  0.887990  0.135100  0.522120  1.0  -0.596
  O  O129  1  0.112010  0.864900  0.477880  1.0  -0.5955
  O  O130  1  0.545210  0.364900  0.977880  1.0  -0.5963
  O  O131  1  0.036220  0.571090  0.277270  1.0  -0.5517
  O  O132  1  0.667000  0.624400  0.075600  1.0  -0.5692
