# generated using pymatgen
data_ZnH3C12NO6
_symmetry_space_group_name_H-M   'P 1'
_cell_length_a   29.70200000
_cell_length_b   29.70200000
_cell_length_c   29.70200000
_cell_angle_alpha   60.00000000
_cell_angle_beta   60.00000000
_cell_angle_gamma   60.00000000
_symmetry_Int_Tables_number   1
_chemical_formula_structural   ZnH3C12NO6
_chemical_formula_sum   'Zn24 H72 C288 N24 O144'
_cell_volume   18528.57771526
_cell_formula_units_Z   24
loop_
 _symmetry_equiv_pos_site_id
 _symmetry_equiv_pos_as_xyz
  1  'x, y, z'
loop_
 _atom_site_type_symbol
 _atom_site_label
 _atom_site_symmetry_multiplicity
 _atom_site_fract_x
 _atom_site_fract_y
 _atom_site_fract_z
 _atom_site_occupancy
 _atom_site_charge
  Zn  Zn1  1  0.864630  0.500000  0.135370  1.0  1.1397
  Zn  Zn2  1  0.763020  0.500000  0.236980  1.0  1.1552
  Zn  Zn3  1  0.500000  0.864630  0.500000  1.0  1.1389
  Zn  Zn4  1  0.500000  0.763020  0.500000  1.0  1.1534
  Zn  Zn5  1  0.135370  0.500000  0.864630  1.0  1.142
  Zn  Zn6  1  0.236980  0.500000  0.763020  1.0  1.1548
  Zn  Zn7  1  0.500000  0.135370  0.500000  1.0  1.1391
  Zn  Zn8  1  0.500000  0.236980  0.500000  1.0  1.1529
  Zn  Zn9  1  0.864630  0.135370  0.500000  1.0  1.1377
  Zn  Zn10  1  0.763020  0.236980  0.500000  1.0  1.1519
  Zn  Zn11  1  0.500000  0.500000  0.135370  1.0  1.136
  Zn  Zn12  1  0.500000  0.500000  0.236980  1.0  1.1496
  Zn  Zn13  1  0.135370  0.864630  0.500000  1.0  1.1377
  Zn  Zn14  1  0.236980  0.763020  0.500000  1.0  1.1512
  Zn  Zn15  1  0.500000  0.500000  0.864630  1.0  1.1326
  Zn  Zn16  1  0.500000  0.500000  0.763020  1.0  1.1513
  Zn  Zn17  1  0.864630  0.500000  0.500000  1.0  1.1408
  Zn  Zn18  1  0.763020  0.500000  0.500000  1.0  1.154
  Zn  Zn19  1  0.500000  0.135370  0.864630  1.0  1.1403
  Zn  Zn20  1  0.500000  0.236980  0.763020  1.0  1.1525
  Zn  Zn21  1  0.135370  0.500000  0.500000  1.0  1.1403
  Zn  Zn22  1  0.236980  0.500000  0.500000  1.0  1.155
  Zn  Zn23  1  0.500000  0.864630  0.135370  1.0  1.1377
  Zn  Zn24  1  0.500000  0.763020  0.236980  1.0  1.1536
  H  H25  1  0.805900  0.477100  0.043300  1.0  0.1107
  H  H26  1  0.477100  0.805900  0.673700  1.0  0.1097
  H  H27  1  0.043300  0.673700  0.805900  1.0  0.1096
  H  H28  1  0.673700  0.043300  0.477100  1.0  0.1099
  H  H29  1  0.805900  0.043300  0.673700  1.0  0.1097
  H  H30  1  0.477100  0.673700  0.043300  1.0  0.1109
  H  H31  1  0.043300  0.805900  0.477100  1.0  0.1088
  H  H32  1  0.673700  0.477100  0.805900  1.0  0.111
  H  H33  1  0.805900  0.673700  0.477100  1.0  0.1083
  H  H34  1  0.477100  0.043300  0.805900  1.0  0.111
  H  H35  1  0.043300  0.477100  0.673700  1.0  0.1116
  H  H36  1  0.673700  0.805900  0.043300  1.0  0.1095
  H  H37  1  0.522900  0.194100  0.956700  1.0  0.1099
  H  H38  1  0.194100  0.522900  0.326300  1.0  0.1102
  H  H39  1  0.326300  0.956700  0.194100  1.0  0.1099
  H  H40  1  0.956700  0.326300  0.522900  1.0  0.1093
  H  H41  1  0.956700  0.194100  0.326300  1.0  0.1091
  H  H42  1  0.326300  0.522900  0.956700  1.0  0.1114
  H  H43  1  0.194100  0.956700  0.522900  1.0  0.1093
  H  H44  1  0.522900  0.326300  0.194100  1.0  0.1108
  H  H45  1  0.326300  0.194100  0.522900  1.0  0.1095
  H  H46  1  0.956700  0.522900  0.194100  1.0  0.1114
  H  H47  1  0.522900  0.956700  0.326300  1.0  0.1104
  H  H48  1  0.194100  0.326300  0.956700  1.0  0.1085
  H  H49  1  0.194100  0.522900  0.956700  1.0  0.1102
  H  H50  1  0.522900  0.194100  0.326300  1.0  0.1099
  H  H51  1  0.956700  0.326300  0.194100  1.0  0.1096
  H  H52  1  0.326300  0.956700  0.522900  1.0  0.1093
  H  H53  1  0.194100  0.956700  0.326300  1.0  0.1082
  H  H54  1  0.522900  0.326300  0.956700  1.0  0.1099
  H  H55  1  0.956700  0.194100  0.522900  1.0  0.1096
  H  H56  1  0.326300  0.522900  0.194100  1.0  0.112
  H  H57  1  0.194100  0.326300  0.522900  1.0  0.1086
  H  H58  1  0.522900  0.956700  0.194100  1.0  0.1106
  H  H59  1  0.956700  0.522900  0.326300  1.0  0.1108
  H  H60  1  0.326300  0.194100  0.956700  1.0  0.1096
  H  H61  1  0.477100  0.805900  0.043300  1.0  0.1099
  H  H62  1  0.805900  0.477100  0.673700  1.0  0.1105
  H  H63  1  0.673700  0.043300  0.805900  1.0  0.11
  H  H64  1  0.043300  0.673700  0.477100  1.0  0.1092
  H  H65  1  0.043300  0.805900  0.673700  1.0  0.1095
  H  H66  1  0.673700  0.477100  0.043300  1.0  0.1114
  H  H67  1  0.805900  0.043300  0.477100  1.0  0.1084
  H  H68  1  0.477100  0.673700  0.805900  1.0  0.1109
  H  H69  1  0.673700  0.805900  0.477100  1.0  0.1093
  H  H70  1  0.043300  0.477100  0.805900  1.0  0.1113
  H  H71  1  0.477100  0.043300  0.673700  1.0  0.1107
  H  H72  1  0.805900  0.673700  0.043300  1.0  0.1083
  H  H73  1  0.669800  0.483000  0.177400  1.0  0.1608
  H  H74  1  0.483000  0.669800  0.669800  1.0  0.1606
  H  H75  1  0.177400  0.669800  0.669800  1.0  0.1591
  H  H76  1  0.669800  0.177400  0.483000  1.0  0.1606
  H  H77  1  0.669800  0.177400  0.669800  1.0  0.1604
  H  H78  1  0.483000  0.669800  0.177400  1.0  0.1605
  H  H79  1  0.177400  0.669800  0.483000  1.0  0.1591
  H  H80  1  0.669800  0.483000  0.669800  1.0  0.1606
  H  H81  1  0.669800  0.669800  0.483000  1.0  0.1601
  H  H82  1  0.483000  0.177400  0.669800  1.0  0.1601
  H  H83  1  0.177400  0.483000  0.669800  1.0  0.16
  H  H84  1  0.669800  0.669800  0.177400  1.0  0.1606
  H  H85  1  0.517000  0.330200  0.822600  1.0  0.1595
  H  H86  1  0.330200  0.517000  0.330200  1.0  0.1597
  H  H87  1  0.330200  0.822600  0.330200  1.0  0.1604
  H  H88  1  0.822600  0.330200  0.517000  1.0  0.1603
  H  H89  1  0.822600  0.330200  0.330200  1.0  0.1601
  H  H90  1  0.330200  0.517000  0.822600  1.0  0.1596
  H  H91  1  0.330200  0.822600  0.517000  1.0  0.1607
  H  H92  1  0.517000  0.330200  0.330200  1.0  0.1597
  H  H93  1  0.330200  0.330200  0.517000  1.0  0.1586
  H  H94  1  0.822600  0.517000  0.330200  1.0  0.1607
  H  H95  1  0.517000  0.822600  0.330200  1.0  0.1617
  H  H96  1  0.330200  0.330200  0.822600  1.0  0.1587
  C  C97  1  0.770300  0.490700  0.138700  1.0  0.6812
  C  C98  1  0.747200  0.478600  0.115200  1.0  -0.0612
  C  C99  1  0.769900  0.474700  0.063900  1.0  -0.0254
  C  C100  1  0.762800  0.462800  0.947800  1.0  0.3413
  C  C101  1  0.798500  0.463300  0.891900  1.0  -0.0422
  C  C102  1  0.490700  0.770300  0.600300  1.0  0.6815
  C  C103  1  0.478600  0.747200  0.659000  1.0  -0.0625
  C  C104  1  0.474700  0.769900  0.691500  1.0  -0.0253
  C  C105  1  0.462800  0.762800  0.826600  1.0  0.3463
  C  C106  1  0.463300  0.798500  0.846300  1.0  -0.0421
  C  C107  1  0.138700  0.600300  0.770300  1.0  0.6833
  C  C108  1  0.115200  0.659000  0.747200  1.0  -0.0617
  C  C109  1  0.063900  0.691500  0.769900  1.0  -0.0258
  C  C110  1  0.947800  0.826600  0.762800  1.0  0.3454
  C  C111  1  0.891900  0.846300  0.798500  1.0  -0.0422
  C  C112  1  0.600300  0.138700  0.490700  1.0  0.6827
  C  C113  1  0.659000  0.115200  0.478600  1.0  -0.0616
  C  C114  1  0.691500  0.063900  0.474700  1.0  -0.0267
  C  C115  1  0.826600  0.947800  0.462800  1.0  0.3472
  C  C116  1  0.846300  0.891900  0.463300  1.0  -0.042
  C  C117  1  0.770300  0.138700  0.600300  1.0  0.6822
  C  C118  1  0.747200  0.115200  0.659000  1.0  -0.0621
  C  C119  1  0.769900  0.063900  0.691500  1.0  -0.0274
  C  C120  1  0.762800  0.947800  0.826600  1.0  0.3487
  C  C121  1  0.798500  0.891900  0.846300  1.0  -0.0414
  C  C122  1  0.490700  0.600300  0.138700  1.0  0.6825
  C  C123  1  0.478600  0.659000  0.115200  1.0  -0.0632
  C  C124  1  0.474700  0.691500  0.063900  1.0  -0.0285
  C  C125  1  0.462800  0.826600  0.947800  1.0  0.3492
  C  C126  1  0.463300  0.846300  0.891900  1.0  -0.042
  C  C127  1  0.138700  0.770300  0.490700  1.0  0.6831
  C  C128  1  0.115200  0.747200  0.478600  1.0  -0.0609
  C  C129  1  0.063900  0.769900  0.474700  1.0  -0.026
  C  C130  1  0.947800  0.762800  0.462800  1.0  0.3489
  C  C131  1  0.891900  0.798500  0.463300  1.0  -0.043
  C  C132  1  0.600300  0.490700  0.770300  1.0  0.6814
  C  C133  1  0.659000  0.478600  0.747200  1.0  -0.0631
  C  C134  1  0.691500  0.474700  0.769900  1.0  -0.026
  C  C135  1  0.826600  0.462800  0.762800  1.0  0.348
  C  C136  1  0.846300  0.463300  0.798500  1.0  -0.0409
  C  C137  1  0.770300  0.600300  0.490700  1.0  0.682
  C  C138  1  0.747200  0.659000  0.478600  1.0  -0.0617
  C  C139  1  0.769900  0.691500  0.474700  1.0  -0.027
  C  C140  1  0.762800  0.826600  0.462800  1.0  0.3454
  C  C141  1  0.798500  0.846300  0.463300  1.0  -0.0417
  C  C142  1  0.490700  0.138700  0.770300  1.0  0.682
  C  C143  1  0.478600  0.115200  0.747200  1.0  -0.0613
  C  C144  1  0.474700  0.063900  0.769900  1.0  -0.0258
  C  C145  1  0.462800  0.947800  0.762800  1.0  0.3497
  C  C146  1  0.463300  0.891900  0.798500  1.0  -0.0403
  C  C147  1  0.138700  0.490700  0.600300  1.0  0.6816
  C  C148  1  0.115200  0.478600  0.659000  1.0  -0.0629
  C  C149  1  0.063900  0.474700  0.691500  1.0  -0.0258
  C  C150  1  0.947800  0.462800  0.826600  1.0  0.3494
  C  C151  1  0.891900  0.463300  0.846300  1.0  -0.0399
  C  C152  1  0.600300  0.770300  0.138700  1.0  0.6821
  C  C153  1  0.659000  0.747200  0.115200  1.0  -0.0638
  C  C154  1  0.691500  0.769900  0.063900  1.0  -0.0254
  C  C155  1  0.826600  0.762800  0.947800  1.0  0.3498
  C  C156  1  0.846300  0.798500  0.891900  1.0  -0.0416
  C  C157  1  0.509300  0.229700  0.861300  1.0  0.6811
  C  C158  1  0.521400  0.252800  0.884800  1.0  -0.062
  C  C159  1  0.525300  0.230100  0.936100  1.0  -0.025
  C  C160  1  0.537200  0.237200  0.052200  1.0  0.3458
  C  C161  1  0.536700  0.201500  0.108100  1.0  -0.0418
  C  C162  1  0.229700  0.509300  0.399700  1.0  0.6819
  C  C163  1  0.252800  0.521400  0.341000  1.0  -0.0617
  C  C164  1  0.230100  0.525300  0.308500  1.0  -0.026
  C  C165  1  0.237200  0.537200  0.173400  1.0  0.3449
  C  C166  1  0.201500  0.536700  0.153700  1.0  -0.041
  C  C167  1  0.399700  0.861300  0.229700  1.0  0.6813
  C  C168  1  0.341000  0.884800  0.252800  1.0  -0.0618
  C  C169  1  0.308500  0.936100  0.230100  1.0  -0.0285
  C  C170  1  0.173400  0.052200  0.237200  1.0  0.3468
  C  C171  1  0.153700  0.108100  0.201500  1.0  -0.0435
  C  C172  1  0.861300  0.399700  0.509300  1.0  0.6832
  C  C173  1  0.884800  0.341000  0.521400  1.0  -0.0627
  C  C174  1  0.936100  0.308500  0.525300  1.0  -0.0279
  C  C175  1  0.052200  0.173400  0.537200  1.0  0.3439
  C  C176  1  0.108100  0.153700  0.536700  1.0  -0.0422
  C  C177  1  0.861300  0.229700  0.399700  1.0  0.6837
  C  C178  1  0.884800  0.252800  0.341000  1.0  -0.0632
  C  C179  1  0.936100  0.230100  0.308500  1.0  -0.0259
  C  C180  1  0.052200  0.237200  0.173400  1.0  0.3473
  C  C181  1  0.108100  0.201500  0.153700  1.0  -0.0414
  C  C182  1  0.399700  0.509300  0.861300  1.0  0.681
  C  C183  1  0.341000  0.521400  0.884800  1.0  -0.062
  C  C184  1  0.308500  0.525300  0.936100  1.0  -0.0282
  C  C185  1  0.173400  0.537200  0.052200  1.0  0.3468
  C  C186  1  0.153700  0.536700  0.108100  1.0  -0.0429
  C  C187  1  0.229700  0.861300  0.509300  1.0  0.6831
  C  C188  1  0.252800  0.884800  0.521400  1.0  -0.0624
  C  C189  1  0.230100  0.936100  0.525300  1.0  -0.0251
  C  C190  1  0.237200  0.052200  0.537200  1.0  0.3474
  C  C191  1  0.201500  0.108100  0.536700  1.0  -0.0405
  C  C192  1  0.509300  0.399700  0.229700  1.0  0.6822
  C  C193  1  0.521400  0.341000  0.252800  1.0  -0.0627
  C  C194  1  0.525300  0.308500  0.230100  1.0  -0.0281
  C  C195  1  0.537200  0.173400  0.237200  1.0  0.3501
  C  C196  1  0.536700  0.153700  0.201500  1.0  -0.0415
  C  C197  1  0.399700  0.229700  0.509300  1.0  0.6822
  C  C198  1  0.341000  0.252800  0.521400  1.0  -0.063
  C  C199  1  0.308500  0.230100  0.525300  1.0  -0.0256
  C  C200  1  0.173400  0.237200  0.537200  1.0  0.3482
  C  C201  1  0.153700  0.201500  0.536700  1.0  -0.0413
  C  C202  1  0.861300  0.509300  0.229700  1.0  0.6819
  C  C203  1  0.884800  0.521400  0.252800  1.0  -0.0633
  C  C204  1  0.936100  0.525300  0.230100  1.0  -0.0277
  C  C205  1  0.052200  0.537200  0.237200  1.0  0.3478
  C  C206  1  0.108100  0.536700  0.201500  1.0  -0.0398
  C  C207  1  0.509300  0.861300  0.399700  1.0  0.6815
  C  C208  1  0.521400  0.884800  0.341000  1.0  -0.0604
  C  C209  1  0.525300  0.936100  0.308500  1.0  -0.0262
  C  C210  1  0.537200  0.052200  0.173400  1.0  0.3502
  C  C211  1  0.536700  0.108100  0.153700  1.0  -0.0397
  C  C212  1  0.229700  0.399700  0.861300  1.0  0.6821
  C  C213  1  0.252800  0.341000  0.884800  1.0  -0.0618
  C  C214  1  0.230100  0.308500  0.936100  1.0  -0.0251
  C  C215  1  0.237200  0.173400  0.052200  1.0  0.3466
  C  C216  1  0.201500  0.153700  0.108100  1.0  -0.0415
  C  C217  1  0.229700  0.509300  0.861300  1.0  0.6818
  C  C218  1  0.252800  0.521400  0.884800  1.0  -0.0615
  C  C219  1  0.230100  0.525300  0.936100  1.0  -0.0257
  C  C220  1  0.237200  0.537200  0.052200  1.0  0.3451
  C  C221  1  0.201500  0.536700  0.108100  1.0  -0.0427
  C  C222  1  0.509300  0.229700  0.399700  1.0  0.6812
  C  C223  1  0.521400  0.252800  0.341000  1.0  -0.0623
  C  C224  1  0.525300  0.230100  0.308500  1.0  -0.0246
  C  C225  1  0.537200  0.237200  0.173400  1.0  0.3468
  C  C226  1  0.536700  0.201500  0.153700  1.0  -0.0439
  C  C227  1  0.861300  0.399700  0.229700  1.0  0.683
  C  C228  1  0.884800  0.341000  0.252800  1.0  -0.0627
  C  C229  1  0.936100  0.308500  0.230100  1.0  -0.0277
  C  C230  1  0.052200  0.173400  0.237200  1.0  0.3451
  C  C231  1  0.108100  0.153700  0.201500  1.0  -0.0445
  C  C232  1  0.399700  0.861300  0.509300  1.0  0.6817
  C  C233  1  0.341000  0.884800  0.521400  1.0  -0.0618
  C  C234  1  0.308500  0.936100  0.525300  1.0  -0.0278
  C  C235  1  0.173400  0.052200  0.537200  1.0  0.3473
  C  C236  1  0.153700  0.108100  0.536700  1.0  -0.0445
  C  C237  1  0.229700  0.861300  0.399700  1.0  0.6832
  C  C238  1  0.252800  0.884800  0.341000  1.0  -0.0622
  C  C239  1  0.230100  0.936100  0.308500  1.0  -0.0247
  C  C240  1  0.237200  0.052200  0.173400  1.0  0.347
  C  C241  1  0.201500  0.108100  0.153700  1.0  -0.0452
  C  C242  1  0.509300  0.399700  0.861300  1.0  0.6825
  C  C243  1  0.521400  0.341000  0.884800  1.0  -0.0629
  C  C244  1  0.525300  0.308500  0.936100  1.0  -0.0257
  C  C245  1  0.537200  0.173400  0.052200  1.0  0.3482
  C  C246  1  0.536700  0.153700  0.108100  1.0  -0.0463
  C  C247  1  0.861300  0.229700  0.509300  1.0  0.6837
  C  C248  1  0.884800  0.252800  0.521400  1.0  -0.0634
  C  C249  1  0.936100  0.230100  0.525300  1.0  -0.0257
  C  C250  1  0.052200  0.237200  0.537200  1.0  0.3478
  C  C251  1  0.108100  0.201500  0.536700  1.0  -0.0447
  C  C252  1  0.399700  0.509300  0.229700  1.0  0.6806
  C  C253  1  0.341000  0.521400  0.252800  1.0  -0.0622
  C  C254  1  0.308500  0.525300  0.230100  1.0  -0.0296
  C  C255  1  0.173400  0.537200  0.237200  1.0  0.3477
  C  C256  1  0.153700  0.536700  0.201500  1.0  -0.0461
  C  C257  1  0.229700  0.399700  0.509300  1.0  0.6824
  C  C258  1  0.252800  0.341000  0.521400  1.0  -0.0622
  C  C259  1  0.230100  0.308500  0.525300  1.0  -0.0242
  C  C260  1  0.237200  0.173400  0.537200  1.0  0.3482
  C  C261  1  0.201500  0.153700  0.536700  1.0  -0.0442
  C  C262  1  0.509300  0.861300  0.229700  1.0  0.6814
  C  C263  1  0.521400  0.884800  0.252800  1.0  -0.0613
  C  C264  1  0.525300  0.936100  0.230100  1.0  -0.0273
  C  C265  1  0.537200  0.052200  0.237200  1.0  0.3513
  C  C266  1  0.536700  0.108100  0.201500  1.0  -0.0427
  C  C267  1  0.861300  0.509300  0.399700  1.0  0.6822
  C  C268  1  0.884800  0.521400  0.341000  1.0  -0.0628
  C  C269  1  0.936100  0.525300  0.308500  1.0  -0.0264
  C  C270  1  0.052200  0.537200  0.173400  1.0  0.3476
  C  C271  1  0.108100  0.536700  0.153700  1.0  -0.0426
  C  C272  1  0.399700  0.229700  0.861300  1.0  0.6818
  C  C273  1  0.341000  0.252800  0.884800  1.0  -0.0626
  C  C274  1  0.308500  0.230100  0.936100  1.0  -0.0257
  C  C275  1  0.173400  0.237200  0.052200  1.0  0.3482
  C  C276  1  0.153700  0.201500  0.108100  1.0  -0.0437
  C  C277  1  0.490700  0.770300  0.138700  1.0  0.6815
  C  C278  1  0.478600  0.747200  0.115200  1.0  -0.0627
  C  C279  1  0.474700  0.769900  0.063900  1.0  -0.0254
  C  C280  1  0.462800  0.762800  0.947800  1.0  0.3465
  C  C281  1  0.463300  0.798500  0.891900  1.0  -0.0438
  C  C282  1  0.770300  0.490700  0.600300  1.0  0.6811
  C  C283  1  0.747200  0.478600  0.659000  1.0  -0.0613
  C  C284  1  0.769900  0.474700  0.691500  1.0  -0.025
  C  C285  1  0.762800  0.462800  0.826600  1.0  0.3423
  C  C286  1  0.798500  0.463300  0.846300  1.0  -0.0439
  C  C287  1  0.600300  0.138700  0.770300  1.0  0.6827
  C  C288  1  0.659000  0.115200  0.747200  1.0  -0.0618
  C  C289  1  0.691500  0.063900  0.769900  1.0  -0.0257
  C  C290  1  0.826600  0.947800  0.762800  1.0  0.3473
  C  C291  1  0.846300  0.891900  0.798500  1.0  -0.0425
  C  C292  1  0.138700  0.600300  0.490700  1.0  0.683
  C  C293  1  0.115200  0.659000  0.478600  1.0  -0.0616
  C  C294  1  0.063900  0.691500  0.474700  1.0  -0.0262
  C  C295  1  0.947800  0.826600  0.462800  1.0  0.3458
  C  C296  1  0.891900  0.846300  0.463300  1.0  -0.0446
  C  C297  1  0.138700  0.770300  0.600300  1.0  0.6834
  C  C298  1  0.115200  0.747200  0.659000  1.0  -0.0609
  C  C299  1  0.063900  0.769900  0.691500  1.0  -0.0252
  C  C300  1  0.947800  0.762800  0.826600  1.0  0.3504
  C  C301  1  0.891900  0.798500  0.846300  1.0  -0.0467
  C  C302  1  0.600300  0.490700  0.138700  1.0  0.6811
  C  C303  1  0.659000  0.478600  0.115200  1.0  -0.0629
  C  C304  1  0.691500  0.474700  0.063900  1.0  -0.0276
  C  C305  1  0.826600  0.462800  0.947800  1.0  0.3494
  C  C306  1  0.846300  0.463300  0.891900  1.0  -0.0448
  C  C307  1  0.770300  0.138700  0.490700  1.0  0.682
  C  C308  1  0.747200  0.115200  0.478600  1.0  -0.062
  C  C309  1  0.769900  0.063900  0.474700  1.0  -0.0265
  C  C310  1  0.762800  0.947800  0.462800  1.0  0.3468
  C  C311  1  0.798500  0.891900  0.463300  1.0  -0.0457
  C  C312  1  0.490700  0.600300  0.770300  1.0  0.6827
  C  C313  1  0.478600  0.659000  0.747200  1.0  -0.0634
  C  C314  1  0.474700  0.691500  0.769900  1.0  -0.026
  C  C315  1  0.462800  0.826600  0.762800  1.0  0.3483
  C  C316  1  0.463300  0.846300  0.798500  1.0  -0.0468
  C  C317  1  0.600300  0.770300  0.490700  1.0  0.6819
  C  C318  1  0.659000  0.747200  0.478600  1.0  -0.0635
  C  C319  1  0.691500  0.769900  0.474700  1.0  -0.0256
  C  C320  1  0.826600  0.762800  0.462800  1.0  0.3497
  C  C321  1  0.846300  0.798500  0.463300  1.0  -0.0438
  C  C322  1  0.138700  0.490700  0.770300  1.0  0.6819
  C  C323  1  0.115200  0.478600  0.747200  1.0  -0.0621
  C  C324  1  0.063900  0.474700  0.769900  1.0  -0.0243
  C  C325  1  0.947800  0.462800  0.762800  1.0  0.3494
  C  C326  1  0.891900  0.463300  0.798500  1.0  -0.0429
  C  C327  1  0.490700  0.138700  0.600300  1.0  0.6818
  C  C328  1  0.478600  0.115200  0.659000  1.0  -0.0618
  C  C329  1  0.474700  0.063900  0.691500  1.0  -0.0268
  C  C330  1  0.462800  0.947800  0.826600  1.0  0.352
  C  C331  1  0.463300  0.891900  0.846300  1.0  -0.0431
  C  C332  1  0.770300  0.600300  0.138700  1.0  0.6823
  C  C333  1  0.747200  0.659000  0.115200  1.0  -0.0618
  C  C334  1  0.769900  0.691500  0.063900  1.0  -0.0264
  C  C335  1  0.762800  0.826600  0.947800  1.0  0.3469
  C  C336  1  0.798500  0.846300  0.891900  1.0  -0.0439
  C  C337  1  0.746700  0.467500  0.039100  1.0  0.1467
  C  C338  1  0.689000  0.480600  0.141400  1.0  0.0046
  C  C339  1  0.467500  0.746700  0.746700  1.0  0.1461
  C  C340  1  0.480600  0.689000  0.689000  1.0  0.0055
  C  C341  1  0.039100  0.746700  0.746700  1.0  0.1479
  C  C342  1  0.141400  0.689000  0.689000  1.0  0.0067
  C  C343  1  0.746700  0.039100  0.467500  1.0  0.1467
  C  C344  1  0.689000  0.141400  0.480600  1.0  0.0048
  C  C345  1  0.746700  0.039100  0.746700  1.0  0.1473
  C  C346  1  0.689000  0.141400  0.689000  1.0  0.0044
  C  C347  1  0.467500  0.746700  0.039100  1.0  0.1457
  C  C348  1  0.480600  0.689000  0.141400  1.0  0.0045
  C  C349  1  0.039100  0.746700  0.467500  1.0  0.1476
  C  C350  1  0.141400  0.689000  0.480600  1.0  0.0067
  C  C351  1  0.746700  0.467500  0.746700  1.0  0.1469
  C  C352  1  0.689000  0.480600  0.689000  1.0  0.0056
  C  C353  1  0.746700  0.746700  0.467500  1.0  0.1461
  C  C354  1  0.689000  0.689000  0.480600  1.0  0.0057
  C  C355  1  0.467500  0.039100  0.746700  1.0  0.1468
  C  C356  1  0.480600  0.141400  0.689000  1.0  0.0053
  C  C357  1  0.039100  0.467500  0.746700  1.0  0.1468
  C  C358  1  0.141400  0.480600  0.689000  1.0  0.0043
  C  C359  1  0.746700  0.746700  0.039100  1.0  0.146
  C  C360  1  0.689000  0.689000  0.141400  1.0  0.0062
  C  C361  1  0.532500  0.253300  0.960900  1.0  0.1463
  C  C362  1  0.519400  0.311000  0.858600  1.0  0.0059
  C  C363  1  0.253300  0.532500  0.253300  1.0  0.147
  C  C364  1  0.311000  0.519400  0.311000  1.0  0.0057
  C  C365  1  0.253300  0.960900  0.253300  1.0  0.1466
  C  C366  1  0.311000  0.858600  0.311000  1.0  0.0059
  C  C367  1  0.960900  0.253300  0.532500  1.0  0.1474
  C  C368  1  0.858600  0.311000  0.519400  1.0  0.0061
  C  C369  1  0.960900  0.253300  0.253300  1.0  0.1468
  C  C370  1  0.858600  0.311000  0.311000  1.0  0.0063
  C  C371  1  0.253300  0.532500  0.960900  1.0  0.1471
  C  C372  1  0.311000  0.519400  0.858600  1.0  0.0057
  C  C373  1  0.253300  0.960900  0.532500  1.0  0.147
  C  C374  1  0.311000  0.858600  0.519400  1.0  0.0061
  C  C375  1  0.532500  0.253300  0.253300  1.0  0.1461
  C  C376  1  0.519400  0.311000  0.311000  1.0  0.0059
  C  C377  1  0.253300  0.253300  0.532500  1.0  0.1451
  C  C378  1  0.311000  0.311000  0.519400  1.0  0.0071
  C  C379  1  0.960900  0.532500  0.253300  1.0  0.1471
  C  C380  1  0.858600  0.519400  0.311000  1.0  0.0013
  C  C381  1  0.532500  0.960900  0.253300  1.0  0.1463
  C  C382  1  0.519400  0.858600  0.311000  1.0  0.0052
  C  C383  1  0.253300  0.253300  0.960900  1.0  0.1452
  C  C384  1  0.311000  0.311000  0.858600  1.0  0.0066
  N  N385  1  0.775700  0.463900  0.984700  1.0  -0.2195
  N  N386  1  0.463900  0.775700  0.775700  1.0  -0.2192
  N  N387  1  0.984700  0.775700  0.775700  1.0  -0.2183
  N  N388  1  0.775700  0.984700  0.463900  1.0  -0.2183
  N  N389  1  0.775700  0.984700  0.775700  1.0  -0.2186
  N  N390  1  0.463900  0.775700  0.984700  1.0  -0.2191
  N  N391  1  0.984700  0.775700  0.463900  1.0  -0.2182
  N  N392  1  0.775700  0.463900  0.775700  1.0  -0.2196
  N  N393  1  0.775700  0.775700  0.463900  1.0  -0.2197
  N  N394  1  0.463900  0.984700  0.775700  1.0  -0.2184
  N  N395  1  0.984700  0.463900  0.775700  1.0  -0.2198
  N  N396  1  0.775700  0.775700  0.984700  1.0  -0.2197
  N  N397  1  0.536100  0.224300  0.015300  1.0  -0.2185
  N  N398  1  0.224300  0.536100  0.224300  1.0  -0.2196
  N  N399  1  0.224300  0.015300  0.224300  1.0  -0.2189
  N  N400  1  0.015300  0.224300  0.536100  1.0  -0.2194
  N  N401  1  0.015300  0.224300  0.224300  1.0  -0.2193
  N  N402  1  0.224300  0.536100  0.015300  1.0  -0.2198
  N  N403  1  0.224300  0.015300  0.536100  1.0  -0.219
  N  N404  1  0.536100  0.224300  0.224300  1.0  -0.2182
  N  N405  1  0.224300  0.224300  0.536100  1.0  -0.2176
  N  N406  1  0.015300  0.536100  0.224300  1.0  -0.2204
  N  N407  1  0.536100  0.015300  0.224300  1.0  -0.2189
  N  N408  1  0.224300  0.224300  0.015300  1.0  -0.2179
  O  O409  1  0.820080  0.486320  0.116400  1.0  -0.5772
  O  O410  1  0.743560  0.488040  0.191960  1.0  -0.5903
  O  O411  1  0.717300  0.454300  0.973100  1.0  -0.4582
  O  O412  1  0.486320  0.820080  0.577200  1.0  -0.5771
  O  O413  1  0.488040  0.743560  0.576440  1.0  -0.5936
  O  O414  1  0.454300  0.717300  0.855300  1.0  -0.4605
  O  O415  1  0.116400  0.577200  0.820080  1.0  -0.5767
  O  O416  1  0.191960  0.576440  0.743560  1.0  -0.5895
  O  O417  1  0.973100  0.855300  0.717300  1.0  -0.4594
  O  O418  1  0.577200  0.116400  0.486320  1.0  -0.5764
  O  O419  1  0.576440  0.191960  0.488040  1.0  -0.5915
  O  O420  1  0.855300  0.973100  0.454300  1.0  -0.4585
  O  O421  1  0.820080  0.116400  0.577200  1.0  -0.5786
  O  O422  1  0.743560  0.191960  0.576440  1.0  -0.5929
  O  O423  1  0.717300  0.973100  0.855300  1.0  -0.4601
  O  O424  1  0.486320  0.577200  0.116400  1.0  -0.5766
  O  O425  1  0.488040  0.576440  0.191960  1.0  -0.5892
  O  O426  1  0.454300  0.855300  0.973100  1.0  -0.4573
  O  O427  1  0.116400  0.820080  0.486320  1.0  -0.5774
  O  O428  1  0.191960  0.743560  0.488040  1.0  -0.5925
  O  O429  1  0.973100  0.717300  0.454300  1.0  -0.4595
  O  O430  1  0.577200  0.486320  0.820080  1.0  -0.5775
  O  O431  1  0.576440  0.488040  0.743560  1.0  -0.5926
  O  O432  1  0.855300  0.454300  0.717300  1.0  -0.4604
  O  O433  1  0.820080  0.577200  0.486320  1.0  -0.5774
  O  O434  1  0.743560  0.576440  0.488040  1.0  -0.5919
  O  O435  1  0.717300  0.855300  0.454300  1.0  -0.4598
  O  O436  1  0.486320  0.116400  0.820080  1.0  -0.577
  O  O437  1  0.488040  0.191960  0.743560  1.0  -0.5923
  O  O438  1  0.454300  0.973100  0.717300  1.0  -0.4573
  O  O439  1  0.116400  0.486320  0.577200  1.0  -0.5755
  O  O440  1  0.191960  0.488040  0.576440  1.0  -0.5901
  O  O441  1  0.973100  0.454300  0.855300  1.0  -0.4571
  O  O442  1  0.577200  0.820080  0.116400  1.0  -0.577
  O  O443  1  0.576440  0.743560  0.191960  1.0  -0.5912
  O  O444  1  0.855300  0.717300  0.973100  1.0  -0.4605
  O  O445  1  0.513680  0.179920  0.883600  1.0  -0.577
  O  O446  1  0.511960  0.256440  0.808040  1.0  -0.593
  O  O447  1  0.545700  0.282700  0.026900  1.0  -0.4592
  O  O448  1  0.179920  0.513680  0.422800  1.0  -0.5778
  O  O449  1  0.256440  0.511960  0.423560  1.0  -0.59
  O  O450  1  0.282700  0.545700  0.144700  1.0  -0.4604
  O  O451  1  0.422800  0.883600  0.179920  1.0  -0.5765
  O  O452  1  0.423560  0.808040  0.256440  1.0  -0.5924
  O  O453  1  0.144700  0.026900  0.282700  1.0  -0.4577
  O  O454  1  0.883600  0.422800  0.513680  1.0  -0.576
  O  O455  1  0.808040  0.423560  0.511960  1.0  -0.5906
  O  O456  1  0.026900  0.144700  0.545700  1.0  -0.4592
  O  O457  1  0.883600  0.179920  0.422800  1.0  -0.578
  O  O458  1  0.808040  0.256440  0.423560  1.0  -0.5927
  O  O459  1  0.026900  0.282700  0.144700  1.0  -0.4618
  O  O460  1  0.422800  0.513680  0.883600  1.0  -0.5777
  O  O461  1  0.423560  0.511960  0.808040  1.0  -0.5925
  O  O462  1  0.144700  0.545700  0.026900  1.0  -0.4592
  O  O463  1  0.179920  0.883600  0.513680  1.0  -0.5779
  O  O464  1  0.256440  0.808040  0.511960  1.0  -0.5935
  O  O465  1  0.282700  0.026900  0.545700  1.0  -0.4604
  O  O466  1  0.513680  0.422800  0.179920  1.0  -0.576
  O  O467  1  0.511960  0.423560  0.256440  1.0  -0.5885
  O  O468  1  0.545700  0.144700  0.282700  1.0  -0.458
  O  O469  1  0.422800  0.179920  0.513680  1.0  -0.5766
  O  O470  1  0.423560  0.256440  0.511960  1.0  -0.5912
  O  O471  1  0.144700  0.282700  0.545700  1.0  -0.4613
  O  O472  1  0.883600  0.513680  0.179920  1.0  -0.5758
  O  O473  1  0.808040  0.511960  0.256440  1.0  -0.5911
  O  O474  1  0.026900  0.545700  0.282700  1.0  -0.4578
  O  O475  1  0.513680  0.883600  0.422800  1.0  -0.5774
  O  O476  1  0.511960  0.808040  0.423560  1.0  -0.5922
  O  O477  1  0.545700  0.026900  0.144700  1.0  -0.4574
  O  O478  1  0.179920  0.422800  0.883600  1.0  -0.5765
  O  O479  1  0.256440  0.423560  0.808040  1.0  -0.591
  O  O480  1  0.282700  0.144700  0.026900  1.0  -0.4593
  O  O481  1  0.179920  0.513680  0.883600  1.0  -0.5781
  O  O482  1  0.256440  0.511960  0.808040  1.0  -0.5901
  O  O483  1  0.282700  0.545700  0.026900  1.0  -0.4592
  O  O484  1  0.513680  0.179920  0.422800  1.0  -0.5769
  O  O485  1  0.511960  0.256440  0.423560  1.0  -0.5928
  O  O486  1  0.545700  0.282700  0.144700  1.0  -0.4609
  O  O487  1  0.883600  0.422800  0.179920  1.0  -0.5763
  O  O488  1  0.808040  0.423560  0.256440  1.0  -0.5897
  O  O489  1  0.026900  0.144700  0.282700  1.0  -0.4594
  O  O490  1  0.422800  0.883600  0.513680  1.0  -0.5763
  O  O491  1  0.423560  0.808040  0.511960  1.0  -0.5933
  O  O492  1  0.144700  0.026900  0.545700  1.0  -0.458
  O  O493  1  0.179920  0.883600  0.422800  1.0  -0.5778
  O  O494  1  0.256440  0.808040  0.423560  1.0  -0.5935
  O  O495  1  0.282700  0.026900  0.144700  1.0  -0.4603
  O  O496  1  0.513680  0.422800  0.883600  1.0  -0.5772
  O  O497  1  0.511960  0.423560  0.808040  1.0  -0.5912
  O  O498  1  0.545700  0.144700  0.026900  1.0  -0.4579
  O  O499  1  0.883600  0.179920  0.513680  1.0  -0.5781
  O  O500  1  0.808040  0.256440  0.511960  1.0  -0.5924
  O  O501  1  0.026900  0.282700  0.545700  1.0  -0.4591
  O  O502  1  0.422800  0.513680  0.179920  1.0  -0.576
  O  O503  1  0.423560  0.511960  0.256440  1.0  -0.5897
  O  O504  1  0.144700  0.545700  0.282700  1.0  -0.4582
  O  O505  1  0.179920  0.422800  0.513680  1.0  -0.5769
  O  O506  1  0.256440  0.423560  0.511960  1.0  -0.5899
  O  O507  1  0.282700  0.144700  0.545700  1.0  -0.4595
  O  O508  1  0.513680  0.883600  0.179920  1.0  -0.5767
  O  O509  1  0.511960  0.808040  0.256440  1.0  -0.5912
  O  O510  1  0.545700  0.026900  0.282700  1.0  -0.4589
  O  O511  1  0.883600  0.513680  0.422800  1.0  -0.5772
  O  O512  1  0.808040  0.511960  0.423560  1.0  -0.592
  O  O513  1  0.026900  0.545700  0.144700  1.0  -0.4574
  O  O514  1  0.422800  0.179920  0.883600  1.0  -0.576
  O  O515  1  0.423560  0.256440  0.808040  1.0  -0.5927
  O  O516  1  0.144700  0.282700  0.026900  1.0  -0.4608
  O  O517  1  0.486320  0.820080  0.116400  1.0  -0.5771
  O  O518  1  0.488040  0.743560  0.191960  1.0  -0.5931
  O  O519  1  0.454300  0.717300  0.973100  1.0  -0.4607
  O  O520  1  0.820080  0.486320  0.577200  1.0  -0.5771
  O  O521  1  0.743560  0.488040  0.576440  1.0  -0.5918
  O  O522  1  0.717300  0.454300  0.855300  1.0  -0.4578
  O  O523  1  0.577200  0.116400  0.820080  1.0  -0.5762
  O  O524  1  0.576440  0.191960  0.743560  1.0  -0.5919
  O  O525  1  0.855300  0.973100  0.717300  1.0  -0.4593
  O  O526  1  0.116400  0.577200  0.486320  1.0  -0.5766
  O  O527  1  0.191960  0.576440  0.488040  1.0  -0.5891
  O  O528  1  0.973100  0.855300  0.454300  1.0  -0.4596
  O  O529  1  0.116400  0.820080  0.577200  1.0  -0.5775
  O  O530  1  0.191960  0.743560  0.576440  1.0  -0.5928
  O  O531  1  0.973100  0.717300  0.855300  1.0  -0.4607
  O  O532  1  0.577200  0.486320  0.116400  1.0  -0.5767
  O  O533  1  0.576440  0.488040  0.191960  1.0  -0.5891
  O  O534  1  0.855300  0.454300  0.973100  1.0  -0.4595
  O  O535  1  0.820080  0.116400  0.486320  1.0  -0.5783
  O  O536  1  0.743560  0.191960  0.488040  1.0  -0.5929
  O  O537  1  0.717300  0.973100  0.454300  1.0  -0.4608
  O  O538  1  0.486320  0.577200  0.820080  1.0  -0.5781
  O  O539  1  0.488040  0.576440  0.743560  1.0  -0.5912
  O  O540  1  0.454300  0.855300  0.717300  1.0  -0.46
  O  O541  1  0.577200  0.820080  0.486320  1.0  -0.5772
  O  O542  1  0.576440  0.743560  0.488040  1.0  -0.5913
  O  O543  1  0.855300  0.717300  0.454300  1.0  -0.4603
  O  O544  1  0.116400  0.486320  0.820080  1.0  -0.5757
  O  O545  1  0.191960  0.488040  0.743560  1.0  -0.5912
  O  O546  1  0.973100  0.454300  0.717300  1.0  -0.4557
  O  O547  1  0.486320  0.116400  0.577200  1.0  -0.5759
  O  O548  1  0.488040  0.191960  0.576440  1.0  -0.5906
  O  O549  1  0.454300  0.973100  0.855300  1.0  -0.4577
  O  O550  1  0.820080  0.577200  0.116400  1.0  -0.5771
  O  O551  1  0.743560  0.576440  0.191960  1.0  -0.5901
  O  O552  1  0.717300  0.855300  0.973100  1.0  -0.4605
