# generated using pymatgen
data_PrNi2H32C20S2(N3O8)2
_symmetry_space_group_name_H-M   'P 1'
_cell_length_a   14.12700000
_cell_length_b   15.53200000
_cell_length_c   16.64500000
_cell_angle_alpha   90.00000000
_cell_angle_beta   90.00000000
_cell_angle_gamma   90.00000000
_symmetry_Int_Tables_number   1
_chemical_formula_structural   PrNi2H32C20S2(N3O8)2
_chemical_formula_sum   'Pr4 Ni8 H128 C80 S8 N24 O64'
_cell_volume   3652.25528778
_cell_formula_units_Z   4
loop_
 _symmetry_equiv_pos_site_id
 _symmetry_equiv_pos_as_xyz
  1  'x, y, z'
loop_
 _atom_site_type_symbol
 _atom_site_label
 _atom_site_symmetry_multiplicity
 _atom_site_fract_x
 _atom_site_fract_y
 _atom_site_fract_z
 _atom_site_occupancy
 _atom_site_charge
  Pr  Pr1  1  0.109120  0.750000  0.750000  1.0  2.1063
  Pr  Pr2  1  0.390880  0.250000  0.250000  1.0  2.1056
  Pr  Pr3  1  0.890880  0.250000  0.250000  1.0  2.1103
  Pr  Pr4  1  0.609120  0.750000  0.750000  1.0  2.111
  Ni  Ni5  1  0.286480  0.560780  0.884790  1.0  0.7852
  Ni  Ni6  1  0.286480  0.939220  0.615210  1.0  0.7845
  Ni  Ni7  1  0.213520  0.439220  0.384790  1.0  0.7837
  Ni  Ni8  1  0.213520  0.060780  0.115210  1.0  0.7836
  Ni  Ni9  1  0.713520  0.439220  0.115210  1.0  0.7824
  Ni  Ni10  1  0.713520  0.060780  0.384790  1.0  0.7838
  Ni  Ni11  1  0.786480  0.560780  0.615210  1.0  0.7855
  Ni  Ni12  1  0.786480  0.939220  0.884790  1.0  0.7852
  H  H13  1  0.097200  0.735600  0.573600  1.0  0.4126
  H  H14  1  0.008500  0.773700  0.596000  1.0  0.4179
  H  H15  1  0.296700  0.757100  0.667200  1.0  0.4255
  H  H16  1  0.244600  0.691500  0.625100  1.0  0.3885
  H  H17  1  0.222400  0.457100  0.691000  1.0  0.0824
  H  H18  1  0.178900  0.435300  0.775600  1.0  0.088
  H  H19  1  0.428600  0.497100  0.716900  1.0  0.0836
  H  H20  1  0.343000  0.547300  0.679800  1.0  0.0882
  H  H21  1  0.301800  0.371000  0.836900  1.0  0.0685
  H  H22  1  0.378400  0.374000  0.768500  1.0  0.0656
  H  H23  1  0.477700  0.457100  0.848700  1.0  0.07
  H  H24  1  0.451400  0.372700  0.895800  1.0  0.0785
  H  H25  1  0.353600  0.365500  0.992900  1.0  0.0794
  H  H26  1  0.349500  0.443400  0.052500  1.0  0.0663
  H  H27  1  0.493000  0.564900  0.941400  1.0  0.0701
  H  H28  1  0.434500  0.564200  0.021300  1.0  0.0754
  H  H29  1  0.097200  0.764400  0.926400  1.0  0.4145
  H  H30  1  0.008500  0.726300  0.904000  1.0  0.4196
  H  H31  1  0.296700  0.742900  0.832800  1.0  0.4258
  H  H32  1  0.244600  0.808500  0.874900  1.0  0.3893
  H  H33  1  0.222400  0.042900  0.809000  1.0  0.0807
  H  H34  1  0.178900  0.064700  0.724400  1.0  0.0882
  H  H35  1  0.428600  0.002900  0.783100  1.0  0.0836
  H  H36  1  0.343000  0.952700  0.820200  1.0  0.0886
  H  H37  1  0.301800  0.129000  0.663100  1.0  0.0683
  H  H38  1  0.378400  0.126000  0.731500  1.0  0.065
  H  H39  1  0.477700  0.042900  0.651300  1.0  0.0695
  H  H40  1  0.451400  0.127300  0.604200  1.0  0.0776
  H  H41  1  0.353600  0.134500  0.507100  1.0  0.0782
  H  H42  1  0.349500  0.056600  0.447500  1.0  0.0676
  H  H43  1  0.493000  0.935100  0.558600  1.0  0.071
  H  H44  1  0.434500  0.935800  0.478700  1.0  0.0752
  H  H45  1  0.402800  0.264400  0.073600  1.0  0.4133
  H  H46  1  0.491500  0.226300  0.096000  1.0  0.4163
  H  H47  1  0.203300  0.242900  0.167200  1.0  0.4255
  H  H48  1  0.255400  0.308500  0.125100  1.0  0.3881
  H  H49  1  0.277600  0.542900  0.191000  1.0  0.0809
  H  H50  1  0.321100  0.564700  0.275600  1.0  0.0886
  H  H51  1  0.071400  0.502900  0.216900  1.0  0.0838
  H  H52  1  0.157000  0.452700  0.179800  1.0  0.0894
  H  H53  1  0.198200  0.629000  0.336900  1.0  0.0663
  H  H54  1  0.121600  0.626000  0.268500  1.0  0.0655
  H  H55  1  0.022300  0.542900  0.348700  1.0  0.0715
  H  H56  1  0.048600  0.627300  0.395800  1.0  0.0791
  H  H57  1  0.146400  0.634500  0.492900  1.0  0.0781
  H  H58  1  0.150500  0.556600  0.552500  1.0  0.0656
  H  H59  1  0.007000  0.435100  0.441400  1.0  0.0703
  H  H60  1  0.065500  0.435800  0.521300  1.0  0.0771
  H  H61  1  0.402800  0.235600  0.426400  1.0  0.4146
  H  H62  1  0.491500  0.273700  0.404000  1.0  0.417
  H  H63  1  0.203300  0.257100  0.332800  1.0  0.4261
  H  H64  1  0.255400  0.191500  0.374900  1.0  0.3904
  H  H65  1  0.277600  0.957100  0.309000  1.0  0.0806
  H  H66  1  0.321100  0.935300  0.224400  1.0  0.0878
  H  H67  1  0.071400  0.997100  0.283100  1.0  0.0849
  H  H68  1  0.157000  0.047300  0.320200  1.0  0.09
  H  H69  1  0.198200  0.871000  0.163100  1.0  0.0671
  H  H70  1  0.121600  0.874000  0.231500  1.0  0.0665
  H  H71  1  0.022300  0.957100  0.151300  1.0  0.0712
  H  H72  1  0.048600  0.872700  0.104200  1.0  0.0791
  H  H73  1  0.146400  0.865500  0.007100  1.0  0.0799
  H  H74  1  0.150500  0.943400  0.947500  1.0  0.0665
  H  H75  1  0.007000  0.064900  0.058600  1.0  0.0704
  H  H76  1  0.065500  0.064200  0.978700  1.0  0.0758
  H  H77  1  0.902800  0.264400  0.426400  1.0  0.4137
  H  H78  1  0.991500  0.226300  0.404000  1.0  0.4183
  H  H79  1  0.703300  0.242900  0.332800  1.0  0.4259
  H  H80  1  0.755400  0.308500  0.374900  1.0  0.3898
  H  H81  1  0.777600  0.542900  0.309000  1.0  0.08
  H  H82  1  0.821100  0.564700  0.224400  1.0  0.0887
  H  H83  1  0.571400  0.502900  0.283100  1.0  0.0846
  H  H84  1  0.657000  0.452700  0.320200  1.0  0.0895
  H  H85  1  0.698200  0.629000  0.163100  1.0  0.067
  H  H86  1  0.621600  0.626000  0.231500  1.0  0.0642
  H  H87  1  0.522300  0.542900  0.151300  1.0  0.0711
  H  H88  1  0.548600  0.627300  0.104200  1.0  0.0795
  H  H89  1  0.646400  0.634500  0.007100  1.0  0.0786
  H  H90  1  0.650500  0.556600  0.947500  1.0  0.0687
  H  H91  1  0.507000  0.435100  0.058600  1.0  0.0711
  H  H92  1  0.565500  0.435800  0.978700  1.0  0.0757
  H  H93  1  0.902800  0.235600  0.073600  1.0  0.414
  H  H94  1  0.991500  0.273700  0.096000  1.0  0.4158
  H  H95  1  0.703300  0.257100  0.167200  1.0  0.4258
  H  H96  1  0.755400  0.191500  0.125100  1.0  0.3886
  H  H97  1  0.777600  0.957100  0.191000  1.0  0.0816
  H  H98  1  0.821100  0.935300  0.275600  1.0  0.0882
  H  H99  1  0.571400  0.997100  0.216900  1.0  0.0832
  H  H100  1  0.657000  0.047300  0.179800  1.0  0.089
  H  H101  1  0.698200  0.871000  0.336900  1.0  0.067
  H  H102  1  0.621600  0.874000  0.268500  1.0  0.0654
  H  H103  1  0.522300  0.957100  0.348700  1.0  0.0707
  H  H104  1  0.548600  0.872700  0.395800  1.0  0.0786
  H  H105  1  0.646400  0.865500  0.492900  1.0  0.0798
  H  H106  1  0.650500  0.943400  0.552500  1.0  0.0675
  H  H107  1  0.507000  0.064900  0.441400  1.0  0.0707
  H  H108  1  0.565500  0.064200  0.521300  1.0  0.0745
  H  H109  1  0.597200  0.735600  0.926400  1.0  0.4139
  H  H110  1  0.508500  0.773700  0.904000  1.0  0.4194
  H  H111  1  0.796700  0.757100  0.832800  1.0  0.4259
  H  H112  1  0.744600  0.691500  0.874900  1.0  0.3901
  H  H113  1  0.722400  0.457100  0.809000  1.0  0.0815
  H  H114  1  0.678900  0.435300  0.724400  1.0  0.0878
  H  H115  1  0.928600  0.497100  0.783100  1.0  0.0837
  H  H116  1  0.843000  0.547300  0.820200  1.0  0.089
  H  H117  1  0.801800  0.371000  0.663100  1.0  0.0687
  H  H118  1  0.878400  0.374000  0.731500  1.0  0.0667
  H  H119  1  0.977700  0.457100  0.651300  1.0  0.0703
  H  H120  1  0.951400  0.372700  0.604200  1.0  0.0792
  H  H121  1  0.853600  0.365500  0.507100  1.0  0.0796
  H  H122  1  0.849500  0.443400  0.447500  1.0  0.0672
  H  H123  1  0.993000  0.564900  0.558600  1.0  0.07
  H  H124  1  0.934500  0.564200  0.478700  1.0  0.077
  H  H125  1  0.597200  0.764400  0.573600  1.0  0.4125
  H  H126  1  0.508500  0.726300  0.596000  1.0  0.4183
  H  H127  1  0.796700  0.742900  0.667200  1.0  0.4257
  H  H128  1  0.744600  0.808500  0.625100  1.0  0.3881
  H  H129  1  0.722400  0.042900  0.691000  1.0  0.0814
  H  H130  1  0.678900  0.064700  0.775600  1.0  0.088
  H  H131  1  0.928600  0.002900  0.716900  1.0  0.0847
  H  H132  1  0.843000  0.952700  0.679800  1.0  0.0889
  H  H133  1  0.801800  0.129000  0.836900  1.0  0.0674
  H  H134  1  0.878400  0.126000  0.768500  1.0  0.0659
  H  H135  1  0.977700  0.042900  0.848700  1.0  0.0701
  H  H136  1  0.951400  0.127300  0.895800  1.0  0.0771
  H  H137  1  0.853600  0.134500  0.992900  1.0  0.0781
  H  H138  1  0.849500  0.056600  0.052500  1.0  0.0664
  H  H139  1  0.993000  0.935100  0.941400  1.0  0.0701
  H  H140  1  0.934500  0.935800  0.021300  1.0  0.0765
  C  C141  1  0.167200  0.563700  0.747300  1.0  0.7171
  C  C142  1  0.216000  0.477100  0.745900  1.0  -0.1506
  C  C143  1  0.375400  0.534200  0.729700  1.0  -0.1382
  C  C144  1  0.413000  0.617300  0.765200  1.0  0.6717
  C  C145  1  0.350900  0.406100  0.812700  1.0  -0.0415
  C  C146  1  0.426200  0.426100  0.874300  1.0  -0.0421
  C  C147  1  0.333400  0.424900  0.998600  1.0  -0.0679
  C  C148  1  0.227700  0.428900  0.988800  1.0  0.7188
  C  C149  1  0.462800  0.527700  0.980600  1.0  -0.0233
  C  C150  1  0.234800  0.659800  0.029900  1.0  0.2033
  C  C151  1  0.167200  0.936300  0.752700  1.0  0.7167
  C  C152  1  0.216000  0.022900  0.754100  1.0  -0.1505
  C  C153  1  0.375400  0.965800  0.770300  1.0  -0.1368
  C  C154  1  0.413000  0.882700  0.734800  1.0  0.6705
  C  C155  1  0.350900  0.093900  0.687300  1.0  -0.0422
  C  C156  1  0.426200  0.073900  0.625700  1.0  -0.0409
  C  C157  1  0.333400  0.075100  0.501400  1.0  -0.068
  C  C158  1  0.227700  0.071100  0.511200  1.0  0.7193
  C  C159  1  0.462800  0.972300  0.519400  1.0  -0.0239
  C  C160  1  0.234800  0.840200  0.470100  1.0  0.2029
  C  C161  1  0.332800  0.436300  0.247300  1.0  0.7153
  C  C162  1  0.284000  0.522900  0.245900  1.0  -0.1496
  C  C163  1  0.124600  0.465800  0.229700  1.0  -0.1405
  C  C164  1  0.087000  0.382700  0.265200  1.0  0.6714
  C  C165  1  0.149100  0.593900  0.312700  1.0  -0.0418
  C  C166  1  0.073800  0.573900  0.374300  1.0  -0.0432
  C  C167  1  0.166600  0.575100  0.498600  1.0  -0.0697
  C  C168  1  0.272300  0.571100  0.488800  1.0  0.72
  C  C169  1  0.037200  0.472300  0.480600  1.0  -0.0242
  C  C170  1  0.265200  0.340200  0.529900  1.0  0.2019
  C  C171  1  0.332800  0.063700  0.252700  1.0  0.7156
  C  C172  1  0.284000  0.977100  0.254100  1.0  -0.1478
  C  C173  1  0.124600  0.034200  0.270300  1.0  -0.1389
  C  C174  1  0.087000  0.117300  0.234800  1.0  0.6714
  C  C175  1  0.149100  0.906100  0.187300  1.0  -0.0404
  C  C176  1  0.073800  0.926100  0.125700  1.0  -0.0413
  C  C177  1  0.166600  0.924900  0.001400  1.0  -0.0671
  C  C178  1  0.272300  0.928900  0.011200  1.0  0.72
  C  C179  1  0.037200  0.027700  0.019400  1.0  -0.0235
  C  C180  1  0.265200  0.159800  0.970100  1.0  0.1992
  C  C181  1  0.832800  0.436300  0.252700  1.0  0.7154
  C  C182  1  0.784000  0.522900  0.254100  1.0  -0.1489
  C  C183  1  0.624600  0.465800  0.270300  1.0  -0.1377
  C  C184  1  0.587000  0.382700  0.234800  1.0  0.6706
  C  C185  1  0.649100  0.593900  0.187300  1.0  -0.0407
  C  C186  1  0.573800  0.573900  0.125700  1.0  -0.0432
  C  C187  1  0.666667  0.575100  0.001400  1.0  -0.0678
  C  C188  1  0.772300  0.571100  0.011200  1.0  0.7198
  C  C189  1  0.537200  0.472300  0.019400  1.0  -0.0243
  C  C190  1  0.765200  0.340200  0.970100  1.0  0.2
  C  C191  1  0.832800  0.063700  0.247300  1.0  0.7161
  C  C192  1  0.784000  0.977100  0.245900  1.0  -0.1491
  C  C193  1  0.624600  0.034200  0.229700  1.0  -0.1392
  C  C194  1  0.587000  0.117300  0.265200  1.0  0.6724
  C  C195  1  0.649100  0.906100  0.312700  1.0  -0.0413
  C  C196  1  0.573800  0.926100  0.374300  1.0  -0.0421
  C  C197  1  0.666667  0.924900  0.498600  1.0  -0.0691
  C  C198  1  0.772300  0.928900  0.488800  1.0  0.7201
  C  C199  1  0.537200  0.027700  0.480600  1.0  -0.0238
  C  C200  1  0.765200  0.159800  0.529900  1.0  0.2012
  C  C201  1  0.667200  0.563700  0.752700  1.0  0.7165
  C  C202  1  0.716000  0.477100  0.754100  1.0  -0.1493
  C  C203  1  0.875400  0.534200  0.770300  1.0  -0.1372
  C  C204  1  0.913000  0.617300  0.734800  1.0  0.6711
  C  C205  1  0.850900  0.406100  0.687300  1.0  -0.0409
  C  C206  1  0.926200  0.426100  0.625700  1.0  -0.041
  C  C207  1  0.833400  0.424900  0.501400  1.0  -0.0672
  C  C208  1  0.727700  0.428900  0.511200  1.0  0.7189
  C  C209  1  0.962800  0.527700  0.519400  1.0  -0.023
  C  C210  1  0.734800  0.659800  0.470100  1.0  0.2024
  C  C211  1  0.667200  0.936300  0.747300  1.0  0.7171
  C  C212  1  0.716000  0.022900  0.745900  1.0  -0.1512
  C  C213  1  0.875400  0.965800  0.729700  1.0  -0.1398
  C  C214  1  0.913000  0.882700  0.765200  1.0  0.6711
  C  C215  1  0.850900  0.093900  0.812700  1.0  -0.0425
  C  C216  1  0.926200  0.073900  0.874300  1.0  -0.0409
  C  C217  1  0.833400  0.075100  0.998600  1.0  -0.0685
  C  C218  1  0.727700  0.071100  0.988800  1.0  0.7193
  C  C219  1  0.962800  0.972300  0.980600  1.0  -0.0238
  C  C220  1  0.734800  0.840200  0.029900  1.0  0.2039
  S  S221  1  0.185000  0.701000  0.117000  1.0  -0.331
  S  S222  1  0.185000  0.799000  0.383000  1.0  -0.3299
  S  S223  1  0.315000  0.299000  0.617000  1.0  -0.3299
  S  S224  1  0.315000  0.201000  0.883000  1.0  -0.3294
  S  S225  1  0.815000  0.299000  0.883000  1.0  -0.3291
  S  S226  1  0.815000  0.201000  0.617000  1.0  -0.3302
  S  S227  1  0.685000  0.701000  0.383000  1.0  -0.3302
  S  S228  1  0.685000  0.799000  0.117000  1.0  -0.3306
  N  N229  1  0.309900  0.486800  0.782800  1.0  -0.1617
  N  N230  1  0.387100  0.478400  0.940300  1.0  -0.2012
  N  N231  1  0.267800  0.639300  0.975100  1.0  -0.3336
  N  N232  1  0.309900  0.013200  0.717200  1.0  -0.1618
  N  N233  1  0.387100  0.021600  0.559700  1.0  -0.2016
  N  N234  1  0.267800  0.860700  0.524900  1.0  -0.3304
  N  N235  1  0.190100  0.513200  0.282800  1.0  -0.1619
  N  N236  1  0.112900  0.521600  0.440300  1.0  -0.2012
  N  N237  1  0.232200  0.360700  0.475100  1.0  -0.3342
  N  N238  1  0.190100  0.986800  0.217200  1.0  -0.1608
  N  N239  1  0.112900  0.978400  0.059700  1.0  -0.2006
  N  N240  1  0.232200  0.139300  0.024900  1.0  -0.3344
  N  N241  1  0.690100  0.513200  0.217200  1.0  -0.1612
  N  N242  1  0.612900  0.521600  0.059700  1.0  -0.2012
  N  N243  1  0.732200  0.360700  0.024900  1.0  -0.3332
  N  N244  1  0.690100  0.986800  0.282800  1.0  -0.1612
  N  N245  1  0.612900  0.978400  0.440300  1.0  -0.2004
  N  N246  1  0.732200  0.139300  0.475100  1.0  -0.3347
  N  N247  1  0.809900  0.486800  0.717200  1.0  -0.1615
  N  N248  1  0.887100  0.478400  0.559700  1.0  -0.2012
  N  N249  1  0.767800  0.639300  0.524900  1.0  -0.3321
  N  N250  1  0.809900  0.013200  0.782800  1.0  -0.1624
  N  N251  1  0.887100  0.021600  0.940300  1.0  -0.2016
  N  N252  1  0.767800  0.860700  0.975100  1.0  -0.3325
  O  O253  1  0.182200  0.611700  0.808700  1.0  -0.6555
  O  O254  1  0.116700  0.586800  0.690900  1.0  -0.5939
  O  O255  1  0.385300  0.639800  0.834100  1.0  -0.6226
  O  O256  1  0.470000  0.658300  0.723700  1.0  -0.6294
  O  O257  1  0.193600  0.474600  0.934000  1.0  -0.5782
  O  O258  1  0.181400  0.385900  0.038200  1.0  -0.594
  O  O259  1  0.051200  0.737700  0.606900  1.0  -0.8062
  O  O260  1  0.257100  0.717400  0.668400  1.0  -0.7418
  O  O261  1  0.182200  0.888300  0.691300  1.0  -0.6555
  O  O262  1  0.116700  0.913200  0.809100  1.0  -0.595
  O  O263  1  0.385300  0.860200  0.665900  1.0  -0.6237
  O  O264  1  0.470000  0.841700  0.776300  1.0  -0.6283
  O  O265  1  0.193600  0.025400  0.566000  1.0  -0.5792
  O  O266  1  0.181400  0.114100  0.461800  1.0  -0.5923
  O  O267  1  0.051200  0.762300  0.893100  1.0  -0.8054
  O  O268  1  0.257100  0.782600  0.831600  1.0  -0.7415
  O  O269  1  0.317800  0.388300  0.308700  1.0  -0.6536
  O  O270  1  0.383300  0.413200  0.190900  1.0  -0.5915
  O  O271  1  0.114700  0.360200  0.334100  1.0  -0.6217
  O  O272  1  0.030000  0.341700  0.223700  1.0  -0.6309
  O  O273  1  0.306400  0.525400  0.434000  1.0  -0.5794
  O  O274  1  0.318600  0.614100  0.538200  1.0  -0.5945
  O  O275  1  0.448800  0.262300  0.106900  1.0  -0.8055
  O  O276  1  0.242900  0.282600  0.168400  1.0  -0.7404
  O  O277  1  0.317800  0.111700  0.191300  1.0  -0.6532
  O  O278  1  0.383300  0.086800  0.309100  1.0  -0.5925
  O  O279  1  0.114700  0.139800  0.165900  1.0  -0.625
  O  O280  1  0.030000  0.158300  0.276300  1.0  -0.6299
  O  O281  1  0.306400  0.974600  0.066000  1.0  -0.5791
  O  O282  1  0.318600  0.885900  0.961800  1.0  -0.5954
  O  O283  1  0.448800  0.237700  0.393100  1.0  -0.8078
  O  O284  1  0.242900  0.217400  0.331600  1.0  -0.743
  O  O285  1  0.817800  0.388300  0.191300  1.0  -0.6532
  O  O286  1  0.883300  0.413200  0.309100  1.0  -0.5949
  O  O287  1  0.614700  0.360200  0.165900  1.0  -0.624
  O  O288  1  0.530000  0.341700  0.276300  1.0  -0.63
  O  O289  1  0.806400  0.525400  0.066000  1.0  -0.5791
  O  O290  1  0.818600  0.614100  0.961800  1.0  -0.5943
  O  O291  1  0.948800  0.262300  0.393100  1.0  -0.8058
  O  O292  1  0.742900  0.282600  0.331600  1.0  -0.7423
  O  O293  1  0.817800  0.111700  0.308700  1.0  -0.6537
  O  O294  1  0.883300  0.086800  0.190900  1.0  -0.5939
  O  O295  1  0.614700  0.139800  0.334100  1.0  -0.6226
  O  O296  1  0.530000  0.158300  0.223700  1.0  -0.6304
  O  O297  1  0.806400  0.974600  0.434000  1.0  -0.579
  O  O298  1  0.818600  0.885900  0.538200  1.0  -0.5952
  O  O299  1  0.948800  0.237700  0.106900  1.0  -0.8065
  O  O300  1  0.742900  0.217400  0.168400  1.0  -0.7412
  O  O301  1  0.682200  0.611700  0.691300  1.0  -0.6547
  O  O302  1  0.616700  0.586800  0.809100  1.0  -0.5925
  O  O303  1  0.885300  0.639800  0.665900  1.0  -0.6245
  O  O304  1  0.970000  0.658300  0.776300  1.0  -0.6285
  O  O305  1  0.693600  0.474600  0.566000  1.0  -0.5789
  O  O306  1  0.681400  0.385900  0.461800  1.0  -0.5938
  O  O307  1  0.551200  0.737700  0.893100  1.0  -0.8072
  O  O308  1  0.757100  0.717400  0.831600  1.0  -0.7424
  O  O309  1  0.682200  0.888300  0.808700  1.0  -0.6557
  O  O310  1  0.616700  0.913200  0.690900  1.0  -0.5916
  O  O311  1  0.885300  0.860200  0.834100  1.0  -0.6217
  O  O312  1  0.970000  0.841700  0.723700  1.0  -0.6297
  O  O313  1  0.693600  0.025400  0.934000  1.0  -0.5785
  O  O314  1  0.681400  0.114100  0.038200  1.0  -0.5929
  O  O315  1  0.551200  0.762300  0.606900  1.0  -0.8056
  O  O316  1  0.757100  0.782600  0.668400  1.0  -0.7407
