# generated using pymatgen
data_CeNi2H32C20S2(N3O8)2
_symmetry_space_group_name_H-M   'P 1'
_cell_length_a   13.56300000
_cell_length_b   15.03000000
_cell_length_c   16.19300000
_cell_angle_alpha   90.00000000
_cell_angle_beta   90.00000000
_cell_angle_gamma   90.00000000
_symmetry_Int_Tables_number   1
_chemical_formula_structural   CeNi2H32C20S2(N3O8)2
_chemical_formula_sum   'Ce4 Ni8 H128 C80 S8 N24 O64'
_cell_volume   3300.97365477
_cell_formula_units_Z   4
loop_
 _symmetry_equiv_pos_site_id
 _symmetry_equiv_pos_as_xyz
  1  'x, y, z'
loop_
 _atom_site_type_symbol
 _atom_site_label
 _atom_site_symmetry_multiplicity
 _atom_site_fract_x
 _atom_site_fract_y
 _atom_site_fract_z
 _atom_site_occupancy
 _atom_site_charge
  Ce  Ce1  1  0.107270  0.750000  0.750000  1.0  2.0673
  Ce  Ce2  1  0.392730  0.250000  0.250000  1.0  2.0662
  Ce  Ce3  1  0.892730  0.250000  0.250000  1.0  2.0662
  Ce  Ce4  1  0.607270  0.750000  0.750000  1.0  2.0673
  Ni  Ni5  1  0.285160  0.560330  0.884950  1.0  0.7482
  Ni  Ni6  1  0.285160  0.939670  0.615050  1.0  0.7496
  Ni  Ni7  1  0.214840  0.439670  0.384950  1.0  0.7496
  Ni  Ni8  1  0.214840  0.060330  0.115050  1.0  0.7492
  Ni  Ni9  1  0.714840  0.439670  0.115050  1.0  0.7492
  Ni  Ni10  1  0.714840  0.060330  0.384950  1.0  0.7489
  Ni  Ni11  1  0.785160  0.560330  0.615050  1.0  0.7491
  Ni  Ni12  1  0.785160  0.939670  0.884950  1.0  0.7496
  H  H13  1  0.094400  0.734800  0.572400  1.0  0.3878
  H  H14  1  0.005700  0.772800  0.594700  1.0  0.3841
  H  H15  1  0.296800  0.756700  0.666800  1.0  0.3504
  H  H16  1  0.244600  0.691100  0.624700  1.0  0.2644
  H  H17  1  0.219700  0.454500  0.690800  1.0  0.0593
  H  H18  1  0.174400  0.433600  0.778200  1.0  0.0803
  H  H19  1  0.430500  0.494000  0.717700  1.0  0.0668
  H  H20  1  0.341200  0.544700  0.678200  1.0  0.067
  H  H21  1  0.298500  0.368700  0.838000  1.0  0.0535
  H  H22  1  0.378600  0.372100  0.768000  1.0  0.0662
  H  H23  1  0.479700  0.456400  0.849200  1.0  0.0492
  H  H24  1  0.451300  0.369600  0.897700  1.0  0.077
  H  H25  1  0.352400  0.363800  0.993600  1.0  0.0683
  H  H26  1  0.349600  0.444700  0.054600  1.0  0.0579
  H  H27  1  0.492500  0.566900  0.940800  1.0  0.0502
  H  H28  1  0.432200  0.564900  0.023300  1.0  0.064
  H  H29  1  0.094400  0.765200  0.927600  1.0  0.3884
  H  H30  1  0.005700  0.727200  0.905300  1.0  0.3821
  H  H31  1  0.296800  0.743300  0.833200  1.0  0.3485
  H  H32  1  0.244600  0.808900  0.875300  1.0  0.2655
  H  H33  1  0.219700  0.045500  0.809200  1.0  0.0576
  H  H34  1  0.174400  0.066400  0.721800  1.0  0.0808
  H  H35  1  0.430500  0.006000  0.782300  1.0  0.0646
  H  H36  1  0.341200  0.955300  0.821800  1.0  0.0661
  H  H37  1  0.298500  0.131300  0.662000  1.0  0.0539
  H  H38  1  0.378600  0.127900  0.732000  1.0  0.0667
  H  H39  1  0.479700  0.043600  0.650800  1.0  0.0492
  H  H40  1  0.451300  0.130400  0.602300  1.0  0.0745
  H  H41  1  0.352400  0.136200  0.506400  1.0  0.0673
  H  H42  1  0.349600  0.055300  0.445400  1.0  0.0589
  H  H43  1  0.492500  0.933100  0.559200  1.0  0.0515
  H  H44  1  0.432200  0.935100  0.476700  1.0  0.0633
  H  H45  1  0.405600  0.265200  0.072400  1.0  0.386
  H  H46  1  0.494300  0.227200  0.094700  1.0  0.3821
  H  H47  1  0.203200  0.243300  0.166800  1.0  0.3488
  H  H48  1  0.255400  0.308900  0.124700  1.0  0.2656
  H  H49  1  0.280300  0.545500  0.190800  1.0  0.0583
  H  H50  1  0.325600  0.566400  0.278200  1.0  0.079
  H  H51  1  0.069500  0.506000  0.217700  1.0  0.0645
  H  H52  1  0.158800  0.455300  0.178200  1.0  0.0682
  H  H53  1  0.201500  0.631300  0.338000  1.0  0.0521
  H  H54  1  0.121400  0.627900  0.268000  1.0  0.067
  H  H55  1  0.020300  0.543600  0.349200  1.0  0.0478
  H  H56  1  0.048700  0.630400  0.397700  1.0  0.0764
  H  H57  1  0.147600  0.636200  0.493600  1.0  0.0657
  H  H58  1  0.150400  0.555300  0.554600  1.0  0.0559
  H  H59  1  0.007500  0.433100  0.440800  1.0  0.0511
  H  H60  1  0.067800  0.435100  0.523300  1.0  0.0639
  H  H61  1  0.405600  0.234800  0.427600  1.0  0.3866
  H  H62  1  0.494300  0.272800  0.405300  1.0  0.3833
  H  H63  1  0.203200  0.256700  0.333200  1.0  0.3496
  H  H64  1  0.255400  0.191100  0.375300  1.0  0.2681
  H  H65  1  0.280300  0.954500  0.309200  1.0  0.0581
  H  H66  1  0.325600  0.933600  0.221800  1.0  0.0791
  H  H67  1  0.069500  0.994000  0.282300  1.0  0.0658
  H  H68  1  0.158800  0.044700  0.321800  1.0  0.0678
  H  H69  1  0.201500  0.868700  0.162000  1.0  0.0525
  H  H70  1  0.121400  0.872100  0.232000  1.0  0.0685
  H  H71  1  0.020300  0.956400  0.150800  1.0  0.0459
  H  H72  1  0.048700  0.869600  0.102300  1.0  0.0749
  H  H73  1  0.147600  0.863800  0.006400  1.0  0.0689
  H  H74  1  0.150400  0.944700  0.945400  1.0  0.0562
  H  H75  1  0.007500  0.066900  0.059200  1.0  0.0509
  H  H76  1  0.067800  0.064900  0.976700  1.0  0.0639
  H  H77  1  0.905600  0.265200  0.427600  1.0  0.3863
  H  H78  1  0.994300  0.227200  0.405300  1.0  0.3825
  H  H79  1  0.703200  0.243300  0.333200  1.0  0.3488
  H  H80  1  0.755400  0.308900  0.375300  1.0  0.267
  H  H81  1  0.780300  0.545500  0.309200  1.0  0.0575
  H  H82  1  0.825600  0.566400  0.221800  1.0  0.0793
  H  H83  1  0.569500  0.506000  0.282300  1.0  0.0644
  H  H84  1  0.658800  0.455300  0.321800  1.0  0.0671
  H  H85  1  0.701500  0.631300  0.162000  1.0  0.0527
  H  H86  1  0.621400  0.627900  0.232000  1.0  0.0662
  H  H87  1  0.520300  0.543600  0.150800  1.0  0.0473
  H  H88  1  0.548700  0.630400  0.102300  1.0  0.076
  H  H89  1  0.647600  0.636200  0.006400  1.0  0.0665
  H  H90  1  0.650400  0.555300  0.945400  1.0  0.0569
  H  H91  1  0.507500  0.433100  0.059200  1.0  0.0519
  H  H92  1  0.567800  0.435100  0.976700  1.0  0.0627
  H  H93  1  0.905600  0.234800  0.072400  1.0  0.387
  H  H94  1  0.994300  0.272800  0.094700  1.0  0.3826
  H  H95  1  0.703200  0.256700  0.166800  1.0  0.35
  H  H96  1  0.755400  0.191100  0.124700  1.0  0.2654
  H  H97  1  0.780300  0.954500  0.190800  1.0  0.0585
  H  H98  1  0.825600  0.933600  0.278200  1.0  0.0802
  H  H99  1  0.569500  0.994000  0.217700  1.0  0.064
  H  H100  1  0.658800  0.044700  0.178200  1.0  0.0681
  H  H101  1  0.701500  0.868700  0.338000  1.0  0.0527
  H  H102  1  0.621400  0.872100  0.268000  1.0  0.0662
  H  H103  1  0.520300  0.956400  0.349200  1.0  0.0465
  H  H104  1  0.548700  0.869600  0.397700  1.0  0.075
  H  H105  1  0.647600  0.863800  0.493600  1.0  0.0685
  H  H106  1  0.650400  0.944700  0.554600  1.0  0.0563
  H  H107  1  0.507500  0.066900  0.440800  1.0  0.0511
  H  H108  1  0.567800  0.064900  0.523300  1.0  0.0632
  H  H109  1  0.594400  0.734800  0.927600  1.0  0.3872
  H  H110  1  0.505700  0.772800  0.905300  1.0  0.3842
  H  H111  1  0.796800  0.756700  0.833200  1.0  0.3497
  H  H112  1  0.744600  0.691100  0.875300  1.0  0.2665
  H  H113  1  0.719700  0.454500  0.809200  1.0  0.0584
  H  H114  1  0.674400  0.433600  0.721800  1.0  0.0795
  H  H115  1  0.930500  0.494000  0.782300  1.0  0.0664
  H  H116  1  0.841200  0.544700  0.821800  1.0  0.0666
  H  H117  1  0.798500  0.368700  0.662000  1.0  0.0531
  H  H118  1  0.878600  0.372100  0.732000  1.0  0.0688
  H  H119  1  0.979700  0.456400  0.650800  1.0  0.0496
  H  H120  1  0.951300  0.369600  0.602300  1.0  0.0773
  H  H121  1  0.852400  0.363800  0.506400  1.0  0.0688
  H  H122  1  0.849600  0.444700  0.445400  1.0  0.058
  H  H123  1  0.992500  0.566900  0.559200  1.0  0.0504
  H  H124  1  0.932200  0.564900  0.476700  1.0  0.0652
  H  H125  1  0.594400  0.765200  0.572400  1.0  0.388
  H  H126  1  0.505700  0.727200  0.594700  1.0  0.3831
  H  H127  1  0.796800  0.743300  0.666800  1.0  0.3488
  H  H128  1  0.744600  0.808900  0.624700  1.0  0.2646
  H  H129  1  0.719700  0.045500  0.690800  1.0  0.0587
  H  H130  1  0.674400  0.066400  0.778200  1.0  0.0798
  H  H131  1  0.930500  0.006000  0.717700  1.0  0.0667
  H  H132  1  0.841200  0.955300  0.678200  1.0  0.0675
  H  H133  1  0.798500  0.131300  0.838000  1.0  0.0534
  H  H134  1  0.878600  0.127900  0.768000  1.0  0.0674
  H  H135  1  0.979700  0.043600  0.849200  1.0  0.0495
  H  H136  1  0.951300  0.130400  0.897700  1.0  0.0749
  H  H137  1  0.852400  0.136200  0.993600  1.0  0.0668
  H  H138  1  0.849600  0.055300  0.054600  1.0  0.0577
  H  H139  1  0.992500  0.933100  0.940800  1.0  0.0507
  H  H140  1  0.932200  0.935100  0.023300  1.0  0.0644
  C  C141  1  0.165600  0.562800  0.747600  1.0  0.6528
  C  C142  1  0.213300  0.476000  0.747000  1.0  0.0028
  C  C143  1  0.374700  0.532300  0.729900  1.0  -0.0743
  C  C144  1  0.411400  0.616400  0.764800  1.0  0.6147
  C  C145  1  0.349800  0.405100  0.813400  1.0  -0.0358
  C  C146  1  0.425700  0.424800  0.875200  1.0  -0.0349
  C  C147  1  0.332200  0.425400  0.999300  1.0  -0.0612
  C  C148  1  0.226100  0.430600  0.990000  1.0  0.6702
  C  C149  1  0.461700  0.527800  0.981000  1.0  -0.0085
  C  C150  1  0.229500  0.657900  0.025900  1.0  0.231
  C  C151  1  0.165600  0.937200  0.752400  1.0  0.6536
  C  C152  1  0.213300  0.024000  0.753000  1.0  0.0025
  C  C153  1  0.374700  0.967700  0.770100  1.0  -0.0756
  C  C154  1  0.411400  0.883600  0.735200  1.0  0.6142
  C  C155  1  0.349800  0.094900  0.686600  1.0  -0.0397
  C  C156  1  0.425700  0.075200  0.624800  1.0  -0.0336
  C  C157  1  0.332200  0.074600  0.500700  1.0  -0.0603
  C  C158  1  0.226100  0.069400  0.510000  1.0  0.6701
  C  C159  1  0.461700  0.972200  0.519000  1.0  -0.0081
  C  C160  1  0.229500  0.842100  0.474100  1.0  0.2317
  C  C161  1  0.334400  0.437200  0.247600  1.0  0.6519
  C  C162  1  0.286700  0.524000  0.247000  1.0  0.0018
  C  C163  1  0.125300  0.467700  0.229900  1.0  -0.0729
  C  C164  1  0.088600  0.383600  0.264800  1.0  0.616
  C  C165  1  0.150200  0.594900  0.313400  1.0  -0.038
  C  C166  1  0.074300  0.575200  0.375200  1.0  -0.0348
  C  C167  1  0.167800  0.574600  0.499300  1.0  -0.0601
  C  C168  1  0.273900  0.569400  0.490000  1.0  0.6717
  C  C169  1  0.038300  0.472200  0.481000  1.0  -0.008
  C  C170  1  0.270500  0.342100  0.525900  1.0  0.2288
  C  C171  1  0.334400  0.062800  0.252400  1.0  0.6527
  C  C172  1  0.286700  0.976000  0.253000  1.0  0.0024
  C  C173  1  0.125300  0.032300  0.270100  1.0  -0.0753
  C  C174  1  0.088600  0.116400  0.235200  1.0  0.6141
  C  C175  1  0.150200  0.905100  0.186600  1.0  -0.0356
  C  C176  1  0.074300  0.924800  0.124800  1.0  -0.034
  C  C177  1  0.167800  0.925400  0.000700  1.0  -0.0588
  C  C178  1  0.273900  0.930600  0.010000  1.0  0.6716
  C  C179  1  0.038300  0.027800  0.019000  1.0  -0.0096
  C  C180  1  0.270500  0.157900  0.974100  1.0  0.2278
  C  C181  1  0.834400  0.437200  0.252400  1.0  0.6523
  C  C182  1  0.786700  0.524000  0.253000  1.0  0.002
  C  C183  1  0.625300  0.467700  0.270100  1.0  -0.0726
  C  C184  1  0.588600  0.383600  0.235200  1.0  0.6148
  C  C185  1  0.650200  0.594900  0.186600  1.0  -0.039
  C  C186  1  0.574300  0.575200  0.124800  1.0  -0.0348
  C  C187  1  0.667800  0.574600  0.000700  1.0  -0.0591
  C  C188  1  0.773900  0.569400  0.010000  1.0  0.6713
  C  C189  1  0.538300  0.472200  0.019000  1.0  -0.0083
  C  C190  1  0.770500  0.342100  0.974100  1.0  0.2285
  C  C191  1  0.834400  0.062800  0.247600  1.0  0.6522
  C  C192  1  0.786700  0.976000  0.247000  1.0  0.0016
  C  C193  1  0.625300  0.032300  0.229900  1.0  -0.0739
  C  C194  1  0.588600  0.116400  0.264800  1.0  0.6155
  C  C195  1  0.650200  0.905100  0.313400  1.0  -0.0357
  C  C196  1  0.574300  0.924800  0.375200  1.0  -0.0342
  C  C197  1  0.667800  0.925400  0.499300  1.0  -0.0597
  C  C198  1  0.773900  0.930600  0.490000  1.0  0.672
  C  C199  1  0.538300  0.027800  0.481000  1.0  -0.009
  C  C200  1  0.770500  0.157900  0.525900  1.0  0.228
  C  C201  1  0.665600  0.562800  0.752400  1.0  0.6541
  C  C202  1  0.713300  0.476000  0.753000  1.0  0.0037
  C  C203  1  0.874700  0.532300  0.770100  1.0  -0.0771
  C  C204  1  0.911400  0.616400  0.735200  1.0  0.6137
  C  C205  1  0.849800  0.405100  0.686600  1.0  -0.0358
  C  C206  1  0.925700  0.424800  0.624800  1.0  -0.0335
  C  C207  1  0.832200  0.425400  0.500700  1.0  -0.0613
  C  C208  1  0.726100  0.430600  0.510000  1.0  0.6699
  C  C209  1  0.961700  0.527800  0.519000  1.0  -0.0089
  C  C210  1  0.729500  0.657900  0.474100  1.0  0.231
  C  C211  1  0.665600  0.937200  0.747600  1.0  0.6529
  C  C212  1  0.713300  0.024000  0.747000  1.0  0.0021
  C  C213  1  0.874700  0.967700  0.729900  1.0  -0.0748
  C  C214  1  0.911400  0.883600  0.764800  1.0  0.6152
  C  C215  1  0.849800  0.094900  0.813400  1.0  -0.0384
  C  C216  1  0.925700  0.075200  0.875200  1.0  -0.034
  C  C217  1  0.832200  0.074600  0.999300  1.0  -0.0606
  C  C218  1  0.726100  0.069400  0.990000  1.0  0.6707
  C  C219  1  0.961700  0.972200  0.981000  1.0  -0.0076
  C  C220  1  0.729500  0.842100  0.025900  1.0  0.2318
  S  S221  1  0.180500  0.699600  0.117300  1.0  -0.2943
  S  S222  1  0.180500  0.800400  0.382700  1.0  -0.2934
  S  S223  1  0.319500  0.300400  0.617300  1.0  -0.2943
  S  S224  1  0.319500  0.199600  0.882700  1.0  -0.2927
  S  S225  1  0.819500  0.300400  0.882700  1.0  -0.293
  S  S226  1  0.819500  0.199600  0.617300  1.0  -0.294
  S  S227  1  0.680500  0.699600  0.382700  1.0  -0.2932
  S  S228  1  0.680500  0.800400  0.117300  1.0  -0.2945
  N  N229  1  0.308400  0.485800  0.783600  1.0  -0.162
  N  N230  1  0.385600  0.478100  0.940900  1.0  -0.1896
  N  N231  1  0.268000  0.638600  0.971900  1.0  -0.2068
  N  N232  1  0.308400  0.014200  0.716400  1.0  -0.1612
  N  N233  1  0.385600  0.021900  0.559100  1.0  -0.1892
  N  N234  1  0.268000  0.861400  0.528100  1.0  -0.2035
  N  N235  1  0.191600  0.514200  0.283600  1.0  -0.1603
  N  N236  1  0.114400  0.521900  0.440900  1.0  -0.189
  N  N237  1  0.232000  0.361400  0.471900  1.0  -0.206
  N  N238  1  0.191600  0.985800  0.216400  1.0  -0.1593
  N  N239  1  0.114400  0.978100  0.059100  1.0  -0.1884
  N  N240  1  0.232000  0.138600  0.028100  1.0  -0.2045
  N  N241  1  0.691600  0.514200  0.216400  1.0  -0.1597
  N  N242  1  0.614400  0.521900  0.059100  1.0  -0.1888
  N  N243  1  0.732000  0.361400  0.028100  1.0  -0.2046
  N  N244  1  0.691600  0.985800  0.283600  1.0  -0.1601
  N  N245  1  0.614400  0.978100  0.440900  1.0  -0.1884
  N  N246  1  0.732000  0.138600  0.471900  1.0  -0.206
  N  N247  1  0.808400  0.485800  0.716400  1.0  -0.1611
  N  N248  1  0.885600  0.478100  0.559100  1.0  -0.1895
  N  N249  1  0.768000  0.638600  0.528100  1.0  -0.2041
  N  N250  1  0.808400  0.014200  0.783600  1.0  -0.1617
  N  N251  1  0.885600  0.021900  0.940900  1.0  -0.1896
  N  N252  1  0.768000  0.861400  0.971900  1.0  -0.2057
  O  O253  1  0.180400  0.610900  0.809000  1.0  -0.6516
  O  O254  1  0.114700  0.585300  0.691400  1.0  -0.5516
  O  O255  1  0.384700  0.638500  0.833500  1.0  -0.5731
  O  O256  1  0.466700  0.658200  0.722700  1.0  -0.6424
  O  O257  1  0.190900  0.475300  0.934900  1.0  -0.5648
  O  O258  1  0.178200  0.387600  0.039300  1.0  -0.5274
  O  O259  1  0.048400  0.736800  0.605700  1.0  -0.7785
  O  O260  1  0.257100  0.717000  0.667900  1.0  -0.7425
  O  O261  1  0.180400  0.889100  0.691000  1.0  -0.6514
  O  O262  1  0.114700  0.914700  0.808600  1.0  -0.5533
  O  O263  1  0.384700  0.861500  0.666500  1.0  -0.5732
  O  O264  1  0.466700  0.841800  0.777300  1.0  -0.6412
  O  O265  1  0.190900  0.024700  0.565100  1.0  -0.5671
  O  O266  1  0.178200  0.112400  0.460700  1.0  -0.5272
  O  O267  1  0.048400  0.763200  0.894300  1.0  -0.7741
  O  O268  1  0.257100  0.783000  0.832100  1.0  -0.7408
  O  O269  1  0.319600  0.389100  0.309000  1.0  -0.65
  O  O270  1  0.385300  0.414700  0.191400  1.0  -0.5526
  O  O271  1  0.115300  0.361500  0.333500  1.0  -0.5723
  O  O272  1  0.033300  0.341800  0.222700  1.0  -0.6441
  O  O273  1  0.309100  0.524700  0.434900  1.0  -0.5658
  O  O274  1  0.321800  0.612400  0.539300  1.0  -0.5261
  O  O275  1  0.451600  0.263200  0.105700  1.0  -0.7774
  O  O276  1  0.242900  0.283000  0.167900  1.0  -0.7397
  O  O277  1  0.319600  0.110900  0.191000  1.0  -0.6506
  O  O278  1  0.385300  0.085300  0.308600  1.0  -0.5545
  O  O279  1  0.115300  0.138500  0.166500  1.0  -0.5739
  O  O280  1  0.033300  0.158200  0.277300  1.0  -0.643
  O  O281  1  0.309100  0.975300  0.065100  1.0  -0.5649
  O  O282  1  0.321800  0.887600  0.960700  1.0  -0.5263
  O  O283  1  0.451600  0.236800  0.394300  1.0  -0.776
  O  O284  1  0.242900  0.217000  0.332100  1.0  -0.742
  O  O285  1  0.819600  0.389100  0.191000  1.0  -0.6502
  O  O286  1  0.885300  0.414700  0.308600  1.0  -0.5544
  O  O287  1  0.615300  0.361500  0.166500  1.0  -0.5734
  O  O288  1  0.533300  0.341800  0.277300  1.0  -0.6429
  O  O289  1  0.809100  0.524700  0.065100  1.0  -0.5657
  O  O290  1  0.821800  0.612400  0.960700  1.0  -0.5267
  O  O291  1  0.951600  0.263200  0.394300  1.0  -0.7741
  O  O292  1  0.742900  0.283000  0.332100  1.0  -0.7405
  O  O293  1  0.819600  0.110900  0.309000  1.0  -0.6504
  O  O294  1  0.885300  0.085300  0.191400  1.0  -0.5529
  O  O295  1  0.615300  0.138500  0.333500  1.0  -0.573
  O  O296  1  0.533300  0.158200  0.222700  1.0  -0.6436
  O  O297  1  0.809100  0.975300  0.434900  1.0  -0.5651
  O  O298  1  0.821800  0.887600  0.539300  1.0  -0.5255
  O  O299  1  0.951600  0.236800  0.105700  1.0  -0.7789
  O  O300  1  0.742900  0.217000  0.167900  1.0  -0.7414
  O  O301  1  0.680400  0.610900  0.691000  1.0  -0.6511
  O  O302  1  0.614700  0.585300  0.808600  1.0  -0.5533
  O  O303  1  0.884700  0.638500  0.666500  1.0  -0.5738
  O  O304  1  0.966700  0.658200  0.777300  1.0  -0.6418
  O  O305  1  0.690900  0.475300  0.565100  1.0  -0.5657
  O  O306  1  0.678200  0.387600  0.460700  1.0  -0.5272
  O  O307  1  0.548400  0.736800  0.894300  1.0  -0.7758
  O  O308  1  0.757100  0.717000  0.832100  1.0  -0.7426
  O  O309  1  0.680400  0.889100  0.809000  1.0  -0.6515
  O  O310  1  0.614700  0.914700  0.691400  1.0  -0.5513
  O  O311  1  0.884700  0.861500  0.833500  1.0  -0.5723
  O  O312  1  0.966700  0.841800  0.722700  1.0  -0.6426
  O  O313  1  0.690900  0.024700  0.934900  1.0  -0.5659
  O  O314  1  0.678200  0.112400  0.039300  1.0  -0.5274
  O  O315  1  0.548400  0.763200  0.605700  1.0  -0.7774
  O  O316  1  0.757100  0.783000  0.667900  1.0  -0.7406
