# generated using pymatgen
data_Cd2Pd(C5N)8
_symmetry_space_group_name_H-M   'P 1'
_cell_length_a   16.52000000
_cell_length_b   34.60000000
_cell_length_c   9.36100000
_cell_angle_alpha   90.00000000
_cell_angle_beta   112.40000000
_cell_angle_gamma   90.00000000
_symmetry_Int_Tables_number   1
_chemical_formula_structural   Cd2Pd(C5N)8
_chemical_formula_sum   'Cd8 Pd4 C160 N32'
_cell_volume   4946.94323304
_cell_formula_units_Z   4
loop_
 _symmetry_equiv_pos_site_id
 _symmetry_equiv_pos_as_xyz
  1  'x, y, z'
loop_
 _atom_site_type_symbol
 _atom_site_label
 _atom_site_symmetry_multiplicity
 _atom_site_fract_x
 _atom_site_fract_y
 _atom_site_fract_z
 _atom_site_occupancy
 _atom_site_charge
  Cd  Cd1  1  0.500000  0.148400  0.750000  1.0  0.7779
  Cd  Cd2  1  0.000000  0.648400  0.750000  1.0  0.7779
  Cd  Cd3  1  0.500000  0.851600  0.250000  1.0  0.777
  Cd  Cd4  1  0.000000  0.351600  0.250000  1.0  0.777
  Cd  Cd5  1  0.250000  0.750000  0.500000  1.0  0.8343
  Cd  Cd6  1  0.750000  0.750000  0.000000  1.0  0.8343
  Cd  Cd7  1  0.750000  0.250000  0.500000  1.0  0.8343
  Cd  Cd8  1  0.250000  0.250000  0.000000  1.0  0.8343
  Pd  Pd9  1  0.000000  0.000000  0.000000  1.0  0.4598
  Pd  Pd10  1  0.500000  0.500000  0.000000  1.0  0.4598
  Pd  Pd11  1  0.000000  0.000000  0.500000  1.0  0.4598
  Pd  Pd12  1  0.500000  0.500000  0.500000  1.0  0.4598
  C  C13  1  0.827000  0.990000  0.729000  1.0  0.0718
  C  C14  1  0.828000  0.953000  0.723000  1.0  0.0469
  C  C15  1  0.895000  0.929000  0.821000  1.0  -0.011
  C  C16  1  0.904000  0.888000  0.808000  1.0  -0.0398
  C  C17  1  0.980000  0.876000  0.931000  1.0  -0.0401
  C  C18  1  0.021000  0.913000  0.994000  1.0  0.0656
  C  C19  1  0.094000  0.916000  0.151000  1.0  -0.1386
  C  C20  1  0.861000  0.052000  0.785000  1.0  0.2126
  C  C21  1  0.778000  0.051000  0.648000  1.0  0.0462
  C  C22  1  0.755000  0.017000  0.622000  1.0  0.0034
  C  C23  1  0.744000  0.931000  0.631000  1.0  -0.0828
  C  C24  1  0.700000  0.904000  0.667000  1.0  0.0606
  C  C25  1  0.625000  0.882000  0.568000  1.0  -0.0544
  C  C26  1  0.649000  0.921000  0.377000  1.0  0.121
  C  C27  1  0.724000  0.941000  0.458000  1.0  -0.0412
  C  C28  1  0.137000  0.876000  0.204000  1.0  0.2834
  C  C29  1  0.184000  0.851000  0.169000  1.0  0.1273
  C  C30  1  0.221000  0.816000  0.235000  1.0  -0.0516
  C  C31  1  0.158000  0.831000  0.415000  1.0  -0.011
  C  C32  1  0.131000  0.868000  0.337000  1.0  0.0812
  C  C33  1  0.327000  0.490000  0.729000  1.0  0.0718
  C  C34  1  0.328000  0.453000  0.723000  1.0  0.0469
  C  C35  1  0.395000  0.429000  0.821000  1.0  -0.011
  C  C36  1  0.404000  0.388000  0.808000  1.0  -0.0398
  C  C37  1  0.480000  0.376000  0.931000  1.0  -0.0401
  C  C38  1  0.521000  0.413000  0.994000  1.0  0.0656
  C  C39  1  0.594000  0.416000  0.151000  1.0  -0.1386
  C  C40  1  0.361000  0.552000  0.785000  1.0  0.2126
  C  C41  1  0.278000  0.551000  0.648000  1.0  0.0462
  C  C42  1  0.255000  0.517000  0.622000  1.0  0.0034
  C  C43  1  0.244000  0.431000  0.631000  1.0  -0.0828
  C  C44  1  0.200000  0.404000  0.667000  1.0  0.0606
  C  C45  1  0.125000  0.382000  0.568000  1.0  -0.0544
  C  C46  1  0.149000  0.421000  0.377000  1.0  0.121
  C  C47  1  0.224000  0.441000  0.458000  1.0  -0.0412
  C  C48  1  0.637000  0.376000  0.204000  1.0  0.2834
  C  C49  1  0.684000  0.351000  0.169000  1.0  0.1273
  C  C50  1  0.721000  0.316000  0.235000  1.0  -0.0516
  C  C51  1  0.658000  0.331000  0.415000  1.0  -0.011
  C  C52  1  0.631000  0.368000  0.337000  1.0  0.0812
  C  C53  1  0.173000  0.990000  0.771000  1.0  0.0719
  C  C54  1  0.172000  0.953000  0.777000  1.0  0.0473
  C  C55  1  0.105000  0.929000  0.679000  1.0  -0.0108
  C  C56  1  0.096000  0.888000  0.692000  1.0  -0.0401
  C  C57  1  0.020000  0.876000  0.569000  1.0  -0.0431
  C  C58  1  0.979000  0.913000  0.506000  1.0  0.0651
  C  C59  1  0.906000  0.916000  0.349000  1.0  -0.139
  C  C60  1  0.139000  0.052000  0.715000  1.0  0.2124
  C  C61  1  0.222000  0.051000  0.852000  1.0  0.0491
  C  C62  1  0.245000  0.017000  0.878000  1.0  0.0057
  C  C63  1  0.256000  0.931000  0.869000  1.0  -0.0849
  C  C64  1  0.300000  0.904000  0.833000  1.0  0.0628
  C  C65  1  0.375000  0.882000  0.932000  1.0  -0.0514
  C  C66  1  0.351000  0.921000  0.123000  1.0  0.118
  C  C67  1  0.276000  0.941000  0.042000  1.0  -0.0463
  C  C68  1  0.863000  0.876000  0.296000  1.0  0.283
  C  C69  1  0.816000  0.851000  0.331000  1.0  0.1221
  C  C70  1  0.779000  0.816000  0.265000  1.0  -0.0551
  C  C71  1  0.842000  0.831000  0.085000  1.0  -0.0064
  C  C72  1  0.869000  0.868000  0.163000  1.0  0.0841
  C  C73  1  0.673000  0.490000  0.771000  1.0  0.0719
  C  C74  1  0.672000  0.453000  0.777000  1.0  0.0473
  C  C75  1  0.605000  0.429000  0.679000  1.0  -0.0108
  C  C76  1  0.596000  0.388000  0.692000  1.0  -0.0401
  C  C77  1  0.520000  0.376000  0.569000  1.0  -0.0431
  C  C78  1  0.479000  0.413000  0.506000  1.0  0.0651
  C  C79  1  0.406000  0.416000  0.349000  1.0  -0.139
  C  C80  1  0.639000  0.552000  0.715000  1.0  0.2124
  C  C81  1  0.722000  0.551000  0.852000  1.0  0.0491
  C  C82  1  0.745000  0.517000  0.878000  1.0  0.0057
  C  C83  1  0.756000  0.431000  0.869000  1.0  -0.0849
  C  C84  1  0.800000  0.404000  0.833000  1.0  0.0628
  C  C85  1  0.875000  0.382000  0.932000  1.0  -0.0514
  C  C86  1  0.851000  0.421000  0.123000  1.0  0.118
  C  C87  1  0.776000  0.441000  0.042000  1.0  -0.0463
  C  C88  1  0.363000  0.376000  0.296000  1.0  0.283
  C  C89  1  0.316000  0.351000  0.331000  1.0  0.1221
  C  C90  1  0.279000  0.316000  0.265000  1.0  -0.0551
  C  C91  1  0.342000  0.331000  0.085000  1.0  -0.0064
  C  C92  1  0.369000  0.368000  0.163000  1.0  0.0841
  C  C93  1  0.173000  0.010000  0.271000  1.0  0.0724
  C  C94  1  0.172000  0.047000  0.277000  1.0  0.0475
  C  C95  1  0.105000  0.071000  0.179000  1.0  -0.0106
  C  C96  1  0.096000  0.112000  0.192000  1.0  -0.042
  C  C97  1  0.020000  0.124000  0.069000  1.0  -0.043
  C  C98  1  0.979000  0.087000  0.006000  1.0  0.0612
  C  C99  1  0.906000  0.084000  0.849000  1.0  -0.1393
  C  C100  1  0.139000  0.948000  0.215000  1.0  0.213
  C  C101  1  0.222000  0.949000  0.352000  1.0  0.0482
  C  C102  1  0.245000  0.983000  0.378000  1.0  0.0051
  C  C103  1  0.256000  0.069000  0.369000  1.0  -0.085
  C  C104  1  0.300000  0.096000  0.333000  1.0  0.0608
  C  C105  1  0.375000  0.118000  0.432000  1.0  -0.0524
  C  C106  1  0.351000  0.079000  0.623000  1.0  0.1194
  C  C107  1  0.276000  0.059000  0.542000  1.0  -0.0473
  C  C108  1  0.863000  0.124000  0.796000  1.0  0.2838
  C  C109  1  0.816000  0.149000  0.831000  1.0  0.1237
  C  C110  1  0.779000  0.184000  0.765000  1.0  -0.0528
  C  C111  1  0.842000  0.169000  0.585000  1.0  -0.0078
  C  C112  1  0.869000  0.132000  0.663000  1.0  0.0802
  C  C113  1  0.673000  0.510000  0.271000  1.0  0.0724
  C  C114  1  0.672000  0.547000  0.277000  1.0  0.0475
  C  C115  1  0.605000  0.571000  0.179000  1.0  -0.0106
  C  C116  1  0.596000  0.612000  0.192000  1.0  -0.042
  C  C117  1  0.520000  0.624000  0.069000  1.0  -0.043
  C  C118  1  0.479000  0.587000  0.006000  1.0  0.0612
  C  C119  1  0.406000  0.584000  0.849000  1.0  -0.1393
  C  C120  1  0.639000  0.448000  0.215000  1.0  0.213
  C  C121  1  0.722000  0.449000  0.352000  1.0  0.0482
  C  C122  1  0.745000  0.483000  0.378000  1.0  0.0051
  C  C123  1  0.756000  0.569000  0.369000  1.0  -0.085
  C  C124  1  0.800000  0.596000  0.333000  1.0  0.0608
  C  C125  1  0.875000  0.618000  0.432000  1.0  -0.0524
  C  C126  1  0.851000  0.579000  0.623000  1.0  0.1194
  C  C127  1  0.776000  0.559000  0.542000  1.0  -0.0473
  C  C128  1  0.363000  0.624000  0.796000  1.0  0.2838
  C  C129  1  0.316000  0.649000  0.831000  1.0  0.1237
  C  C130  1  0.279000  0.684000  0.765000  1.0  -0.0528
  C  C131  1  0.342000  0.669000  0.585000  1.0  -0.0078
  C  C132  1  0.369000  0.632000  0.663000  1.0  0.0802
  C  C133  1  0.827000  0.010000  0.229000  1.0  0.0724
  C  C134  1  0.828000  0.047000  0.223000  1.0  0.047
  C  C135  1  0.895000  0.071000  0.321000  1.0  -0.0104
  C  C136  1  0.904000  0.112000  0.308000  1.0  -0.0426
  C  C137  1  0.980000  0.124000  0.431000  1.0  -0.0432
  C  C138  1  0.021000  0.087000  0.494000  1.0  0.0622
  C  C139  1  0.094000  0.084000  0.651000  1.0  -0.1387
  C  C140  1  0.861000  0.948000  0.285000  1.0  0.2125
  C  C141  1  0.778000  0.949000  0.148000  1.0  0.047
  C  C142  1  0.755000  0.983000  0.122000  1.0  0.0045
  C  C143  1  0.744000  0.069000  0.131000  1.0  -0.0829
  C  C144  1  0.700000  0.096000  0.167000  1.0  0.0598
  C  C145  1  0.625000  0.118000  0.068000  1.0  -0.0547
  C  C146  1  0.649000  0.079000  0.877000  1.0  0.1213
  C  C147  1  0.724000  0.059000  0.958000  1.0  -0.0418
  C  C148  1  0.137000  0.124000  0.704000  1.0  0.2842
  C  C149  1  0.184000  0.149000  0.669000  1.0  0.1265
  C  C150  1  0.221000  0.184000  0.735000  1.0  -0.0517
  C  C151  1  0.158000  0.169000  0.915000  1.0  -0.0099
  C  C152  1  0.131000  0.132000  0.837000  1.0  0.0796
  C  C153  1  0.327000  0.510000  0.229000  1.0  0.0724
  C  C154  1  0.328000  0.547000  0.223000  1.0  0.047
  C  C155  1  0.395000  0.571000  0.321000  1.0  -0.0104
  C  C156  1  0.404000  0.612000  0.308000  1.0  -0.0426
  C  C157  1  0.480000  0.624000  0.431000  1.0  -0.0432
  C  C158  1  0.521000  0.587000  0.494000  1.0  0.0622
  C  C159  1  0.594000  0.584000  0.651000  1.0  -0.1387
  C  C160  1  0.361000  0.448000  0.285000  1.0  0.2125
  C  C161  1  0.278000  0.449000  0.148000  1.0  0.047
  C  C162  1  0.255000  0.483000  0.122000  1.0  0.0045
  C  C163  1  0.244000  0.569000  0.131000  1.0  -0.0829
  C  C164  1  0.200000  0.596000  0.167000  1.0  0.0598
  C  C165  1  0.125000  0.618000  0.068000  1.0  -0.0547
  C  C166  1  0.149000  0.579000  0.877000  1.0  0.1213
  C  C167  1  0.224000  0.559000  0.958000  1.0  -0.0418
  C  C168  1  0.637000  0.624000  0.704000  1.0  0.2842
  C  C169  1  0.684000  0.649000  0.669000  1.0  0.1265
  C  C170  1  0.721000  0.684000  0.735000  1.0  -0.0517
  C  C171  1  0.658000  0.669000  0.915000  1.0  -0.0099
  C  C172  1  0.631000  0.632000  0.837000  1.0  0.0796
  N  N173  1  0.887000  0.016000  0.830000  1.0  -0.4386
  N  N174  1  0.972000  0.945000  0.945000  1.0  -0.5146
  N  N175  1  0.607000  0.893000  0.408000  1.0  -0.4036
  N  N176  1  0.205000  0.806000  0.370000  1.0  -0.3215
  N  N177  1  0.387000  0.516000  0.830000  1.0  -0.4386
  N  N178  1  0.472000  0.445000  0.945000  1.0  -0.5146
  N  N179  1  0.107000  0.393000  0.408000  1.0  -0.4036
  N  N180  1  0.705000  0.306000  0.370000  1.0  -0.3215
  N  N181  1  0.113000  0.016000  0.670000  1.0  -0.4381
  N  N182  1  0.028000  0.945000  0.555000  1.0  -0.5152
  N  N183  1  0.393000  0.893000  0.092000  1.0  -0.4042
  N  N184  1  0.795000  0.806000  0.130000  1.0  -0.3207
  N  N185  1  0.613000  0.516000  0.670000  1.0  -0.4381
  N  N186  1  0.528000  0.445000  0.555000  1.0  -0.5152
  N  N187  1  0.893000  0.393000  0.092000  1.0  -0.4042
  N  N188  1  0.295000  0.306000  0.130000  1.0  -0.3207
  N  N189  1  0.113000  0.984000  0.170000  1.0  -0.4379
  N  N190  1  0.028000  0.055000  0.055000  1.0  -0.5153
  N  N191  1  0.393000  0.107000  0.592000  1.0  -0.4045
  N  N192  1  0.795000  0.194000  0.630000  1.0  -0.3204
  N  N193  1  0.613000  0.484000  0.170000  1.0  -0.4379
  N  N194  1  0.528000  0.555000  0.055000  1.0  -0.5153
  N  N195  1  0.893000  0.607000  0.592000  1.0  -0.4045
  N  N196  1  0.295000  0.694000  0.630000  1.0  -0.3204
  N  N197  1  0.887000  0.984000  0.330000  1.0  -0.4387
  N  N198  1  0.972000  0.055000  0.445000  1.0  -0.5149
  N  N199  1  0.607000  0.107000  0.908000  1.0  -0.4031
  N  N200  1  0.205000  0.194000  0.870000  1.0  -0.322
  N  N201  1  0.387000  0.484000  0.330000  1.0  -0.4387
  N  N202  1  0.472000  0.555000  0.445000  1.0  -0.5149
  N  N203  1  0.107000  0.607000  0.908000  1.0  -0.4031
  N  N204  1  0.705000  0.694000  0.870000  1.0  -0.322
