# generated using pymatgen
data_CaCdH6(C2O)8
_symmetry_space_group_name_H-M   'P 1'
_cell_length_a   13.91290000
_cell_length_b   14.27670000
_cell_length_c   18.62300000
_cell_angle_alpha   94.19100000
_cell_angle_beta   90.00000000
_cell_angle_gamma   90.00000000
_symmetry_Int_Tables_number   1
_chemical_formula_structural   CaCdH6(C2O)8
_chemical_formula_sum   'Ca4 Cd4 H24 C64 O32'
_cell_volume   3689.20057998
_cell_formula_units_Z   4
loop_
 _symmetry_equiv_pos_site_id
 _symmetry_equiv_pos_as_xyz
  1  'x, y, z'
loop_
 _atom_site_type_symbol
 _atom_site_label
 _atom_site_symmetry_multiplicity
 _atom_site_fract_x
 _atom_site_fract_y
 _atom_site_fract_z
 _atom_site_occupancy
 _atom_site_charge
  Ca  Ca1  1  0.701950  0.584580  0.372050  1.0  1.5694
  Ca  Ca2  1  0.298050  0.415420  0.627950  1.0  1.5641
  Ca  Ca3  1  0.201950  0.915420  0.127950  1.0  1.5702
  Ca  Ca4  1  0.798050  0.084580  0.872050  1.0  1.5607
  Cd  Cd5  1  0.543010  0.502580  0.226420  1.0  1.029
  Cd  Cd6  1  0.956990  0.002580  0.726420  1.0  1.0278
  Cd  Cd7  1  0.456990  0.497420  0.773580  1.0  1.029
  Cd  Cd8  1  0.043010  0.997420  0.273580  1.0  1.0292
  H  H9  1  0.780300  0.236500  0.248800  1.0  0.1095
  H  H10  1  0.820000  0.129000  0.439300  1.0  0.1019
  H  H11  1  0.680000  0.629000  0.939300  1.0  0.1011
  H  H12  1  0.180000  0.871000  0.560700  1.0  0.1023
  H  H13  1  0.918000  0.815100  0.024800  1.0  0.0975
  H  H14  1  0.141500  0.154100  0.075700  1.0  0.0927
  H  H15  1  0.191400  0.851200  0.450900  1.0  0.0985
  H  H16  1  0.849200  0.736200  0.220400  1.0  0.1044
  H  H17  1  0.308600  0.351200  0.950900  1.0  0.0985
  H  H18  1  0.691400  0.648800  0.049100  1.0  0.0987
  H  H19  1  0.280300  0.263500  0.251200  1.0  0.1108
  H  H20  1  0.650800  0.236200  0.720400  1.0  0.1044
  H  H21  1  0.808600  0.148800  0.549100  1.0  0.0976
  H  H22  1  0.082000  0.184900  0.975200  1.0  0.0961
  H  H23  1  0.150800  0.263800  0.779600  1.0  0.1043
  H  H24  1  0.358500  0.654100  0.575700  1.0  0.0938
  H  H25  1  0.349200  0.763800  0.279600  1.0  0.1043
  H  H26  1  0.719700  0.736500  0.748800  1.0  0.1095
  H  H27  1  0.858500  0.845900  0.924300  1.0  0.0936
  H  H28  1  0.418000  0.684900  0.475200  1.0  0.0959
  H  H29  1  0.582000  0.315100  0.524800  1.0  0.097
  H  H30  1  0.641500  0.345900  0.424300  1.0  0.0935
  H  H31  1  0.320000  0.371000  0.060700  1.0  0.1024
  H  H32  1  0.219700  0.763500  0.751200  1.0  0.1107
  C  C33  1  0.316400  0.698600  0.596800  1.0  -0.0426
  C  C34  1  0.877400  0.782800  0.054090  1.0  -0.0584
  C  C35  1  0.799000  0.732900  0.023430  1.0  -0.0395
  C  C36  1  0.524400  0.346300  0.659470  1.0  0.7161
  C  C37  1  0.724800  0.235400  0.445320  1.0  0.0279
  C  C38  1  0.261200  0.817100  0.358480  1.0  -0.1821
  C  C39  1  0.796000  0.801700  0.830470  1.0  -0.1656
  C  C40  1  0.183600  0.198600  0.096800  1.0  -0.0423
  C  C41  1  0.185700  0.824900  0.660000  1.0  -0.1849
  C  C42  1  0.197500  0.872900  0.312590  1.0  0.7121
  C  C43  1  0.238800  0.317100  0.858480  1.0  -0.1819
  C  C44  1  0.697500  0.627100  0.187410  1.0  0.716
  C  C45  1  0.895400  0.784900  0.127350  1.0  -0.1761
  C  C46  1  0.814300  0.175100  0.340000  1.0  -0.1845
  C  C47  1  0.802500  0.127100  0.687410  1.0  0.7118
  C  C48  1  0.209200  0.826800  0.587780  1.0  -0.0388
  C  C49  1  0.656200  0.372800  0.287040  1.0  0.697
  C  C50  1  0.975600  0.846300  0.159470  1.0  0.7174
  C  C51  1  0.768300  0.237600  0.298020  1.0  0.0183
  C  C52  1  0.256900  0.316700  0.931520  1.0  -0.0443
  C  C53  1  0.662700  0.234900  0.671250  1.0  0.0241
  C  C54  1  0.892700  0.111500  0.309190  1.0  0.6678
  C  C55  1  0.775200  0.735400  0.945320  1.0  0.028
  C  C56  1  0.604600  0.284900  0.627350  1.0  -0.1761
  C  C57  1  0.738800  0.182900  0.641520  1.0  -0.1814
  C  C58  1  0.156200  0.127200  0.212960  1.0  0.6958
  C  C59  1  0.731700  0.737600  0.798020  1.0  0.0192
  C  C60  1  0.701000  0.232900  0.523430  1.0  -0.0396
  C  C61  1  0.709200  0.673200  0.912220  1.0  -0.0405
  C  C62  1  0.343800  0.627200  0.712960  1.0  0.6963
  C  C63  1  0.337300  0.765100  0.328750  1.0  0.0221
  C  C64  1  0.761200  0.682900  0.141520  1.0  -0.1817
  C  C65  1  0.837300  0.734900  0.171250  1.0  0.0258
  C  C66  1  0.290800  0.326800  0.087780  1.0  -0.0412
  C  C67  1  0.231700  0.762400  0.701980  1.0  0.0192
  C  C68  1  0.843800  0.872800  0.787040  1.0  0.6965
  C  C69  1  0.224800  0.264600  0.054680  1.0  0.0283
  C  C70  1  0.107300  0.888500  0.690810  1.0  0.6645
  C  C71  1  0.302500  0.372900  0.812590  1.0  0.7125
  C  C72  1  0.296000  0.698300  0.669530  1.0  -0.1655
  C  C73  1  0.268300  0.262400  0.201980  1.0  0.0197
  C  C74  1  0.243100  0.816700  0.431520  1.0  -0.0446
  C  C75  1  0.622600  0.282800  0.554090  1.0  -0.0563
  C  C76  1  0.704000  0.301700  0.330470  1.0  -0.1655
  C  C77  1  0.201000  0.267100  0.976570  1.0  -0.0392
  C  C78  1  0.122600  0.217200  0.945910  1.0  -0.0564
  C  C79  1  0.162700  0.265100  0.828750  1.0  0.0228
  C  C80  1  0.392700  0.388500  0.190810  1.0  0.6672
  C  C81  1  0.204000  0.198300  0.169530  1.0  -0.1655
  C  C82  1  0.299000  0.767100  0.476570  1.0  -0.0392
  C  C83  1  0.756900  0.183300  0.568480  1.0  -0.045
  C  C84  1  0.275200  0.764600  0.554680  1.0  0.0283
  C  C85  1  0.816400  0.801400  0.903200  1.0  -0.044
  C  C86  1  0.685700  0.675100  0.840000  1.0  -0.1849
  C  C87  1  0.314300  0.324900  0.160000  1.0  -0.1852
  C  C88  1  0.790800  0.173200  0.412220  1.0  -0.042
  C  C89  1  0.743100  0.683300  0.068480  1.0  -0.045
  C  C90  1  0.475600  0.653700  0.340530  1.0  0.7173
  C  C91  1  0.024400  0.153700  0.840530  1.0  0.7223
  C  C92  1  0.104600  0.215100  0.872650  1.0  -0.1762
  C  C93  1  0.377400  0.717200  0.445910  1.0  -0.0587
  C  C94  1  0.607300  0.611500  0.809190  1.0  0.6647
  C  C95  1  0.395400  0.715100  0.372650  1.0  -0.1756
  C  C96  1  0.683600  0.301400  0.403200  1.0  -0.0443
  O  O97  1  0.912360  0.110980  0.243620  1.0  -0.5957
  O  O98  1  0.956580  0.134080  0.879890  1.0  -0.7091
  O  O99  1  0.646690  0.358360  0.220840  1.0  -0.603
  O  O100  1  0.789340  0.130090  0.753800  1.0  -0.7984
  O  O101  1  0.034660  0.126090  0.775650  1.0  -0.5893
  O  O102  1  0.936070  0.062420  0.351900  1.0  -0.5751
  O  O103  1  0.853310  0.858360  0.720840  1.0  -0.6032
  O  O104  1  0.043420  0.865920  0.120110  1.0  -0.7098
  O  O105  1  0.875260  0.947850  0.821180  1.0  -0.6407
  O  O106  1  0.210660  0.869910  0.246200  1.0  -0.7993
  O  O107  1  0.456580  0.365920  0.620110  1.0  -0.7115
  O  O108  1  0.146690  0.141640  0.279160  1.0  -0.6056
  O  O109  1  0.353310  0.641640  0.779160  1.0  -0.6057
  O  O110  1  0.412360  0.389020  0.256380  1.0  -0.5991
  O  O111  1  0.375260  0.552150  0.678820  1.0  -0.6426
  O  O112  1  0.633110  0.579360  0.154690  1.0  -0.6164
  O  O113  1  0.124740  0.052150  0.178820  1.0  -0.6402
  O  O114  1  0.366890  0.420640  0.845310  1.0  -0.6161
  O  O115  1  0.087640  0.889020  0.756380  1.0  -0.5968
  O  O116  1  0.289340  0.369910  0.746200  1.0  -0.7987
  O  O117  1  0.587640  0.610980  0.743620  1.0  -0.5964
  O  O118  1  0.866890  0.079360  0.654690  1.0  -0.6154
  O  O119  1  0.436070  0.437580  0.148100  1.0  -0.5771
  O  O120  1  0.965340  0.873910  0.224350  1.0  -0.5883
  O  O121  1  0.543420  0.634080  0.379890  1.0  -0.7075
  O  O122  1  0.063930  0.937580  0.648100  1.0  -0.577
  O  O123  1  0.563930  0.562420  0.851900  1.0  -0.5751
  O  O124  1  0.534660  0.373910  0.724350  1.0  -0.5875
  O  O125  1  0.133110  0.920640  0.345310  1.0  -0.6151
  O  O126  1  0.710660  0.630090  0.253800  1.0  -0.7983
  O  O127  1  0.465340  0.626090  0.275650  1.0  -0.5893
  O  O128  1  0.624740  0.447850  0.321180  1.0  -0.6397
