# generated using pymatgen
data_CdH11C18(NO2)2
_symmetry_space_group_name_H-M   'P 1'
_cell_length_a   10.18840000
_cell_length_b   10.18840000
_cell_length_c   11.73320000
_cell_angle_alpha   85.06200000
_cell_angle_beta   85.06200000
_cell_angle_gamma   70.54140000
_symmetry_Int_Tables_number   1
_chemical_formula_structural   CdH11C18(NO2)2
_chemical_formula_sum   'Cd2 H22 C36 N4 O8'
_cell_volume   1141.98057914
_cell_formula_units_Z   2
loop_
 _symmetry_equiv_pos_site_id
 _symmetry_equiv_pos_as_xyz
  1  'x, y, z'
loop_
 _atom_site_type_symbol
 _atom_site_label
 _atom_site_symmetry_multiplicity
 _atom_site_fract_x
 _atom_site_fract_y
 _atom_site_fract_z
 _atom_site_occupancy
 _atom_site_charge
  Cd  Cd1  1  0.978250  0.021750  0.000000  1.0  0.8504
  Cd  Cd2  1  0.786080  0.213920  0.500000  1.0  0.8782
  H  H3  1  0.360700  0.610100  0.669900  1.0  0.1171
  H  H4  1  0.136800  0.165400  0.350500  1.0  0.0966
  H  H5  1  0.383200  0.077800  0.721700  1.0  0.1148
  H  H6  1  0.683500  0.056700  0.141700  1.0  0.0718
  H  H7  1  0.939600  0.936000  0.372200  1.0  0.0566
  H  H8  1  0.303800  0.160400  0.474500  1.0  0.0921
  H  H9  1  0.064000  0.060400  0.627800  1.0  0.0553
  H  H10  1  0.922200  0.616800  0.278300  1.0  0.1155
  H  H11  1  0.018500  0.732500  0.139100  1.0  0.0778
  H  H12  1  0.264100  0.869900  0.635300  1.0  0.1219
  H  H13  1  0.943300  0.316500  0.858300  1.0  0.0711
  H  H14  1  0.541700  0.410700  0.663500  1.0  0.0613
  H  H15  1  0.689600  0.719000  0.340500  1.0  0.096
  H  H16  1  0.834600  0.863200  0.649500  1.0  0.0978
  H  H17  1  0.589300  0.458300  0.336500  1.0  0.0605
  H  H18  1  0.281000  0.310400  0.659500  1.0  0.0963
  H  H19  1  0.267500  0.981500  0.860900  1.0  0.0787
  H  H20  1  0.389900  0.639300  0.330100  1.0  0.1168
  H  H21  1  0.839600  0.696200  0.525500  1.0  0.0932
  H  H22  1  0.432400  0.913400  0.149100  1.0  0.1054
  H  H23  1  0.130100  0.735900  0.364700  1.0  0.1228
  H  H24  1  0.086600  0.567600  0.850900  1.0  0.1057
  C  C25  1  0.422000  0.597600  0.400600  1.0  -0.245
  C  C26  1  0.574900  0.062500  0.456500  1.0  0.7455
  C  C27  1  0.028200  0.489400  0.717500  1.0  -0.0144
  C  C28  1  0.968100  0.841700  0.839600  1.0  0.6903
  C  C29  1  0.034500  0.593300  0.786500  1.0  -0.0505
  C  C30  1  0.294900  0.129500  0.750800  1.0  -0.1605
  C  C31  1  0.158300  0.031900  0.160400  1.0  0.6876
  C  C32  1  0.928000  0.776400  0.168500  1.0  0.1682
  C  C33  1  0.513900  0.461300  0.594800  1.0  0.1674
  C  C34  1  0.964200  0.733000  0.760000  1.0  -0.142
  C  C35  1  0.406700  0.965500  0.213500  1.0  -0.05
  C  C36  1  0.885900  0.669300  0.593000  1.0  -0.0464
  C  C37  1  0.729900  0.965700  0.168400  1.0  0.1793
  C  C38  1  0.200400  0.879000  0.580500  1.0  -0.2009
  C  C39  1  0.953300  0.528500  0.620300  1.0  -0.0941
  C  C40  1  0.222900  0.777100  0.500000  1.0  0.042
  C  C41  1  0.402400  0.578000  0.599400  1.0  -0.2433
  C  C42  1  0.350400  0.649600  0.500000  1.0  0.1133
  C  C43  1  0.267000  0.035800  0.240000  1.0  -0.1374
  C  C44  1  0.229700  0.113300  0.334600  1.0  -0.0405
  C  C45  1  0.471500  0.046700  0.379700  1.0  -0.0939
  C  C46  1  0.732600  0.767000  0.287300  1.0  -0.0635
  C  C47  1  0.330700  0.114100  0.407000  1.0  -0.0477
  C  C48  1  0.121000  0.799600  0.419500  1.0  -0.2
  C  C49  1  0.006200  0.921000  0.425600  1.0  0.1783
  C  C50  1  0.659100  0.900300  0.246200  1.0  0.0512
  C  C51  1  0.870500  0.705100  0.249200  1.0  -0.1605
  C  C52  1  0.079000  0.993800  0.574400  1.0  0.1769
  C  C53  1  0.886700  0.770300  0.665400  1.0  -0.0408
  C  C54  1  0.937500  0.425100  0.543500  1.0  0.7459
  C  C55  1  0.223600  0.072000  0.831500  1.0  0.168
  C  C56  1  0.099700  0.340900  0.753800  1.0  0.051
  C  C57  1  0.538700  0.486100  0.405200  1.0  0.1652
  C  C58  1  0.510600  0.971800  0.282500  1.0  -0.012
  C  C59  1  0.233000  0.267400  0.712700  1.0  -0.0597
  C  C60  1  0.034300  0.270100  0.831600  1.0  0.1781
  N  N61  1  0.094900  0.137900  0.870600  1.0  -0.3444
  N  N62  1  0.862100  0.905100  0.129400  1.0  -0.3468
  N  N63  1  0.586400  0.413600  0.500000  1.0  -0.3546
  N  N64  1  0.984200  0.015800  0.500000  1.0  -0.3276
  O  O65  1  0.960200  0.445000  0.438800  1.0  -0.5851
  O  O66  1  0.190150  0.937550  0.093200  1.0  -0.6036
  O  O67  1  0.671640  0.101840  0.410200  1.0  -0.5846
  O  O68  1  0.555000  0.039800  0.561200  1.0  -0.5892
  O  O69  1  0.040100  0.123100  0.165700  1.0  -0.6137
  O  O70  1  0.876900  0.959900  0.834300  1.0  -0.619
  O  O71  1  0.062450  0.809850  0.906800  1.0  -0.6034
  O  O72  1  0.898160  0.328360  0.589800  1.0  -0.5868
