# generated using pymatgen
data_CdH13C19(NO2)2
_symmetry_space_group_name_H-M   'P 1'
_cell_length_a   7.28000000
_cell_length_b   16.26730000
_cell_length_c   16.28730000
_cell_angle_alpha   106.00100000
_cell_angle_beta   90.00000000
_cell_angle_gamma   90.00000000
_symmetry_Int_Tables_number   1
_chemical_formula_structural   CdH13C19(NO2)2
_chemical_formula_sum   'Cd4 H52 C76 N8 O16'
_cell_volume   1854.10965128
_cell_formula_units_Z   4
loop_
 _symmetry_equiv_pos_site_id
 _symmetry_equiv_pos_as_xyz
  1  'x, y, z'
loop_
 _atom_site_type_symbol
 _atom_site_label
 _atom_site_symmetry_multiplicity
 _atom_site_fract_x
 _atom_site_fract_y
 _atom_site_fract_z
 _atom_site_occupancy
 _atom_site_charge
  Cd  Cd1  1  0.274100  0.781230  0.577060  1.0  0.9639
  Cd  Cd2  1  0.725900  0.218770  0.422940  1.0  0.9638
  Cd  Cd3  1  0.774100  0.218770  0.922940  1.0  0.9639
  Cd  Cd4  1  0.225900  0.781230  0.077060  1.0  0.964
  H  H5  1  0.074200  0.326800  0.683100  1.0  0.0975
  H  H6  1  0.424800  0.304000  0.557000  1.0  0.0689
  H  H7  1  0.252400  0.972800  0.133100  1.0  0.0642
  H  H8  1  0.895900  0.447600  0.432000  1.0  0.0946
  H  H9  1  0.173600  0.080900  0.565900  1.0  0.0937
  H  H10  1  0.558300  0.369100  0.352800  1.0  0.0731
  H  H11  1  0.925800  0.673200  0.316900  1.0  0.0979
  H  H12  1  0.887500  0.440900  0.526300  1.0  0.0929
  H  H13  1  0.779700  0.099500  0.152800  1.0  0.1105
  H  H14  1  0.673600  0.919100  0.934100  1.0  0.0928
  H  H15  1  0.441700  0.630900  0.647200  1.0  0.0728
  H  H16  1  0.127400  0.029700  0.369100  1.0  0.106
  H  H17  1  0.604100  0.447600  0.932000  1.0  0.0945
  H  H18  1  0.075200  0.304000  0.057000  1.0  0.069
  H  H19  1  0.872600  0.970300  0.630900  1.0  0.1061
  H  H20  1  0.395900  0.552400  0.068000  1.0  0.0932
  H  H21  1  0.202800  0.406000  0.589400  1.0  0.109
  H  H22  1  0.575200  0.696000  0.443000  1.0  0.0695
  H  H23  1  0.338100  0.473000  0.380000  1.0  0.1179
  H  H24  1  0.292300  0.154000  0.394200  1.0  0.0725
  H  H25  1  0.387500  0.559100  0.973700  1.0  0.0936
  H  H26  1  0.279700  0.900500  0.347200  1.0  0.1106
  H  H27  1  0.924800  0.696000  0.943000  1.0  0.0692
  H  H28  1  0.207700  0.154000  0.894200  1.0  0.0722
  H  H29  1  0.720300  0.099500  0.652800  1.0  0.1105
  H  H30  1  0.326400  0.080900  0.065900  1.0  0.0938
  H  H31  1  0.058300  0.630900  0.147200  1.0  0.0728
  H  H32  1  0.104100  0.552400  0.568000  1.0  0.0935
  H  H33  1  0.372600  0.029700  0.869100  1.0  0.1059
  H  H34  1  0.574200  0.673200  0.816900  1.0  0.0973
  H  H35  1  0.747600  0.027200  0.866900  1.0  0.0644
  H  H36  1  0.175800  0.329400  0.270800  1.0  0.0981
  H  H37  1  0.838100  0.527000  0.120000  1.0  0.1172
  H  H38  1  0.661900  0.527000  0.620000  1.0  0.1171
  H  H39  1  0.161900  0.473000  0.880000  1.0  0.1177
  H  H40  1  0.941700  0.369100  0.852800  1.0  0.073
  H  H41  1  0.675800  0.670600  0.229200  1.0  0.0985
  H  H42  1  0.112500  0.559100  0.473700  1.0  0.0939
  H  H43  1  0.324200  0.329400  0.770800  1.0  0.098
  H  H44  1  0.752400  0.027200  0.366900  1.0  0.0637
  H  H45  1  0.826400  0.919100  0.434100  1.0  0.093
  H  H46  1  0.425800  0.326800  0.183100  1.0  0.0976
  H  H47  1  0.247600  0.972800  0.633100  1.0  0.0644
  H  H48  1  0.702800  0.594000  0.910600  1.0  0.1094
  H  H49  1  0.612500  0.440900  0.026300  1.0  0.0931
  H  H50  1  0.792300  0.846000  0.105800  1.0  0.0722
  H  H51  1  0.627400  0.970300  0.130900  1.0  0.1061
  H  H52  1  0.824200  0.670600  0.729200  1.0  0.0981
  H  H53  1  0.297200  0.406000  0.089400  1.0  0.1085
  H  H54  1  0.797200  0.594000  0.410600  1.0  0.1098
  H  H55  1  0.707700  0.846000  0.605800  1.0  0.0721
  H  H56  1  0.220300  0.900500  0.847200  1.0  0.1106
  C  C57  1  0.854900  0.870000  0.839200  1.0  0.0173
  C  C58  1  0.147300  0.439300  0.917200  1.0  -0.2224
  C  C59  1  0.354400  0.102200  0.383800  1.0  0.1773
  C  C60  1  0.955400  0.211200  0.290000  1.0  0.6741
  C  C61  1  0.145100  0.130000  0.160800  1.0  0.0176
  C  C62  1  0.226700  0.399700  0.040400  1.0  -0.2185
  C  C63  1  0.405200  0.520000  0.008400  1.0  -0.2025
  C  C64  1  0.644300  0.722400  0.822900  1.0  -0.0912
  C  C65  1  0.354900  0.130000  0.660800  1.0  0.0172
  C  C66  1  0.900800  0.797000  0.385200  1.0  -0.183
  C  C67  1  0.273300  0.399700  0.540400  1.0  -0.219
  C  C68  1  0.793300  0.721100  0.770000  1.0  -0.0399
  C  C69  1  0.397100  0.206000  0.723300  1.0  -0.1017
  C  C70  1  0.463500  0.050800  0.647100  1.0  0.0359
  C  C71  1  0.906800  0.661800  0.979600  1.0  0.17
  C  C72  1  0.645600  0.897800  0.616200  1.0  0.1782
  C  C73  1  0.773300  0.600300  0.959600  1.0  -0.219
  C  C74  1  0.094800  0.520000  0.508400  1.0  -0.202
  C  C75  1  0.355700  0.277600  0.177100  1.0  -0.0929
  C  C76  1  0.036500  0.050800  0.147100  1.0  0.0357
  C  C77  1  0.645100  0.870000  0.339200  1.0  0.0178
  C  C78  1  0.400800  0.203000  0.114800  1.0  -0.1846
  C  C79  1  0.744900  0.972000  0.630600  1.0  -0.1117
  C  C80  1  0.593200  0.661800  0.479600  1.0  0.1699
  C  C81  1  0.099200  0.203000  0.614800  1.0  -0.1844
  C  C82  1  0.647300  0.560700  0.582800  1.0  -0.2125
  C  C83  1  0.255100  0.028000  0.369400  1.0  -0.1073
  C  C84  1  0.515200  0.623800  0.599100  1.0  0.1763
  C  C85  1  0.455400  0.788800  0.210000  1.0  0.6743
  C  C86  1  0.293300  0.278900  0.730000  1.0  -0.0401
  C  C87  1  0.536500  0.949200  0.352900  1.0  0.0357
  C  C88  1  0.015200  0.376200  0.900900  1.0  0.1759
  C  C89  1  0.352700  0.439300  0.417200  1.0  -0.2222
  C  C90  1  0.897100  0.794000  0.776700  1.0  -0.1015
  C  C91  1  0.145600  0.102200  0.883800  1.0  0.1772
  C  C92  1  0.093200  0.338200  0.020400  1.0  0.1711
  C  C93  1  0.905200  0.480000  0.491600  1.0  -0.2031
  C  C94  1  0.852700  0.560700  0.082800  1.0  -0.2222
  C  C95  1  0.244900  0.028000  0.869400  1.0  -0.1051
  C  C96  1  0.406800  0.338200  0.520400  1.0  0.1712
  C  C97  1  0.599200  0.797000  0.885200  1.0  -0.184
  C  C98  1  0.854400  0.897800  0.116200  1.0  0.1783
  C  C99  1  0.855700  0.722400  0.322900  1.0  -0.0921
  C  C100  1  0.602900  0.794000  0.276700  1.0  -0.1025
  C  C101  1  0.446400  0.797900  0.948000  1.0  0.6519
  C  C102  1  0.963500  0.949200  0.852900  1.0  0.0359
  C  C103  1  0.757600  0.547300  0.511900  1.0  0.1622
  C  C104  1  0.946400  0.202100  0.552000  1.0  0.6516
  C  C105  1  0.296000  0.130900  0.107600  1.0  -0.0633
  C  C106  1  0.755100  0.972000  0.130600  1.0  -0.1085
  C  C107  1  0.594800  0.480000  0.991600  1.0  -0.2025
  C  C108  1  0.544600  0.211200  0.790000  1.0  0.6751
  C  C109  1  0.124700  0.973000  0.132200  1.0  0.1813
  C  C110  1  0.726700  0.600300  0.459600  1.0  -0.2187
  C  C111  1  0.053600  0.797900  0.448000  1.0  0.6522
  C  C112  1  0.845800  0.049000  0.144800  1.0  -0.032
  C  C113  1  0.375300  0.973000  0.632200  1.0  0.1853
  C  C114  1  0.875300  0.027000  0.867800  1.0  0.1834
  C  C115  1  0.257600  0.452700  0.988100  1.0  0.1621
  C  C116  1  0.345800  0.951000  0.355200  1.0  -0.0324
  C  C117  1  0.144300  0.277600  0.677100  1.0  -0.0913
  C  C118  1  0.204000  0.130900  0.607600  1.0  -0.0639
  C  C119  1  0.984800  0.623800  0.099100  1.0  0.1763
  C  C120  1  0.654200  0.049000  0.644800  1.0  -0.0319
  C  C121  1  0.624700  0.027000  0.367800  1.0  0.1812
  C  C122  1  0.706700  0.721100  0.270000  1.0  -0.0446
  C  C123  1  0.796000  0.869100  0.392400  1.0  -0.0626
  C  C124  1  0.154200  0.951000  0.855200  1.0  -0.0329
  C  C125  1  0.044600  0.788800  0.710000  1.0  0.6749
  C  C126  1  0.553600  0.202100  0.052000  1.0  0.6524
  C  C127  1  0.242400  0.452700  0.488100  1.0  0.1616
  C  C128  1  0.484800  0.376200  0.400900  1.0  0.1756
  C  C129  1  0.102900  0.206000  0.223300  1.0  -0.1027
  C  C130  1  0.704000  0.869100  0.892400  1.0  -0.0631
  C  C131  1  0.206700  0.278900  0.230000  1.0  -0.039
  C  C132  1  0.742400  0.547300  0.011900  1.0  0.1616
  N  N133  1  0.012300  0.675200  0.049100  1.0  -0.3539
  N  N134  1  0.512300  0.324800  0.450900  1.0  -0.3551
  N  N135  1  0.487700  0.675200  0.549100  1.0  -0.3541
  N  N136  1  0.038000  0.897700  0.116500  1.0  -0.3568
  N  N137  1  0.987700  0.324800  0.950900  1.0  -0.3577
  N  N138  1  0.962000  0.102300  0.883500  1.0  -0.3587
  N  N139  1  0.462000  0.897700  0.616500  1.0  -0.3579
  N  N140  1  0.538000  0.102300  0.383500  1.0  -0.3593
  O  O141  1  0.625700  0.272080  0.050570  1.0  -0.595
  O  O142  1  0.055100  0.846400  0.674430  1.0  -0.5894
  O  O143  1  0.444900  0.846400  0.174430  1.0  -0.5901
  O  O144  1  0.353700  0.724910  0.189500  1.0  -0.6373
  O  O145  1  0.600700  0.133500  0.002800  1.0  -0.6109
  O  O146  1  0.874300  0.272080  0.550570  1.0  -0.5951
  O  O147  1  0.853700  0.275090  0.310500  1.0  -0.6381
  O  O148  1  0.146300  0.724910  0.689500  1.0  -0.6374
  O  O149  1  0.399300  0.866500  0.997200  1.0  -0.612
  O  O150  1  0.100700  0.866500  0.497200  1.0  -0.6119
  O  O151  1  0.555100  0.153600  0.825570  1.0  -0.5897
  O  O152  1  0.944900  0.153600  0.325570  1.0  -0.5904
  O  O153  1  0.899300  0.133500  0.502800  1.0  -0.6117
  O  O154  1  0.125700  0.727920  0.449430  1.0  -0.5941
  O  O155  1  0.646300  0.275090  0.810500  1.0  -0.6379
  O  O156  1  0.374300  0.727920  0.949430  1.0  -0.5944
