# generated using pymatgen
data_ZnH22C17(N3O)2
_symmetry_space_group_name_H-M   'P 1'
_cell_length_a   8.30100000
_cell_length_b   11.14600000
_cell_length_c   13.36300000
_cell_angle_alpha   86.42700000
_cell_angle_beta   84.12200000
_cell_angle_gamma   83.57300000
_symmetry_Int_Tables_number   1
_chemical_formula_structural   ZnH22C17(N3O)2
_chemical_formula_sum   'Zn2 H44 C34 N12 O4'
_cell_volume   1220.53543097
_cell_formula_units_Z   2
loop_
 _symmetry_equiv_pos_site_id
 _symmetry_equiv_pos_as_xyz
  1  'x, y, z'
loop_
 _atom_site_type_symbol
 _atom_site_label
 _atom_site_symmetry_multiplicity
 _atom_site_fract_x
 _atom_site_fract_y
 _atom_site_fract_z
 _atom_site_occupancy
 _atom_site_charge
  Zn  Zn1  1  0.943820  0.311970  0.795170  1.0  0.7637
  Zn  Zn2  1  0.056180  0.688030  0.204830  1.0  0.7625
  H  H3  1  0.594600  0.591600  0.971100  1.0  0.0637
  H  H4  1  0.557300  0.369500  0.785800  1.0  0.0887
  H  H5  1  0.384100  0.236700  0.720600  1.0  0.1129
  H  H6  1  0.840700  0.093300  0.677700  1.0  0.092
  H  H7  1  0.443800  0.003400  0.667700  1.0  0.0742
  H  H8  1  0.627300  0.955200  0.641900  1.0  0.0726
  H  H9  1  0.634200  0.070300  0.490100  1.0  0.0546
  H  H10  1  0.453000  0.124500  0.516400  1.0  0.0613
  H  H11  1  0.069000  0.369100  0.002400  1.0  0.075
  H  H12  1  0.207000  0.221700  0.115800  1.0  0.1284
  H  H13  1  0.128100  0.059600  0.874300  1.0  0.0929
  H  H14  1  0.255300  0.920000  0.004100  1.0  0.0782
  H  H15  1  0.224100  0.964900  0.114000  1.0  0.0771
  H  H16  1  0.472000  0.046200  0.096100  1.0  0.0658
  H  H17  1  0.500600  0.908100  0.076500  1.0  0.0544
  H  H18  1  0.106700  0.551900  0.820200  1.0  0.0893
  H  H19  1  0.256200  0.663500  0.686600  1.0  0.1218
  H  H20  1  0.099200  0.388700  0.571300  1.0  0.0864
  H  H21  1  0.240100  0.655800  0.474500  1.0  0.084
  H  H22  1  0.249000  0.521400  0.443600  1.0  0.0713
  H  H23  1  0.512100  0.594300  0.429400  1.0  0.054
  H  H24  1  0.493400  0.607300  0.546200  1.0  0.0628
  H  H25  1  0.405400  0.408400  0.028900  1.0  0.0653
  H  H26  1  0.442700  0.630500  0.214200  1.0  0.088
  H  H27  1  0.615900  0.763300  0.279400  1.0  0.1131
  H  H28  1  0.159300  0.906700  0.322300  1.0  0.0951
  H  H29  1  0.556200  0.996600  0.332300  1.0  0.0745
  H  H30  1  0.372700  0.044800  0.358100  1.0  0.0711
  H  H31  1  0.365800  0.929700  0.509900  1.0  0.0542
  H  H32  1  0.547000  0.875500  0.483600  1.0  0.0628
  H  H33  1  0.931000  0.630900  0.997600  1.0  0.0734
  H  H34  1  0.793000  0.778300  0.884200  1.0  0.1282
  H  H35  1  0.871900  0.940400  0.125700  1.0  0.0926
  H  H36  1  0.744700  0.080000  0.995900  1.0  0.0748
  H  H37  1  0.775900  0.035100  0.886000  1.0  0.0772
  H  H38  1  0.528000  0.953800  0.903900  1.0  0.0652
  H  H39  1  0.499400  0.091900  0.923500  1.0  0.0573
  H  H40  1  0.893300  0.448100  0.179800  1.0  0.089
  H  H41  1  0.743800  0.336500  0.313400  1.0  0.1219
  H  H42  1  0.900800  0.611300  0.428700  1.0  0.086
  H  H43  1  0.759900  0.344200  0.525500  1.0  0.0819
  H  H44  1  0.751000  0.478600  0.556400  1.0  0.0716
  H  H45  1  0.487900  0.405700  0.570600  1.0  0.0542
  H  H46  1  0.506600  0.392700  0.453800  1.0  0.0637
  C  C47  1  0.572300  0.511500  0.979800  1.0  -0.2073
  C  C48  1  0.592900  0.296700  0.756100  1.0  0.0251
  C  C49  1  0.496700  0.224000  0.720400  1.0  -0.1493
  C  C50  1  0.749200  0.145600  0.697300  1.0  0.1242
  C  C51  1  0.547000  0.024600  0.634500  1.0  -0.0192
  C  C52  1  0.529800  0.053100  0.524200  1.0  -0.1395
  C  C53  1  0.098400  0.287900  0.990500  1.0  0.0134
  C  C54  1  0.174300  0.207100  0.053600  1.0  -0.1852
  C  C55  1  0.130200  0.118900  0.920000  1.0  0.1284
  C  C56  1  0.273400  0.983600  0.046700  1.0  -0.0395
  C  C57  1  0.454900  0.986100  0.049900  1.0  -0.1788
  C  C58  1  0.123800  0.532400  0.753000  1.0  -0.018
  C  C59  1  0.205800  0.594500  0.679500  1.0  -0.1776
  C  C60  1  0.119100  0.443300  0.617300  1.0  0.1285
  C  C61  1  0.278900  0.572900  0.493100  1.0  -0.0673
  C  C62  1  0.465200  0.560500  0.493000  1.0  -0.1566
  C  C63  1  0.702900  0.414900  0.947100  1.0  0.6465
  C  C64  1  0.427700  0.488500  0.020200  1.0  -0.208
  C  C65  1  0.407100  0.703300  0.243900  1.0  0.0246
  C  C66  1  0.503300  0.776000  0.279600  1.0  -0.1515
  C  C67  1  0.250800  0.854400  0.302700  1.0  0.1229
  C  C68  1  0.453000  0.975400  0.365500  1.0  -0.0203
  C  C69  1  0.470200  0.946900  0.475800  1.0  -0.1297
  C  C70  1  0.901600  0.712100  0.009500  1.0  0.0141
  C  C71  1  0.825700  0.792900  0.946400  1.0  -0.1833
  C  C72  1  0.869800  0.881100  0.080000  1.0  0.1289
  C  C73  1  0.726600  0.016400  0.953300  1.0  -0.0394
  C  C74  1  0.545100  0.013900  0.950100  1.0  -0.1725
  C  C75  1  0.876200  0.467600  0.247000  1.0  -0.0182
  C  C76  1  0.794200  0.405500  0.320500  1.0  -0.1769
  C  C77  1  0.880900  0.556700  0.382700  1.0  0.1288
  C  C78  1  0.721100  0.427100  0.506900  1.0  -0.0667
  C  C79  1  0.534800  0.439500  0.507000  1.0  -0.1564
  C  C80  1  0.297100  0.585100  0.052900  1.0  0.6465
  N  N81  1  0.753700  0.247000  0.742060  1.0  -0.3981
  N  N82  1  0.596900  0.127200  0.683630  1.0  0.0448
  N  N83  1  0.070600  0.232500  0.905740  1.0  -0.4112
  N  N84  1  0.193900  0.099200  0.008020  1.0  0.0362
  N  N85  1  0.069300  0.435700  0.713820  1.0  -0.3914
  N  N86  1  0.201500  0.538600  0.593400  1.0  0.0317
  N  N87  1  0.246300  0.753000  0.257940  1.0  -0.4011
  N  N88  1  0.403100  0.872800  0.316370  1.0  0.044
  N  N89  1  0.929400  0.767500  0.094260  1.0  -0.41
  N  N90  1  0.806100  0.900800  0.991980  1.0  0.0375
  N  N91  1  0.930700  0.564300  0.286180  1.0  -0.3918
  N  N92  1  0.798500  0.461400  0.406600  1.0  0.0325
  O  O93  1  0.806800  0.447200  0.875620  1.0  -0.6002
  O  O94  1  0.703000  0.311500  0.985390  1.0  -0.5707
  O  O95  1  0.193200  0.552800  0.124380  1.0  -0.6004
  O  O96  1  0.297000  0.688500  0.014610  1.0  -0.5717
