# generated using pymatgen
data_CdH36C48N12(ClO6)3
_symmetry_space_group_name_H-M   'P 1'
_cell_length_a   21.44570000
_cell_length_b   21.44570000
_cell_length_c   21.44570000
_cell_angle_alpha   109.47100000
_cell_angle_beta   109.47100000
_cell_angle_gamma   109.47100000
_symmetry_Int_Tables_number   1
_chemical_formula_structural   CdH36C48N12(ClO6)3
_chemical_formula_sum   'Cd4 H144 C192 N48 Cl12 O72'
_cell_volume   7592.80656925
_cell_formula_units_Z   4
loop_
 _symmetry_equiv_pos_site_id
 _symmetry_equiv_pos_as_xyz
  1  'x, y, z'
loop_
 _atom_site_type_symbol
 _atom_site_label
 _atom_site_symmetry_multiplicity
 _atom_site_fract_x
 _atom_site_fract_y
 _atom_site_fract_z
 _atom_site_occupancy
 _atom_site_charge
  Cd  Cd1  1  0.500000  0.500000  0.000000  1.0  0.7206
  Cd  Cd2  1  0.000000  0.500000  0.500000  1.0  0.7206
  Cd  Cd3  1  0.500000  0.000000  0.500000  1.0  0.7206
  Cd  Cd4  1  0.000000  0.000000  0.000000  1.0  0.7206
  H  H5  1  0.861200  0.540800  0.154400  1.0  0.2722
  H  H6  1  0.580100  0.421200  0.087700  1.0  0.1057
  H  H7  1  0.689000  0.417000  0.137200  1.0  0.149
  H  H8  1  0.792900  0.589600  0.102900  1.0  0.1462
  H  H9  1  0.679400  0.589200  0.054200  1.0  0.0991
  H  H10  1  0.972500  0.599700  0.266400  1.0  0.135
  H  H11  1  0.886400  0.706800  0.345600  1.0  0.2748
  H  H12  1  0.833500  0.492400  0.412300  1.0  0.1051
  H  H13  1  0.779800  0.551800  0.362800  1.0  0.145
  H  H14  1  0.986700  0.690000  0.397100  1.0  0.1455
  H  H15  1  0.035000  0.625200  0.445800  1.0  0.1005
  H  H16  1  0.833300  0.706100  0.233600  1.0  0.1344
  H  H17  1  0.613600  0.959200  0.820400  1.0  0.2697
  H  H18  1  0.666500  0.078800  0.658900  1.0  0.1049
  H  H19  1  0.720200  0.083000  0.772000  1.0  0.1484
  H  H20  1  0.513300  0.910400  0.703300  1.0  0.1467
  H  H21  1  0.465000  0.910800  0.590200  1.0  0.1006
  H  H22  1  0.666667  0.900300  0.872800  1.0  0.1345
  H  H23  1  0.638800  0.793200  0.679600  1.0  0.2752
  H  H24  1  0.919900  0.007600  0.841100  1.0  0.1079
  H  H25  1  0.811000  0.948200  0.728000  1.0  0.1479
  H  H26  1  0.707100  0.810000  0.796700  1.0  0.1464
  H  H27  1  0.820600  0.874800  0.909800  1.0  0.1025
  H  H28  1  0.527500  0.793900  0.627200  1.0  0.136
  H  H29  1  0.320400  0.613600  0.459200  1.0  0.2684
  H  H30  1  0.158900  0.666500  0.578800  1.0  0.1059
  H  H31  1  0.272000  0.720200  0.583000  1.0  0.1488
  H  H32  1  0.203300  0.513300  0.410400  1.0  0.1453
  H  H33  1  0.090200  0.465000  0.410800  1.0  0.0996
  H  H34  1  0.372800  0.666667  0.400300  1.0  0.134
  H  H35  1  0.179600  0.638800  0.293200  1.0  0.2766
  H  H36  1  0.341100  0.919900  0.507600  1.0  0.1055
  H  H37  1  0.228000  0.811000  0.448200  1.0  0.1466
  H  H38  1  0.296700  0.707100  0.310000  1.0  0.1454
  H  H39  1  0.409800  0.820600  0.374800  1.0  0.0986
  H  H40  1  0.127200  0.527500  0.293900  1.0  0.1349
  H  H41  1  0.654400  0.861200  0.040800  1.0  0.2705
  H  H42  1  0.587700  0.580100  0.921200  1.0  0.1075
  H  H43  1  0.637200  0.689000  0.917000  1.0  0.1484
  H  H44  1  0.602900  0.792900  0.089600  1.0  0.145
  H  H45  1  0.554200  0.679400  0.089200  1.0  0.1021
  H  H46  1  0.766400  0.972500  0.099700  1.0  0.136
  H  H47  1  0.845600  0.886400  0.206800  1.0  0.2746
  H  H48  1  0.912300  0.833500  0.992400  1.0  0.1062
  H  H49  1  0.862800  0.779800  0.051800  1.0  0.1471
  H  H50  1  0.897100  0.986700  0.190000  1.0  0.1464
  H  H51  1  0.945800  0.035000  0.125200  1.0  0.1004
  H  H52  1  0.733600  0.833300  0.206100  1.0  0.1334
  H  H53  1  0.706800  0.845600  0.386400  1.0  0.2754
  H  H54  1  0.492400  0.912300  0.333500  1.0  0.1069
  H  H55  1  0.551800  0.862800  0.279800  1.0  0.1483
  H  H56  1  0.690000  0.897100  0.486700  1.0  0.1456
  H  H57  1  0.625200  0.945800  0.535000  1.0  0.1038
  H  H58  1  0.706100  0.733600  0.333333  1.0  0.1357
  H  H59  1  0.540800  0.654400  0.361200  1.0  0.2719
  H  H60  1  0.421200  0.587700  0.080100  1.0  0.1052
  H  H61  1  0.417000  0.637200  0.189000  1.0  0.1455
  H  H62  1  0.589600  0.602900  0.292900  1.0  0.1473
  H  H63  1  0.589200  0.554200  0.179400  1.0  0.1004
  H  H64  1  0.599700  0.766400  0.472500  1.0  0.1339
  H  H65  1  0.793200  0.179600  0.138800  1.0  0.2754
  H  H66  1  0.007600  0.341100  0.419900  1.0  0.1044
  H  H67  1  0.948200  0.228000  0.311000  1.0  0.1456
  H  H68  1  0.810000  0.296700  0.207100  1.0  0.1447
  H  H69  1  0.874800  0.409800  0.320600  1.0  0.101
  H  H70  1  0.793900  0.127200  0.027500  1.0  0.1352
  H  H71  1  0.959200  0.320400  0.113600  1.0  0.2703
  H  H72  1  0.078800  0.158900  0.166500  1.0  0.1047
  H  H73  1  0.083000  0.272000  0.220200  1.0  0.1462
  H  H74  1  0.910400  0.203300  0.013300  1.0  0.146
  H  H75  1  0.910800  0.090200  0.965000  1.0  0.0999
  H  H76  1  0.900300  0.372800  0.166700  1.0  0.1353
  H  H77  1  0.138800  0.459200  0.845600  1.0  0.273
  H  H78  1  0.419900  0.578800  0.912300  1.0  0.1056
  H  H79  1  0.311000  0.583000  0.862800  1.0  0.1494
  H  H80  1  0.207100  0.410400  0.897100  1.0  0.1464
  H  H81  1  0.320600  0.410800  0.945800  1.0  0.0988
  H  H82  1  0.027500  0.400300  0.733600  1.0  0.135
  H  H83  1  0.113600  0.293200  0.654400  1.0  0.2753
  H  H84  1  0.166500  0.507600  0.587700  1.0  0.1051
  H  H85  1  0.220200  0.448200  0.637200  1.0  0.1463
  H  H86  1  0.013300  0.310000  0.602900  1.0  0.1458
  H  H87  1  0.965000  0.374800  0.554200  1.0  0.1006
  H  H88  1  0.166700  0.293900  0.766400  1.0  0.1344
  H  H89  1  0.386400  0.040800  0.179600  1.0  0.2692
  H  H90  1  0.333500  0.921200  0.341100  1.0  0.1056
  H  H91  1  0.279800  0.917000  0.228000  1.0  0.146
  H  H92  1  0.486700  0.089600  0.296700  1.0  0.1464
  H  H93  1  0.535000  0.089200  0.409800  1.0  0.1003
  H  H94  1  0.333333  0.099700  0.127200  1.0  0.1348
  H  H95  1  0.361200  0.206800  0.320400  1.0  0.2763
  H  H96  1  0.080100  0.992400  0.158900  1.0  0.1086
  H  H97  1  0.189000  0.051800  0.272000  1.0  0.1476
  H  H98  1  0.292900  0.190000  0.203300  1.0  0.146
  H  H99  1  0.179400  0.125200  0.090200  1.0  0.1037
  H  H100  1  0.472500  0.206100  0.372800  1.0  0.1364
  H  H101  1  0.679600  0.386400  0.540800  1.0  0.2684
  H  H102  1  0.841100  0.333500  0.421200  1.0  0.1067
  H  H103  1  0.728000  0.279800  0.417000  1.0  0.1486
  H  H104  1  0.796700  0.486700  0.589600  1.0  0.1454
  H  H105  1  0.909800  0.535000  0.589200  1.0  0.0997
  H  H106  1  0.627200  0.333333  0.599700  1.0  0.1341
  H  H107  1  0.820400  0.361200  0.706800  1.0  0.2771
  H  H108  1  0.658900  0.080100  0.492400  1.0  0.1053
  H  H109  1  0.772000  0.189000  0.551800  1.0  0.1459
  H  H110  1  0.703300  0.292900  0.690000  1.0  0.1455
  H  H111  1  0.590200  0.179400  0.625200  1.0  0.0993
  H  H112  1  0.872800  0.472500  0.706100  1.0  0.1348
  H  H113  1  0.345600  0.138800  0.959200  1.0  0.2705
  H  H114  1  0.412300  0.419900  0.078800  1.0  0.1072
  H  H115  1  0.362800  0.311000  0.083000  1.0  0.1491
  H  H116  1  0.397100  0.207100  0.910400  1.0  0.1451
  H  H117  1  0.445800  0.320600  0.910800  1.0  0.1023
  H  H118  1  0.233600  0.027500  0.900300  1.0  0.1362
  H  H119  1  0.154400  0.113600  0.793200  1.0  0.2756
  H  H120  1  0.087700  0.166500  0.007600  1.0  0.1062
  H  H121  1  0.137200  0.220200  0.948200  1.0  0.1474
  H  H122  1  0.102900  0.013300  0.810000  1.0  0.1461
  H  H123  1  0.054200  0.965000  0.874800  1.0  0.0996
  H  H124  1  0.266400  0.166700  0.793900  1.0  0.1337
  H  H125  1  0.293200  0.154400  0.613600  1.0  0.276
  H  H126  1  0.507600  0.087700  0.666500  1.0  0.1067
  H  H127  1  0.448200  0.137200  0.720200  1.0  0.1473
  H  H128  1  0.310000  0.102900  0.513300  1.0  0.1461
  H  H129  1  0.374800  0.054200  0.465000  1.0  0.1031
  H  H130  1  0.293900  0.266400  0.666667  1.0  0.1363
  H  H131  1  0.459200  0.345600  0.638800  1.0  0.2717
  H  H132  1  0.578800  0.412300  0.919900  1.0  0.1052
  H  H133  1  0.583000  0.362800  0.811000  1.0  0.1464
  H  H134  1  0.410400  0.397100  0.707100  1.0  0.1467
  H  H135  1  0.410800  0.445800  0.820600  1.0  0.1006
  H  H136  1  0.400300  0.233600  0.527500  1.0  0.1347
  H  H137  1  0.206800  0.820400  0.861200  1.0  0.2759
  H  H138  1  0.992400  0.658900  0.580100  1.0  0.1046
  H  H139  1  0.051800  0.772000  0.689000  1.0  0.1462
  H  H140  1  0.190000  0.703300  0.792900  1.0  0.1445
  H  H141  1  0.125200  0.590200  0.679400  1.0  0.1007
  H  H142  1  0.206100  0.872800  0.972500  1.0  0.1348
  H  H143  1  0.040800  0.679600  0.886400  1.0  0.2721
  H  H144  1  0.921200  0.841100  0.833500  1.0  0.1044
  H  H145  1  0.917000  0.728000  0.779800  1.0  0.1456
  H  H146  1  0.089600  0.796700  0.986700  1.0  0.1461
  H  H147  1  0.089200  0.909800  0.035000  1.0  0.1003
  H  H148  1  0.099700  0.627200  0.833300  1.0  0.135
  C  C149  1  0.623390  0.456920  0.090070  1.0  0.1659
  C  C150  1  0.689020  0.453620  0.120800  1.0  -0.1925
  C  C151  1  0.754440  0.504350  0.126410  1.0  0.2429
  C  C152  1  0.748990  0.554490  0.100300  1.0  -0.2457
  C  C153  1  0.680700  0.553190  0.071110  1.0  0.1768
  C  C154  1  0.843220  0.464290  0.183130  1.0  0.5716
  C  C155  1  0.925060  0.483880  0.212440  1.0  0.004
  C  C156  1  0.983790  0.558860  0.257030  1.0  -0.1323
  C  C157  1  0.866850  0.533320  0.409930  1.0  0.1679
  C  C158  1  0.832820  0.568220  0.379200  1.0  -0.19
  C  C159  1  0.877940  0.628030  0.373590  1.0  0.2422
  C  C160  1  0.954190  0.648690  0.399700  1.0  -0.2433
  C  C161  1  0.982080  0.609590  0.428890  1.0  0.1782
  C  C162  1  0.781160  0.660090  0.316870  1.0  0.5721
  C  C163  1  0.771440  0.712620  0.287560  1.0  0.0127
  C  C164  1  0.801830  0.726760  0.242970  1.0  -0.1305
  C  C165  1  0.633150  0.043080  0.666470  1.0  0.166
  C  C166  1  0.667180  0.046380  0.735400  1.0  -0.1907
  C  C167  1  0.622060  0.995650  0.750090  1.0  0.2431
  C  C168  1  0.545810  0.945510  0.694500  1.0  -0.2484
  C  C169  1  0.517920  0.946810  0.627510  1.0  0.18
  C  C170  1  0.718840  0.035710  0.878930  1.0  0.5719
  C  C171  1  0.728560  0.016120  0.941180  1.0  0.0127
  C  C172  1  0.698170  0.941140  0.924930  1.0  -0.1283
  C  C173  1  0.876610  0.966680  0.833530  1.0  0.1665
  C  C174  1  0.810980  0.931780  0.764600  1.0  -0.1861
  C  C175  1  0.745560  0.871970  0.749910  1.0  0.2415
  C  C176  1  0.751010  0.851310  0.805500  1.0  -0.2464
  C  C177  1  0.819300  0.890410  0.872490  1.0  0.1798
  C  C178  1  0.656780  0.839910  0.621070  1.0  0.5744
  C  C179  1  0.574940  0.787380  0.558820  1.0  0.013
  C  C180  1  0.516210  0.773240  0.575070  1.0  -0.1295
  C  C181  1  0.166470  0.633150  0.543080  1.0  0.1647
  C  C182  1  0.235400  0.667180  0.546380  1.0  -0.1939
  C  C183  1  0.250090  0.622060  0.495650  1.0  0.2421
  C  C184  1  0.194500  0.545810  0.445510  1.0  -0.2456
  C  C185  1  0.127510  0.517920  0.446810  1.0  0.1798
  C  C186  1  0.378930  0.718840  0.535710  1.0  0.5714
  C  C187  1  0.441180  0.728560  0.516120  1.0  0.0135
  C  C188  1  0.424930  0.698170  0.441140  1.0  -0.1309
  C  C189  1  0.333530  0.876610  0.466680  1.0  0.1683
  C  C190  1  0.264600  0.810980  0.431780  1.0  -0.1882
  C  C191  1  0.249910  0.745560  0.371970  1.0  0.2423
  C  C192  1  0.305500  0.751010  0.351310  1.0  -0.2454
  C  C193  1  0.372490  0.819300  0.390410  1.0  0.1786
  C  C194  1  0.121070  0.656780  0.339910  1.0  0.5725
  C  C195  1  0.058820  0.574940  0.287380  1.0  0.0137
  C  C196  1  0.075070  0.516210  0.273240  1.0  -0.1346
  C  C197  1  0.590070  0.623390  0.956920  1.0  0.1669
  C  C198  1  0.620800  0.689020  0.953620  1.0  -0.1867
  C  C199  1  0.626410  0.754440  0.004350  1.0  0.2418
  C  C200  1  0.600300  0.748990  0.054490  1.0  -0.2483
  C  C201  1  0.571110  0.680700  0.053190  1.0  0.1801
  C  C202  1  0.683130  0.843220  0.964290  1.0  0.5728
  C  C203  1  0.712440  0.925060  0.983880  1.0  0.0086
  C  C204  1  0.757030  0.983790  0.058860  1.0  -0.131
  C  C205  1  0.909930  0.866850  0.033320  1.0  0.1667
  C  C206  1  0.879200  0.832820  0.068220  1.0  -0.195
  C  C207  1  0.873590  0.877940  0.128030  1.0  0.2431
  C  C208  1  0.899700  0.954190  0.148690  1.0  -0.2484
  C  C209  1  0.928890  0.982080  0.109590  1.0  0.1782
  C  C210  1  0.816870  0.781160  0.160090  1.0  0.5756
  C  C211  1  0.787560  0.771440  0.212620  1.0  0.0115
  C  C212  1  0.742970  0.801830  0.226760  1.0  -0.1327
  C  C213  1  0.533320  0.909930  0.366850  1.0  0.1675
  C  C214  1  0.568220  0.879200  0.332820  1.0  -0.1871
  C  C215  1  0.628030  0.873590  0.377940  1.0  0.2426
  C  C216  1  0.648690  0.899700  0.454190  1.0  -0.2461
  C  C217  1  0.609590  0.928890  0.482080  1.0  0.1779
  C  C218  1  0.660090  0.816870  0.281160  1.0  0.5695
  C  C219  1  0.712620  0.787560  0.271440  1.0  0.0127
  C  C220  1  0.726760  0.742970  0.301830  1.0  -0.1365
  C  C221  1  0.456920  0.590070  0.123390  1.0  0.1695
  C  C222  1  0.453620  0.620800  0.189020  1.0  -0.1863
  C  C223  1  0.504350  0.626410  0.254440  1.0  0.2425
  C  C224  1  0.554490  0.600300  0.248990  1.0  -0.243
  C  C225  1  0.553190  0.571110  0.180700  1.0  0.1798
  C  C226  1  0.464290  0.683130  0.343220  1.0  0.57
  C  C227  1  0.483880  0.712440  0.425060  1.0  0.0074
  C  C228  1  0.558860  0.757030  0.483790  1.0  -0.1316
  C  C229  1  0.966680  0.333530  0.376610  1.0  0.166
  C  C230  1  0.931780  0.264600  0.310980  1.0  -0.1899
  C  C231  1  0.871970  0.249910  0.245560  1.0  0.2419
  C  C232  1  0.851310  0.305500  0.251010  1.0  -0.2477
  C  C233  1  0.890410  0.372490  0.319300  1.0  0.1797
  C  C234  1  0.839910  0.121070  0.156780  1.0  0.5715
  C  C235  1  0.787380  0.058820  0.074940  1.0  0.0132
  C  C236  1  0.773240  0.075070  0.016210  1.0  -0.13
  C  C237  1  0.043080  0.166470  0.133150  1.0  0.1667
  C  C238  1  0.046380  0.235400  0.167180  1.0  -0.1881
  C  C239  1  0.995650  0.250090  0.122060  1.0  0.2423
  C  C240  1  0.945510  0.194500  0.045810  1.0  -0.2424
  C  C241  1  0.946810  0.127510  0.017920  1.0  0.1784
  C  C242  1  0.035710  0.378930  0.218840  1.0  0.5737
  C  C243  1  0.016120  0.441180  0.228560  1.0  0.0111
  C  C244  1  0.941140  0.424930  0.198170  1.0  -0.1335
  C  C245  1  0.376610  0.543080  0.909930  1.0  0.1648
  C  C246  1  0.310980  0.546380  0.879200  1.0  -0.1946
  C  C247  1  0.245560  0.495650  0.873590  1.0  0.243
  C  C248  1  0.251010  0.445510  0.899700  1.0  -0.2462
  C  C249  1  0.319300  0.446810  0.928890  1.0  0.1779
  C  C250  1  0.156780  0.535710  0.816870  1.0  0.5721
  C  C251  1  0.074940  0.516120  0.787560  1.0  0.0066
  C  C252  1  0.016210  0.441140  0.742970  1.0  -0.1297
  C  C253  1  0.133150  0.466680  0.590070  1.0  0.1674
  C  C254  1  0.167180  0.431780  0.620800  1.0  -0.1896
  C  C255  1  0.122060  0.371970  0.626410  1.0  0.2418
  C  C256  1  0.045810  0.351310  0.600300  1.0  -0.2454
  C  C257  1  0.017920  0.390410  0.571110  1.0  0.1779
  C  C258  1  0.218840  0.339910  0.683130  1.0  0.5734
  C  C259  1  0.228560  0.287380  0.712440  1.0  0.0121
  C  C260  1  0.198170  0.273240  0.757030  1.0  -0.1305
  C  C261  1  0.366850  0.956920  0.333530  1.0  0.1689
  C  C262  1  0.332820  0.953620  0.264600  1.0  -0.1898
  C  C263  1  0.377940  0.004350  0.249910  1.0  0.2423
  C  C264  1  0.454190  0.054490  0.305500  1.0  -0.249
  C  C265  1  0.482080  0.053190  0.372490  1.0  0.1801
  C  C266  1  0.281160  0.964290  0.121070  1.0  0.5727
  C  C267  1  0.271440  0.983880  0.058820  1.0  0.0119
  C  C268  1  0.301830  0.058860  0.075070  1.0  -0.13
  C  C269  1  0.123390  0.033320  0.166470  1.0  0.166
  C  C270  1  0.189020  0.068220  0.235400  1.0  -0.1868
  C  C271  1  0.254440  0.128030  0.250090  1.0  0.2414
  C  C272  1  0.248990  0.148690  0.194500  1.0  -0.2452
  C  C273  1  0.180700  0.109590  0.127510  1.0  0.1777
  C  C274  1  0.343220  0.160090  0.378930  1.0  0.5729
  C  C275  1  0.425060  0.212620  0.441180  1.0  0.0131
  C  C276  1  0.483790  0.226760  0.424930  1.0  -0.1289
  C  C277  1  0.833530  0.366850  0.456920  1.0  0.1654
  C  C278  1  0.764600  0.332820  0.453620  1.0  -0.197
  C  C279  1  0.749910  0.377940  0.504350  1.0  0.2421
  C  C280  1  0.805500  0.454190  0.554490  1.0  -0.2509
  C  C281  1  0.872490  0.482080  0.553190  1.0  0.1762
  C  C282  1  0.621070  0.281160  0.464290  1.0  0.572
  C  C283  1  0.558820  0.271440  0.483880  1.0  0.0121
  C  C284  1  0.575070  0.301830  0.558860  1.0  -0.1318
  C  C285  1  0.666470  0.123390  0.533320  1.0  0.1674
  C  C286  1  0.735400  0.189020  0.568220  1.0  -0.1877
  C  C287  1  0.750090  0.254440  0.628030  1.0  0.2422
  C  C288  1  0.694500  0.248990  0.648690  1.0  -0.245
  C  C289  1  0.627510  0.180700  0.609590  1.0  0.1784
  C  C290  1  0.878930  0.343220  0.660090  1.0  0.5752
  C  C291  1  0.941180  0.425060  0.712620  1.0  0.0153
  C  C292  1  0.924930  0.483790  0.726760  1.0  -0.1328
  C  C293  1  0.409930  0.376610  0.043080  1.0  0.1671
  C  C294  1  0.379200  0.310980  0.046380  1.0  -0.1887
  C  C295  1  0.373590  0.245560  0.995650  1.0  0.2418
  C  C296  1  0.399700  0.251010  0.945510  1.0  -0.2453
  C  C297  1  0.428890  0.319300  0.946810  1.0  0.1781
  C  C298  1  0.316870  0.156780  0.035710  1.0  0.573
  C  C299  1  0.287560  0.074940  0.016120  1.0  0.0079
  C  C300  1  0.242970  0.016210  0.941140  1.0  -0.1289
  C  C301  1  0.090070  0.133150  0.966680  1.0  0.1671
  C  C302  1  0.120800  0.167180  0.931780  1.0  -0.1943
  C  C303  1  0.126410  0.122060  0.871970  1.0  0.2425
  C  C304  1  0.100300  0.045810  0.851310  1.0  -0.2479
  C  C305  1  0.071110  0.017920  0.890410  1.0  0.1811
  C  C306  1  0.183130  0.218840  0.839910  1.0  0.5724
  C  C307  1  0.212440  0.228560  0.787380  1.0  0.0121
  C  C308  1  0.257030  0.198170  0.773240  1.0  -0.1308
  C  C309  1  0.466680  0.090070  0.633150  1.0  0.1678
  C  C310  1  0.431780  0.120800  0.667180  1.0  -0.1867
  C  C311  1  0.371970  0.126410  0.622060  1.0  0.2419
  C  C312  1  0.351310  0.100300  0.545810  1.0  -0.2484
  C  C313  1  0.390410  0.071110  0.517920  1.0  0.1787
  C  C314  1  0.339910  0.183130  0.718840  1.0  0.5716
  C  C315  1  0.287380  0.212440  0.728560  1.0  0.0125
  C  C316  1  0.273240  0.257030  0.698170  1.0  -0.1344
  C  C317  1  0.543080  0.409930  0.876610  1.0  0.1719
  C  C318  1  0.546380  0.379200  0.810980  1.0  -0.1865
  C  C319  1  0.495650  0.373590  0.745560  1.0  0.2428
  C  C320  1  0.445510  0.399700  0.751010  1.0  -0.247
  C  C321  1  0.446810  0.428890  0.819300  1.0  0.1796
  C  C322  1  0.535710  0.316870  0.656780  1.0  0.5736
  C  C323  1  0.516120  0.287560  0.574940  1.0  0.0066
  C  C324  1  0.441140  0.242970  0.516210  1.0  -0.1314
  C  C325  1  0.033320  0.666470  0.623390  1.0  0.1661
  C  C326  1  0.068220  0.735400  0.689020  1.0  -0.1897
  C  C327  1  0.128030  0.750090  0.754440  1.0  0.2425
  C  C328  1  0.148690  0.694500  0.748990  1.0  -0.2442
  C  C329  1  0.109590  0.627510  0.680700  1.0  0.1781
  C  C330  1  0.160090  0.878930  0.843220  1.0  0.5722
  C  C331  1  0.212620  0.941180  0.925060  1.0  0.0118
  C  C332  1  0.226760  0.924930  0.983790  1.0  -0.1296
  C  C333  1  0.956920  0.833530  0.866850  1.0  0.1662
  C  C334  1  0.953620  0.764600  0.832820  1.0  -0.1896
  C  C335  1  0.004350  0.749910  0.877940  1.0  0.2417
  C  C336  1  0.054490  0.805500  0.954190  1.0  -0.2388
  C  C337  1  0.053190  0.872490  0.982080  1.0  0.1792
  C  C338  1  0.964290  0.621070  0.781160  1.0  0.5717
  C  C339  1  0.983880  0.558820  0.771440  1.0  0.0113
  C  C340  1  0.058860  0.575070  0.801830  1.0  -0.1331
  N  N341  1  0.617020  0.504380  0.064660  1.0  -0.3349
  N  N342  1  0.824550  0.507050  0.154880  1.0  -0.3629
  N  N343  1  0.939720  0.552360  0.435340  1.0  -0.3264
  N  N344  1  0.852170  0.669670  0.345120  1.0  -0.3641
  N  N345  1  0.560280  0.995620  0.612640  1.0  -0.3388
  N  N346  1  0.647830  0.992950  0.817500  1.0  -0.3643
  N  N347  1  0.882980  0.947640  0.887360  1.0  -0.3366
  N  N348  1  0.675450  0.830330  0.682500  1.0  -0.3654
  N  N349  1  0.112640  0.560280  0.495620  1.0  -0.3396
  N  N350  1  0.317500  0.647830  0.492950  1.0  -0.3648
  N  N351  1  0.387360  0.882980  0.447640  1.0  -0.3373
  N  N352  1  0.182500  0.675450  0.330330  1.0  -0.3652
  N  N353  1  0.564660  0.617020  0.004380  1.0  -0.3362
  N  N354  1  0.654880  0.824550  0.007050  1.0  -0.364
  N  N355  1  0.935340  0.939720  0.052360  1.0  -0.3277
  N  N356  1  0.845120  0.852170  0.169670  1.0  -0.3641
  N  N357  1  0.552360  0.935340  0.439720  1.0  -0.3265
  N  N358  1  0.669670  0.845120  0.352170  1.0  -0.3643
  N  N359  1  0.504380  0.564660  0.117020  1.0  -0.3371
  N  N360  1  0.507050  0.654880  0.324550  1.0  -0.3633
  N  N361  1  0.947640  0.387360  0.382980  1.0  -0.3394
  N  N362  1  0.830330  0.182500  0.175450  1.0  -0.365
  N  N363  1  0.995620  0.112640  0.060280  1.0  -0.3363
  N  N364  1  0.992950  0.317500  0.147830  1.0  -0.3645
  N  N365  1  0.382980  0.495620  0.935340  1.0  -0.3358
  N  N366  1  0.175450  0.492950  0.845120  1.0  -0.3628
  N  N367  1  0.060280  0.447640  0.564660  1.0  -0.3284
  N  N368  1  0.147830  0.330330  0.654880  1.0  -0.3639
  N  N369  1  0.439720  0.004380  0.387360  1.0  -0.3368
  N  N370  1  0.352170  0.007050  0.182500  1.0  -0.3654
  N  N371  1  0.117020  0.052360  0.112640  1.0  -0.3401
  N  N372  1  0.324550  0.169670  0.317500  1.0  -0.3647
  N  N373  1  0.887360  0.439720  0.504380  1.0  -0.3373
  N  N374  1  0.682500  0.352170  0.507050  1.0  -0.3632
  N  N375  1  0.612640  0.117020  0.552360  1.0  -0.3387
  N  N376  1  0.817500  0.324550  0.669670  1.0  -0.3645
  N  N377  1  0.435340  0.382980  0.995620  1.0  -0.3384
  N  N378  1  0.345120  0.175450  0.992950  1.0  -0.3662
  N  N379  1  0.064660  0.060280  0.947640  1.0  -0.3268
  N  N380  1  0.154880  0.147830  0.830330  1.0  -0.3639
  N  N381  1  0.447640  0.064660  0.560280  1.0  -0.3276
  N  N382  1  0.330330  0.154880  0.647830  1.0  -0.3635
  N  N383  1  0.495620  0.435340  0.882980  1.0  -0.3367
  N  N384  1  0.492950  0.345120  0.675450  1.0  -0.3631
  N  N385  1  0.052360  0.612640  0.617020  1.0  -0.3387
  N  N386  1  0.169670  0.817500  0.824550  1.0  -0.3643
  N  N387  1  0.004380  0.887360  0.939720  1.0  -0.3384
  N  N388  1  0.007050  0.682500  0.852170  1.0  -0.3645
  Cl  Cl389  1  0.499040  0.249040  0.250000  1.0  1.3036
  Cl  Cl390  1  0.000960  0.250960  0.750000  1.0  1.3045
  Cl  Cl391  1  0.250000  0.000960  0.750960  1.0  1.3053
  Cl  Cl392  1  0.750000  0.499040  0.749040  1.0  1.3031
  Cl  Cl393  1  0.249040  0.750000  0.999040  1.0  1.2985
  Cl  Cl394  1  0.250960  0.250000  0.500960  1.0  1.2961
  Cl  Cl395  1  0.500960  0.750960  0.750000  1.0  1.3045
  Cl  Cl396  1  0.999040  0.749040  0.250000  1.0  1.3036
  Cl  Cl397  1  0.750000  0.999040  0.249040  1.0  1.3031
  Cl  Cl398  1  0.250000  0.500960  0.250960  1.0  1.3053
  Cl  Cl399  1  0.750960  0.250000  0.000960  1.0  1.2961
  Cl  Cl400  1  0.749040  0.750000  0.499040  1.0  1.2986
  O  O401  1  0.798530  0.413090  0.185440  1.0  -0.5001
  O  O402  1  0.727650  0.613090  0.314560  1.0  -0.5006
  O  O403  1  0.772350  0.086910  0.885440  1.0  -0.5001
  O  O404  1  0.701470  0.886910  0.614560  1.0  -0.5008
  O  O405  1  0.385440  0.772350  0.586910  1.0  -0.5028
  O  O406  1  0.114560  0.701470  0.386910  1.0  -0.5006
  O  O407  1  0.685440  0.798530  0.913090  1.0  -0.4998
  O  O408  1  0.814560  0.727650  0.113090  1.0  -0.502
  O  O409  1  0.613090  0.814560  0.227650  1.0  -0.501
  O  O410  1  0.413090  0.685440  0.298530  1.0  -0.5017
  O  O411  1  0.886910  0.114560  0.201470  1.0  -0.5031
  O  O412  1  0.086910  0.385440  0.272350  1.0  -0.5014
  O  O413  1  0.201470  0.586910  0.814560  1.0  -0.4997
  O  O414  1  0.272350  0.386910  0.685440  1.0  -0.4997
  O  O415  1  0.227650  0.913090  0.114560  1.0  -0.5002
  O  O416  1  0.298530  0.113090  0.385440  1.0  -0.5014
  O  O417  1  0.614560  0.227650  0.413090  1.0  -0.5018
  O  O418  1  0.885440  0.298530  0.613090  1.0  -0.5004
  O  O419  1  0.314560  0.201470  0.086910  1.0  -0.4994
  O  O420  1  0.185440  0.272350  0.886910  1.0  -0.5024
  O  O421  1  0.386910  0.185440  0.772350  1.0  -0.5026
  O  O422  1  0.586910  0.314560  0.701470  1.0  -0.5031
  O  O423  1  0.113090  0.885440  0.798530  1.0  -0.5012
  O  O424  1  0.913090  0.614560  0.727650  1.0  -0.5003
  O  O425  1  0.549500  0.307300  0.327400  1.0  -0.5353
  O  O426  1  0.543000  0.215800  0.232800  1.0  -0.5467
  O  O427  1  0.479900  0.222100  0.172600  1.0  -0.5392
  O  O428  1  0.483000  0.310200  0.267200  1.0  -0.5355
  O  O429  1  0.020100  0.192700  0.742200  1.0  -0.5376
  O  O430  1  0.017000  0.284200  0.827200  1.0  -0.5475
  O  O431  1  0.950500  0.277900  0.757800  1.0  -0.5378
  O  O432  1  0.957000  0.189800  0.672800  1.0  -0.5507
  O  O433  1  0.242200  0.020100  0.692700  1.0  -0.5368
  O  O434  1  0.327200  0.017000  0.784200  1.0  -0.5411
  O  O435  1  0.257800  0.950500  0.777900  1.0  -0.5375
  O  O436  1  0.172800  0.957000  0.689800  1.0  -0.5441
  O  O437  1  0.827400  0.549500  0.807300  1.0  -0.536
  O  O438  1  0.732800  0.543000  0.715800  1.0  -0.5528
  O  O439  1  0.672600  0.479900  0.722100  1.0  -0.5364
  O  O440  1  0.767200  0.483000  0.810200  1.0  -0.542
  O  O441  1  0.222100  0.672600  0.979900  1.0  -0.54
  O  O442  1  0.310200  0.767200  0.983000  1.0  -0.5455
  O  O443  1  0.307300  0.827400  0.049500  1.0  -0.5339
  O  O444  1  0.215800  0.732800  0.043000  1.0  -0.5499
  O  O445  1  0.277900  0.257800  0.450500  1.0  -0.5388
  O  O446  1  0.189800  0.172800  0.457000  1.0  -0.55
  O  O447  1  0.192700  0.242200  0.520100  1.0  -0.5375
  O  O448  1  0.284200  0.327200  0.517000  1.0  -0.5431
  O  O449  1  0.450500  0.692700  0.672600  1.0  -0.539
  O  O450  1  0.457000  0.784200  0.767200  1.0  -0.5458
  O  O451  1  0.520100  0.777900  0.827400  1.0  -0.5366
  O  O452  1  0.517000  0.689800  0.732800  1.0  -0.538
  O  O453  1  0.979900  0.807300  0.257800  1.0  -0.5343
  O  O454  1  0.983000  0.715800  0.172800  1.0  -0.5482
  O  O455  1  0.049500  0.722100  0.242200  1.0  -0.5383
  O  O456  1  0.043000  0.810200  0.327200  1.0  -0.547
  O  O457  1  0.757800  0.979900  0.307300  1.0  -0.5353
  O  O458  1  0.672800  0.983000  0.215800  1.0  -0.5403
  O  O459  1  0.742200  0.049500  0.222100  1.0  -0.5416
  O  O460  1  0.827200  0.043000  0.310200  1.0  -0.5443
  O  O461  1  0.172600  0.450500  0.192700  1.0  -0.5351
  O  O462  1  0.267200  0.457000  0.284200  1.0  -0.5515
  O  O463  1  0.327400  0.520100  0.277900  1.0  -0.5371
  O  O464  1  0.232800  0.517000  0.189800  1.0  -0.5447
  O  O465  1  0.777900  0.327400  0.020100  1.0  -0.5354
  O  O466  1  0.689800  0.232800  0.017000  1.0  -0.5405
  O  O467  1  0.692700  0.172600  0.950500  1.0  -0.5405
  O  O468  1  0.784200  0.267200  0.957000  1.0  -0.5521
  O  O469  1  0.722100  0.742200  0.549500  1.0  -0.5361
  O  O470  1  0.810200  0.827200  0.543000  1.0  -0.5475
  O  O471  1  0.807300  0.757800  0.479900  1.0  -0.5389
  O  O472  1  0.715800  0.672800  0.483000  1.0  -0.547
