# generated using pymatgen
data_ZnH3C4O5
_symmetry_space_group_name_H-M   'P 1'
_cell_length_a   13.90800000
_cell_length_b   8.40900000
_cell_length_c   13.04200000
_cell_angle_alpha   90.00000000
_cell_angle_beta   90.00000000
_cell_angle_gamma   90.00000000
_symmetry_Int_Tables_number   1
_chemical_formula_structural   ZnH3C4O5
_chemical_formula_sum   'Zn8 H24 C32 O40'
_cell_volume   1525.29283562
_cell_formula_units_Z   8
loop_
 _symmetry_equiv_pos_site_id
 _symmetry_equiv_pos_as_xyz
  1  'x, y, z'
loop_
 _atom_site_type_symbol
 _atom_site_label
 _atom_site_symmetry_multiplicity
 _atom_site_fract_x
 _atom_site_fract_y
 _atom_site_fract_z
 _atom_site_occupancy
 _atom_site_charge
  Zn  Zn1  1  0.250000  0.000000  0.205780  1.0  0.9923
  Zn  Zn2  1  0.750000  0.000000  0.294220  1.0  0.9922
  Zn  Zn3  1  0.750000  0.000000  0.794220  1.0  0.9922
  Zn  Zn4  1  0.250000  0.000000  0.705780  1.0  0.9923
  Zn  Zn5  1  0.250000  0.500000  0.930790  1.0  1.1029
  Zn  Zn6  1  0.750000  0.500000  0.569210  1.0  1.1121
  Zn  Zn7  1  0.750000  0.500000  0.069210  1.0  1.1136
  Zn  Zn8  1  0.250000  0.500000  0.430790  1.0  1.1044
  H  H9  1  0.010500  0.168800  0.006700  1.0  0.1448
  H  H10  1  0.040100  0.068800  0.838200  1.0  0.1539
  H  H11  1  0.119300  0.955900  0.882900  1.0  0.1651
  H  H12  1  0.489500  0.831200  0.006700  1.0  0.1459
  H  H13  1  0.459900  0.931200  0.838200  1.0  0.1539
  H  H14  1  0.380700  0.044100  0.882900  1.0  0.1666
  H  H15  1  0.989500  0.168800  0.493300  1.0  0.1456
  H  H16  1  0.959900  0.068800  0.661800  1.0  0.1544
  H  H17  1  0.880700  0.955900  0.617100  1.0  0.1655
  H  H18  1  0.510500  0.831200  0.493300  1.0  0.1458
  H  H19  1  0.540100  0.931200  0.661800  1.0  0.1546
  H  H20  1  0.619300  0.044100  0.617100  1.0  0.1659
  H  H21  1  0.989500  0.831200  0.993300  1.0  0.1457
  H  H22  1  0.959900  0.931200  0.161800  1.0  0.1549
  H  H23  1  0.880700  0.044100  0.117100  1.0  0.1665
  H  H24  1  0.510500  0.168800  0.993300  1.0  0.1457
  H  H25  1  0.540100  0.068800  0.161800  1.0  0.154
  H  H26  1  0.619300  0.955900  0.117100  1.0  0.1652
  H  H27  1  0.010500  0.831200  0.506700  1.0  0.1471
  H  H28  1  0.040100  0.931200  0.338200  1.0  0.1541
  H  H29  1  0.119300  0.044100  0.382900  1.0  0.1662
  H  H30  1  0.489500  0.168800  0.506700  1.0  0.1455
  H  H31  1  0.459900  0.068800  0.338200  1.0  0.1538
  H  H32  1  0.380700  0.955900  0.382900  1.0  0.1653
  C  C33  1  0.112900  0.031500  0.080600  1.0  0.7309
  C  C34  1  0.039100  0.063600  0.996200  1.0  -0.0784
  C  C35  1  0.088500  0.058600  0.891300  1.0  -0.2845
  C  C36  1  0.162900  0.187700  0.877000  1.0  0.785
  C  C37  1  0.387100  0.968500  0.080600  1.0  0.7288
  C  C38  1  0.460900  0.936400  0.996200  1.0  -0.0794
  C  C39  1  0.411500  0.941400  0.891300  1.0  -0.2858
  C  C40  1  0.337100  0.812300  0.877000  1.0  0.7854
  C  C41  1  0.887100  0.031500  0.419400  1.0  0.7313
  C  C42  1  0.960900  0.063600  0.503800  1.0  -0.0787
  C  C43  1  0.911500  0.058600  0.608700  1.0  -0.2865
  C  C44  1  0.837100  0.187700  0.623000  1.0  0.7855
  C  C45  1  0.612900  0.968500  0.419400  1.0  0.732
  C  C46  1  0.539100  0.936400  0.503800  1.0  -0.0788
  C  C47  1  0.588500  0.941400  0.608700  1.0  -0.2854
  C  C48  1  0.662900  0.812300  0.623000  1.0  0.7859
  C  C49  1  0.887100  0.968500  0.919400  1.0  0.7309
  C  C50  1  0.960900  0.936400  0.003800  1.0  -0.0794
  C  C51  1  0.911500  0.941400  0.108700  1.0  -0.2852
  C  C52  1  0.837100  0.812300  0.123000  1.0  0.786
  C  C53  1  0.612900  0.031500  0.919400  1.0  0.7317
  C  C54  1  0.539100  0.063600  0.003800  1.0  -0.0782
  C  C55  1  0.588500  0.058600  0.108700  1.0  -0.2871
  C  C56  1  0.662900  0.187700  0.123000  1.0  0.7855
  C  C57  1  0.112900  0.968500  0.580600  1.0  0.7312
  C  C58  1  0.039100  0.936400  0.496200  1.0  -0.0787
  C  C59  1  0.088500  0.941400  0.391300  1.0  -0.2854
  C  C60  1  0.162900  0.812300  0.377000  1.0  0.7853
  C  C61  1  0.387100  0.031500  0.580600  1.0  0.7287
  C  C62  1  0.460900  0.063600  0.496200  1.0  -0.0788
  C  C63  1  0.411500  0.058600  0.391300  1.0  -0.2844
  C  C64  1  0.337100  0.187700  0.377000  1.0  0.7852
  O  O65  1  0.124200  0.124100  0.152600  1.0  -0.5522
  O  O66  1  0.161900  0.905800  0.077300  1.0  -0.5333
  O  O67  1  0.163200  0.301500  0.936700  1.0  -0.5362
  O  O68  1  0.220400  0.173700  0.803200  1.0  -0.5622
  O  O69  1  0.212100  0.461700  0.282400  1.0  -0.4836
  O  O70  1  0.375800  0.875900  0.152600  1.0  -0.5542
  O  O71  1  0.338100  0.094200  0.077300  1.0  -0.5326
  O  O72  1  0.336800  0.698500  0.936700  1.0  -0.5368
  O  O73  1  0.279600  0.826300  0.803200  1.0  -0.5635
  O  O74  1  0.287900  0.538300  0.282400  1.0  -0.4816
  O  O75  1  0.875800  0.124100  0.347400  1.0  -0.5517
  O  O76  1  0.838100  0.905800  0.422700  1.0  -0.534
  O  O77  1  0.836800  0.301500  0.563300  1.0  -0.5365
  O  O78  1  0.779600  0.173700  0.696800  1.0  -0.5633
  O  O79  1  0.787900  0.461700  0.217600  1.0  -0.4831
  O  O80  1  0.624200  0.875900  0.347400  1.0  -0.5529
  O  O81  1  0.661900  0.094200  0.422700  1.0  -0.5322
  O  O82  1  0.663200  0.698500  0.563300  1.0  -0.5365
  O  O83  1  0.720400  0.826300  0.696800  1.0  -0.5636
  O  O84  1  0.712100  0.538300  0.217600  1.0  -0.4824
  O  O85  1  0.875800  0.875900  0.847400  1.0  -0.5532
  O  O86  1  0.838100  0.094200  0.922700  1.0  -0.5327
  O  O87  1  0.836800  0.698500  0.063300  1.0  -0.5356
  O  O88  1  0.779600  0.826300  0.196800  1.0  -0.5633
  O  O89  1  0.787900  0.538300  0.717600  1.0  -0.4826
  O  O90  1  0.624200  0.124100  0.847400  1.0  -0.5517
  O  O91  1  0.661900  0.905800  0.922700  1.0  -0.5334
  O  O92  1  0.663200  0.301500  0.063300  1.0  -0.5373
  O  O93  1  0.720400  0.173700  0.196800  1.0  -0.5625
  O  O94  1  0.712100  0.461700  0.717600  1.0  -0.4834
  O  O95  1  0.124200  0.875900  0.652600  1.0  -0.554
  O  O96  1  0.161900  0.094200  0.577300  1.0  -0.5321
  O  O97  1  0.163200  0.698500  0.436700  1.0  -0.5377
  O  O98  1  0.220400  0.826300  0.303200  1.0  -0.563
  O  O99  1  0.212100  0.538300  0.782400  1.0  -0.4831
  O  O100  1  0.375800  0.124100  0.652600  1.0  -0.5524
  O  O101  1  0.338100  0.905800  0.577300  1.0  -0.5339
  O  O102  1  0.336800  0.301500  0.436700  1.0  -0.5353
  O  O103  1  0.279600  0.173700  0.303200  1.0  -0.5613
  O  O104  1  0.287900  0.461700  0.782400  1.0  -0.4819
