# generated using pymatgen
data_Fe4P4H5(O4F)4
_symmetry_space_group_name_H-M   'P 1'
_cell_length_a   13.68080000
_cell_length_b   12.63400000
_cell_length_c   12.78300000
_cell_angle_alpha   90.00000000
_cell_angle_beta   116.98300000
_cell_angle_gamma   90.00000000
_symmetry_Int_Tables_number   1
_chemical_formula_structural   Fe4P4H5(O4F)4
_chemical_formula_sum   'Fe16 P16 H20 O64 F16'
_cell_volume   1968.93632678
_cell_formula_units_Z   4
loop_
 _symmetry_equiv_pos_site_id
 _symmetry_equiv_pos_as_xyz
  1  'x, y, z'
loop_
 _atom_site_type_symbol
 _atom_site_label
 _atom_site_symmetry_multiplicity
 _atom_site_fract_x
 _atom_site_fract_y
 _atom_site_fract_z
 _atom_site_occupancy
 _atom_site_charge
  Fe  Fe1  1  0.179970  0.245520  0.127990  1.0  1.3118
  Fe  Fe2  1  0.692090  0.251170  0.309270  1.0  1.4028
  Fe  Fe3  1  0.260080  0.999380  0.042160  1.0  1.2105
  Fe  Fe4  1  0.255290  0.498930  0.288700  1.0  1.1895
  Fe  Fe5  1  0.820030  0.745520  0.372010  1.0  1.3088
  Fe  Fe6  1  0.307910  0.751170  0.190730  1.0  1.4025
  Fe  Fe7  1  0.739920  0.499380  0.457840  1.0  1.2131
  Fe  Fe8  1  0.744710  0.998930  0.211300  1.0  1.1886
  Fe  Fe9  1  0.820030  0.754480  0.872010  1.0  1.309
  Fe  Fe10  1  0.307910  0.748830  0.690730  1.0  1.4004
  Fe  Fe11  1  0.739920  0.000620  0.957840  1.0  1.2133
  Fe  Fe12  1  0.744710  0.501070  0.711300  1.0  1.1887
  Fe  Fe13  1  0.179970  0.254480  0.627990  1.0  1.3118
  Fe  Fe14  1  0.692090  0.248830  0.809270  1.0  1.4009
  Fe  Fe15  1  0.260080  0.500620  0.542160  1.0  1.2105
  Fe  Fe16  1  0.255290  0.001070  0.788700  1.0  1.189
  P  P17  1  0.152900  0.295700  0.358400  1.0  1.5277
  P  P18  1  0.348100  0.792000  0.961900  1.0  1.559
  P  P19  1  0.935600  0.162600  0.981100  1.0  1.549
  P  P20  1  0.422600  0.198300  0.152800  1.0  1.6119
  P  P21  1  0.847100  0.795700  0.141600  1.0  1.534
  P  P22  1  0.651900  0.292000  0.538100  1.0  1.5519
  P  P23  1  0.064400  0.662600  0.518900  1.0  1.5472
  P  P24  1  0.577400  0.698300  0.347200  1.0  1.6133
  P  P25  1  0.847100  0.704300  0.641600  1.0  1.5341
  P  P26  1  0.651900  0.208000  0.038100  1.0  1.5515
  P  P27  1  0.064400  0.837400  0.018900  1.0  1.5359
  P  P28  1  0.577400  0.801700  0.847200  1.0  1.6151
  P  P29  1  0.152900  0.204300  0.858400  1.0  1.5279
  P  P30  1  0.348100  0.708000  0.461900  1.0  1.5592
  P  P31  1  0.935600  0.337400  0.481100  1.0  1.538
  P  P32  1  0.422600  0.301700  0.652800  1.0  1.6137
  H  H33  1  0.048000  0.308000  0.289000  1.0  0.4053
  H  H34  1  0.454000  0.781500  0.022000  1.0  0.3466
  H  H35  1  0.990000  0.104000  0.940000  1.0  0.3568
  H  H36  1  0.404000  0.234000  0.048000  1.0  -0.0041
  H  H37  1  0.435000  0.414000  0.283000  1.0  0.5405
  H  H38  1  0.952000  0.808000  0.211000  1.0  0.4047
  H  H39  1  0.546000  0.281500  0.478000  1.0  0.3472
  H  H40  1  0.010000  0.604000  0.560000  1.0  0.3553
  H  H41  1  0.596000  0.734000  0.452000  1.0  -0.0071
  H  H42  1  0.565000  0.914000  0.217000  1.0  0.5441
  H  H43  1  0.952000  0.692000  0.711000  1.0  0.4044
  H  H44  1  0.546000  0.218500  0.978000  1.0  0.3481
  H  H45  1  0.010000  0.896000  0.060000  1.0  0.3549
  H  H46  1  0.596000  0.766000  0.952000  1.0  -0.0079
  H  H47  1  0.565000  0.586000  0.717000  1.0  0.5404
  H  H48  1  0.048000  0.192000  0.789000  1.0  0.4055
  H  H49  1  0.454000  0.718500  0.522000  1.0  0.3474
  H  H50  1  0.990000  0.396000  0.440000  1.0  0.3565
  H  H51  1  0.404000  0.266000  0.548000  1.0  -0.0036
  H  H52  1  0.435000  0.086000  0.783000  1.0  0.5455
  O  O53  1  0.201200  0.230400  0.293600  1.0  -0.6936
  O  O54  1  0.162900  0.238000  0.467900  1.0  -0.7927
  O  O55  1  0.341600  0.252400  0.187900  1.0  -0.7258
  O  O56  1  0.019900  0.237800  0.072800  1.0  -0.7367
  O  O57  1  0.311800  0.733300  0.848000  1.0  -0.7683
  O  O58  1  0.535300  0.227200  0.240300  1.0  -0.7888
  O  O59  1  0.297600  0.739100  0.033900  1.0  -0.7528
  O  O60  1  0.854100  0.229900  0.878700  1.0  -0.7261
  O  O61  1  0.323400  0.909500  0.943700  1.0  -0.778
  O  O62  1  0.883500  0.089700  0.036000  1.0  -0.7481
  O  O63  1  0.405400  0.080100  0.132400  1.0  -0.7236
  O  O64  1  0.409000  0.432600  0.326500  1.0  -0.6692
  O  O65  1  0.203200  0.407200  0.387300  1.0  -0.804
  O  O66  1  0.030000  0.306000  0.269000  1.0  -0.4984
  O  O67  1  0.468000  0.767000  0.023000  1.0  -0.4953
  O  O68  1  0.972000  0.105000  0.903000  1.0  -0.595
  O  O69  1  0.798800  0.730400  0.206400  1.0  -0.6938
  O  O70  1  0.837100  0.738000  0.032100  1.0  -0.7925
  O  O71  1  0.658400  0.752400  0.312100  1.0  -0.7261
  O  O72  1  0.980100  0.737800  0.427200  1.0  -0.7361
  O  O73  1  0.688200  0.233300  0.652000  1.0  -0.7675
  O  O74  1  0.464700  0.727200  0.259700  1.0  -0.7899
  O  O75  1  0.702400  0.239100  0.466100  1.0  -0.7517
  O  O76  1  0.145900  0.729900  0.621300  1.0  -0.7274
  O  O77  1  0.676600  0.409500  0.556300  1.0  -0.7787
  O  O78  1  0.116500  0.589700  0.464000  1.0  -0.7489
  O  O79  1  0.594600  0.580100  0.367600  1.0  -0.7237
  O  O80  1  0.591000  0.932600  0.173500  1.0  -0.6678
  O  O81  1  0.796800  0.907200  0.112700  1.0  -0.8029
  O  O82  1  0.970000  0.806000  0.231000  1.0  -0.5053
  O  O83  1  0.532000  0.267000  0.477000  1.0  -0.5012
  O  O84  1  0.028000  0.605000  0.597000  1.0  -0.5985
  O  O85  1  0.798800  0.769600  0.706400  1.0  -0.6935
  O  O86  1  0.837100  0.762000  0.532100  1.0  -0.7994
  O  O87  1  0.658400  0.747600  0.812100  1.0  -0.7266
  O  O88  1  0.980100  0.762200  0.927200  1.0  -0.7354
  O  O89  1  0.688200  0.266700  0.152000  1.0  -0.7709
  O  O90  1  0.464700  0.772800  0.759700  1.0  -0.7898
  O  O91  1  0.702400  0.260900  0.966100  1.0  -0.7522
  O  O92  1  0.145900  0.770100  0.121300  1.0  -0.7266
  O  O93  1  0.676600  0.090500  0.056300  1.0  -0.7788
  O  O94  1  0.116500  0.910300  0.964000  1.0  -0.7492
  O  O95  1  0.594600  0.919900  0.867600  1.0  -0.7232
  O  O96  1  0.591000  0.567400  0.673500  1.0  -0.6697
  O  O97  1  0.796800  0.592800  0.612700  1.0  -0.8032
  O  O98  1  0.970000  0.694000  0.731000  1.0  -0.5037
  O  O99  1  0.532000  0.233000  0.977000  1.0  -0.5001
  O  O100  1  0.028000  0.895000  0.097000  1.0  -0.5992
  O  O101  1  0.201200  0.269600  0.793600  1.0  -0.6925
  O  O102  1  0.162900  0.262000  0.967900  1.0  -0.7997
  O  O103  1  0.341600  0.247600  0.687900  1.0  -0.7264
  O  O104  1  0.019900  0.262200  0.572800  1.0  -0.7363
  O  O105  1  0.311800  0.766700  0.348000  1.0  -0.7707
  O  O106  1  0.535300  0.272800  0.740300  1.0  -0.7889
  O  O107  1  0.297600  0.760900  0.533900  1.0  -0.7531
  O  O108  1  0.854100  0.270100  0.378700  1.0  -0.726
  O  O109  1  0.323400  0.590500  0.443700  1.0  -0.7783
  O  O110  1  0.883500  0.410300  0.536000  1.0  -0.7487
  O  O111  1  0.405400  0.419900  0.632400  1.0  -0.7232
  O  O112  1  0.409000  0.067400  0.826500  1.0  -0.6692
  O  O113  1  0.203200  0.092800  0.887300  1.0  -0.805
  O  O114  1  0.030000  0.194000  0.769000  1.0  -0.4966
  O  O115  1  0.468000  0.733000  0.523000  1.0  -0.4944
  O  O116  1  0.972000  0.395000  0.403000  1.0  -0.5953
  F  F117  1  0.188300  0.091900  0.126800  1.0  -0.4263
  F  F118  1  0.167100  0.401200  0.137100  1.0  -0.4054
  F  F119  1  0.326000  0.902700  0.192400  1.0  -0.4102
  F  F120  1  0.275100  0.599300  0.179200  1.0  -0.4489
  F  F121  1  0.811700  0.591900  0.373200  1.0  -0.4278
  F  F122  1  0.832900  0.901200  0.362900  1.0  -0.4038
  F  F123  1  0.674000  0.402700  0.307600  1.0  -0.4116
  F  F124  1  0.724900  0.099300  0.320800  1.0  -0.4472
  F  F125  1  0.811700  0.908100  0.873200  1.0  -0.4283
  F  F126  1  0.832900  0.598800  0.862900  1.0  -0.4058
  F  F127  1  0.674000  0.097300  0.807600  1.0  -0.4118
  F  F128  1  0.724900  0.400700  0.820800  1.0  -0.4474
  F  F129  1  0.188300  0.408100  0.626800  1.0  -0.427
  F  F130  1  0.167100  0.098800  0.637100  1.0  -0.4064
  F  F131  1  0.326000  0.597300  0.692400  1.0  -0.412
  F  F132  1  0.275100  0.900700  0.679200  1.0  -0.4464
