# generated using pymatgen
data_Fe3CoP4H4O15F4
_symmetry_space_group_name_H-M   'P 1'
_cell_length_a   13.68230000
_cell_length_b   12.60630000
_cell_length_c   12.75350000
_cell_angle_alpha   90.00000000
_cell_angle_beta   116.98800000
_cell_angle_gamma   90.00000000
_symmetry_Int_Tables_number   1
_chemical_formula_structural   Fe3CoP4H4O15F4
_chemical_formula_sum   'Fe12 Co4 P16 H16 O60 F16'
_cell_volume   1960.21338731
_cell_formula_units_Z   4
loop_
 _symmetry_equiv_pos_site_id
 _symmetry_equiv_pos_as_xyz
  1  'x, y, z'
loop_
 _atom_site_type_symbol
 _atom_site_label
 _atom_site_symmetry_multiplicity
 _atom_site_fract_x
 _atom_site_fract_y
 _atom_site_fract_z
 _atom_site_occupancy
 _atom_site_charge
  Fe  Fe1  1  0.180060  0.245420  0.127980  1.0  1.3119
  Fe  Fe2  1  0.692380  0.251050  0.308980  1.0  1.426
  Fe  Fe3  1  0.260610  0.999310  0.042430  1.0  1.224
  Fe  Fe4  1  0.819940  0.745420  0.372020  1.0  1.311
  Fe  Fe5  1  0.307620  0.751050  0.191020  1.0  1.424
  Fe  Fe6  1  0.739390  0.499310  0.457570  1.0  1.2267
  Fe  Fe7  1  0.819940  0.754580  0.872020  1.0  1.3117
  Fe  Fe8  1  0.307620  0.748950  0.691020  1.0  1.4229
  Fe  Fe9  1  0.739390  0.000690  0.957570  1.0  1.2268
  Fe  Fe10  1  0.180060  0.254580  0.627980  1.0  1.312
  Fe  Fe11  1  0.692380  0.248950  0.808980  1.0  1.4249
  Fe  Fe12  1  0.260610  0.500690  0.542430  1.0  1.2241
  Co  Co13  1  0.252340  0.499430  0.289190  1.0  1.0304
  Co  Co14  1  0.747660  0.999430  0.210810  1.0  1.0314
  Co  Co15  1  0.747660  0.500570  0.710810  1.0  1.0315
  Co  Co16  1  0.252340  0.000570  0.789190  1.0  1.0307
  P  P17  1  0.153110  0.295380  0.358310  1.0  1.5234
  P  P18  1  0.346740  0.791490  0.962130  1.0  1.5696
  P  P19  1  0.935610  0.162210  0.980990  1.0  1.5542
  P  P20  1  0.422550  0.198290  0.151850  1.0  1.6543
  P  P21  1  0.846890  0.795380  0.141690  1.0  1.5314
  P  P22  1  0.653260  0.291490  0.537870  1.0  1.5622
  P  P23  1  0.064390  0.662210  0.519010  1.0  1.5509
  P  P24  1  0.577450  0.698290  0.348150  1.0  1.6524
  P  P25  1  0.846890  0.704620  0.641690  1.0  1.5315
  P  P26  1  0.653260  0.208510  0.037870  1.0  1.5619
  P  P27  1  0.064390  0.837790  0.019010  1.0  1.5397
  P  P28  1  0.577450  0.801710  0.848150  1.0  1.6525
  P  P29  1  0.153110  0.204620  0.858310  1.0  1.5229
  P  P30  1  0.346740  0.708510  0.462130  1.0  1.5696
  P  P31  1  0.935610  0.337790  0.480990  1.0  1.5435
  P  P32  1  0.422550  0.301710  0.651850  1.0  1.6548
  H  H33  1  0.048000  0.308000  0.285000  1.0  0.3829
  H  H34  1  0.454000  0.781700  0.025000  1.0  0.359
  H  H35  1  0.990000  0.102000  0.941000  1.0  0.3568
  H  H36  1  0.408000  0.233000  0.049000  1.0  0.0494
  H  H37  1  0.952000  0.808000  0.215000  1.0  0.3816
  H  H38  1  0.546000  0.281700  0.475000  1.0  0.3582
  H  H39  1  0.010000  0.602000  0.559000  1.0  0.3543
  H  H40  1  0.592000  0.733000  0.451000  1.0  0.0467
  H  H41  1  0.952000  0.692000  0.715000  1.0  0.3817
  H  H42  1  0.546000  0.218300  0.975000  1.0  0.3598
  H  H43  1  0.010000  0.898000  0.059000  1.0  0.3542
  H  H44  1  0.592000  0.767000  0.951000  1.0  0.0464
  H  H45  1  0.048000  0.192000  0.785000  1.0  0.3833
  H  H46  1  0.454000  0.718300  0.525000  1.0  0.36
  H  H47  1  0.990000  0.398000  0.441000  1.0  0.3566
  H  H48  1  0.408000  0.267000  0.549000  1.0  0.0495
  O  O49  1  0.203000  0.230600  0.293700  1.0  -0.7147
  O  O50  1  0.159300  0.235800  0.464900  1.0  -0.7928
  O  O51  1  0.341700  0.252900  0.186900  1.0  -0.6997
  O  O52  1  0.019500  0.237300  0.073100  1.0  -0.7289
  O  O53  1  0.312500  0.732100  0.847800  1.0  -0.7623
  O  O54  1  0.536000  0.226400  0.241400  1.0  -0.7843
  O  O55  1  0.294000  0.737300  0.030800  1.0  -0.7158
  O  O56  1  0.854800  0.229200  0.877800  1.0  -0.7432
  O  O57  1  0.321000  0.909400  0.943300  1.0  -0.8262
  O  O58  1  0.882000  0.089600  0.035500  1.0  -0.7691
  O  O59  1  0.405700  0.080400  0.133000  1.0  -0.7026
  O  O60  1  0.203300  0.406100  0.388900  1.0  -0.7913
  O  O61  1  0.027000  0.306000  0.267000  1.0  -0.5047
  O  O62  1  0.469000  0.775000  0.025000  1.0  -0.5238
  O  O63  1  0.975000  0.103000  0.904000  1.0  -0.6176
  O  O64  1  0.797000  0.730600  0.206300  1.0  -0.7144
  O  O65  1  0.840700  0.735800  0.035100  1.0  -0.7932
  O  O66  1  0.658300  0.752900  0.313100  1.0  -0.7013
  O  O67  1  0.980500  0.737300  0.426900  1.0  -0.7291
  O  O68  1  0.687500  0.232100  0.652200  1.0  -0.7619
  O  O69  1  0.464000  0.726400  0.258600  1.0  -0.7837
  O  O70  1  0.706000  0.237300  0.469200  1.0  -0.7154
  O  O71  1  0.145200  0.729200  0.622200  1.0  -0.7446
  O  O72  1  0.679000  0.409400  0.556700  1.0  -0.8275
  O  O73  1  0.118000  0.589600  0.464500  1.0  -0.7688
  O  O74  1  0.594300  0.580400  0.367000  1.0  -0.7031
  O  O75  1  0.796700  0.906100  0.111100  1.0  -0.7917
  O  O76  1  0.973000  0.806000  0.233000  1.0  -0.5131
  O  O77  1  0.531000  0.275000  0.475000  1.0  -0.5273
  O  O78  1  0.025000  0.603000  0.596000  1.0  -0.6205
  O  O79  1  0.797000  0.769400  0.706300  1.0  -0.716
  O  O80  1  0.840700  0.764200  0.535100  1.0  -0.8011
  O  O81  1  0.658300  0.747100  0.813100  1.0  -0.7034
  O  O82  1  0.980500  0.762700  0.926900  1.0  -0.7279
  O  O83  1  0.687500  0.267900  0.152200  1.0  -0.7649
  O  O84  1  0.464000  0.773600  0.758600  1.0  -0.7836
  O  O85  1  0.706000  0.262700  0.969200  1.0  -0.7154
  O  O86  1  0.145200  0.770800  0.122200  1.0  -0.7441
  O  O87  1  0.679000  0.090600  0.056700  1.0  -0.8268
  O  O88  1  0.118000  0.910400  0.964500  1.0  -0.7688
  O  O89  1  0.594300  0.919600  0.867000  1.0  -0.7023
  O  O90  1  0.796700  0.593900  0.611100  1.0  -0.7913
  O  O91  1  0.973000  0.694000  0.733000  1.0  -0.5123
  O  O92  1  0.531000  0.225000  0.975000  1.0  -0.5243
  O  O93  1  0.025000  0.897000  0.096000  1.0  -0.6204
  O  O94  1  0.203000  0.269400  0.793700  1.0  -0.7153
  O  O95  1  0.159300  0.264200  0.964900  1.0  -0.7999
  O  O96  1  0.341700  0.247100  0.686900  1.0  -0.702
  O  O97  1  0.019500  0.262700  0.573100  1.0  -0.7281
  O  O98  1  0.312500  0.767900  0.347800  1.0  -0.7635
  O  O99  1  0.536000  0.273600  0.741400  1.0  -0.784
  O  O100  1  0.294000  0.762700  0.530800  1.0  -0.716
  O  O101  1  0.854800  0.270800  0.377800  1.0  -0.743
  O  O102  1  0.321000  0.590600  0.443300  1.0  -0.8255
  O  O103  1  0.882000  0.410400  0.535500  1.0  -0.769
  O  O104  1  0.405700  0.419600  0.633000  1.0  -0.7016
  O  O105  1  0.203300  0.093900  0.888900  1.0  -0.7921
  O  O106  1  0.027000  0.194000  0.767000  1.0  -0.5027
  O  O107  1  0.469000  0.725000  0.525000  1.0  -0.5216
  O  O108  1  0.975000  0.397000  0.404000  1.0  -0.617
  F  F109  1  0.189400  0.091200  0.125800  1.0  -0.4488
  F  F110  1  0.167000  0.402000  0.138900  1.0  -0.423
  F  F111  1  0.324900  0.902900  0.190600  1.0  -0.4313
  F  F112  1  0.275700  0.599600  0.181600  1.0  -0.4375
  F  F113  1  0.810600  0.591200  0.374200  1.0  -0.4507
  F  F114  1  0.833000  0.902000  0.361100  1.0  -0.4213
  F  F115  1  0.675100  0.402900  0.309400  1.0  -0.4354
  F  F116  1  0.724300  0.099600  0.318400  1.0  -0.4365
  F  F117  1  0.810600  0.908800  0.874200  1.0  -0.4502
  F  F118  1  0.833000  0.598000  0.861100  1.0  -0.4198
  F  F119  1  0.675100  0.097100  0.809400  1.0  -0.4371
  F  F120  1  0.724300  0.400400  0.818400  1.0  -0.4357
  F  F121  1  0.189400  0.408800  0.625800  1.0  -0.4489
  F  F122  1  0.167000  0.098000  0.638900  1.0  -0.4209
  F  F123  1  0.324900  0.597100  0.690600  1.0  -0.4342
  F  F124  1  0.275700  0.900400  0.681600  1.0  -0.4375
