# generated using pymatgen
data_AgH16C10(S2O)2
_symmetry_space_group_name_H-M   'P 1'
_cell_length_a   8.25800000
_cell_length_b   14.37100000
_cell_length_c   16.18900000
_cell_angle_alpha   90.00000000
_cell_angle_beta   90.00000000
_cell_angle_gamma   90.00000000
_symmetry_Int_Tables_number   1
_chemical_formula_structural   AgH16C10(S2O)2
_chemical_formula_sum   'Ag4 H64 C40 S16 O8'
_cell_volume   1921.24119870
_cell_formula_units_Z   4
loop_
 _symmetry_equiv_pos_site_id
 _symmetry_equiv_pos_as_xyz
  1  'x, y, z'
loop_
 _atom_site_type_symbol
 _atom_site_label
 _atom_site_symmetry_multiplicity
 _atom_site_fract_x
 _atom_site_fract_y
 _atom_site_fract_z
 _atom_site_occupancy
 _atom_site_charge
  Ag  Ag1  1  0.206580  0.086980  0.152240  1.0  0.2704
  Ag  Ag2  1  0.293420  0.913020  0.652240  1.0  0.2716
  Ag  Ag3  1  0.793420  0.586980  0.347760  1.0  0.2715
  Ag  Ag4  1  0.706580  0.413020  0.847760  1.0  0.2697
  H  H5  1  0.483000  0.284000  0.196000  1.0  0.1597
  H  H6  1  0.374000  0.373000  0.202000  1.0  0.1433
  H  H7  1  0.592000  0.330000  0.055000  1.0  0.1524
  H  H8  1  0.495000  0.424000  0.067000  1.0  0.1385
  H  H9  1  0.313000  0.492000  0.879000  1.0  0.1443
  H  H10  1  0.289000  0.489000  0.975000  1.0  0.1301
  H  H11  1  0.101000  0.372000  0.962000  1.0  0.1523
  H  H12  1  0.133000  0.365000  0.867000  1.0  0.1431
  H  H13  1  0.859000  0.589000  0.991000  1.0  0.1568
  H  H14  1  0.043000  0.573000  0.011000  1.0  0.1559
  H  H15  1  0.785000  0.571000  0.139000  1.0  0.1538
  H  H16  1  0.971000  0.563000  0.158000  1.0  0.1438
  H  H17  1  0.034000  0.388000  0.313000  1.0  0.152
  H  H18  1  0.110000  0.437000  0.236000  1.0  0.1413
  H  H19  1  0.037000  0.314000  0.153000  1.0  0.1483
  H  H20  1  0.949000  0.266000  0.227000  1.0  0.1516
  H  H21  1  0.017000  0.716000  0.696000  1.0  0.1589
  H  H22  1  0.126000  0.627000  0.702000  1.0  0.1444
  H  H23  1  0.908000  0.670000  0.555000  1.0  0.1528
  H  H24  1  0.005000  0.576000  0.567000  1.0  0.1392
  H  H25  1  0.187000  0.508000  0.379000  1.0  0.1449
  H  H26  1  0.211000  0.511000  0.475000  1.0  0.1313
  H  H27  1  0.399000  0.628000  0.462000  1.0  0.1528
  H  H28  1  0.367000  0.635000  0.367000  1.0  0.1435
  H  H29  1  0.641000  0.411000  0.491000  1.0  0.1571
  H  H30  1  0.457000  0.427000  0.511000  1.0  0.1561
  H  H31  1  0.715000  0.429000  0.639000  1.0  0.1535
  H  H32  1  0.529000  0.437000  0.658000  1.0  0.1444
  H  H33  1  0.466000  0.612000  0.813000  1.0  0.1516
  H  H34  1  0.390000  0.563000  0.736000  1.0  0.1404
  H  H35  1  0.463000  0.686000  0.653000  1.0  0.1485
  H  H36  1  0.551000  0.734000  0.727000  1.0  0.1506
  H  H37  1  0.517000  0.784000  0.304000  1.0  0.1593
  H  H38  1  0.626000  0.873000  0.298000  1.0  0.1443
  H  H39  1  0.408000  0.830000  0.445000  1.0  0.1516
  H  H40  1  0.505000  0.924000  0.433000  1.0  0.1382
  H  H41  1  0.687000  0.992000  0.621000  1.0  0.1449
  H  H42  1  0.711000  0.989000  0.525000  1.0  0.1299
  H  H43  1  0.899000  0.872000  0.538000  1.0  0.1515
  H  H44  1  0.867000  0.865000  0.633000  1.0  0.1441
  H  H45  1  0.141000  0.089000  0.509000  1.0  0.1568
  H  H46  1  0.957000  0.073000  0.489000  1.0  0.1561
  H  H47  1  0.215000  0.071000  0.361000  1.0  0.1544
  H  H48  1  0.029000  0.063000  0.342000  1.0  0.1436
  H  H49  1  0.966000  0.888000  0.187000  1.0  0.1514
  H  H50  1  0.890000  0.937000  0.264000  1.0  0.1407
  H  H51  1  0.963000  0.814000  0.347000  1.0  0.1493
  H  H52  1  0.051000  0.766000  0.273000  1.0  0.15
  H  H53  1  0.983000  0.216000  0.804000  1.0  0.1596
  H  H54  1  0.874000  0.127000  0.798000  1.0  0.1444
  H  H55  1  0.092000  0.170000  0.945000  1.0  0.1521
  H  H56  1  0.995000  0.076000  0.933000  1.0  0.1383
  H  H57  1  0.813000  0.008000  0.121000  1.0  0.1457
  H  H58  1  0.789000  0.011000  0.025000  1.0  0.1312
  H  H59  1  0.601000  0.128000  0.038000  1.0  0.1517
  H  H60  1  0.633000  0.135000  0.133000  1.0  0.1434
  H  H61  1  0.359000  0.911000  0.009000  1.0  0.1564
  H  H62  1  0.543000  0.927000  0.989000  1.0  0.1552
  H  H63  1  0.285000  0.929000  0.861000  1.0  0.153
  H  H64  1  0.471000  0.937000  0.842000  1.0  0.144
  H  H65  1  0.534000  0.112000  0.687000  1.0  0.1507
  H  H66  1  0.610000  0.063000  0.764000  1.0  0.141
  H  H67  1  0.537000  0.186000  0.847000  1.0  0.1484
  H  H68  1  0.449000  0.234000  0.773000  1.0  0.1502
  C  C69  1  0.378000  0.309100  0.184300  1.0  -0.2685
  C  C70  1  0.358000  0.308800  0.090200  1.0  0.23
  C  C71  1  0.489000  0.361900  0.045600  1.0  -0.213
  C  C72  1  0.292000  0.452300  0.925400  1.0  -0.2358
  C  C73  1  0.128000  0.405700  0.913500  1.0  -0.231
  C  C74  1  0.943000  0.543400  0.996100  1.0  -0.2611
  C  C75  1  0.898000  0.477200  0.066000  1.0  0.2334
  C  C76  1  0.874000  0.528200  0.146100  1.0  -0.2659
  C  C77  1  0.026000  0.397100  0.254700  1.0  -0.2296
  C  C78  1  0.041000  0.304200  0.212600  1.0  -0.3477
  C  C79  1  0.122000  0.690900  0.684300  1.0  -0.2678
  C  C80  1  0.142000  0.691200  0.590200  1.0  0.2339
  C  C81  1  0.011000  0.638100  0.545600  1.0  -0.2133
  C  C82  1  0.208000  0.547700  0.425400  1.0  -0.2341
  C  C83  1  0.372000  0.594300  0.413500  1.0  -0.2307
  C  C84  1  0.557000  0.456600  0.496100  1.0  -0.2605
  C  C85  1  0.602000  0.522800  0.566000  1.0  0.2337
  C  C86  1  0.626000  0.471800  0.646100  1.0  -0.2668
  C  C87  1  0.474000  0.602900  0.754700  1.0  -0.23
  C  C88  1  0.459000  0.695800  0.712600  1.0  -0.3467
  C  C89  1  0.622000  0.809100  0.315700  1.0  -0.2685
  C  C90  1  0.642000  0.808800  0.409800  1.0  0.2345
  C  C91  1  0.511000  0.861900  0.454400  1.0  -0.2168
  C  C92  1  0.708000  0.952300  0.574600  1.0  -0.233
  C  C93  1  0.872000  0.905700  0.586500  1.0  -0.2335
  C  C94  1  0.057000  0.043400  0.503900  1.0  -0.2622
  C  C95  1  0.102000  0.977200  0.434000  1.0  0.2343
  C  C96  1  0.126000  0.028200  0.353900  1.0  -0.2687
  C  C97  1  0.974000  0.897100  0.245300  1.0  -0.2295
  C  C98  1  0.959000  0.804200  0.287400  1.0  -0.3471
  C  C99  1  0.878000  0.190900  0.815700  1.0  -0.2677
  C  C100  1  0.858000  0.191200  0.909800  1.0  0.2295
  C  C101  1  0.989000  0.138100  0.954400  1.0  -0.217
  C  C102  1  0.792000  0.047700  0.074600  1.0  -0.2358
  C  C103  1  0.628000  0.094300  0.086500  1.0  -0.2308
  C  C104  1  0.443000  0.956600  0.003900  1.0  -0.2623
  C  C105  1  0.398000  0.022800  0.934000  1.0  0.2329
  C  C106  1  0.374000  0.971800  0.853900  1.0  -0.267
  C  C107  1  0.526000  0.102900  0.745300  1.0  -0.2293
  C  C108  1  0.541000  0.195800  0.787400  1.0  -0.3449
  S  S109  1  0.225300  0.242900  0.238100  1.0  -0.0313
  S  S110  1  0.455200  0.367000  0.934400  1.0  -0.0165
  S  S111  1  0.970500  0.491700  0.895200  1.0  -0.0266
  S  S112  1  0.831800  0.454600  0.234500  1.0  -0.0268
  S  S113  1  0.274700  0.757100  0.738100  1.0  -0.0334
  S  S114  1  0.044800  0.633000  0.434400  1.0  -0.0171
  S  S115  1  0.529500  0.508300  0.395200  1.0  -0.0253
  S  S116  1  0.668200  0.545400  0.734500  1.0  -0.0272
  S  S117  1  0.774700  0.742900  0.261900  1.0  -0.0339
  S  S118  1  0.544800  0.867000  0.565600  1.0  -0.0175
  S  S119  1  0.029500  0.991700  0.604800  1.0  -0.0262
  S  S120  1  0.168200  0.954600  0.265500  1.0  -0.0264
  S  S121  1  0.725300  0.257100  0.761900  1.0  -0.0359
  S  S122  1  0.955200  0.133000  0.065600  1.0  -0.0157
  S  S123  1  0.470500  0.008300  0.104800  1.0  -0.0285
  S  S124  1  0.331800  0.045400  0.765500  1.0  -0.0252
  O  O125  1  0.265000  0.261000  0.056600  1.0  -0.4788
  O  O126  1  0.367000  0.101200  0.944600  1.0  -0.4682
  O  O127  1  0.235000  0.739000  0.556600  1.0  -0.4782
  O  O128  1  0.133000  0.898800  0.444600  1.0  -0.4665
  O  O129  1  0.735000  0.761000  0.443400  1.0  -0.4786
  O  O130  1  0.633000  0.601200  0.555400  1.0  -0.4679
  O  O131  1  0.765000  0.239000  0.943400  1.0  -0.4789
  O  O132  1  0.867000  0.398800  0.055400  1.0  -0.4665
