# generated using pymatgen
data_Cu2H4C9O7
_symmetry_space_group_name_H-M   'P 1'
_cell_length_a   10.83040000
_cell_length_b   11.99850000
_cell_length_c   15.49600000
_cell_angle_alpha   90.00000000
_cell_angle_beta   95.22700000
_cell_angle_gamma   90.00000000
_symmetry_Int_Tables_number   1
_chemical_formula_structural   Cu2H4C9O7
_chemical_formula_sum   'Cu8 H16 C36 O28'
_cell_volume   2005.30905702
_cell_formula_units_Z   4
loop_
 _symmetry_equiv_pos_site_id
 _symmetry_equiv_pos_as_xyz
  1  'x, y, z'
loop_
 _atom_site_type_symbol
 _atom_site_label
 _atom_site_symmetry_multiplicity
 _atom_site_fract_x
 _atom_site_fract_y
 _atom_site_fract_z
 _atom_site_occupancy
 _atom_site_charge
  Cu  Cu1  1  0.023770  0.628820  0.658660  1.0  0.9386
  Cu  Cu2  1  0.523770  0.871180  0.158660  1.0  0.9366
  Cu  Cu3  1  0.363700  0.003790  0.005840  1.0  0.9783
  Cu  Cu4  1  0.976230  0.371180  0.341340  1.0  0.9392
  Cu  Cu5  1  0.476230  0.128820  0.841340  1.0  0.9371
  Cu  Cu6  1  0.636300  0.996210  0.994160  1.0  0.9778
  Cu  Cu7  1  0.863700  0.496210  0.505840  1.0  0.978
  Cu  Cu8  1  0.136300  0.503790  0.494160  1.0  0.9778
  H  H9  1  0.511600  0.588900  0.578600  1.0  0.1141
  H  H10  1  0.996800  0.672300  0.499500  1.0  0.4313
  H  H11  1  0.011600  0.911100  0.078600  1.0  0.1141
  H  H12  1  0.988400  0.088900  0.921400  1.0  0.1143
  H  H13  1  0.349000  0.780300  0.750800  1.0  0.1186
  H  H14  1  0.279800  0.211400  0.255900  1.0  0.1185
  H  H15  1  0.220200  0.711400  0.244100  1.0  0.1178
  H  H16  1  0.003200  0.327700  0.500500  1.0  0.4303
  H  H17  1  0.720200  0.788600  0.744100  1.0  0.1179
  H  H18  1  0.503200  0.172300  0.000500  1.0  0.4306
  H  H19  1  0.496800  0.827700  0.999500  1.0  0.4301
  H  H20  1  0.779800  0.288600  0.755900  1.0  0.1188
  H  H21  1  0.151000  0.280300  0.749200  1.0  0.1186
  H  H22  1  0.651000  0.219700  0.249200  1.0  0.1184
  H  H23  1  0.849000  0.719700  0.250800  1.0  0.1187
  H  H24  1  0.488400  0.411100  0.421400  1.0  0.1141
  C  C25  1  0.750200  0.640400  0.620200  1.0  0.721
  C  C26  1  0.410900  0.676700  0.660280  1.0  -0.1635
  C  C27  1  0.365600  0.318300  0.344000  1.0  -0.1755
  C  C28  1  0.250200  0.859600  0.120200  1.0  0.7215
  C  C29  1  0.358600  0.239600  0.277400  1.0  0.0169
  C  C30  1  0.858600  0.260400  0.777400  1.0  0.017
  C  C31  1  0.957100  0.388900  0.673600  1.0  0.7091
  C  C32  1  0.982000  0.141300  0.875200  1.0  0.0355
  C  C33  1  0.578300  0.244500  0.273400  1.0  0.0154
  C  C34  1  0.542900  0.888900  0.826400  1.0  0.7244
  C  C35  1  0.921700  0.744500  0.226600  1.0  0.0144
  C  C36  1  0.963900  0.298600  0.741600  1.0  -0.1356
  C  C37  1  0.463900  0.201400  0.241600  1.0  -0.1358
  C  C38  1  0.634400  0.681700  0.656000  1.0  -0.1751
  C  C39  1  0.284900  0.634500  0.626220  1.0  0.7589
  C  C40  1  0.715100  0.365500  0.373780  1.0  0.7579
  C  C41  1  0.089100  0.176700  0.839720  1.0  -0.1632
  C  C42  1  0.641400  0.760400  0.722600  1.0  0.0175
  C  C43  1  0.215100  0.134500  0.873780  1.0  0.7577
  C  C44  1  0.134400  0.818300  0.156000  1.0  -0.1752
  C  C45  1  0.078300  0.255500  0.773400  1.0  0.0154
  C  C46  1  0.141400  0.739600  0.222600  1.0  0.0173
  C  C47  1  0.749800  0.140400  0.879800  1.0  0.7227
  C  C48  1  0.482000  0.358700  0.375200  1.0  0.0352
  C  C49  1  0.518000  0.641300  0.624800  1.0  0.0353
  C  C50  1  0.018000  0.858700  0.124800  1.0  0.0352
  C  C51  1  0.042900  0.611100  0.326400  1.0  0.724
  C  C52  1  0.784900  0.865500  0.126220  1.0  0.7591
  C  C53  1  0.536100  0.798600  0.758400  1.0  -0.1359
  C  C54  1  0.910900  0.823300  0.160280  1.0  -0.1634
  C  C55  1  0.457100  0.111100  0.173600  1.0  0.7092
  C  C56  1  0.589100  0.323300  0.339720  1.0  -0.1632
  C  C57  1  0.865600  0.181700  0.844000  1.0  -0.1754
  C  C58  1  0.036100  0.701400  0.258400  1.0  -0.1359
  C  C59  1  0.421700  0.755500  0.726600  1.0  0.0146
  C  C60  1  0.249800  0.359600  0.379800  1.0  0.7218
  O  O61  1  0.449300  0.951000  0.825840  1.0  -0.5997
  O  O62  1  0.651570  0.153400  0.831220  1.0  -0.6387
  O  O63  1  0.304100  0.171300  0.836120  1.0  -0.621
  O  O64  1  0.859760  0.397110  0.623870  1.0  -0.5744
  O  O65  1  0.804100  0.328700  0.336120  1.0  -0.6196
  O  O66  1  0.738720  0.596340  0.546420  1.0  -0.565
  O  O67  1  0.348430  0.846600  0.168780  1.0  -0.6387
  O  O68  1  0.493800  0.101720  0.966250  1.0  -0.9116
  O  O69  1  0.238720  0.903660  0.046420  1.0  -0.5651
  O  O70  1  0.993800  0.398280  0.466250  1.0  -0.9114
  O  O71  1  0.195900  0.671300  0.663880  1.0  -0.6208
  O  O72  1  0.640240  0.897110  0.876130  1.0  -0.5757
  O  O73  1  0.279900  0.569700  0.563030  1.0  -0.577
  O  O74  1  0.949300  0.549000  0.325840  1.0  -0.5996
  O  O75  1  0.261280  0.403660  0.453580  1.0  -0.5646
  O  O76  1  0.151570  0.346600  0.331220  1.0  -0.6392
  O  O77  1  0.550700  0.049000  0.174160  1.0  -0.5984
  O  O78  1  0.720100  0.430300  0.436970  1.0  -0.5777
  O  O79  1  0.848430  0.653400  0.668780  1.0  -0.6378
  O  O80  1  0.761280  0.096340  0.953580  1.0  -0.5646
  O  O81  1  0.779900  0.930300  0.063030  1.0  -0.5777
  O  O82  1  0.359760  0.102890  0.123870  1.0  -0.5747
  O  O83  1  0.220100  0.069700  0.936970  1.0  -0.5776
  O  O84  1  0.006200  0.601720  0.533750  1.0  -0.9117
  O  O85  1  0.695900  0.828700  0.163880  1.0  -0.6209
  O  O86  1  0.140240  0.602890  0.376130  1.0  -0.5759
  O  O87  1  0.506200  0.898280  0.033750  1.0  -0.9114
  O  O88  1  0.050700  0.451000  0.674160  1.0  -0.5984
