# generated using pymatgen
data_Co5H36C60(N2O9)2
_symmetry_space_group_name_H-M   'P 1'
_cell_length_a   16.24450000
_cell_length_b   16.48050000
_cell_length_c   25.73720000
_cell_angle_alpha   90.00000000
_cell_angle_beta   90.00000000
_cell_angle_gamma   90.00000000
_symmetry_Int_Tables_number   1
_chemical_formula_structural   Co5H36C60(N2O9)2
_chemical_formula_sum   'Co20 H144 C240 N16 O72'
_cell_volume   6890.29838416
_cell_formula_units_Z   4
loop_
 _symmetry_equiv_pos_site_id
 _symmetry_equiv_pos_as_xyz
  1  'x, y, z'
loop_
 _atom_site_type_symbol
 _atom_site_label
 _atom_site_symmetry_multiplicity
 _atom_site_fract_x
 _atom_site_fract_y
 _atom_site_fract_z
 _atom_site_occupancy
 _atom_site_charge
  Co  Co1  1  0.076690  0.014690  0.108990  1.0  0.9972
  Co  Co2  1  0.638700  0.557950  0.075540  1.0  0.9403
  Co  Co3  1  0.923310  0.985310  0.891010  1.0  1.0006
  Co  Co4  1  0.361300  0.057950  0.424460  1.0  0.9406
  Co  Co5  1  0.361300  0.442050  0.924460  1.0  0.9425
  Co  Co6  1  0.423310  0.985310  0.608990  1.0  0.9975
  Co  Co7  1  0.638700  0.942050  0.575540  1.0  0.9412
  Co  Co8  1  0.076690  0.485310  0.608990  1.0  0.9968
  Co  Co9  1  0.861300  0.442050  0.575540  1.0  0.9407
  Co  Co10  1  0.576690  0.485310  0.891010  1.0  0.9978
  Co  Co11  1  0.576690  0.014690  0.391010  1.0  0.9987
  Co  Co12  1  0.423310  0.514690  0.108990  1.0  0.9975
  Co  Co13  1  0.138700  0.942050  0.924460  1.0  0.9427
  Co  Co14  1  0.923310  0.514690  0.391010  1.0  1.0012
  Co  Co15  1  0.000000  0.000000  0.000000  1.0  0.9275
  Co  Co16  1  0.861300  0.057950  0.075540  1.0  0.9397
  Co  Co17  1  0.500000  0.500000  0.000000  1.0  0.9281
  Co  Co18  1  0.000000  0.500000  0.500000  1.0  0.9275
  Co  Co19  1  0.138700  0.557950  0.424460  1.0  0.9407
  Co  Co20  1  0.500000  0.000000  0.500000  1.0  0.9281
  H  H21  1  0.990000  0.690900  0.914800  1.0  0.1118
  H  H22  1  0.542000  0.221600  0.083900  1.0  0.1357
  H  H23  1  0.793600  0.677300  0.248600  1.0  0.1142
  H  H24  1  0.561100  0.194100  0.451700  1.0  0.1017
  H  H25  1  0.094500  0.420100  0.099800  1.0  0.1234
  H  H26  1  0.412300  0.765000  0.688800  1.0  0.1068
  H  H27  1  0.814700  0.348600  0.694300  1.0  0.1104
  H  H28  1  0.840600  0.164300  0.830200  1.0  0.1086
  H  H29  1  0.900000  0.824500  0.242300  1.0  0.1165
  H  H30  1  0.979200  0.394500  0.965000  1.0  0.0838
  H  H31  1  0.316300  0.965400  0.958400  1.0  0.0872
  H  H32  1  0.490000  0.690900  0.585200  1.0  0.1119
  H  H33  1  0.542000  0.278400  0.583900  1.0  0.136
  H  H34  1  0.046300  0.433100  0.418600  1.0  0.3047
  H  H35  1  0.216700  0.780200  0.889300  1.0  0.0966
  H  H36  1  0.520800  0.894500  0.965000  1.0  0.082
  H  H37  1  0.341900  0.783000  0.382400  1.0  0.1286
  H  H38  1  0.771900  0.917100  0.424700  1.0  0.1116
  H  H39  1  0.094500  0.079900  0.599800  1.0  0.1224
  H  H40  1  0.719600  0.269700  0.316400  1.0  0.103
  H  H41  1  0.479200  0.394500  0.535000  1.0  0.083
  H  H42  1  0.706400  0.177300  0.248600  1.0  0.1149
  H  H43  1  0.546300  0.066900  0.581400  1.0  0.3049
  H  H44  1  0.293600  0.677300  0.251400  1.0  0.1139
  H  H45  1  0.601400  0.769000  0.006800  1.0  0.106
  H  H46  1  0.405500  0.579900  0.599800  1.0  0.1217
  H  H47  1  0.953700  0.933100  0.081400  1.0  0.3062
  H  H48  1  0.206400  0.177300  0.251400  1.0  0.1139
  H  H49  1  0.912300  0.765000  0.811200  1.0  0.1069
  H  H50  1  0.510000  0.190900  0.914800  1.0  0.113
  H  H51  1  0.600000  0.175500  0.742300  1.0  0.1161
  H  H52  1  0.490000  0.809100  0.085200  1.0  0.1117
  H  H53  1  0.898600  0.231000  0.506800  1.0  0.1051
  H  H54  1  0.271900  0.917100  0.075300  1.0  0.1115
  H  H55  1  0.681700  0.884300  0.015200  1.0  0.096
  H  H56  1  0.314700  0.348600  0.805700  1.0  0.1108
  H  H57  1  0.587700  0.265000  0.811200  1.0  0.1071
  H  H58  1  0.280400  0.769700  0.183600  1.0  0.1044
  H  H59  1  0.979200  0.105500  0.465000  1.0  0.0827
  H  H60  1  0.458000  0.721600  0.416100  1.0  0.1367
  H  H61  1  0.771900  0.582900  0.924700  1.0  0.1115
  H  H62  1  0.271900  0.582900  0.575300  1.0  0.1116
  H  H63  1  0.793600  0.822700  0.748600  1.0  0.1136
  H  H64  1  0.042000  0.278400  0.916100  1.0  0.1365
  H  H65  1  0.181700  0.615700  0.984800  1.0  0.0959
  H  H66  1  0.814700  0.151400  0.194300  1.0  0.1112
  H  H67  1  0.958000  0.778400  0.583900  1.0  0.1361
  H  H68  1  0.185300  0.651400  0.305700  1.0  0.1109
  H  H69  1  0.101400  0.769000  0.493200  1.0  0.1059
  H  H70  1  0.046300  0.066900  0.918600  1.0  0.3042
  H  H71  1  0.158100  0.283000  0.382400  1.0  0.1278
  H  H72  1  0.398600  0.231000  0.993200  1.0  0.1052
  H  H73  1  0.594500  0.420100  0.400200  1.0  0.1241
  H  H74  1  0.340600  0.164300  0.669800  1.0  0.1095
  H  H75  1  0.841900  0.783000  0.117600  1.0  0.1281
  H  H76  1  0.185300  0.848600  0.805700  1.0  0.1098
  H  H77  1  0.341900  0.717000  0.882400  1.0  0.1293
  H  H78  1  0.216700  0.719800  0.389300  1.0  0.0971
  H  H79  1  0.398600  0.269000  0.493200  1.0  0.1056
  H  H80  1  0.438900  0.694100  0.048300  1.0  0.1029
  H  H81  1  0.600000  0.324500  0.242300  1.0  0.1162
  H  H82  1  0.405500  0.920100  0.099800  1.0  0.1226
  H  H83  1  0.685300  0.848600  0.694300  1.0  0.11
  H  H84  1  0.594500  0.079900  0.900200  1.0  0.1248
  H  H85  1  0.818300  0.115700  0.515200  1.0  0.0961
  H  H86  1  0.479200  0.105500  0.035000  1.0  0.0829
  H  H87  1  0.453700  0.566900  0.918600  1.0  0.3043
  H  H88  1  0.206400  0.322700  0.751400  1.0  0.1138
  H  H89  1  0.659400  0.664300  0.830200  1.0  0.1086
  H  H90  1  0.561100  0.305900  0.951700  1.0  0.1024
  H  H91  1  0.587700  0.235000  0.311200  1.0  0.1074
  H  H92  1  0.219600  0.230300  0.683600  1.0  0.1046
  H  H93  1  0.683700  0.465400  0.541600  1.0  0.0867
  H  H94  1  0.087700  0.235000  0.188800  1.0  0.107
  H  H95  1  0.510000  0.309100  0.414800  1.0  0.1132
  H  H96  1  0.293600  0.822700  0.751400  1.0  0.1133
  H  H97  1  0.685300  0.651400  0.194300  1.0  0.1114
  H  H98  1  0.183700  0.034600  0.458400  1.0  0.087
  H  H99  1  0.412300  0.735000  0.188800  1.0  0.1069
  H  H100  1  0.159400  0.835700  0.169800  1.0  0.1103
  H  H101  1  0.900000  0.675500  0.742300  1.0  0.1164
  H  H102  1  0.818300  0.384300  0.015200  1.0  0.0957
  H  H103  1  0.400000  0.675500  0.757700  1.0  0.1169
  H  H104  1  0.100000  0.175500  0.757700  1.0  0.1165
  H  H105  1  0.318300  0.115700  0.984800  1.0  0.0959
  H  H106  1  0.841900  0.717000  0.617600  1.0  0.1289
  H  H107  1  0.905500  0.920100  0.400200  1.0  0.1241
  H  H108  1  0.546300  0.433100  0.081400  1.0  0.3059
  H  H109  1  0.042000  0.221600  0.416100  1.0  0.136
  H  H110  1  0.898600  0.269000  0.006800  1.0  0.1055
  H  H111  1  0.020800  0.605500  0.035000  1.0  0.0822
  H  H112  1  0.340600  0.335700  0.169800  1.0  0.1102
  H  H113  1  0.061100  0.194100  0.048300  1.0  0.1016
  H  H114  1  0.601400  0.731000  0.506800  1.0  0.1057
  H  H115  1  0.816300  0.534600  0.041600  1.0  0.0868
  H  H116  1  0.658100  0.283000  0.117600  1.0  0.1281
  H  H117  1  0.840600  0.335700  0.330200  1.0  0.1084
  H  H118  1  0.905500  0.579900  0.900200  1.0  0.1234
  H  H119  1  0.716700  0.780200  0.610700  1.0  0.0967
  H  H120  1  0.228100  0.082900  0.575300  1.0  0.1114
  H  H121  1  0.816300  0.965400  0.541600  1.0  0.0868
  H  H122  1  0.958000  0.721600  0.083900  1.0  0.1362
  H  H123  1  0.458000  0.778400  0.916100  1.0  0.1367
  H  H124  1  0.283300  0.280200  0.889300  1.0  0.0962
  H  H125  1  0.719600  0.230300  0.816400  1.0  0.103
  H  H126  1  0.520800  0.605500  0.465000  1.0  0.0822
  H  H127  1  0.683700  0.034600  0.041600  1.0  0.0869
  H  H128  1  0.283300  0.219800  0.389300  1.0  0.0966
  H  H129  1  0.658100  0.217000  0.617600  1.0  0.1278
  H  H130  1  0.706400  0.322700  0.748600  1.0  0.1138
  H  H131  1  0.938900  0.805900  0.951700  1.0  0.1026
  H  H132  1  0.681700  0.615700  0.515200  1.0  0.0963
  H  H133  1  0.280400  0.730300  0.683600  1.0  0.1051
  H  H134  1  0.780400  0.769700  0.316400  1.0  0.1028
  H  H135  1  0.453700  0.933100  0.418600  1.0  0.3048
  H  H136  1  0.010000  0.309100  0.085200  1.0  0.1126
  H  H137  1  0.158100  0.217000  0.882400  1.0  0.1276
  H  H138  1  0.183700  0.465400  0.958400  1.0  0.0872
  H  H139  1  0.314700  0.151400  0.305700  1.0  0.1109
  H  H140  1  0.318300  0.384300  0.484800  1.0  0.096
  H  H141  1  0.010000  0.190900  0.585200  1.0  0.1126
  H  H142  1  0.728100  0.082900  0.924700  1.0  0.1113
  H  H143  1  0.783300  0.280200  0.610700  1.0  0.0966
  H  H144  1  0.783300  0.219800  0.110700  1.0  0.0968
  H  H145  1  0.659400  0.835700  0.330200  1.0  0.1084
  H  H146  1  0.728100  0.417100  0.424700  1.0  0.1111
  H  H147  1  0.780400  0.730300  0.816400  1.0  0.1035
  H  H148  1  0.953700  0.566900  0.581400  1.0  0.305
  H  H149  1  0.061100  0.305900  0.548300  1.0  0.1031
  H  H150  1  0.228100  0.417100  0.075300  1.0  0.1113
  H  H151  1  0.938900  0.694100  0.451700  1.0  0.1029
  H  H152  1  0.020800  0.894500  0.535000  1.0  0.082
  H  H153  1  0.316300  0.534600  0.458400  1.0  0.0869
  H  H154  1  0.438900  0.805900  0.548300  1.0  0.1034
  H  H155  1  0.716700  0.719800  0.110700  1.0  0.097
  H  H156  1  0.159400  0.664300  0.669800  1.0  0.1102
  H  H157  1  0.990000  0.809100  0.414800  1.0  0.1119
  H  H158  1  0.912300  0.735000  0.311200  1.0  0.1072
  H  H159  1  0.087700  0.265000  0.688800  1.0  0.1067
  H  H160  1  0.219600  0.269700  0.183600  1.0  0.1047
  H  H161  1  0.100000  0.324500  0.257700  1.0  0.1165
  H  H162  1  0.400000  0.824500  0.257700  1.0  0.1167
  H  H163  1  0.101400  0.731000  0.993200  1.0  0.1057
  H  H164  1  0.181700  0.884300  0.484800  1.0  0.0961
  C  C165  1  0.763100  0.806200  0.597600  1.0  0.1653
  C  C166  1  0.264200  0.259700  0.205300  1.0  -0.0914
  C  C167  1  0.235800  0.740300  0.705300  1.0  -0.091
  C  C168  1  0.795600  0.338000  0.000310  1.0  -0.0325
  C  C169  1  0.661800  0.232600  0.101600  1.0  -0.1029
  C  C170  1  0.469500  0.919500  0.966000  1.0  0.1623
  C  C171  1  0.304500  0.871500  0.069990  1.0  -0.0844
  C  C172  1  0.467900  0.289100  0.803260  1.0  -0.1553
  C  C173  1  0.934700  0.693200  0.924260  1.0  -0.0737
  C  C174  1  0.951100  0.698300  0.749810  1.0  -0.0994
  C  C175  1  0.905300  0.215300  0.769950  1.0  0.053
  C  C176  1  0.820100  0.768000  0.960960  1.0  0.0453
  C  C177  1  0.934700  0.806800  0.424260  1.0  -0.0741
  C  C178  1  0.505200  0.884400  0.322200  1.0  0.7203
  C  C179  1  0.065300  0.193200  0.575740  1.0  -0.0708
  C  C180  1  0.467900  0.210900  0.303260  1.0  -0.1548
  C  C181  1  0.969500  0.919500  0.534000  1.0  0.1618
  C  C182  1  0.951100  0.801700  0.249810  1.0  -0.0991
  C  C183  1  0.397200  0.272200  0.771870  1.0  0.0463
  C  C184  1  0.404000  0.738100  0.053760  1.0  -0.1055
  C  C185  1  0.541500  0.247000  0.291290  1.0  -0.0911
  C  C186  1  0.155100  0.731500  0.005520  1.0  -0.0732
  C  C187  1  0.679900  0.232000  0.460960  1.0  0.0445
  C  C188  1  0.165800  0.415800  0.503800  1.0  0.716
  C  C189  1  0.338200  0.732600  0.398400  1.0  -0.1104
  C  C190  1  0.531500  0.652000  0.151560  1.0  0.7021
  C  C191  1  0.593000  0.303800  0.581800  1.0  -0.0035
  C  C192  1  0.678700  0.085600  0.056810  1.0  0.2045
  C  C193  1  0.321300  0.585600  0.443190  1.0  0.2041
  C  C194  1  0.005200  0.615600  0.677800  1.0  0.7194
  C  C195  1  0.743800  0.703900  0.253700  1.0  -0.1046
  C  C196  1  0.344900  0.268500  0.505520  1.0  -0.0755
  C  C197  1  0.231400  0.301300  0.047130  1.0  0.0362
  C  C198  1  0.264200  0.240300  0.705300  1.0  -0.0907
  C  C199  1  0.763100  0.693800  0.097600  1.0  0.1651
  C  C200  1  0.338200  0.767400  0.898400  1.0  -0.1128
  C  C201  1  0.897200  0.227800  0.228130  1.0  0.0459
  C  C202  1  0.284900  0.839500  0.515400  1.0  -0.1228
  C  C203  1  0.836100  0.201000  0.802870  1.0  -0.1202
  C  C204  1  0.468500  0.348000  0.848440  1.0  0.7012
  C  C205  1  0.469500  0.580500  0.466000  1.0  0.1642
  C  C206  1  0.399400  0.879100  0.941680  1.0  -0.013
  C  C207  1  0.834200  0.584200  0.496200  1.0  0.7162
  C  C208  1  0.451100  0.801700  0.250190  1.0  -0.1014
  C  C209  1  0.093000  0.196200  0.418200  1.0  -0.0028
  C  C210  1  0.295600  0.338000  0.499690  1.0  -0.0324
  C  C211  1  0.102800  0.772200  0.771870  1.0  0.0464
  C  C212  1  0.655100  0.731500  0.494480  1.0  -0.0741
  C  C213  1  0.295600  0.162000  0.999690  1.0  -0.032
  C  C214  1  0.815100  0.199800  0.970900  1.0  -0.0966
  C  C215  1  0.041500  0.253000  0.708710  1.0  -0.0914
  C  C216  1  0.384200  0.873700  0.084200  1.0  -0.1154
  C  C217  1  0.870900  0.372700  0.464310  1.0  0.7059
  C  C218  1  0.695500  0.371500  0.430010  1.0  -0.0859
  C  C219  1  0.321300  0.914400  0.943190  1.0  0.2015
  C  C220  1  0.048900  0.198300  0.750190  1.0  -0.1015
  C  C221  1  0.235800  0.759700  0.205300  1.0  -0.0926
  C  C222  1  0.815100  0.300200  0.470900  1.0  -0.0952
  C  C223  1  0.679000  0.811600  0.721290  1.0  -0.1074
  C  C224  1  0.434700  0.693200  0.575740  1.0  -0.0742
  C  C225  1  0.032100  0.789100  0.803260  1.0  -0.156
  C  C226  1  0.204400  0.662000  0.999690  1.0  -0.0318
  C  C227  1  0.336100  0.299000  0.197130  1.0  -0.1188
  C  C228  1  0.905300  0.284700  0.269950  1.0  0.0545
  C  C229  1  0.321000  0.311600  0.778710  1.0  -0.1091
  C  C230  1  0.907000  0.696200  0.081800  1.0  -0.0026
  C  C231  1  0.532100  0.710900  0.196740  1.0  -0.1542
  C  C232  1  0.370900  0.372700  0.035690  1.0  0.7059
  C  C233  1  0.531500  0.848000  0.651560  1.0  0.702
  C  C234  1  0.731400  0.198700  0.952870  1.0  0.0344
  C  C235  1  0.215100  0.339500  0.515400  1.0  -0.1229
  C  C236  1  0.315100  0.300200  0.029100  1.0  -0.0937
  C  C237  1  0.494800  0.384400  0.177800  1.0  0.7196
  C  C238  1  0.100600  0.120900  0.441680  1.0  -0.0143
  C  C239  1  0.899400  0.879100  0.558320  1.0  -0.0134
  C  C240  1  0.655100  0.768500  0.994480  1.0  -0.0739
  C  C241  1  0.195500  0.128500  0.569990  1.0  -0.0822
  C  C242  1  0.704400  0.838000  0.000310  1.0  -0.0322
  C  C243  1  0.178700  0.414400  0.943190  1.0  0.2046
  C  C244  1  0.904000  0.761900  0.946240  1.0  -0.1005
  C  C245  1  0.517600  0.822000  0.279670  1.0  -0.1461
  C  C246  1  0.256200  0.203900  0.246300  1.0  -0.1048
  C  C247  1  0.615800  0.126300  0.915800  1.0  -0.1156
  C  C248  1  0.764200  0.240300  0.794700  1.0  -0.0915
  C  C249  1  0.663900  0.701000  0.802870  1.0  -0.1207
  C  C250  1  0.836100  0.299000  0.302870  1.0  -0.1232
  C  C251  1  0.458500  0.753000  0.708710  1.0  -0.0905
  C  C252  1  0.451100  0.698300  0.750190  1.0  -0.0993
  C  C253  1  0.907000  0.803800  0.581800  1.0  -0.0028
  C  C254  1  0.041500  0.247000  0.208710  1.0  -0.0914
  C  C255  1  0.184900  0.699800  0.529100  1.0  -0.0945
  C  C256  1  0.768600  0.698700  0.952870  1.0  0.0338
  C  C257  1  0.195500  0.371500  0.069990  1.0  -0.0839
  C  C258  1  0.093000  0.303800  0.918200  1.0  -0.0045
  C  C259  1  0.399400  0.620900  0.441680  1.0  -0.0151
  C  C260  1  0.468500  0.152000  0.348440  1.0  0.7019
  C  C261  1  0.600600  0.379100  0.558320  1.0  -0.0133
  C  C262  1  0.795600  0.162000  0.500310  1.0  -0.0317
  C  C263  1  0.096000  0.261900  0.553760  1.0  -0.1005
  C  C264  1  0.407000  0.803800  0.918200  1.0  -0.0037
  C  C265  1  0.236900  0.306200  0.902400  1.0  0.1647
  C  C266  1  0.184900  0.800200  0.029100  1.0  -0.0935
  C  C267  1  0.115800  0.126300  0.584200  1.0  -0.1135
  C  C268  1  0.268600  0.801300  0.047130  1.0  0.0336
  C  C269  1  0.820100  0.732000  0.460960  1.0  0.0438
  C  C270  1  0.821300  0.585600  0.056810  1.0  0.2051
  C  C271  1  0.968500  0.152000  0.151560  1.0  0.7019
  C  C272  1  0.397200  0.227800  0.271870  1.0  0.0461
  C  C273  1  0.967900  0.289100  0.696740  1.0  -0.1541
  C  C274  1  0.405300  0.284700  0.230050  1.0  0.0546
  C  C275  1  0.517600  0.678000  0.779670  1.0  -0.146
  C  C276  1  0.031500  0.652000  0.348440  1.0  0.7021
  C  C277  1  0.530500  0.080500  0.034000  1.0  0.1649
  C  C278  1  0.715100  0.339500  0.984600  1.0  -0.1231
  C  C279  1  0.482400  0.178000  0.720330  1.0  -0.1455
  C  C280  1  0.756200  0.296100  0.753700  1.0  -0.1059
  C  C281  1  0.334200  0.584200  0.003800  1.0  0.7159
  C  C282  1  0.179900  0.232000  0.039040  1.0  0.045
  C  C283  1  0.897200  0.272200  0.728130  1.0  0.046
  C  C284  1  0.129100  0.627300  0.535690  1.0  0.7066
  C  C285  1  0.629100  0.872700  0.464310  1.0  0.7067
  C  C286  1  0.684900  0.800200  0.470900  1.0  -0.095
  C  C287  1  0.596000  0.261900  0.946240  1.0  -0.1
  C  C288  1  0.094700  0.715300  0.730050  1.0  0.0539
  C  C289  1  0.030500  0.419500  0.966000  1.0  0.1639
  C  C290  1  0.370900  0.127300  0.535690  1.0  0.7057
  C  C291  1  0.263100  0.806200  0.902400  1.0  0.165
  C  C292  1  0.102800  0.727800  0.271870  1.0  0.046
  C  C293  1  0.434700  0.806800  0.075740  1.0  -0.0744
  C  C294  1  0.032100  0.710900  0.303260  1.0  -0.1548
  C  C295  1  0.320100  0.768000  0.539040  1.0  0.0457
  C  C296  1  0.178700  0.085600  0.443190  1.0  0.2042
  C  C297  1  0.163900  0.701000  0.697130  1.0  -0.1192
  C  C298  1  0.179000  0.688400  0.278710  1.0  -0.1067
  C  C299  1  0.838200  0.767400  0.601600  1.0  -0.1069
  C  C300  1  0.665800  0.415800  0.996200  1.0  0.7162
  C  C301  1  0.482400  0.322000  0.220330  1.0  -0.1452
  C  C302  1  0.629100  0.627300  0.964310  1.0  0.7066
  C  C303  1  0.844900  0.268500  0.994480  1.0  -0.0758
  C  C304  1  0.736900  0.193800  0.097600  1.0  0.1646
  C  C305  1  0.756200  0.203900  0.253700  1.0  -0.1069
  C  C306  1  0.884200  0.873700  0.415800  1.0  -0.1153
  C  C307  1  0.969500  0.580500  0.034000  1.0  0.1635
  C  C308  1  0.284900  0.660500  0.015400  1.0  -0.1229
  C  C309  1  0.548900  0.301700  0.249810  1.0  -0.1033
  C  C310  1  0.695500  0.128500  0.930010  1.0  -0.0839
  C  C311  1  0.704400  0.662000  0.500310  1.0  -0.0316
  C  C312  1  0.243800  0.796100  0.746300  1.0  -0.1051
  C  C313  1  0.030500  0.080500  0.466000  1.0  0.1649
  C  C314  1  0.844900  0.231500  0.494480  1.0  -0.0748
  C  C315  1  0.764200  0.259700  0.294700  1.0  -0.0904
  C  C316  1  0.768600  0.801300  0.452870  1.0  0.0317
  C  C317  1  0.602800  0.772200  0.728130  1.0  0.0494
  C  C318  1  0.736900  0.306200  0.597600  1.0  0.1646
  C  C319  1  0.821300  0.914400  0.556810  1.0  0.204
  C  C320  1  0.548900  0.198300  0.749810  1.0  -0.1019
  C  C321  1  0.684900  0.699800  0.970900  1.0  -0.0965
  C  C322  1  0.096000  0.238100  0.053760  1.0  -0.1004
  C  C323  1  0.565300  0.306800  0.424260  1.0  -0.072
  C  C324  1  0.982400  0.178000  0.779670  1.0  -0.1455
  C  C325  1  0.065300  0.306800  0.075740  1.0  -0.0717
  C  C326  1  0.821000  0.311600  0.721290  1.0  -0.1059
  C  C327  1  0.204400  0.838000  0.499690  1.0  -0.032
  C  C328  1  0.593000  0.196200  0.081800  1.0  -0.0033
  C  C329  1  0.967900  0.210900  0.196740  1.0  -0.1543
  C  C330  1  0.784900  0.660500  0.484600  1.0  -0.1231
  C  C331  1  0.304500  0.628500  0.569990  1.0  -0.0826
  C  C332  1  0.602800  0.727800  0.228130  1.0  0.0499
  C  C333  1  0.163900  0.799000  0.197130  1.0  -0.1188
  C  C334  1  0.315100  0.199800  0.529100  1.0  -0.0947
  C  C335  1  0.458500  0.747000  0.208710  1.0  -0.0905
  C  C336  1  0.048900  0.301700  0.250190  1.0  -0.1048
  C  C337  1  0.100600  0.379100  0.941680  1.0  -0.0121
  C  C338  1  0.532100  0.789100  0.696740  1.0  -0.1544
  C  C339  1  0.743800  0.796100  0.753700  1.0  -0.1043
  C  C340  1  0.165800  0.084200  0.003800  1.0  0.7159
  C  C341  1  0.494800  0.115600  0.677800  1.0  0.7189
  C  C342  1  0.017600  0.822000  0.220330  1.0  -0.146
  C  C343  1  0.784900  0.839500  0.984600  1.0  -0.123
  C  C344  1  0.530500  0.419500  0.534000  1.0  0.1637
  C  C345  1  0.958500  0.753000  0.791290  1.0  -0.0906
  C  C346  1  0.005200  0.884400  0.177800  1.0  0.72
  C  C347  1  0.899400  0.620900  0.058320  1.0  -0.0116
  C  C348  1  0.336100  0.201000  0.697130  1.0  -0.1234
  C  C349  1  0.679000  0.688400  0.221290  1.0  -0.1058
  C  C350  1  0.821000  0.188400  0.221290  1.0  -0.1056
  C  C351  1  0.870900  0.127300  0.964310  1.0  0.7058
  C  C352  1  0.320100  0.732000  0.039040  1.0  0.045
  C  C353  1  0.215100  0.160500  0.015400  1.0  -0.1235
  C  C354  1  0.615800  0.373700  0.415800  1.0  -0.1182
  C  C355  1  0.715100  0.160500  0.484600  1.0  -0.1236
  C  C356  1  0.094700  0.784700  0.230050  1.0  0.0541
  C  C357  1  0.678700  0.414400  0.556810  1.0  0.2036
  C  C358  1  0.982400  0.322000  0.279670  1.0  -0.1451
  C  C359  1  0.334200  0.915800  0.503800  1.0  0.716
  C  C360  1  0.268600  0.698700  0.547130  1.0  0.0338
  C  C361  1  0.663900  0.799000  0.302870  1.0  -0.1227
  C  C362  1  0.161800  0.232600  0.398400  1.0  -0.1158
  C  C363  1  0.804500  0.871500  0.430010  1.0  -0.0872
  C  C364  1  0.263100  0.693800  0.402400  1.0  0.1646
  C  C365  1  0.115800  0.373700  0.084200  1.0  -0.1142
  C  C366  1  0.600600  0.120900  0.058320  1.0  -0.0117
  C  C367  1  0.838200  0.732600  0.101600  1.0  -0.1043
  C  C368  1  0.179900  0.268000  0.539040  1.0  0.0466
  C  C369  1  0.179000  0.811600  0.778710  1.0  -0.1085
  C  C370  1  0.017600  0.678000  0.720330  1.0  -0.1459
  C  C371  1  0.596000  0.238100  0.446240  1.0  -0.1005
  C  C372  1  0.321000  0.188400  0.278710  1.0  -0.1051
  C  C373  1  0.804500  0.628500  0.930010  1.0  -0.0837
  C  C374  1  0.594700  0.715300  0.769950  1.0  0.0538
  C  C375  1  0.129100  0.872700  0.035690  1.0  0.7067
  C  C376  1  0.236900  0.193800  0.402400  1.0  0.1645
  C  C377  1  0.958500  0.747000  0.291290  1.0  -0.0903
  C  C378  1  0.884200  0.626300  0.915800  1.0  -0.1175
  C  C379  1  0.155100  0.768500  0.505520  1.0  -0.0734
  C  C380  1  0.834200  0.915800  0.996200  1.0  0.7163
  C  C381  1  0.404000  0.761900  0.553760  1.0  -0.1004
  C  C382  1  0.231400  0.198700  0.547130  1.0  0.0332
  C  C383  1  0.661800  0.267400  0.601600  1.0  -0.107
  C  C384  1  0.731400  0.301300  0.452870  1.0  0.0356
  C  C385  1  0.904000  0.738100  0.446240  1.0  -0.1008
  C  C386  1  0.994800  0.115600  0.822200  1.0  0.7202
  C  C387  1  0.665800  0.084200  0.496200  1.0  0.7162
  C  C388  1  0.594700  0.784700  0.269950  1.0  0.0541
  C  C389  1  0.243800  0.703900  0.246300  1.0  -0.1145
  C  C390  1  0.505200  0.615600  0.822200  1.0  0.7207
  C  C391  1  0.344900  0.231500  0.005520  1.0  -0.0826
  C  C392  1  0.968500  0.348000  0.651560  1.0  0.7018
  C  C393  1  0.565300  0.193200  0.924260  1.0  -0.0772
  C  C394  1  0.161800  0.267400  0.898400  1.0  -0.1068
  C  C395  1  0.405300  0.215300  0.730050  1.0  0.0517
  C  C396  1  0.735800  0.740300  0.794700  1.0  -0.0916
  C  C397  1  0.384200  0.626300  0.584200  1.0  -0.1152
  C  C398  1  0.994800  0.384400  0.322200  1.0  0.7201
  C  C399  1  0.679900  0.268000  0.960960  1.0  0.0454
  C  C400  1  0.541500  0.253000  0.791290  1.0  -0.0912
  C  C401  1  0.407000  0.696200  0.418200  1.0  -0.0035
  C  C402  1  0.031500  0.848000  0.848440  1.0  0.7014
  C  C403  1  0.735800  0.759700  0.294700  1.0  -0.0933
  C  C404  1  0.256200  0.296100  0.746300  1.0  -0.1059
  N  N405  1  0.745900  0.380100  0.575560  1.0  -0.3072
  N  N406  1  0.254100  0.619900  0.424440  1.0  -0.3069
  N  N407  1  0.962600  0.512600  0.011600  1.0  -0.2134
  N  N408  1  0.037400  0.012600  0.488400  1.0  -0.2133
  N  N409  1  0.462600  0.987400  0.988400  1.0  -0.213
  N  N410  1  0.537400  0.487400  0.511600  1.0  -0.2136
  N  N411  1  0.745900  0.119900  0.075560  1.0  -0.3043
  N  N412  1  0.962600  0.987400  0.511600  1.0  -0.2129
  N  N413  1  0.037400  0.487400  0.988400  1.0  -0.2131
  N  N414  1  0.754100  0.619900  0.075560  1.0  -0.3069
  N  N415  1  0.537400  0.012600  0.011600  1.0  -0.213
  N  N416  1  0.245900  0.119900  0.424440  1.0  -0.3062
  N  N417  1  0.462600  0.512600  0.488400  1.0  -0.2134
  N  N418  1  0.754100  0.880100  0.575560  1.0  -0.3084
  N  N419  1  0.245900  0.380100  0.924440  1.0  -0.3068
  N  N420  1  0.254100  0.880100  0.924440  1.0  -0.3071
  O  O421  1  0.467880  0.510130  0.925610  1.0  -0.9739
  O  O422  1  0.913190  0.395060  0.503410  1.0  -0.6708
  O  O423  1  0.806910  0.538990  0.531690  1.0  -0.606
  O  O424  1  0.599750  0.429560  0.970950  1.0  -0.6503
  O  O425  1  0.533630  0.388340  0.852080  1.0  -0.6199
  O  O426  1  0.306910  0.961010  0.468310  1.0  -0.6052
  O  O427  1  0.054900  0.125900  0.851400  1.0  -0.5685
  O  O428  1  0.408890  0.350050  0.878590  1.0  -0.5698
  O  O429  1  0.444470  0.442920  0.175930  1.0  -0.5957
  O  O430  1  0.444470  0.057080  0.675930  1.0  -0.5969
  O  O431  1  0.900250  0.929560  0.970950  1.0  -0.6501
  O  O432  1  0.466370  0.888340  0.647920  1.0  -0.6206
  O  O433  1  0.467880  0.989870  0.425610  1.0  -0.9754
  O  O434  1  0.193090  0.038990  0.968310  1.0  -0.6059
  O  O435  1  0.873460  0.094750  0.920480  1.0  -0.5882
  O  O436  1  0.900250  0.570440  0.470950  1.0  -0.651
  O  O437  1  0.532120  0.010130  0.574390  1.0  -0.9726
  O  O438  1  0.091110  0.649950  0.378590  1.0  -0.569
  O  O439  1  0.099750  0.070440  0.029050  1.0  -0.6498
  O  O440  1  0.032120  0.010130  0.925610  1.0  -0.9736
  O  O441  1  0.126540  0.905250  0.079520  1.0  -0.5879
  O  O442  1  0.806910  0.961010  0.031690  1.0  -0.6056
  O  O443  1  0.373460  0.094750  0.579520  1.0  -0.5872
  O  O444  1  0.033630  0.388340  0.647920  1.0  -0.6205
  O  O445  1  0.413190  0.104940  0.496590  1.0  -0.6716
  O  O446  1  0.591110  0.649950  0.121410  1.0  -0.5696
  O  O447  1  0.413190  0.395060  0.996590  1.0  -0.6709
  O  O448  1  0.400250  0.570440  0.029050  1.0  -0.6501
  O  O449  1  0.966370  0.611660  0.352080  1.0  -0.6219
  O  O450  1  0.126540  0.594750  0.579520  1.0  -0.5873
  O  O451  1  0.554900  0.374100  0.148600  1.0  -0.5682
  O  O452  1  0.944470  0.442920  0.324070  1.0  -0.6003
  O  O453  1  0.091110  0.850050  0.878590  1.0  -0.5694
  O  O454  1  0.944470  0.057080  0.824070  1.0  -0.599
  O  O455  1  0.555530  0.942920  0.324070  1.0  -0.5982
  O  O456  1  0.373460  0.405250  0.079520  1.0  -0.5878
  O  O457  1  0.586810  0.604940  0.003410  1.0  -0.6712
  O  O458  1  0.055530  0.942920  0.175930  1.0  -0.5955
  O  O459  1  0.054900  0.374100  0.351400  1.0  -0.5686
  O  O460  1  0.693090  0.038990  0.531690  1.0  -0.6058
  O  O461  1  0.099750  0.429560  0.529050  1.0  -0.6499
  O  O462  1  0.591110  0.850050  0.621410  1.0  -0.5696
  O  O463  1  0.408890  0.149950  0.378590  1.0  -0.5694
  O  O464  1  0.945100  0.625900  0.648600  1.0  -0.5671
  O  O465  1  0.193090  0.461010  0.468310  1.0  -0.607
  O  O466  1  0.908890  0.149950  0.121410  1.0  -0.5701
  O  O467  1  0.626540  0.905250  0.420480  1.0  -0.5885
  O  O468  1  0.626540  0.594750  0.920480  1.0  -0.5884
  O  O469  1  0.967880  0.510130  0.574390  1.0  -0.9731
  O  O470  1  0.945100  0.874100  0.148600  1.0  -0.5672
  O  O471  1  0.586810  0.895060  0.503410  1.0  -0.6712
  O  O472  1  0.693090  0.461010  0.031690  1.0  -0.6056
  O  O473  1  0.400250  0.929560  0.529050  1.0  -0.6502
  O  O474  1  0.554900  0.125900  0.648600  1.0  -0.5684
  O  O475  1  0.466370  0.611660  0.147920  1.0  -0.6213
  O  O476  1  0.086810  0.604940  0.496590  1.0  -0.6709
  O  O477  1  0.445100  0.625900  0.851400  1.0  -0.5666
  O  O478  1  0.873460  0.405250  0.420480  1.0  -0.5883
  O  O479  1  0.599750  0.070440  0.470950  1.0  -0.6507
  O  O480  1  0.033630  0.111660  0.147920  1.0  -0.6209
  O  O481  1  0.445100  0.874100  0.351400  1.0  -0.5668
  O  O482  1  0.913190  0.104940  0.003410  1.0  -0.6714
  O  O483  1  0.086810  0.895060  0.996590  1.0  -0.6712
  O  O484  1  0.967880  0.989870  0.074390  1.0  -0.9747
  O  O485  1  0.032120  0.489870  0.425610  1.0  -0.9748
  O  O486  1  0.055530  0.557080  0.675930  1.0  -0.5951
  O  O487  1  0.908890  0.350050  0.621410  1.0  -0.5701
  O  O488  1  0.532120  0.489870  0.074390  1.0  -0.9741
  O  O489  1  0.555530  0.557080  0.824070  1.0  -0.5987
  O  O490  1  0.533630  0.111660  0.352080  1.0  -0.6211
  O  O491  1  0.306910  0.538990  0.968310  1.0  -0.6073
  O  O492  1  0.966370  0.888340  0.852080  1.0  -0.6199
