# generated using pymatgen
data_Cd2H25C29(N2O3)2
_symmetry_space_group_name_H-M   'P 1'
_cell_length_a   14.49790000
_cell_length_b   15.47160000
_cell_length_c   17.51250000
_cell_angle_alpha   90.00000000
_cell_angle_beta   90.00000000
_cell_angle_gamma   90.00000000
_symmetry_Int_Tables_number   1
_chemical_formula_structural   Cd2H25C29(N2O3)2
_chemical_formula_sum   'Cd8 H100 C116 N16 O24'
_cell_volume   3928.15374007
_cell_formula_units_Z   4
loop_
 _symmetry_equiv_pos_site_id
 _symmetry_equiv_pos_as_xyz
  1  'x, y, z'
loop_
 _atom_site_type_symbol
 _atom_site_label
 _atom_site_symmetry_multiplicity
 _atom_site_fract_x
 _atom_site_fract_y
 _atom_site_fract_z
 _atom_site_occupancy
 _atom_site_charge
  Cd  Cd1  1  0.872140  0.772970  0.959280  1.0  0.9
  Cd  Cd2  1  0.930020  0.226970  0.424150  1.0  0.8415
  Cd  Cd3  1  0.127860  0.272970  0.040720  1.0  0.9002
  Cd  Cd4  1  0.069980  0.726970  0.575850  1.0  0.841
  Cd  Cd5  1  0.372140  0.772970  0.540720  1.0  0.9
  Cd  Cd6  1  0.430020  0.226970  0.075850  1.0  0.842
  Cd  Cd7  1  0.627860  0.272970  0.459280  1.0  0.9002
  Cd  Cd8  1  0.569980  0.726970  0.924150  1.0  0.8402
  H  H9  1  0.119200  0.636800  0.835200  1.0  0.0832
  H  H10  1  0.112500  0.567200  0.985500  1.0  0.076
  H  H11  1  0.057800  0.529700  0.915600  1.0  0.0826
  H  H12  1  0.193900  0.490300  0.855800  1.0  0.092
  H  H13  1  0.338000  0.509700  0.910700  1.0  0.0769
  H  H14  1  0.293900  0.553800  0.982600  1.0  0.0808
  H  H15  1  0.290200  0.623500  0.833200  1.0  0.0865
  H  H16  1  0.213100  0.702800  0.964200  1.0  0.082
  H  H17  1  0.215300  0.745200  0.882800  1.0  0.0728
  H  H18  1  0.891000  0.740900  0.143300  1.0  0.0787
  H  H19  1  0.899000  0.636600  0.235700  1.0  0.1251
  H  H20  1  0.861100  0.460000  0.072800  1.0  0.1285
  H  H21  1  0.854200  0.570300  0.985100  1.0  0.0848
  H  H22  1  0.937200  0.263900  0.246100  1.0  0.0768
  H  H23  1  0.918600  0.366300  0.152400  1.0  0.1248
  H  H24  1  0.846800  0.535100  0.316400  1.0  0.1303
  H  H25  1  0.863100  0.426000  0.402200  1.0  0.0713
  H  H26  1  0.882600  0.970600  0.901900  1.0  0.0644
  H  H27  1  0.891000  0.059400  0.797600  1.0  0.1241
  H  H28  1  0.851500  0.851200  0.665500  1.0  0.1209
  H  H29  1  0.845300  0.769000  0.773900  1.0  0.0775
  H  H30  1  0.855100  0.218000  0.594600  1.0  0.0742
  H  H31  1  0.836600  0.132900  0.698800  1.0  0.1242
  H  H32  1  0.930600  0.933400  0.575100  1.0  0.1303
  H  H33  1  0.945500  0.026700  0.474400  1.0  0.0721
  H  H34  1  0.880800  0.136800  0.164800  1.0  0.0824
  H  H35  1  0.887500  0.067200  0.014500  1.0  0.0761
  H  H36  1  0.942200  0.029700  0.084400  1.0  0.0824
  H  H37  1  0.806100  0.990300  0.144200  1.0  0.0911
  H  H38  1  0.662000  0.009700  0.089300  1.0  0.0774
  H  H39  1  0.706100  0.053800  0.017400  1.0  0.0807
  H  H40  1  0.709800  0.123500  0.166800  1.0  0.0862
  H  H41  1  0.786900  0.202800  0.035800  1.0  0.0827
  H  H42  1  0.784700  0.245200  0.117200  1.0  0.073
  H  H43  1  0.109000  0.240900  0.856700  1.0  0.0785
  H  H44  1  0.101000  0.136600  0.764300  1.0  0.1256
  H  H45  1  0.138900  0.960000  0.927200  1.0  0.129
  H  H46  1  0.145800  0.070300  0.014900  1.0  0.0843
  H  H47  1  0.062800  0.763900  0.753900  1.0  0.0769
  H  H48  1  0.081400  0.866300  0.847600  1.0  0.1249
  H  H49  1  0.153200  0.035100  0.683600  1.0  0.1302
  H  H50  1  0.136900  0.926000  0.597800  1.0  0.0717
  H  H51  1  0.117400  0.470600  0.098100  1.0  0.0649
  H  H52  1  0.109000  0.559400  0.202400  1.0  0.1244
  H  H53  1  0.148500  0.351200  0.334500  1.0  0.1203
  H  H54  1  0.154700  0.269000  0.226100  1.0  0.0777
  H  H55  1  0.144900  0.718000  0.405400  1.0  0.0745
  H  H56  1  0.163400  0.632900  0.301200  1.0  0.1246
  H  H57  1  0.069400  0.433400  0.424900  1.0  0.1303
  H  H58  1  0.054500  0.526700  0.525600  1.0  0.0719
  H  H59  1  0.619200  0.636800  0.664800  1.0  0.083
  H  H60  1  0.612500  0.567200  0.514500  1.0  0.0764
  H  H61  1  0.557800  0.529700  0.584400  1.0  0.0836
  H  H62  1  0.693900  0.490300  0.644200  1.0  0.0908
  H  H63  1  0.838000  0.509700  0.589300  1.0  0.0763
  H  H64  1  0.793900  0.553800  0.517400  1.0  0.0804
  H  H65  1  0.790200  0.623500  0.666800  1.0  0.0855
  H  H66  1  0.713100  0.702800  0.535800  1.0  0.0825
  H  H67  1  0.715300  0.745200  0.617200  1.0  0.0729
  H  H68  1  0.391000  0.740900  0.356700  1.0  0.0783
  H  H69  1  0.399000  0.636600  0.264300  1.0  0.1258
  H  H70  1  0.361100  0.460000  0.427200  1.0  0.1287
  H  H71  1  0.354200  0.570300  0.514900  1.0  0.0849
  H  H72  1  0.437200  0.263900  0.253900  1.0  0.077
  H  H73  1  0.418600  0.366300  0.347600  1.0  0.1248
  H  H74  1  0.346800  0.535100  0.183600  1.0  0.1303
  H  H75  1  0.363100  0.426000  0.097800  1.0  0.0719
  H  H76  1  0.382600  0.970600  0.598100  1.0  0.0645
  H  H77  1  0.391000  0.059400  0.702400  1.0  0.1242
  H  H78  1  0.351500  0.851200  0.834500  1.0  0.1205
  H  H79  1  0.345300  0.769000  0.726100  1.0  0.0776
  H  H80  1  0.355100  0.218000  0.905400  1.0  0.0745
  H  H81  1  0.336600  0.132900  0.801200  1.0  0.1245
  H  H82  1  0.430600  0.933400  0.924900  1.0  0.1303
  H  H83  1  0.445500  0.026700  0.025600  1.0  0.0721
  H  H84  1  0.380800  0.136800  0.335200  1.0  0.0827
  H  H85  1  0.387500  0.067200  0.485500  1.0  0.076
  H  H86  1  0.442200  0.029700  0.415600  1.0  0.0831
  H  H87  1  0.306100  0.990300  0.355800  1.0  0.092
  H  H88  1  0.162000  0.009700  0.410700  1.0  0.0757
  H  H89  1  0.206100  0.053800  0.482600  1.0  0.0821
  H  H90  1  0.209800  0.123500  0.333200  1.0  0.0865
  H  H91  1  0.286900  0.202800  0.464200  1.0  0.0818
  H  H92  1  0.284700  0.245200  0.382800  1.0  0.0727
  H  H93  1  0.609000  0.240900  0.643300  1.0  0.0789
  H  H94  1  0.601000  0.136600  0.735700  1.0  0.125
  H  H95  1  0.638900  0.960000  0.572800  1.0  0.1292
  H  H96  1  0.645800  0.070300  0.485100  1.0  0.0847
  H  H97  1  0.562800  0.763900  0.746100  1.0  0.0768
  H  H98  1  0.581400  0.866300  0.652400  1.0  0.1248
  H  H99  1  0.653200  0.035100  0.816400  1.0  0.1301
  H  H100  1  0.636900  0.926000  0.902200  1.0  0.0717
  H  H101  1  0.617400  0.470600  0.401900  1.0  0.0647
  H  H102  1  0.609000  0.559400  0.297600  1.0  0.124
  H  H103  1  0.648500  0.351200  0.165500  1.0  0.1207
  H  H104  1  0.654700  0.269000  0.273900  1.0  0.0776
  H  H105  1  0.644900  0.718000  0.094600  1.0  0.0743
  H  H106  1  0.663400  0.632900  0.198800  1.0  0.1244
  H  H107  1  0.569400  0.433400  0.075100  1.0  0.1302
  H  H108  1  0.554500  0.526700  0.974400  1.0  0.0724
  C  C109  1  0.120500  0.646800  0.890400  1.0  -0.1708
  C  C110  1  0.114500  0.558400  0.930700  1.0  -0.1122
  C  C111  1  0.196100  0.501100  0.910900  1.0  -0.1578
  C  C112  1  0.287500  0.545900  0.927900  1.0  -0.1087
  C  C113  1  0.293300  0.633700  0.888300  1.0  -0.1664
  C  C114  1  0.211200  0.690700  0.909900  1.0  -0.1236
  C  C115  1  0.035800  0.698600  0.911500  1.0  0.6619
  C  C116  1  0.186000  0.413600  0.951100  1.0  0.6875
  C  C117  1  0.385600  0.677100  0.905200  1.0  0.6981
  C  C118  1  0.884900  0.683400  0.128700  1.0  0.1808
  C  C119  1  0.889600  0.620800  0.185100  1.0  -0.2254
  C  C120  1  0.880300  0.535000  0.165500  1.0  0.0805
  C  C121  1  0.867300  0.517000  0.089000  1.0  -0.193
  C  C122  1  0.863400  0.583700  0.036400  1.0  0.1596
  C  C123  1  0.918600  0.319200  0.260100  1.0  0.1693
  C  C124  1  0.909000  0.381000  0.203300  1.0  -0.1943
  C  C125  1  0.884900  0.464500  0.223000  1.0  0.0684
  C  C126  1  0.865800  0.480600  0.300300  1.0  -0.2137
  C  C127  1  0.875900  0.414500  0.351200  1.0  0.1754
  C  C128  1  0.876500  0.946300  0.853600  1.0  0.175
  C  C129  1  0.881900  0.000400  0.791000  1.0  -0.2085
  C  C130  1  0.873500  0.965800  0.717900  1.0  0.0739
  C  C131  1  0.858600  0.877300  0.712900  1.0  -0.1995
  C  C132  1  0.854500  0.828200  0.778700  1.0  0.1593
  C  C133  1  0.871600  0.160000  0.591200  1.0  0.1567
  C  C134  1  0.859800  0.109300  0.653800  1.0  -0.2111
  C  C135  1  0.882200  0.022400  0.650600  1.0  0.0879
  C  C136  1  0.915200  0.991300  0.580900  1.0  -0.2161
  C  C137  1  0.924600  0.048500  0.520800  1.0  0.1785
  C  C138  1  0.879500  0.146800  0.109600  1.0  -0.1684
  C  C139  1  0.885500  0.058400  0.069300  1.0  -0.1124
  C  C140  1  0.803900  0.001100  0.089100  1.0  -0.1567
  C  C141  1  0.712500  0.045900  0.072100  1.0  -0.1087
  C  C142  1  0.706700  0.133700  0.111700  1.0  -0.1652
  C  C143  1  0.788800  0.190700  0.090100  1.0  -0.1242
  C  C144  1  0.964200  0.198600  0.088500  1.0  0.6617
  C  C145  1  0.814000  0.913600  0.048900  1.0  0.687
  C  C146  1  0.614400  0.177100  0.094800  1.0  0.6976
  C  C147  1  0.115100  0.183400  0.871300  1.0  0.1808
  C  C148  1  0.110400  0.120800  0.814900  1.0  -0.2249
  C  C149  1  0.119700  0.035000  0.834500  1.0  0.0807
  C  C150  1  0.132700  0.017000  0.911000  1.0  -0.1919
  C  C151  1  0.136600  0.083700  0.963600  1.0  0.1586
  C  C152  1  0.081400  0.819200  0.739900  1.0  0.1679
  C  C153  1  0.091000  0.881000  0.796700  1.0  -0.1948
  C  C154  1  0.115100  0.964500  0.777000  1.0  0.0681
  C  C155  1  0.134200  0.980600  0.699700  1.0  -0.2145
  C  C156  1  0.124100  0.914500  0.648800  1.0  0.1764
  C  C157  1  0.123500  0.446300  0.146400  1.0  0.176
  C  C158  1  0.118100  0.500400  0.209000  1.0  -0.2058
  C  C159  1  0.126500  0.465800  0.282100  1.0  0.0737
  C  C160  1  0.141400  0.377300  0.287100  1.0  -0.1999
  C  C161  1  0.145500  0.328200  0.221300  1.0  0.1589
  C  C162  1  0.128400  0.660000  0.408800  1.0  0.1572
  C  C163  1  0.140200  0.609300  0.346200  1.0  -0.2112
  C  C164  1  0.117800  0.522400  0.349400  1.0  0.0894
  C  C165  1  0.084800  0.491300  0.419100  1.0  -0.2163
  C  C166  1  0.075400  0.548500  0.479200  1.0  0.1781
  C  C167  1  0.620500  0.646800  0.609600  1.0  -0.1698
  C  C168  1  0.614500  0.558400  0.569300  1.0  -0.1121
  C  C169  1  0.696100  0.501100  0.589100  1.0  -0.1565
  C  C170  1  0.787500  0.545900  0.572100  1.0  -0.1078
  C  C171  1  0.793300  0.633700  0.611700  1.0  -0.1652
  C  C172  1  0.711200  0.690700  0.590100  1.0  -0.1241
  C  C173  1  0.535800  0.698600  0.588500  1.0  0.6615
  C  C174  1  0.686000  0.413600  0.548900  1.0  0.6869
  C  C175  1  0.885600  0.677100  0.594800  1.0  0.6977
  C  C176  1  0.384900  0.683400  0.371300  1.0  0.1804
  C  C177  1  0.389600  0.620800  0.314900  1.0  -0.2255
  C  C178  1  0.380300  0.535000  0.334500  1.0  0.0805
  C  C179  1  0.367300  0.517000  0.411000  1.0  -0.1918
  C  C180  1  0.363400  0.583700  0.463600  1.0  0.1584
  C  C181  1  0.418600  0.319200  0.239900  1.0  0.169
  C  C182  1  0.409000  0.381000  0.296700  1.0  -0.1948
  C  C183  1  0.384900  0.464500  0.277000  1.0  0.068
  C  C184  1  0.365800  0.480600  0.199700  1.0  -0.2146
  C  C185  1  0.375900  0.414500  0.148800  1.0  0.1759
  C  C186  1  0.376500  0.946300  0.646400  1.0  0.1762
  C  C187  1  0.381900  0.000400  0.709000  1.0  -0.2061
  C  C188  1  0.373500  0.965800  0.782100  1.0  0.0738
  C  C189  1  0.358600  0.877300  0.787100  1.0  -0.2001
  C  C190  1  0.354500  0.828200  0.721300  1.0  0.1593
  C  C191  1  0.371600  0.160000  0.908800  1.0  0.1564
  C  C192  1  0.359800  0.109300  0.846200  1.0  -0.2115
  C  C193  1  0.382200  0.022400  0.849400  1.0  0.0897
  C  C194  1  0.415200  0.991300  0.919100  1.0  -0.2153
  C  C195  1  0.424600  0.048500  0.979200  1.0  0.1785
  C  C196  1  0.379500  0.146800  0.390400  1.0  -0.1692
  C  C197  1  0.385500  0.058400  0.430700  1.0  -0.1131
  C  C198  1  0.303900  0.001100  0.410900  1.0  -0.1579
  C  C199  1  0.212500  0.045900  0.427900  1.0  -0.1086
  C  C200  1  0.206700  0.133700  0.388300  1.0  -0.1675
  C  C201  1  0.288800  0.190700  0.409900  1.0  -0.1239
  C  C202  1  0.464200  0.198600  0.411500  1.0  0.6616
  C  C203  1  0.314000  0.913600  0.451100  1.0  0.6877
  C  C204  1  0.114400  0.177100  0.405200  1.0  0.6977
  C  C205  1  0.615100  0.183400  0.628700  1.0  0.1809
  C  C206  1  0.610400  0.120800  0.685100  1.0  -0.2256
  C  C207  1  0.619700  0.035000  0.665500  1.0  0.0806
  C  C208  1  0.632700  0.017000  0.589000  1.0  -0.1935
  C  C209  1  0.636600  0.083700  0.536400  1.0  0.1592
  C  C210  1  0.581400  0.819200  0.760100  1.0  0.1683
  C  C211  1  0.591000  0.881000  0.703300  1.0  -0.194
  C  C212  1  0.615100  0.964500  0.723000  1.0  0.0684
  C  C213  1  0.634200  0.980600  0.800300  1.0  -0.2132
  C  C214  1  0.624100  0.914500  0.851200  1.0  0.1766
  C  C215  1  0.623500  0.446300  0.353600  1.0  0.1749
  C  C216  1  0.618100  0.500400  0.291000  1.0  -0.2078
  C  C217  1  0.626500  0.465800  0.217900  1.0  0.0738
  C  C218  1  0.641400  0.377300  0.212900  1.0  -0.1994
  C  C219  1  0.645500  0.328200  0.278700  1.0  0.1589
  C  C220  1  0.628400  0.660000  0.091200  1.0  0.1577
  C  C221  1  0.640200  0.609300  0.153800  1.0  -0.211
  C  C222  1  0.617800  0.522400  0.150600  1.0  0.0876
  C  C223  1  0.584800  0.491300  0.080900  1.0  -0.2162
  C  C224  1  0.575400  0.548500  0.020800  1.0  0.1785
  N  N225  1  0.872500  0.666800  0.056400  1.0  -0.3658
  N  N226  1  0.902800  0.334800  0.333500  1.0  -0.3988
  N  N227  1  0.863000  0.861000  0.848800  1.0  -0.3788
  N  N228  1  0.906000  0.131000  0.524500  1.0  -0.388
  N  N229  1  0.127500  0.166800  0.943600  1.0  -0.3644
  N  N230  1  0.097200  0.834800  0.666500  1.0  -0.3979
  N  N231  1  0.137000  0.361000  0.151200  1.0  -0.3788
  N  N232  1  0.094000  0.631000  0.475500  1.0  -0.3835
  N  N233  1  0.372500  0.666800  0.443600  1.0  -0.3647
  N  N234  1  0.402800  0.334800  0.166500  1.0  -0.3981
  N  N235  1  0.363000  0.861000  0.651200  1.0  -0.38
  N  N236  1  0.406000  0.131000  0.975500  1.0  -0.3838
  N  N237  1  0.627500  0.166800  0.556400  1.0  -0.3655
  N  N238  1  0.597200  0.834800  0.833500  1.0  -0.3978
  N  N239  1  0.637000  0.361000  0.348800  1.0  -0.3773
  N  N240  1  0.594000  0.631000  0.024500  1.0  -0.3877
  O  O241  1  0.959400  0.674000  0.885470  1.0  -0.6303
  O  O242  1  0.042200  0.762300  0.955100  1.0  -0.6151
  O  O243  1  0.108400  0.386300  0.964300  1.0  -0.5992
  O  O244  1  0.253900  0.372900  0.974200  1.0  -0.6716
  O  O245  1  0.449700  0.667900  0.859500  1.0  -0.6289
  O  O246  1  0.397700  0.717900  0.963800  1.0  -0.6259
  O  O247  1  0.040600  0.174000  0.114530  1.0  -0.6314
  O  O248  1  0.957800  0.262300  0.044900  1.0  -0.6145
  O  O249  1  0.891600  0.886300  0.035700  1.0  -0.5984
  O  O250  1  0.746100  0.872900  0.025800  1.0  -0.6687
  O  O251  1  0.550300  0.167900  0.140500  1.0  -0.63
  O  O252  1  0.602300  0.217900  0.036200  1.0  -0.6248
  O  O253  1  0.459400  0.674000  0.614530  1.0  -0.63
  O  O254  1  0.542200  0.762300  0.544900  1.0  -0.6148
  O  O255  1  0.608400  0.386300  0.535700  1.0  -0.5975
  O  O256  1  0.753900  0.372900  0.525800  1.0  -0.6706
  O  O257  1  0.949700  0.667900  0.640500  1.0  -0.6309
  O  O258  1  0.897700  0.717900  0.536200  1.0  -0.6256
  O  O259  1  0.540600  0.174000  0.385470  1.0  -0.6305
  O  O260  1  0.457800  0.262300  0.455100  1.0  -0.6147
  O  O261  1  0.391600  0.886300  0.464300  1.0  -0.5991
  O  O262  1  0.246100  0.872900  0.474200  1.0  -0.6696
  O  O263  1  0.050300  0.167900  0.359500  1.0  -0.6283
  O  O264  1  0.102300  0.217900  0.463800  1.0  -0.6275
