# generated using pymatgen
data_CdH6(C2O5)2
_symmetry_space_group_name_H-M   'P 1'
_cell_length_a   9.61720000
_cell_length_b   11.78260000
_cell_length_c   12.27340000
_cell_angle_alpha   90.00000000
_cell_angle_beta   99.29500000
_cell_angle_gamma   90.00000000
_symmetry_Int_Tables_number   1
_chemical_formula_structural   CdH6(C2O5)2
_chemical_formula_sum   'Cd4 H24 C16 O40'
_cell_volume   1372.50689935
_cell_formula_units_Z   4
loop_
 _symmetry_equiv_pos_site_id
 _symmetry_equiv_pos_as_xyz
  1  'x, y, z'
loop_
 _atom_site_type_symbol
 _atom_site_label
 _atom_site_symmetry_multiplicity
 _atom_site_fract_x
 _atom_site_fract_y
 _atom_site_fract_z
 _atom_site_occupancy
 _atom_site_charge
  Cd  Cd1  1  0.786630  0.017520  0.170590  1.0  1.2014
  Cd  Cd2  1  0.713370  0.517520  0.329410  1.0  1.2021
  Cd  Cd3  1  0.213370  0.982480  0.829410  1.0  1.2023
  Cd  Cd4  1  0.286630  0.482480  0.670590  1.0  1.2015
  H  H5  1  0.005600  0.305300  0.005900  1.0  0.3888
  H  H6  1  0.104200  0.236600  0.982100  1.0  0.4698
  H  H7  1  0.073400  0.236100  0.080500  1.0  0.5095
  H  H8  1  0.645900  0.964600  0.448800  1.0  0.3575
  H  H9  1  0.614300  0.975500  0.549100  1.0  0.3113
  H  H10  1  0.644900  0.061900  0.489700  1.0  0.365
  H  H11  1  0.494400  0.805300  0.494100  1.0  0.3888
  H  H12  1  0.395800  0.736600  0.517900  1.0  0.4697
  H  H13  1  0.426600  0.736100  0.419500  1.0  0.5094
  H  H14  1  0.854100  0.464600  0.051200  1.0  0.357
  H  H15  1  0.885700  0.475500  0.950900  1.0  0.3105
  H  H16  1  0.855100  0.561900  0.010300  1.0  0.3663
  H  H17  1  0.994400  0.694700  0.994100  1.0  0.3872
  H  H18  1  0.895800  0.763400  0.017900  1.0  0.4699
  H  H19  1  0.926600  0.763900  0.919500  1.0  0.5097
  H  H20  1  0.354100  0.035400  0.551200  1.0  0.3562
  H  H21  1  0.385700  0.024500  0.450900  1.0  0.311
  H  H22  1  0.355100  0.938100  0.510300  1.0  0.3663
  H  H23  1  0.505600  0.194700  0.505900  1.0  0.3879
  H  H24  1  0.604200  0.263400  0.482100  1.0  0.47
  H  H25  1  0.573400  0.263900  0.580500  1.0  0.5093
  H  H26  1  0.145900  0.535400  0.948800  1.0  0.3565
  H  H27  1  0.114300  0.524500  0.049100  1.0  0.3108
  H  H28  1  0.144900  0.438100  0.989700  1.0  0.3642
  C  C29  1  0.799700  0.748500  0.217600  1.0  0.6052
  C  C30  1  0.700400  0.791300  0.295300  1.0  0.5997
  C  C31  1  0.494200  0.065600  0.998800  1.0  0.5629
  C  C32  1  0.063200  0.000700  0.047100  1.0  0.4908
  C  C33  1  0.700300  0.248500  0.282400  1.0  0.6065
  C  C34  1  0.799600  0.291300  0.204700  1.0  0.5987
  C  C35  1  0.005800  0.565600  0.501200  1.0  0.5619
  C  C36  1  0.436800  0.500700  0.452900  1.0  0.4914
  C  C37  1  0.200300  0.251500  0.782400  1.0  0.6064
  C  C38  1  0.299600  0.208700  0.704700  1.0  0.5986
  C  C39  1  0.505800  0.934400  0.001200  1.0  0.5657
  C  C40  1  0.936800  0.999300  0.952900  1.0  0.4916
  C  C41  1  0.299700  0.751500  0.717600  1.0  0.6042
  C  C42  1  0.200400  0.708700  0.795300  1.0  0.5996
  C  C43  1  0.994200  0.434400  0.498800  1.0  0.5667
  C  C44  1  0.563200  0.499300  0.547100  1.0  0.4904
  O  O45  1  0.686900  0.896500  0.303400  1.0  -0.6171
  O  O46  1  0.638900  0.717200  0.343600  1.0  -0.6333
  O  O47  1  0.805700  0.643800  0.203100  1.0  -0.6308
  O  O48  1  0.868100  0.821000  0.173800  1.0  -0.6203
  O  O49  1  0.035500  0.015900  0.142800  1.0  -0.62
  O  O50  1  0.182800  0.987000  0.023100  1.0  -0.5801
  O  O51  1  0.581300  0.118800  0.067300  1.0  -0.5592
  O  O52  1  0.399800  0.107700  0.931200  1.0  -0.5618
  O  O53  1  0.813100  0.396500  0.196600  1.0  -0.6177
  O  O54  1  0.861100  0.217200  0.156400  1.0  -0.6337
  O  O55  1  0.694300  0.143800  0.296900  1.0  -0.631
  O  O56  1  0.631900  0.321000  0.326200  1.0  -0.6202
  O  O57  1  0.464500  0.515900  0.357200  1.0  -0.6179
  O  O58  1  0.317200  0.487000  0.476900  1.0  -0.5807
  O  O59  1  0.918700  0.618800  0.432700  1.0  -0.5607
  O  O60  1  0.100200  0.607700  0.568800  1.0  -0.5629
  O  O61  1  0.313100  0.103500  0.696600  1.0  -0.6179
  O  O62  1  0.361100  0.282800  0.656400  1.0  -0.6332
  O  O63  1  0.194300  0.356200  0.796900  1.0  -0.6307
  O  O64  1  0.131900  0.179000  0.826200  1.0  -0.6212
  O  O65  1  0.964500  0.984100  0.857200  1.0  -0.6184
  O  O66  1  0.817200  0.013000  0.976900  1.0  -0.5808
  O  O67  1  0.418700  0.881200  0.932700  1.0  -0.5584
  O  O68  1  0.600200  0.892300  0.068800  1.0  -0.5619
  O  O69  1  0.186900  0.603500  0.803400  1.0  -0.6174
  O  O70  1  0.138900  0.782800  0.843600  1.0  -0.633
  O  O71  1  0.305700  0.856200  0.703100  1.0  -0.6305
  O  O72  1  0.368100  0.679000  0.673800  1.0  -0.6201
  O  O73  1  0.535500  0.484100  0.642800  1.0  -0.62
  O  O74  1  0.682800  0.513000  0.523100  1.0  -0.5808
  O  O75  1  0.081300  0.381200  0.567300  1.0  -0.5565
  O  O76  1  0.899800  0.392300  0.431200  1.0  -0.561
  O  O77  1  0.086500  0.280900  0.030800  1.0  -0.5946
  O  O78  1  0.670100  0.996400  0.508600  1.0  -0.4187
  O  O79  1  0.413500  0.780900  0.469200  1.0  -0.5949
  O  O80  1  0.829900  0.496400  0.991400  1.0  -0.4724
  O  O81  1  0.913500  0.719100  0.969200  1.0  -0.5949
  O  O82  1  0.329900  0.003600  0.491400  1.0  -0.4709
  O  O83  1  0.586500  0.219100  0.530800  1.0  -0.5939
  O  O84  1  0.170100  0.503600  0.008600  1.0  -0.4206
