# generated using pymatgen
data_CeH6(C2O3)3
_symmetry_space_group_name_H-M   'P 1'
_cell_length_a   6.12310000
_cell_length_b   7.47050000
_cell_length_c   13.06300000
_cell_angle_alpha   88.25000000
_cell_angle_beta   81.24000000
_cell_angle_gamma   89.27000000
_symmetry_Int_Tables_number   1
_chemical_formula_structural   CeH6(C2O3)3
_chemical_formula_sum   'Ce2 H12 C12 O18'
_cell_volume   590.27030007
_cell_formula_units_Z   2
loop_
 _symmetry_equiv_pos_site_id
 _symmetry_equiv_pos_as_xyz
  1  'x, y, z'
loop_
 _atom_site_type_symbol
 _atom_site_label
 _atom_site_symmetry_multiplicity
 _atom_site_fract_x
 _atom_site_fract_y
 _atom_site_fract_z
 _atom_site_occupancy
 _atom_site_charge
  Ce  Ce1  1  0.152210  0.249180  0.311920  1.0  2.238
  Ce  Ce2  1  0.886350  0.735940  0.679630  1.0  2.2368
  H  H3  1  0.309200  0.292100  0.720800  1.0  0.1082
  H  H4  1  0.580600  0.721800  0.433300  1.0  0.0948
  H  H5  1  0.343100  0.796000  0.980300  1.0  0.1017
  H  H6  1  0.439500  0.198800  0.561600  1.0  0.1054
  H  H7  1  0.627200  0.660300  0.050600  1.0  0.0956
  H  H8  1  0.225700  0.465200  0.487900  1.0  0.3799
  H  H9  1  0.789900  0.981200  0.063700  1.0  0.2682
  H  H10  1  0.592000  0.067100  0.900600  1.0  0.4359
  H  H11  1  0.767800  0.814200  0.272900  1.0  0.0948
  H  H12  1  0.804700  0.969000  0.506400  1.0  0.3945
  H  H13  1  0.108000  0.872500  0.279100  1.0  0.3706
  H  H14  1  0.993200  0.337600  0.744300  1.0  0.2332
  C  C15  1  0.725100  0.777100  0.432800  1.0  0.0739
  C  C16  1  0.789200  0.887400  0.331500  1.0  0.0653
  C  C17  1  0.395100  0.542500  0.661200  1.0  0.6973
  C  C18  1  0.775500  0.737800  0.905700  1.0  0.6812
  C  C19  1  0.301800  0.267800  0.563600  1.0  0.0327
  C  C20  1  0.330300  0.921800  0.118900  1.0  0.6582
  C  C21  1  0.264700  0.370400  0.665900  1.0  0.0339
  C  C22  1  0.440700  0.875500  0.010500  1.0  0.0553
  C  C23  1  0.116300  0.136600  0.565300  1.0  0.68
  C  C24  1  0.662800  0.776300  0.015400  1.0  0.0344
  C  C25  1  0.903500  0.631800  0.431200  1.0  0.6799
  C  C26  1  0.653300  0.060800  0.327800  1.0  0.677
  O  O27  1  0.796600  0.867500  0.074900  1.0  -0.5551
  O  O28  1  0.004300  0.147000  0.493200  1.0  -0.6504
  O  O29  1  0.290300  0.688700  0.672800  1.0  -0.6801
  O  O30  1  0.017500  0.630100  0.503100  1.0  -0.6578
  O  O31  1  0.932500  0.528300  0.355600  1.0  -0.7087
  O  O32  1  0.300700  0.081000  0.139400  1.0  -0.5857
  O  O33  1  0.275000  0.785900  0.179300  1.0  -0.6057
  O  O34  1  0.487600  0.028200  0.942800  1.0  -0.6139
  O  O35  1  0.322300  0.380800  0.472200  1.0  -0.5848
  O  O36  1  0.447700  0.046700  0.346900  1.0  -0.6669
  O  O37  1  0.602300  0.529300  0.645300  1.0  -0.6981
  O  O38  1  0.014400  0.934400  0.321900  1.0  -0.6042
  O  O39  1  0.085800  0.023100  0.640100  1.0  -0.698
  O  O40  1  0.720300  0.882100  0.521900  1.0  -0.6058
  O  O41  1  0.033600  0.414400  0.693800  1.0  -0.6569
  O  O42  1  0.931800  0.833100  0.864700  1.0  -0.6259
  O  O43  1  0.693800  0.616600  0.858600  1.0  -0.6474
  O  O44  1  0.756400  0.204000  0.305300  1.0  -0.6812
