# generated using pymatgen
data_AgH20(C5N)4
_symmetry_space_group_name_H-M   'P 1'
_cell_length_a   13.63100000
_cell_length_b   16.78040000
_cell_length_c   10.92610000
_cell_angle_alpha   90.00000000
_cell_angle_beta   115.62300000
_cell_angle_gamma   90.00000000
_symmetry_Int_Tables_number   1
_chemical_formula_structural   AgH20(C5N)4
_chemical_formula_sum   'Ag4 H80 C80 N16'
_cell_volume   2253.39601269
_cell_formula_units_Z   4
loop_
 _symmetry_equiv_pos_site_id
 _symmetry_equiv_pos_as_xyz
  1  'x, y, z'
loop_
 _atom_site_type_symbol
 _atom_site_label
 _atom_site_symmetry_multiplicity
 _atom_site_fract_x
 _atom_site_fract_y
 _atom_site_fract_z
 _atom_site_occupancy
 _atom_site_charge
  Ag  Ag1  1  0.552860  0.557420  0.830750  1.0  0.3286
  Ag  Ag2  1  0.052860  0.057420  0.830750  1.0  0.3314
  Ag  Ag3  1  0.552860  0.442580  0.330750  1.0  0.3256
  Ag  Ag4  1  0.052860  0.942580  0.330750  1.0  0.3282
  H  H5  1  0.675500  0.529500  0.557500  1.0  0.0577
  H  H6  1  0.677700  0.603300  0.651600  1.0  0.0724
  H  H7  1  0.425900  0.395100  0.509500  1.0  0.0671
  H  H8  1  0.427700  0.469100  0.603300  1.0  0.057
  H  H9  1  0.986700  0.470800  0.614500  1.0  0.0915
  H  H10  1  0.128000  0.539000  0.558300  1.0  0.0854
  H  H11  1  0.486400  0.599700  0.563300  1.0  0.0619
  H  H12  1  0.522100  0.611100  0.442500  1.0  0.0743
  H  H13  1  0.314300  0.466700  0.304900  1.0  0.0992
  H  H14  1  0.354100  0.550200  0.271900  1.0  0.0933
  H  H15  1  0.581500  0.387400  0.720900  1.0  0.0762
  H  H16  1  0.618100  0.397800  0.600700  1.0  0.0659
  H  H17  1  0.789300  0.533400  0.857500  1.0  0.107
  H  H18  1  0.751300  0.450100  0.892700  1.0  0.098
  H  H19  1  0.801700  0.327600  0.819500  1.0  0.1132
  H  H20  1  0.305700  0.672200  0.337600  1.0  0.1163
  H  H21  1  0.876300  0.537700  0.697200  1.0  0.0884
  H  H22  1  0.005900  0.333500  0.635100  1.0  0.1131
  H  H23  1  0.227300  0.466400  0.468800  1.0  0.1089
  H  H24  1  0.116000  0.677100  0.539700  1.0  0.1181
  H  H25  1  0.175500  0.029500  0.557500  1.0  0.0577
  H  H26  1  0.177700  0.103300  0.651600  1.0  0.0724
  H  H27  1  0.925900  0.895100  0.509500  1.0  0.0671
  H  H28  1  0.927700  0.969100  0.603300  1.0  0.057
  H  H29  1  0.486700  0.970800  0.614500  1.0  0.0915
  H  H30  1  0.628000  0.039000  0.558300  1.0  0.0854
  H  H31  1  0.986400  0.099700  0.563300  1.0  0.0619
  H  H32  1  0.022100  0.111100  0.442500  1.0  0.0743
  H  H33  1  0.814300  0.966700  0.304900  1.0  0.0992
  H  H34  1  0.854100  0.050200  0.271900  1.0  0.0933
  H  H35  1  0.081500  0.887400  0.720900  1.0  0.0762
  H  H36  1  0.118100  0.897800  0.600700  1.0  0.0659
  H  H37  1  0.289300  0.033400  0.857500  1.0  0.107
  H  H38  1  0.251300  0.950100  0.892700  1.0  0.098
  H  H39  1  0.301700  0.827600  0.819500  1.0  0.1132
  H  H40  1  0.805700  0.172200  0.337600  1.0  0.1163
  H  H41  1  0.376300  0.037700  0.697200  1.0  0.0884
  H  H42  1  0.505900  0.833500  0.635100  1.0  0.1131
  H  H43  1  0.727300  0.966400  0.468800  1.0  0.1089
  H  H44  1  0.616000  0.177100  0.539700  1.0  0.1181
  H  H45  1  0.675500  0.470500  0.057500  1.0  0.0576
  H  H46  1  0.677700  0.396700  0.151600  1.0  0.0726
  H  H47  1  0.425900  0.604900  0.009500  1.0  0.0702
  H  H48  1  0.427700  0.530900  0.103300  1.0  0.0567
  H  H49  1  0.986700  0.529200  0.114500  1.0  0.0917
  H  H50  1  0.128000  0.461000  0.058300  1.0  0.0848
  H  H51  1  0.486400  0.400300  0.063300  1.0  0.0622
  H  H52  1  0.522100  0.388900  0.942500  1.0  0.0744
  H  H53  1  0.314300  0.533300  0.804900  1.0  0.0997
  H  H54  1  0.354100  0.449800  0.771900  1.0  0.0933
  H  H55  1  0.581500  0.612600  0.220900  1.0  0.0749
  H  H56  1  0.618100  0.602200  0.100700  1.0  0.066
  H  H57  1  0.789300  0.466600  0.357500  1.0  0.1085
  H  H58  1  0.751300  0.549900  0.392700  1.0  0.0969
  H  H59  1  0.801700  0.672400  0.319500  1.0  0.1124
  H  H60  1  0.305700  0.327800  0.837600  1.0  0.1168
  H  H61  1  0.876300  0.462300  0.197200  1.0  0.0898
  H  H62  1  0.005900  0.666500  0.135100  1.0  0.1131
  H  H63  1  0.227300  0.533600  0.968800  1.0  0.1081
  H  H64  1  0.116000  0.322900  0.039700  1.0  0.1183
  H  H65  1  0.175500  0.970500  0.057500  1.0  0.0576
  H  H66  1  0.177700  0.896700  0.151600  1.0  0.0726
  H  H67  1  0.925900  0.104900  0.009500  1.0  0.0702
  H  H68  1  0.927700  0.030900  0.103300  1.0  0.0567
  H  H69  1  0.486700  0.029200  0.114500  1.0  0.0917
  H  H70  1  0.628000  0.961000  0.058300  1.0  0.0848
  H  H71  1  0.986400  0.900300  0.063300  1.0  0.0622
  H  H72  1  0.022100  0.888900  0.942500  1.0  0.0744
  H  H73  1  0.814300  0.033300  0.804900  1.0  0.0997
  H  H74  1  0.854100  0.949800  0.771900  1.0  0.0933
  H  H75  1  0.081500  0.112600  0.220900  1.0  0.0749
  H  H76  1  0.118100  0.102200  0.100700  1.0  0.066
  H  H77  1  0.289300  0.966600  0.357500  1.0  0.1085
  H  H78  1  0.251300  0.049900  0.392700  1.0  0.0969
  H  H79  1  0.301700  0.172400  0.319500  1.0  0.1124
  H  H80  1  0.805700  0.827800  0.837600  1.0  0.1168
  H  H81  1  0.376300  0.962300  0.197200  1.0  0.0898
  H  H82  1  0.505900  0.166500  0.135100  1.0  0.1131
  H  H83  1  0.727300  0.033600  0.968800  1.0  0.1081
  H  H84  1  0.616000  0.822900  0.039700  1.0  0.1183
  C  C85  1  0.638400  0.553800  0.608600  1.0  0.0092
  C  C86  1  0.465200  0.444590  0.552800  1.0  -0.0014
  C  C87  1  0.827200  0.439100  0.769500  1.0  0.1216
  C  C88  1  0.280800  0.561600  0.402300  1.0  0.081
  C  C89  1  0.949900  0.441500  0.656300  1.0  -0.099
  C  C90  1  0.209500  0.686600  0.435500  1.0  -0.073
  C  C91  1  0.164600  0.566300  0.514000  1.0  -0.1242
  C  C92  1  0.522800  0.573500  0.512800  1.0  -0.0245
  C  C93  1  0.350600  0.517600  0.345400  1.0  -0.1223
  C  C94  1  0.581500  0.424500  0.650400  1.0  -0.0124
  C  C95  1  0.906100  0.318200  0.729600  1.0  -0.0646
  C  C96  1  0.754900  0.481700  0.818400  1.0  -0.1437
  C  C97  1  0.839100  0.357600  0.779100  1.0  -0.1858
  C  C98  1  0.270800  0.645100  0.384200  1.0  -0.1122
  C  C99  1  0.883600  0.481400  0.706100  1.0  -0.1314
  C  C100  1  0.917600  0.234200  0.743700  1.0  0.3239
  C  C101  1  0.961200  0.360600  0.668200  1.0  -0.1232
  C  C102  1  0.224900  0.522900  0.462400  1.0  -0.1727
  C  C103  1  0.199500  0.772700  0.420500  1.0  0.3402
  C  C104  1  0.156600  0.647900  0.502700  1.0  -0.0882
  C  C105  1  0.138400  0.053800  0.608600  1.0  0.0092
  C  C106  1  0.965200  0.944590  0.552800  1.0  -0.0014
  C  C107  1  0.327200  0.939100  0.769500  1.0  0.1216
  C  C108  1  0.780800  0.061600  0.402300  1.0  0.081
  C  C109  1  0.449900  0.941500  0.656300  1.0  -0.099
  C  C110  1  0.709500  0.186600  0.435500  1.0  -0.073
  C  C111  1  0.664600  0.066300  0.514000  1.0  -0.1242
  C  C112  1  0.022800  0.073500  0.512800  1.0  -0.0245
  C  C113  1  0.850600  0.017600  0.345400  1.0  -0.1223
  C  C114  1  0.081500  0.924500  0.650400  1.0  -0.0124
  C  C115  1  0.406100  0.818200  0.729600  1.0  -0.0646
  C  C116  1  0.254900  0.981700  0.818400  1.0  -0.1437
  C  C117  1  0.339100  0.857600  0.779100  1.0  -0.1858
  C  C118  1  0.770800  0.145100  0.384200  1.0  -0.1122
  C  C119  1  0.383600  0.981400  0.706100  1.0  -0.1314
  C  C120  1  0.417600  0.734200  0.743700  1.0  0.3239
  C  C121  1  0.461200  0.860600  0.668200  1.0  -0.1232
  C  C122  1  0.724900  0.022900  0.462400  1.0  -0.1727
  C  C123  1  0.699500  0.272700  0.420500  1.0  0.3402
  C  C124  1  0.656600  0.147900  0.502700  1.0  -0.0882
  C  C125  1  0.638400  0.446200  0.108600  1.0  0.0083
  C  C126  1  0.465200  0.555410  0.052800  1.0  -0.0029
  C  C127  1  0.827200  0.560900  0.269500  1.0  0.1211
  C  C128  1  0.280800  0.438400  0.902300  1.0  0.0808
  C  C129  1  0.949900  0.558500  0.156300  1.0  -0.0987
  C  C130  1  0.209500  0.313400  0.935500  1.0  -0.0737
  C  C131  1  0.164600  0.433700  0.014000  1.0  -0.1242
  C  C132  1  0.522800  0.426500  0.012800  1.0  -0.0229
  C  C133  1  0.350600  0.482400  0.845400  1.0  -0.1229
  C  C134  1  0.581500  0.575500  0.150400  1.0  -0.0153
  C  C135  1  0.906100  0.681800  0.229600  1.0  -0.0627
  C  C136  1  0.754900  0.518300  0.318400  1.0  -0.1438
  C  C137  1  0.839100  0.642400  0.279100  1.0  -0.1851
  C  C138  1  0.270800  0.354900  0.884200  1.0  -0.1131
  C  C139  1  0.883600  0.518600  0.206100  1.0  -0.1311
  C  C140  1  0.917600  0.765800  0.243700  1.0  0.324
  C  C141  1  0.961200  0.639400  0.168200  1.0  -0.1222
  C  C142  1  0.224900  0.477100  0.962400  1.0  -0.1742
  C  C143  1  0.199500  0.227300  0.920500  1.0  0.3401
  C  C144  1  0.156600  0.352100  0.002700  1.0  -0.0876
  C  C145  1  0.138400  0.946200  0.108600  1.0  0.0083
  C  C146  1  0.965200  0.055410  0.052800  1.0  -0.0029
  C  C147  1  0.327200  0.060900  0.269500  1.0  0.1211
  C  C148  1  0.780800  0.938400  0.902300  1.0  0.0808
  C  C149  1  0.449900  0.058500  0.156300  1.0  -0.0987
  C  C150  1  0.709500  0.813400  0.935500  1.0  -0.0737
  C  C151  1  0.664600  0.933700  0.014000  1.0  -0.1242
  C  C152  1  0.022800  0.926500  0.012800  1.0  -0.0229
  C  C153  1  0.850600  0.982400  0.845400  1.0  -0.1229
  C  C154  1  0.081500  0.075500  0.150400  1.0  -0.0153
  C  C155  1  0.406100  0.181800  0.229600  1.0  -0.0627
  C  C156  1  0.254900  0.018300  0.318400  1.0  -0.1438
  C  C157  1  0.339100  0.142400  0.279100  1.0  -0.1851
  C  C158  1  0.770800  0.854900  0.884200  1.0  -0.1131
  C  C159  1  0.383600  0.018600  0.206100  1.0  -0.1311
  C  C160  1  0.417600  0.265800  0.243700  1.0  0.324
  C  C161  1  0.461200  0.139400  0.168200  1.0  -0.1222
  C  C162  1  0.724900  0.977100  0.962400  1.0  -0.1742
  C  C163  1  0.699500  0.727300  0.920500  1.0  0.34
  C  C164  1  0.656600  0.852100  0.002700  1.0  -0.0876
  N  N165  1  0.641200  0.497750  0.715200  1.0  -0.1902
  N  N166  1  0.463300  0.500170  0.447400  1.0  -0.209
  N  N167  1  0.190800  0.839700  0.413100  1.0  -0.5394
  N  N168  1  0.928200  0.165700  0.756700  1.0  -0.5519
  N  N169  1  0.141200  0.997750  0.715200  1.0  -0.1902
  N  N170  1  0.963300  0.000170  0.447400  1.0  -0.209
  N  N171  1  0.690800  0.339700  0.413100  1.0  -0.5394
  N  N172  1  0.428200  0.665700  0.756700  1.0  -0.5519
  N  N173  1  0.641200  0.502250  0.215200  1.0  -0.1903
  N  N174  1  0.463300  0.499830  0.947400  1.0  -0.2087
  N  N175  1  0.190800  0.160300  0.913100  1.0  -0.5393
  N  N176  1  0.928200  0.834300  0.256700  1.0  -0.5522
  N  N177  1  0.141200  0.002250  0.215200  1.0  -0.1903
  N  N178  1  0.963300  0.999830  0.947400  1.0  -0.2087
  N  N179  1  0.690800  0.660300  0.913100  1.0  -0.5393
  N  N180  1  0.428200  0.334300  0.256700  1.0  -0.5522
