# generated using pymatgen
data_CoH8(C3N)4
_symmetry_space_group_name_H-M   'P 1'
_cell_length_a   13.32700000
_cell_length_b   14.15100000
_cell_length_c   26.53200000
_cell_angle_alpha   90.00000000
_cell_angle_beta   101.51200000
_cell_angle_gamma   90.00000000
_symmetry_Int_Tables_number   1
_chemical_formula_structural   CoH8(C3N)4
_chemical_formula_sum   'Co8 H64 C96 N32'
_cell_volume   4903.02049213
_cell_formula_units_Z   8
loop_
 _symmetry_equiv_pos_site_id
 _symmetry_equiv_pos_as_xyz
  1  'x, y, z'
loop_
 _atom_site_type_symbol
 _atom_site_label
 _atom_site_symmetry_multiplicity
 _atom_site_fract_x
 _atom_site_fract_y
 _atom_site_fract_z
 _atom_site_occupancy
 _atom_site_charge
  Co  Co1  1  0.017060  0.866750  0.269070  1.0  0.6607
  Co  Co2  1  0.010550  0.113520  0.243930  1.0  0.6667
  Co  Co3  1  0.982940  0.366750  0.230930  1.0  0.6601
  Co  Co4  1  0.989450  0.613520  0.256070  1.0  0.6671
  Co  Co5  1  0.982940  0.133250  0.730930  1.0  0.66
  Co  Co6  1  0.989450  0.886480  0.756070  1.0  0.6664
  Co  Co7  1  0.017060  0.633250  0.769070  1.0  0.6609
  Co  Co8  1  0.010550  0.386480  0.743930  1.0  0.666
  H  H9  1  0.269800  0.859300  0.295500  1.0  0.1083
  H  H10  1  0.242200  0.118900  0.232800  1.0  0.0946
  H  H11  1  0.793800  0.865200  0.294500  1.0  0.089
  H  H12  1  0.765500  0.122600  0.229800  1.0  0.0987
  H  H13  1  0.618600  0.864700  0.299000  1.0  0.113
  H  H14  1  0.446900  0.870900  0.302800  1.0  0.1022
  H  H15  1  0.415000  0.117400  0.226500  1.0  0.1112
  H  H16  1  0.589300  0.122100  0.229700  1.0  0.1054
  H  H17  1  0.975200  0.584300  0.376300  1.0  0.1022
  H  H18  1  0.017000  0.862600  0.389000  1.0  0.0995
  H  H19  1  0.928700  0.856300  0.457300  1.0  0.1134
  H  H20  1  0.924300  0.864600  0.545900  1.0  0.1075
  H  H21  1  0.015600  0.593300  0.562100  1.0  0.1056
  H  H22  1  0.030700  0.587900  0.475100  1.0  0.1123
  H  H23  1  0.007000  0.601000  0.649900  1.0  0.1011
  H  H24  1  0.930700  0.876100  0.631900  1.0  0.0959
  H  H25  1  0.730200  0.359300  0.204500  1.0  0.108
  H  H26  1  0.757800  0.618900  0.267200  1.0  0.0939
  H  H27  1  0.206200  0.365200  0.205500  1.0  0.0881
  H  H28  1  0.234500  0.622600  0.270200  1.0  0.0991
  H  H29  1  0.381400  0.364700  0.201000  1.0  0.1135
  H  H30  1  0.553100  0.370900  0.197200  1.0  0.1022
  H  H31  1  0.585000  0.617400  0.273500  1.0  0.1114
  H  H32  1  0.410700  0.622100  0.270300  1.0  0.106
  H  H33  1  0.024800  0.084300  0.123700  1.0  0.1019
  H  H34  1  0.983000  0.362600  0.111000  1.0  0.0994
  H  H35  1  0.071300  0.356300  0.042700  1.0  0.1134
  H  H36  1  0.075700  0.364600  0.954100  1.0  0.1071
  H  H37  1  0.984400  0.093300  0.937900  1.0  0.1049
  H  H38  1  0.969300  0.087900  0.024900  1.0  0.1121
  H  H39  1  0.993000  0.101000  0.850100  1.0  0.1016
  H  H40  1  0.069300  0.376100  0.868100  1.0  0.0963
  H  H41  1  0.730200  0.140700  0.704500  1.0  0.1087
  H  H42  1  0.757800  0.881100  0.767200  1.0  0.0933
  H  H43  1  0.206200  0.134800  0.705500  1.0  0.0888
  H  H44  1  0.234500  0.877400  0.770200  1.0  0.0991
  H  H45  1  0.381400  0.135300  0.701000  1.0  0.1128
  H  H46  1  0.553100  0.129100  0.697200  1.0  0.102
  H  H47  1  0.585000  0.882600  0.773500  1.0  0.1121
  H  H48  1  0.410700  0.877900  0.770300  1.0  0.1058
  H  H49  1  0.024800  0.415700  0.623700  1.0  0.102
  H  H50  1  0.983000  0.137400  0.611000  1.0  0.0993
  H  H51  1  0.071300  0.143700  0.542700  1.0  0.1135
  H  H52  1  0.075700  0.135400  0.454100  1.0  0.1077
  H  H53  1  0.984400  0.406700  0.437900  1.0  0.1048
  H  H54  1  0.969300  0.412100  0.524900  1.0  0.1117
  H  H55  1  0.993000  0.399000  0.350100  1.0  0.1018
  H  H56  1  0.069300  0.123900  0.368100  1.0  0.0962
  H  H57  1  0.269800  0.640700  0.795500  1.0  0.1085
  H  H58  1  0.242200  0.381100  0.732800  1.0  0.0937
  H  H59  1  0.793800  0.634800  0.794500  1.0  0.0894
  H  H60  1  0.765500  0.377400  0.729800  1.0  0.0984
  H  H61  1  0.618600  0.635300  0.799000  1.0  0.1126
  H  H62  1  0.446900  0.629100  0.802800  1.0  0.1022
  H  H63  1  0.415000  0.382600  0.726500  1.0  0.1117
  H  H64  1  0.589300  0.377900  0.729700  1.0  0.1058
  H  H65  1  0.975200  0.915700  0.876300  1.0  0.1024
  H  H66  1  0.017000  0.637400  0.889000  1.0  0.0997
  H  H67  1  0.928700  0.643700  0.957300  1.0  0.1132
  H  H68  1  0.924300  0.635400  0.045900  1.0  0.1077
  H  H69  1  0.015600  0.906700  0.062100  1.0  0.1053
  H  H70  1  0.030700  0.912100  0.975100  1.0  0.112
  H  H71  1  0.007000  0.899000  0.149900  1.0  0.1012
  H  H72  1  0.930700  0.623900  0.131900  1.0  0.0958
  C  C73  1  0.242800  0.917300  0.280500  1.0  -0.0033
  C  C74  1  0.299300  0.992000  0.263500  1.0  -0.1251
  C  C75  1  0.227600  0.059500  0.246400  1.0  0.0296
  C  C76  1  0.807900  0.922700  0.278800  1.0  0.0408
  C  C77  1  0.732000  0.993900  0.261200  1.0  -0.1469
  C  C78  1  0.791300  0.063400  0.243500  1.0  0.0519
  C  C79  1  0.624500  0.993500  0.264700  1.0  0.0773
  C  C80  1  0.578800  0.918000  0.285500  1.0  -0.1367
  C  C81  1  0.475600  0.921100  0.286500  1.0  -0.1158
  C  C82  1  0.412800  0.993200  0.265300  1.0  0.057
  C  C83  1  0.457000  0.067400  0.242700  1.0  -0.1183
  C  C84  1  0.560400  0.069100  0.243600  1.0  -0.1286
  C  C85  1  0.984100  0.648800  0.368400  1.0  -0.0232
  C  C86  1  0.988700  0.723600  0.403000  1.0  -0.0883
  C  C87  1  0.007200  0.800400  0.375400  1.0  -0.0019
  C  C88  1  0.981400  0.722700  0.458900  1.0  0.0568
  C  C89  1  0.948800  0.803200  0.478800  1.0  -0.1385
  C  C90  1  0.944700  0.807600  0.531900  1.0  -0.1295
  C  C91  1  0.969600  0.732000  0.562500  1.0  0.0663
  C  C92  1  0.000100  0.647700  0.541100  1.0  -0.1235
  C  C93  1  0.007800  0.643800  0.489100  1.0  -0.1375
  C  C94  1  0.993600  0.665400  0.656300  1.0  0.0101
  C  C95  1  0.971000  0.738600  0.618400  1.0  -0.1408
  C  C96  1  0.952600  0.816300  0.646200  1.0  0.0315
  C  C97  1  0.757200  0.417300  0.219500  1.0  -0.0036
  C  C98  1  0.700700  0.492000  0.236500  1.0  -0.1262
  C  C99  1  0.772400  0.559500  0.253600  1.0  0.0301
  C  C100  1  0.192100  0.422700  0.221200  1.0  0.0399
  C  C101  1  0.268000  0.493900  0.238800  1.0  -0.1473
  C  C102  1  0.208700  0.563400  0.256500  1.0  0.0503
  C  C103  1  0.375500  0.493500  0.235300  1.0  0.0769
  C  C104  1  0.421200  0.418000  0.214500  1.0  -0.1372
  C  C105  1  0.524400  0.421100  0.213500  1.0  -0.1152
  C  C106  1  0.587200  0.493200  0.234700  1.0  0.0572
  C  C107  1  0.543000  0.567400  0.257300  1.0  -0.1188
  C  C108  1  0.439600  0.569100  0.256400  1.0  -0.1295
  C  C109  1  0.015900  0.148800  0.131600  1.0  -0.0238
  C  C110  1  0.011300  0.223600  0.097000  1.0  -0.0903
  C  C111  1  0.992800  0.300400  0.124600  1.0  -0.0042
  C  C112  1  0.018600  0.222700  0.041100  1.0  0.0565
  C  C113  1  0.051200  0.303200  0.021200  1.0  -0.138
  C  C114  1  0.055300  0.307600  0.968100  1.0  -0.1296
  C  C115  1  0.030400  0.232000  0.937500  1.0  0.0659
  C  C116  1  0.999900  0.147700  0.958900  1.0  -0.1246
  C  C117  1  0.992200  0.143800  0.010900  1.0  -0.1385
  C  C118  1  0.006400  0.165400  0.843700  1.0  0.0095
  C  C119  1  0.029000  0.238600  0.881600  1.0  -0.1421
  C  C120  1  0.047400  0.316300  0.853800  1.0  0.0309
  C  C121  1  0.757200  0.082700  0.719500  1.0  -0.0039
  C  C122  1  0.700700  0.008000  0.736500  1.0  -0.1262
  C  C123  1  0.772400  0.940500  0.753600  1.0  0.0302
  C  C124  1  0.192100  0.077300  0.721200  1.0  0.0396
  C  C125  1  0.268000  0.006100  0.738800  1.0  -0.1472
  C  C126  1  0.208700  0.936600  0.756500  1.0  0.0516
  C  C127  1  0.375500  0.006500  0.735300  1.0  0.0772
  C  C128  1  0.421200  0.082000  0.714500  1.0  -0.1382
  C  C129  1  0.524400  0.078900  0.713500  1.0  -0.1169
  C  C130  1  0.587200  0.006800  0.734700  1.0  0.057
  C  C131  1  0.543000  0.932600  0.757300  1.0  -0.1187
  C  C132  1  0.439600  0.930900  0.756400  1.0  -0.1288
  C  C133  1  0.015900  0.351200  0.631600  1.0  -0.023
  C  C134  1  0.011300  0.276400  0.597000  1.0  -0.0902
  C  C135  1  0.992800  0.199600  0.624600  1.0  -0.0028
  C  C136  1  0.018600  0.277300  0.541100  1.0  0.0565
  C  C137  1  0.051200  0.196800  0.521200  1.0  -0.1375
  C  C138  1  0.055300  0.192400  0.468100  1.0  -0.1289
  C  C139  1  0.030400  0.268000  0.437500  1.0  0.0652
  C  C140  1  0.999900  0.352300  0.458900  1.0  -0.1247
  C  C141  1  0.992200  0.356200  0.510900  1.0  -0.1388
  C  C142  1  0.006400  0.334600  0.343700  1.0  0.0099
  C  C143  1  0.029000  0.261400  0.381600  1.0  -0.1423
  C  C144  1  0.047400  0.183700  0.353800  1.0  0.0313
  C  C145  1  0.242800  0.582700  0.780500  1.0  -0.0037
  C  C146  1  0.299300  0.508000  0.763500  1.0  -0.1251
  C  C147  1  0.227600  0.440500  0.746400  1.0  0.0291
  C  C148  1  0.807900  0.577300  0.778800  1.0  0.0395
  C  C149  1  0.732000  0.506100  0.761200  1.0  -0.1469
  C  C150  1  0.791300  0.436600  0.743500  1.0  0.052
  C  C151  1  0.624500  0.506500  0.764700  1.0  0.0773
  C  C152  1  0.578800  0.582000  0.785500  1.0  -0.1376
  C  C153  1  0.475600  0.578900  0.786500  1.0  -0.1171
  C  C154  1  0.412800  0.506800  0.765300  1.0  0.057
  C  C155  1  0.457000  0.432600  0.742700  1.0  -0.1181
  C  C156  1  0.560400  0.430900  0.743600  1.0  -0.1277
  C  C157  1  0.984100  0.851200  0.868400  1.0  -0.0227
  C  C158  1  0.988700  0.776400  0.903000  1.0  -0.0883
  C  C159  1  0.007200  0.699600  0.875400  1.0  0.0005
  C  C160  1  0.981400  0.777300  0.958900  1.0  0.0567
  C  C161  1  0.948800  0.696800  0.978800  1.0  -0.1375
  C  C162  1  0.944700  0.692400  0.031900  1.0  -0.1291
  C  C163  1  0.969600  0.768000  0.062500  1.0  0.0656
  C  C164  1  0.000100  0.852300  0.041100  1.0  -0.124
  C  C165  1  0.007800  0.856200  0.989100  1.0  -0.1377
  C  C166  1  0.993600  0.834600  0.156300  1.0  0.0108
  C  C167  1  0.971000  0.761400  0.118400  1.0  -0.1406
  C  C168  1  0.952600  0.683700  0.146200  1.0  0.0317
  N  N169  1  0.143300  0.944400  0.271400  1.0  -0.2327
  N  N170  1  0.133700  0.031400  0.251100  1.0  -0.2276
  N  N171  1  0.899200  0.946000  0.270600  1.0  -0.2389
  N  N172  1  0.888400  0.036300  0.248200  1.0  -0.2603
  N  N173  1  0.994600  0.683200  0.320100  1.0  -0.2172
  N  N174  1  0.010100  0.776300  0.324100  1.0  -0.24
  N  N175  1  0.992500  0.703900  0.701800  1.0  -0.2044
  N  N176  1  0.969800  0.795700  0.696000  1.0  -0.2235
  N  N177  1  0.856700  0.444400  0.228600  1.0  -0.2334
  N  N178  1  0.866300  0.531400  0.248900  1.0  -0.2273
  N  N179  1  0.100800  0.446000  0.229400  1.0  -0.2391
  N  N180  1  0.111600  0.536300  0.251800  1.0  -0.2616
  N  N181  1  0.005400  0.183200  0.179900  1.0  -0.2163
  N  N182  1  0.989900  0.276300  0.175900  1.0  -0.2393
  N  N183  1  0.007500  0.203900  0.798200  1.0  -0.202
  N  N184  1  0.030200  0.295700  0.804000  1.0  -0.2222
  N  N185  1  0.856700  0.055600  0.728600  1.0  -0.233
  N  N186  1  0.866300  0.968600  0.748900  1.0  -0.2271
  N  N187  1  0.100800  0.054000  0.729400  1.0  -0.2394
  N  N188  1  0.111600  0.963700  0.751800  1.0  -0.2617
  N  N189  1  0.005400  0.316800  0.679900  1.0  -0.217
  N  N190  1  0.989900  0.223700  0.675900  1.0  -0.2394
  N  N191  1  0.007500  0.296100  0.298200  1.0  -0.2019
  N  N192  1  0.030200  0.204300  0.304000  1.0  -0.2224
  N  N193  1  0.143300  0.555600  0.771400  1.0  -0.2329
  N  N194  1  0.133700  0.468600  0.751100  1.0  -0.2269
  N  N195  1  0.899200  0.554000  0.770600  1.0  -0.2392
  N  N196  1  0.888400  0.463700  0.748200  1.0  -0.2607
  N  N197  1  0.994600  0.816800  0.820100  1.0  -0.2174
  N  N198  1  0.010100  0.723700  0.824100  1.0  -0.2397
  N  N199  1  0.992500  0.796100  0.201800  1.0  -0.2044
  N  N200  1  0.969800  0.704300  0.196000  1.0  -0.2239
