# generated using pymatgen
data_ZnH8C12(IN2)2
_symmetry_space_group_name_H-M   'P 1'
_cell_length_a   27.74900000
_cell_length_b   13.81700000
_cell_length_c   44.36200000
_cell_angle_alpha   90.00000000
_cell_angle_beta   90.00000000
_cell_angle_gamma   90.00000000
_symmetry_Int_Tables_number   1
_chemical_formula_structural   ZnH8C12(IN2)2
_chemical_formula_sum   'Zn24 H192 C288 I48 N96'
_cell_volume   17008.74272375
_cell_formula_units_Z   24
loop_
 _symmetry_equiv_pos_site_id
 _symmetry_equiv_pos_as_xyz
  1  'x, y, z'
loop_
 _atom_site_type_symbol
 _atom_site_label
 _atom_site_symmetry_multiplicity
 _atom_site_fract_x
 _atom_site_fract_y
 _atom_site_fract_z
 _atom_site_occupancy
 _atom_site_charge
  Zn  Zn1  1  0.975430  0.622230  0.415160  1.0  0.8314
  Zn  Zn2  1  0.952650  0.856410  0.586140  1.0  0.8764
  Zn  Zn3  1  0.760490  0.818290  0.318940  1.0  0.8849
  Zn  Zn4  1  0.524570  0.377770  0.915160  1.0  0.8323
  Zn  Zn5  1  0.547350  0.143590  0.086140  1.0  0.8754
  Zn  Zn6  1  0.739510  0.181710  0.818940  1.0  0.883
  Zn  Zn7  1  0.024570  0.122230  0.084840  1.0  0.8312
  Zn  Zn8  1  0.047350  0.356410  0.913860  1.0  0.8752
  Zn  Zn9  1  0.239510  0.318290  0.181060  1.0  0.8854
  Zn  Zn10  1  0.475430  0.877770  0.584840  1.0  0.832
  Zn  Zn11  1  0.452650  0.643590  0.413860  1.0  0.876
  Zn  Zn12  1  0.260490  0.681710  0.681060  1.0  0.8833
  Zn  Zn13  1  0.024570  0.377770  0.584840  1.0  0.8316
  Zn  Zn14  1  0.047350  0.143590  0.413860  1.0  0.8755
  Zn  Zn15  1  0.239510  0.181710  0.681060  1.0  0.8833
  Zn  Zn16  1  0.475430  0.622230  0.084840  1.0  0.8307
  Zn  Zn17  1  0.452650  0.856410  0.913860  1.0  0.8756
  Zn  Zn18  1  0.260490  0.818290  0.181060  1.0  0.8849
  Zn  Zn19  1  0.975430  0.877770  0.915160  1.0  0.8328
  Zn  Zn20  1  0.952650  0.643590  0.086140  1.0  0.8761
  Zn  Zn21  1  0.760490  0.681710  0.818940  1.0  0.883
  Zn  Zn22  1  0.524570  0.122230  0.415160  1.0  0.8318
  Zn  Zn23  1  0.547350  0.356410  0.586140  1.0  0.8756
  Zn  Zn24  1  0.739510  0.318290  0.318940  1.0  0.8854
  H  H25  1  0.789900  0.027200  0.330400  1.0  0.0865
  H  H26  1  0.828900  0.117800  0.367200  1.0  0.1171
  H  H27  1  0.811200  0.788400  0.376200  1.0  0.0847
  H  H28  1  0.849400  0.872100  0.414300  1.0  0.127
  H  H29  1  0.923000  0.799700  0.523000  1.0  0.0886
  H  H30  1  0.901700  0.874700  0.478000  1.0  0.1242
  H  H31  1  0.971500  0.046600  0.556000  1.0  0.0848
  H  H32  1  0.949300  0.128000  0.512400  1.0  0.1151
  H  H33  1  0.956500  0.485500  0.467200  1.0  0.1022
  H  H34  1  0.931600  0.328200  0.475200  1.0  0.113
  H  H35  1  0.926400  0.463600  0.380700  1.0  0.0857
  H  H36  1  0.900500  0.307200  0.386500  1.0  0.1194
  H  H37  1  0.012000  0.566600  0.354100  1.0  0.0865
  H  H38  1  0.083300  0.541900  0.328400  1.0  0.1179
  H  H39  1  0.081300  0.606800  0.430500  1.0  0.0906
  H  H40  1  0.154900  0.585000  0.406600  1.0  0.1185
  H  H41  1  0.347000  0.634600  0.430200  1.0  0.0893
  H  H42  1  0.272800  0.606200  0.407700  1.0  0.1179
  H  H43  1  0.416000  0.559500  0.356400  1.0  0.0988
  H  H44  1  0.344500  0.534400  0.331300  1.0  0.1206
  H  H45  1  0.296900  0.440900  0.223200  1.0  0.0866
  H  H46  1  0.291200  0.504700  0.271300  1.0  0.113
  H  H47  1  0.160400  0.367700  0.223900  1.0  0.0861
  H  H48  1  0.149800  0.434500  0.271100  1.0  0.1159
  H  H49  1  0.710100  0.972800  0.830400  1.0  0.0866
  H  H50  1  0.671100  0.882200  0.867200  1.0  0.1172
  H  H51  1  0.688800  0.211600  0.876200  1.0  0.0838
  H  H52  1  0.650600  0.127900  0.914300  1.0  0.1275
  H  H53  1  0.577000  0.200300  0.023000  1.0  0.0873
  H  H54  1  0.598300  0.125300  0.978000  1.0  0.1245
  H  H55  1  0.528500  0.953400  0.056000  1.0  0.0847
  H  H56  1  0.550700  0.872000  0.012400  1.0  0.1153
  H  H57  1  0.543500  0.514500  0.967200  1.0  0.102
  H  H58  1  0.568400  0.671800  0.975200  1.0  0.1131
  H  H59  1  0.573600  0.536400  0.880700  1.0  0.0859
  H  H60  1  0.599500  0.692800  0.886500  1.0  0.119
  H  H61  1  0.488000  0.433400  0.854100  1.0  0.0862
  H  H62  1  0.416700  0.458100  0.828400  1.0  0.118
  H  H63  1  0.418700  0.393200  0.930500  1.0  0.0908
  H  H64  1  0.345100  0.415000  0.906600  1.0  0.1189
  H  H65  1  0.153000  0.365400  0.930200  1.0  0.0889
  H  H66  1  0.227200  0.393800  0.907700  1.0  0.1174
  H  H67  1  0.084000  0.440500  0.856400  1.0  0.0998
  H  H68  1  0.155500  0.465600  0.831300  1.0  0.1209
  H  H69  1  0.203100  0.559100  0.723200  1.0  0.0867
  H  H70  1  0.208800  0.495300  0.771300  1.0  0.1131
  H  H71  1  0.339600  0.632300  0.723900  1.0  0.0866
  H  H72  1  0.350200  0.565500  0.771100  1.0  0.1156
  H  H73  1  0.210100  0.527200  0.169600  1.0  0.0862
  H  H74  1  0.171100  0.617800  0.132800  1.0  0.1172
  H  H75  1  0.188800  0.288400  0.123800  1.0  0.0843
  H  H76  1  0.150600  0.372100  0.085700  1.0  0.1267
  H  H77  1  0.077000  0.299700  0.977000  1.0  0.0887
  H  H78  1  0.098300  0.374700  0.022000  1.0  0.1241
  H  H79  1  0.028500  0.546600  0.944000  1.0  0.0846
  H  H80  1  0.050700  0.628000  0.987600  1.0  0.1147
  H  H81  1  0.043500  0.985500  0.032800  1.0  0.1019
  H  H82  1  0.068400  0.828200  0.024800  1.0  0.113
  H  H83  1  0.073600  0.963600  0.119300  1.0  0.0862
  H  H84  1  0.099500  0.807200  0.113500  1.0  0.1198
  H  H85  1  0.988000  0.066600  0.145900  1.0  0.086
  H  H86  1  0.916700  0.041900  0.171600  1.0  0.1178
  H  H87  1  0.918700  0.106800  0.069500  1.0  0.0892
  H  H88  1  0.845100  0.085000  0.093400  1.0  0.1185
  H  H89  1  0.653000  0.134600  0.069800  1.0  0.0898
  H  H90  1  0.727200  0.106200  0.092300  1.0  0.1174
  H  H91  1  0.584000  0.059500  0.143600  1.0  0.1005
  H  H92  1  0.655500  0.034400  0.168700  1.0  0.1212
  H  H93  1  0.703100  0.940900  0.276800  1.0  0.0867
  H  H94  1  0.708800  0.004700  0.228700  1.0  0.1127
  H  H95  1  0.839600  0.867700  0.276100  1.0  0.0864
  H  H96  1  0.850200  0.934500  0.228900  1.0  0.1157
  H  H97  1  0.289900  0.472800  0.669600  1.0  0.0867
  H  H98  1  0.328900  0.382200  0.632800  1.0  0.1169
  H  H99  1  0.311200  0.711600  0.623800  1.0  0.0838
  H  H100  1  0.349400  0.627900  0.585700  1.0  0.1266
  H  H101  1  0.423000  0.700300  0.477000  1.0  0.0879
  H  H102  1  0.401700  0.625300  0.522000  1.0  0.1242
  H  H103  1  0.471500  0.453400  0.444000  1.0  0.0843
  H  H104  1  0.449300  0.372000  0.487600  1.0  0.1155
  H  H105  1  0.456500  0.014500  0.532800  1.0  0.1023
  H  H106  1  0.431600  0.171800  0.524800  1.0  0.1129
  H  H107  1  0.426400  0.036400  0.619300  1.0  0.0868
  H  H108  1  0.400500  0.192800  0.613500  1.0  0.1201
  H  H109  1  0.512000  0.933400  0.645900  1.0  0.0869
  H  H110  1  0.583300  0.958100  0.671600  1.0  0.1178
  H  H111  1  0.581300  0.893200  0.569500  1.0  0.0894
  H  H112  1  0.654900  0.915000  0.593400  1.0  0.1181
  H  H113  1  0.847000  0.865400  0.569800  1.0  0.0898
  H  H114  1  0.772800  0.893800  0.592300  1.0  0.1182
  H  H115  1  0.916000  0.940500  0.643600  1.0  0.1002
  H  H116  1  0.844500  0.965600  0.668700  1.0  0.1207
  H  H117  1  0.796900  0.059100  0.776800  1.0  0.0862
  H  H118  1  0.791200  0.995300  0.728700  1.0  0.113
  H  H119  1  0.660400  0.132300  0.776100  1.0  0.0856
  H  H120  1  0.649800  0.065500  0.728900  1.0  0.1158
  H  H121  1  0.210100  0.972800  0.669600  1.0  0.0863
  H  H122  1  0.171100  0.882200  0.632800  1.0  0.1172
  H  H123  1  0.188800  0.211600  0.623800  1.0  0.0835
  H  H124  1  0.150600  0.127900  0.585700  1.0  0.1269
  H  H125  1  0.077000  0.200300  0.477000  1.0  0.0874
  H  H126  1  0.098300  0.125300  0.522000  1.0  0.1241
  H  H127  1  0.028500  0.953400  0.444000  1.0  0.0842
  H  H128  1  0.050700  0.872000  0.487600  1.0  0.1156
  H  H129  1  0.043500  0.514500  0.532800  1.0  0.1021
  H  H130  1  0.068400  0.671800  0.524800  1.0  0.113
  H  H131  1  0.073600  0.536400  0.619300  1.0  0.0862
  H  H132  1  0.099500  0.692800  0.613500  1.0  0.1197
  H  H133  1  0.988000  0.433400  0.645900  1.0  0.0862
  H  H134  1  0.916700  0.458100  0.671600  1.0  0.1176
  H  H135  1  0.918700  0.393200  0.569500  1.0  0.089
  H  H136  1  0.845100  0.415000  0.593400  1.0  0.1185
  H  H137  1  0.653000  0.365400  0.569800  1.0  0.0895
  H  H138  1  0.727200  0.393800  0.592300  1.0  0.1177
  H  H139  1  0.584000  0.440500  0.643600  1.0  0.1008
  H  H140  1  0.655500  0.465600  0.668700  1.0  0.1214
  H  H141  1  0.703100  0.559100  0.776800  1.0  0.0867
  H  H142  1  0.708800  0.495300  0.728700  1.0  0.113
  H  H143  1  0.839600  0.632300  0.776100  1.0  0.0862
  H  H144  1  0.850200  0.565500  0.728900  1.0  0.1157
  H  H145  1  0.289900  0.027200  0.169600  1.0  0.0863
  H  H146  1  0.328900  0.117800  0.132800  1.0  0.1171
  H  H147  1  0.311200  0.788400  0.123800  1.0  0.0845
  H  H148  1  0.349400  0.872100  0.085700  1.0  0.1266
  H  H149  1  0.423000  0.799700  0.977000  1.0  0.0886
  H  H150  1  0.401700  0.874700  0.022000  1.0  0.1243
  H  H151  1  0.471500  0.046600  0.944000  1.0  0.0844
  H  H152  1  0.449300  0.128000  0.987600  1.0  0.1149
  H  H153  1  0.456500  0.485500  0.032800  1.0  0.1017
  H  H154  1  0.431600  0.328200  0.024800  1.0  0.113
  H  H155  1  0.426400  0.463600  0.119300  1.0  0.0866
  H  H156  1  0.400500  0.307200  0.113500  1.0  0.1203
  H  H157  1  0.512000  0.566600  0.145900  1.0  0.087
  H  H158  1  0.583300  0.541900  0.171600  1.0  0.1181
  H  H159  1  0.581300  0.606800  0.069500  1.0  0.0896
  H  H160  1  0.654900  0.585000  0.093400  1.0  0.1182
  H  H161  1  0.847000  0.634600  0.069800  1.0  0.0897
  H  H162  1  0.772800  0.606200  0.092300  1.0  0.118
  H  H163  1  0.916000  0.559500  0.143600  1.0  0.0997
  H  H164  1  0.844500  0.534400  0.168700  1.0  0.1205
  H  H165  1  0.796900  0.440900  0.276800  1.0  0.0863
  H  H166  1  0.791200  0.504700  0.228700  1.0  0.1128
  H  H167  1  0.660400  0.367700  0.276100  1.0  0.0862
  H  H168  1  0.649800  0.434500  0.228900  1.0  0.1157
  H  H169  1  0.789900  0.472800  0.830400  1.0  0.0868
  H  H170  1  0.828900  0.382200  0.867200  1.0  0.1169
  H  H171  1  0.811200  0.711600  0.876200  1.0  0.084
  H  H172  1  0.849400  0.627900  0.914300  1.0  0.1271
  H  H173  1  0.923000  0.700300  0.023000  1.0  0.0878
  H  H174  1  0.901700  0.625300  0.978000  1.0  0.1244
  H  H175  1  0.971500  0.453400  0.056000  1.0  0.0846
  H  H176  1  0.949300  0.372000  0.012400  1.0  0.1151
  H  H177  1  0.956500  0.014500  0.967200  1.0  0.1023
  H  H178  1  0.931600  0.171800  0.975200  1.0  0.1133
  H  H179  1  0.926400  0.036400  0.880700  1.0  0.0862
  H  H180  1  0.900500  0.192800  0.886500  1.0  0.1192
  H  H181  1  0.012000  0.933400  0.854100  1.0  0.0866
  H  H182  1  0.083300  0.958100  0.828400  1.0  0.1178
  H  H183  1  0.081300  0.893200  0.930500  1.0  0.0907
  H  H184  1  0.154900  0.915000  0.906600  1.0  0.1188
  H  H185  1  0.347000  0.865400  0.930200  1.0  0.0898
  H  H186  1  0.272800  0.893800  0.907700  1.0  0.1183
  H  H187  1  0.416000  0.940500  0.856400  1.0  0.0995
  H  H188  1  0.344500  0.965600  0.831300  1.0  0.1209
  H  H189  1  0.296900  0.059100  0.723200  1.0  0.0865
  H  H190  1  0.291200  0.995300  0.771300  1.0  0.1132
  H  H191  1  0.160400  0.132300  0.723900  1.0  0.0858
  H  H192  1  0.149800  0.065500  0.771100  1.0  0.1158
  H  H193  1  0.710100  0.527200  0.330400  1.0  0.0864
  H  H194  1  0.671100  0.617800  0.367200  1.0  0.1174
  H  H195  1  0.688800  0.288400  0.376200  1.0  0.0846
  H  H196  1  0.650600  0.372100  0.414300  1.0  0.1272
  H  H197  1  0.577000  0.299700  0.523000  1.0  0.0886
  H  H198  1  0.598300  0.374700  0.478000  1.0  0.1243
  H  H199  1  0.528500  0.546600  0.556000  1.0  0.0849
  H  H200  1  0.550700  0.628000  0.512400  1.0  0.1148
  H  H201  1  0.543500  0.985500  0.467200  1.0  0.1024
  H  H202  1  0.568400  0.828200  0.475200  1.0  0.1128
  H  H203  1  0.573600  0.963600  0.380700  1.0  0.0857
  H  H204  1  0.599500  0.807200  0.386500  1.0  0.1192
  H  H205  1  0.488000  0.066600  0.354100  1.0  0.086
  H  H206  1  0.416700  0.041900  0.328400  1.0  0.1182
  H  H207  1  0.418700  0.106800  0.430500  1.0  0.0907
  H  H208  1  0.345100  0.085000  0.406600  1.0  0.1188
  H  H209  1  0.153000  0.134600  0.430200  1.0  0.0888
  H  H210  1  0.227200  0.106200  0.407700  1.0  0.1171
  H  H211  1  0.084000  0.059500  0.356400  1.0  0.0992
  H  H212  1  0.155500  0.034400  0.331300  1.0  0.1204
  H  H213  1  0.203100  0.940900  0.223200  1.0  0.0869
  H  H214  1  0.208800  0.004700  0.271300  1.0  0.1128
  H  H215  1  0.339600  0.867700  0.223900  1.0  0.0864
  H  H216  1  0.350200  0.934500  0.271100  1.0  0.1159
  C  C217  1  0.802100  0.995300  0.347780  1.0  0.1427
  C  C218  1  0.825100  0.050000  0.369730  1.0  -0.12
  C  C219  1  0.814400  0.856600  0.374450  1.0  0.1405
  C  C220  1  0.837300  0.905800  0.397300  1.0  -0.129
  C  C221  1  0.842300  0.004700  0.395080  1.0  -0.1085
  C  C222  1  0.867200  0.059900  0.418990  1.0  0.3834
  C  C223  1  0.927900  0.867500  0.520950  1.0  0.132
  C  C224  1  0.915000  0.911400  0.494110  1.0  -0.1651
  C  C225  1  0.955900  0.012000  0.540310  1.0  0.1307
  C  C226  1  0.943300  0.060500  0.514320  1.0  -0.1036
  C  C227  1  0.922000  0.010100  0.491230  1.0  -0.108
  C  C228  1  0.906100  0.061300  0.463730  1.0  0.3974
  C  C229  1  0.945400  0.448200  0.450580  1.0  0.1282
  C  C230  1  0.930400  0.355000  0.455470  1.0  -0.1203
  C  C231  1  0.927700  0.435200  0.400160  1.0  0.1544
  C  C232  1  0.912100  0.342400  0.403400  1.0  -0.1498
  C  C233  1  0.913400  0.300100  0.431680  1.0  -0.115
  C  C234  1  0.900200  0.197500  0.436310  1.0  0.3952
  C  C235  1  0.041500  0.570700  0.364910  1.0  0.1545
  C  C236  1  0.083700  0.556100  0.349390  1.0  -0.151
  C  C237  1  0.081900  0.594400  0.409410  1.0  0.1323
  C  C238  1  0.125800  0.581200  0.395360  1.0  -0.1198
  C  C239  1  0.126900  0.562400  0.364870  1.0  -0.1291
  C  C240  1  0.173800  0.550000  0.349380  1.0  0.399
  C  C241  1  0.346200  0.613900  0.409780  1.0  0.1421
  C  C242  1  0.301800  0.597600  0.396570  1.0  -0.1524
  C  C243  1  0.386400  0.570800  0.366660  1.0  0.1339
  C  C244  1  0.344200  0.554700  0.351700  1.0  -0.1005
  C  C245  1  0.300600  0.568500  0.366680  1.0  -0.1185
  C  C246  1  0.254400  0.553700  0.350550  1.0  0.3888
  C  C247  1  0.266800  0.437700  0.233430  1.0  0.1331
  C  C248  1  0.263600  0.477000  0.261970  1.0  -0.1291
  C  C249  1  0.187200  0.396000  0.233810  1.0  0.1449
  C  C250  1  0.180700  0.435100  0.261920  1.0  -0.1481
  C  C251  1  0.220200  0.475700  0.276760  1.0  -0.1098
  C  C252  1  0.216400  0.511400  0.307820  1.0  0.3907
  C  C253  1  0.697900  0.004700  0.847780  1.0  0.143
  C  C254  1  0.674900  0.950000  0.869730  1.0  -0.1192
  C  C255  1  0.685600  0.143400  0.874450  1.0  0.1419
  C  C256  1  0.662700  0.094200  0.897300  1.0  -0.1297
  C  C257  1  0.657700  0.995300  0.895080  1.0  -0.1076
  C  C258  1  0.632800  0.940100  0.918990  1.0  0.3836
  C  C259  1  0.572100  0.132500  0.020950  1.0  0.1327
  C  C260  1  0.585000  0.088600  0.994110  1.0  -0.1653
  C  C261  1  0.544100  0.988000  0.040310  1.0  0.1303
  C  C262  1  0.556700  0.939500  0.014320  1.0  -0.1053
  C  C263  1  0.578000  0.989900  0.991230  1.0  -0.1062
  C  C264  1  0.593900  0.938700  0.963730  1.0  0.3957
  C  C265  1  0.554600  0.551800  0.950580  1.0  0.1276
  C  C266  1  0.569600  0.645000  0.955470  1.0  -0.1197
  C  C267  1  0.572300  0.564800  0.900160  1.0  0.153
  C  C268  1  0.587900  0.657600  0.903400  1.0  -0.1505
  C  C269  1  0.586600  0.699900  0.931680  1.0  -0.1171
  C  C270  1  0.599800  0.802500  0.936310  1.0  0.3947
  C  C271  1  0.458500  0.429300  0.864910  1.0  0.1541
  C  C272  1  0.416300  0.443900  0.849390  1.0  -0.1513
  C  C273  1  0.418100  0.405600  0.909410  1.0  0.133
  C  C274  1  0.374200  0.418800  0.895360  1.0  -0.1205
  C  C275  1  0.373100  0.437600  0.864870  1.0  -0.129
  C  C276  1  0.326200  0.450000  0.849380  1.0  0.3994
  C  C277  1  0.153800  0.386100  0.909780  1.0  0.1423
  C  C278  1  0.198200  0.402400  0.896570  1.0  -0.1513
  C  C279  1  0.113600  0.429200  0.866660  1.0  0.1356
  C  C280  1  0.155800  0.445300  0.851700  1.0  -0.101
  C  C281  1  0.199400  0.431500  0.866680  1.0  -0.1186
  C  C282  1  0.245600  0.446300  0.850550  1.0  0.3893
  C  C283  1  0.233200  0.562300  0.733430  1.0  0.1336
  C  C284  1  0.236400  0.523000  0.761970  1.0  -0.1307
  C  C285  1  0.312800  0.604000  0.733810  1.0  0.1436
  C  C286  1  0.319300  0.564900  0.761920  1.0  -0.1476
  C  C287  1  0.279800  0.524300  0.776760  1.0  -0.1102
  C  C288  1  0.283600  0.488600  0.807820  1.0  0.3911
  C  C289  1  0.197900  0.495300  0.152220  1.0  0.1431
  C  C290  1  0.174900  0.550000  0.130270  1.0  -0.1195
  C  C291  1  0.185600  0.356600  0.125550  1.0  0.1398
  C  C292  1  0.162700  0.405800  0.102700  1.0  -0.13
  C  C293  1  0.157700  0.504700  0.104920  1.0  -0.1071
  C  C294  1  0.132800  0.559900  0.081010  1.0  0.3838
  C  C295  1  0.072100  0.367500  0.979050  1.0  0.1328
  C  C296  1  0.085000  0.411400  0.005890  1.0  -0.165
  C  C297  1  0.044100  0.512000  0.959690  1.0  0.1335
  C  C298  1  0.056700  0.560500  0.985680  1.0  -0.1022
  C  C299  1  0.078000  0.510100  0.008770  1.0  -0.1076
  C  C300  1  0.093900  0.561300  0.036270  1.0  0.3956
  C  C301  1  0.054600  0.948200  0.049420  1.0  0.1277
  C  C302  1  0.069600  0.855000  0.044530  1.0  -0.1192
  C  C303  1  0.072300  0.935200  0.099840  1.0  0.1538
  C  C304  1  0.087900  0.842400  0.096600  1.0  -0.1502
  C  C305  1  0.086600  0.800100  0.068320  1.0  -0.1156
  C  C306  1  0.099800  0.697500  0.063690  1.0  0.3948
  C  C307  1  0.958500  0.070700  0.135090  1.0  0.154
  C  C308  1  0.916300  0.056100  0.150610  1.0  -0.1527
  C  C309  1  0.918100  0.094400  0.090590  1.0  0.1334
  C  C310  1  0.874200  0.081200  0.104640  1.0  -0.1203
  C  C311  1  0.873100  0.062400  0.135130  1.0  -0.1286
  C  C312  1  0.826200  0.050000  0.150620  1.0  0.3995
  C  C313  1  0.653800  0.113900  0.090220  1.0  0.1417
  C  C314  1  0.698200  0.097600  0.103430  1.0  -0.152
  C  C315  1  0.613600  0.070800  0.133340  1.0  0.1357
  C  C316  1  0.655800  0.054700  0.148300  1.0  -0.1016
  C  C317  1  0.699400  0.068500  0.133320  1.0  -0.1185
  C  C318  1  0.745600  0.053700  0.149450  1.0  0.3894
  C  C319  1  0.733200  0.937700  0.266570  1.0  0.1343
  C  C320  1  0.736400  0.977000  0.238030  1.0  -0.1306
  C  C321  1  0.812800  0.896000  0.266190  1.0  0.1456
  C  C322  1  0.819300  0.935100  0.238080  1.0  -0.1472
  C  C323  1  0.779800  0.975700  0.223240  1.0  -0.1096
  C  C324  1  0.783600  0.011400  0.192180  1.0  0.3911
  C  C325  1  0.302100  0.504700  0.652220  1.0  0.1431
  C  C326  1  0.325100  0.450000  0.630270  1.0  -0.1176
  C  C327  1  0.314400  0.643400  0.625550  1.0  0.1416
  C  C328  1  0.337300  0.594200  0.602700  1.0  -0.1298
  C  C329  1  0.342300  0.495300  0.604920  1.0  -0.1083
  C  C330  1  0.367200  0.440100  0.581010  1.0  0.3837
  C  C331  1  0.427900  0.632500  0.479050  1.0  0.1334
  C  C332  1  0.415000  0.588600  0.505890  1.0  -0.1656
  C  C333  1  0.455900  0.488000  0.459690  1.0  0.1324
  C  C334  1  0.443300  0.439500  0.485680  1.0  -0.1052
  C  C335  1  0.422000  0.489900  0.508770  1.0  -0.1072
  C  C336  1  0.406100  0.438700  0.536270  1.0  0.3975
  C  C337  1  0.445400  0.051800  0.549420  1.0  0.1268
  C  C338  1  0.430400  0.145000  0.544530  1.0  -0.1178
  C  C339  1  0.427700  0.064800  0.599840  1.0  0.1539
  C  C340  1  0.412100  0.157600  0.596600  1.0  -0.1513
  C  C341  1  0.413400  0.199900  0.568320  1.0  -0.1162
  C  C342  1  0.400200  0.302500  0.563690  1.0  0.3952
  C  C343  1  0.541500  0.929300  0.635090  1.0  0.1546
  C  C344  1  0.583700  0.943900  0.650610  1.0  -0.1532
  C  C345  1  0.581900  0.905600  0.590590  1.0  0.1339
  C  C346  1  0.625800  0.918800  0.604640  1.0  -0.1203
  C  C347  1  0.626900  0.937600  0.635130  1.0  -0.1291
  C  C348  1  0.673800  0.950000  0.650620  1.0  0.399
  C  C349  1  0.846200  0.886100  0.590220  1.0  0.1422
  C  C350  1  0.801800  0.902400  0.603430  1.0  -0.151
  C  C351  1  0.886400  0.929200  0.633340  1.0  0.1347
  C  C352  1  0.844200  0.945300  0.648300  1.0  -0.1013
  C  C353  1  0.800600  0.931500  0.633320  1.0  -0.1181
  C  C354  1  0.754400  0.946300  0.649450  1.0  0.389
  C  C355  1  0.766800  0.062300  0.766570  1.0  0.1344
  C  C356  1  0.763600  0.023000  0.738030  1.0  -0.1296
  C  C357  1  0.687200  0.104000  0.766190  1.0  0.1452
  C  C358  1  0.680700  0.064900  0.738080  1.0  -0.1486
  C  C359  1  0.720200  0.024300  0.723240  1.0  -0.1092
  C  C360  1  0.716400  0.988600  0.692180  1.0  0.391
  C  C361  1  0.197900  0.004700  0.652220  1.0  0.1436
  C  C362  1  0.174900  0.950000  0.630270  1.0  -0.1182
  C  C363  1  0.185600  0.143400  0.625550  1.0  0.1414
  C  C364  1  0.162700  0.094200  0.602700  1.0  -0.1298
  C  C365  1  0.157700  0.995300  0.604920  1.0  -0.1074
  C  C366  1  0.132800  0.940100  0.581010  1.0  0.3837
  C  C367  1  0.072100  0.132500  0.479050  1.0  0.1328
  C  C368  1  0.085000  0.088600  0.505890  1.0  -0.1654
  C  C369  1  0.044100  0.988000  0.459690  1.0  0.1327
  C  C370  1  0.056700  0.939500  0.485680  1.0  -0.1056
  C  C371  1  0.078000  0.989900  0.508770  1.0  -0.1077
  C  C372  1  0.093900  0.938700  0.536270  1.0  0.3958
  C  C373  1  0.054600  0.551800  0.549420  1.0  0.1262
  C  C374  1  0.069600  0.645000  0.544530  1.0  -0.1184
  C  C375  1  0.072300  0.564800  0.599840  1.0  0.1537
  C  C376  1  0.087900  0.657600  0.596600  1.0  -0.1503
  C  C377  1  0.086600  0.699900  0.568320  1.0  -0.1171
  C  C378  1  0.099800  0.802500  0.563690  1.0  0.3945
  C  C379  1  0.958500  0.429300  0.635090  1.0  0.1539
  C  C380  1  0.916300  0.443900  0.650610  1.0  -0.1528
  C  C381  1  0.918100  0.405600  0.590590  1.0  0.1341
  C  C382  1  0.874200  0.418800  0.604640  1.0  -0.12
  C  C383  1  0.873100  0.437600  0.635130  1.0  -0.1289
  C  C384  1  0.826200  0.450000  0.650620  1.0  0.3995
  C  C385  1  0.653800  0.386100  0.590220  1.0  0.1418
  C  C386  1  0.698200  0.402400  0.603430  1.0  -0.1517
  C  C387  1  0.613600  0.429200  0.633340  1.0  0.1353
  C  C388  1  0.655800  0.445300  0.648300  1.0  -0.1022
  C  C389  1  0.699400  0.431500  0.633320  1.0  -0.1185
  C  C390  1  0.745600  0.446300  0.649450  1.0  0.3895
  C  C391  1  0.733200  0.562300  0.766570  1.0  0.1341
  C  C392  1  0.736400  0.523000  0.738030  1.0  -0.1307
  C  C393  1  0.812800  0.604000  0.766190  1.0  0.1443
  C  C394  1  0.819300  0.564900  0.738080  1.0  -0.1477
  C  C395  1  0.779800  0.524300  0.723240  1.0  -0.1094
  C  C396  1  0.783600  0.488600  0.692180  1.0  0.3913
  C  C397  1  0.302100  0.995300  0.152220  1.0  0.1425
  C  C398  1  0.325100  0.050000  0.130270  1.0  -0.1196
  C  C399  1  0.314400  0.856600  0.125550  1.0  0.1401
  C  C400  1  0.337300  0.905800  0.102700  1.0  -0.1294
  C  C401  1  0.342300  0.004700  0.104920  1.0  -0.1079
  C  C402  1  0.367200  0.059900  0.081010  1.0  0.3837
  C  C403  1  0.427900  0.867500  0.979050  1.0  0.1325
  C  C404  1  0.415000  0.911400  0.005890  1.0  -0.1647
  C  C405  1  0.455900  0.012000  0.959690  1.0  0.1331
  C  C406  1  0.443300  0.060500  0.985680  1.0  -0.1021
  C  C407  1  0.422000  0.010100  0.008770  1.0  -0.1071
  C  C408  1  0.406100  0.061300  0.036270  1.0  0.3973
  C  C409  1  0.445400  0.448200  0.049420  1.0  0.1288
  C  C410  1  0.430400  0.355000  0.044530  1.0  -0.1187
  C  C411  1  0.427700  0.435200  0.099840  1.0  0.1535
  C  C412  1  0.412100  0.342400  0.096600  1.0  -0.151
  C  C413  1  0.413400  0.300100  0.068320  1.0  -0.1151
  C  C414  1  0.400200  0.197500  0.063690  1.0  0.3952
  C  C415  1  0.541500  0.570700  0.135090  1.0  0.1544
  C  C416  1  0.583700  0.556100  0.150610  1.0  -0.1531
  C  C417  1  0.581900  0.594400  0.090590  1.0  0.1335
  C  C418  1  0.625800  0.581200  0.104640  1.0  -0.1205
  C  C419  1  0.626900  0.562400  0.135130  1.0  -0.1292
  C  C420  1  0.673800  0.550000  0.150620  1.0  0.3991
  C  C421  1  0.846200  0.613900  0.090220  1.0  0.1421
  C  C422  1  0.801800  0.597600  0.103430  1.0  -0.1513
  C  C423  1  0.886400  0.570800  0.133340  1.0  0.1352
  C  C424  1  0.844200  0.554700  0.148300  1.0  -0.1008
  C  C425  1  0.800600  0.568500  0.133320  1.0  -0.1181
  C  C426  1  0.754400  0.553700  0.149450  1.0  0.3889
  C  C427  1  0.766800  0.437700  0.266570  1.0  0.1346
  C  C428  1  0.763600  0.477000  0.238030  1.0  -0.1295
  C  C429  1  0.687200  0.396000  0.266190  1.0  0.1464
  C  C430  1  0.680700  0.435100  0.238080  1.0  -0.1482
  C  C431  1  0.720200  0.475700  0.223240  1.0  -0.1093
  C  C432  1  0.716400  0.511400  0.192180  1.0  0.3909
  C  C433  1  0.802100  0.504700  0.847780  1.0  0.1426
  C  C434  1  0.825100  0.450000  0.869730  1.0  -0.1188
  C  C435  1  0.814400  0.643400  0.874450  1.0  0.1419
  C  C436  1  0.837300  0.594200  0.897300  1.0  -0.1301
  C  C437  1  0.842300  0.495300  0.895080  1.0  -0.1082
  C  C438  1  0.867200  0.440100  0.918990  1.0  0.3833
  C  C439  1  0.927900  0.632500  0.020950  1.0  0.1332
  C  C440  1  0.915000  0.588600  0.994110  1.0  -0.1653
  C  C441  1  0.955900  0.488000  0.040310  1.0  0.1303
  C  C442  1  0.943300  0.439500  0.014320  1.0  -0.1055
  C  C443  1  0.922000  0.489900  0.991230  1.0  -0.1083
  C  C444  1  0.906100  0.438700  0.963730  1.0  0.3975
  C  C445  1  0.945400  0.051800  0.950580  1.0  0.1281
  C  C446  1  0.930400  0.145000  0.955470  1.0  -0.12
  C  C447  1  0.927700  0.064800  0.900160  1.0  0.1539
  C  C448  1  0.912100  0.157600  0.903400  1.0  -0.1497
  C  C449  1  0.913400  0.199900  0.931680  1.0  -0.1162
  C  C450  1  0.900200  0.302500  0.936310  1.0  0.3953
  C  C451  1  0.041500  0.929300  0.864910  1.0  0.1548
  C  C452  1  0.083700  0.943900  0.849390  1.0  -0.151
  C  C453  1  0.081900  0.905600  0.909410  1.0  0.1331
  C  C454  1  0.125800  0.918800  0.895360  1.0  -0.1194
  C  C455  1  0.126900  0.937600  0.864870  1.0  -0.129
  C  C456  1  0.173800  0.950000  0.849380  1.0  0.3989
  C  C457  1  0.346200  0.886100  0.909780  1.0  0.1429
  C  C458  1  0.301800  0.902400  0.896570  1.0  -0.1522
  C  C459  1  0.386400  0.929200  0.866660  1.0  0.1336
  C  C460  1  0.344200  0.945300  0.851700  1.0  -0.1009
  C  C461  1  0.300600  0.931500  0.866680  1.0  -0.1185
  C  C462  1  0.254400  0.946300  0.850550  1.0  0.3888
  C  C463  1  0.266800  0.062300  0.733430  1.0  0.133
  C  C464  1  0.263600  0.023000  0.761970  1.0  -0.1292
  C  C465  1  0.187200  0.104000  0.733810  1.0  0.1448
  C  C466  1  0.180700  0.064900  0.761920  1.0  -0.1486
  C  C467  1  0.220200  0.024300  0.776760  1.0  -0.1094
  C  C468  1  0.216400  0.988600  0.807820  1.0  0.3908
  C  C469  1  0.697900  0.495300  0.347780  1.0  0.1431
  C  C470  1  0.674900  0.550000  0.369730  1.0  -0.1198
  C  C471  1  0.685600  0.356600  0.374450  1.0  0.1404
  C  C472  1  0.662700  0.405800  0.397300  1.0  -0.1294
  C  C473  1  0.657700  0.504700  0.395080  1.0  -0.1081
  C  C474  1  0.632800  0.559900  0.418990  1.0  0.3837
  C  C475  1  0.572100  0.367500  0.520950  1.0  0.1324
  C  C476  1  0.585000  0.411400  0.494110  1.0  -0.1658
  C  C477  1  0.544100  0.512000  0.540310  1.0  0.1309
  C  C478  1  0.556700  0.560500  0.514320  1.0  -0.1034
  C  C479  1  0.578000  0.510100  0.491230  1.0  -0.1063
  C  C480  1  0.593900  0.561300  0.463730  1.0  0.3956
  C  C481  1  0.554600  0.948200  0.450580  1.0  0.1276
  C  C482  1  0.569600  0.855000  0.455470  1.0  -0.1199
  C  C483  1  0.572300  0.935200  0.400160  1.0  0.1536
  C  C484  1  0.587900  0.842400  0.403400  1.0  -0.1505
  C  C485  1  0.586600  0.800100  0.431680  1.0  -0.1157
  C  C486  1  0.599800  0.697500  0.436310  1.0  0.3948
  C  C487  1  0.458500  0.070700  0.364910  1.0  0.154
  C  C488  1  0.416300  0.056100  0.349390  1.0  -0.1512
  C  C489  1  0.418100  0.094400  0.409410  1.0  0.1321
  C  C490  1  0.374200  0.081200  0.395360  1.0  -0.121
  C  C491  1  0.373100  0.062400  0.364870  1.0  -0.1288
  C  C492  1  0.326200  0.050000  0.349380  1.0  0.3994
  C  C493  1  0.153800  0.113900  0.409780  1.0  0.1417
  C  C494  1  0.198200  0.097600  0.396570  1.0  -0.1515
  C  C495  1  0.113600  0.070800  0.366660  1.0  0.1356
  C  C496  1  0.155800  0.054700  0.351700  1.0  -0.1003
  C  C497  1  0.199400  0.068500  0.366680  1.0  -0.1186
  C  C498  1  0.245600  0.053700  0.350550  1.0  0.3893
  C  C499  1  0.233200  0.937700  0.233430  1.0  0.1335
  C  C500  1  0.236400  0.977000  0.261970  1.0  -0.1306
  C  C501  1  0.312800  0.896000  0.233810  1.0  0.1438
  C  C502  1  0.319300  0.935100  0.261920  1.0  -0.1472
  C  C503  1  0.279800  0.975700  0.276760  1.0  -0.1107
  C  C504  1  0.283600  0.011400  0.307820  1.0  0.3909
  I  I505  1  0.994350  0.695370  0.466770  1.0  -0.411
  I  I506  1  0.925980  0.710610  0.376090  1.0  -0.315
  I  I507  1  0.945940  0.673070  0.580130  1.0  -0.4265
  I  I508  1  0.017480  0.940410  0.616450  1.0  -0.3773
  I  I509  1  0.671290  0.817220  0.332530  1.0  -0.321
  I  I510  1  0.804150  0.657520  0.312730  1.0  -0.3409
  I  I511  1  0.505650  0.304630  0.966770  1.0  -0.4128
  I  I512  1  0.574020  0.289390  0.876090  1.0  -0.3155
  I  I513  1  0.554060  0.326930  0.080130  1.0  -0.427
  I  I514  1  0.482520  0.059590  0.116450  1.0  -0.3782
  I  I515  1  0.828710  0.182780  0.832530  1.0  -0.3201
  I  I516  1  0.695850  0.342480  0.812730  1.0  -0.3405
  I  I517  1  0.005650  0.195370  0.033230  1.0  -0.4127
  I  I518  1  0.074020  0.210610  0.123910  1.0  -0.3149
  I  I519  1  0.054060  0.173070  0.919870  1.0  -0.4267
  I  I520  1  0.982520  0.440410  0.883550  1.0  -0.3791
  I  I521  1  0.328710  0.317220  0.167470  1.0  -0.3208
  I  I522  1  0.195850  0.157520  0.187270  1.0  -0.341
  I  I523  1  0.494350  0.804630  0.533230  1.0  -0.4107
  I  I524  1  0.425980  0.789390  0.623910  1.0  -0.3149
  I  I525  1  0.445940  0.826930  0.419870  1.0  -0.4255
  I  I526  1  0.517480  0.559590  0.383550  1.0  -0.3788
  I  I527  1  0.171290  0.682780  0.667470  1.0  -0.3215
  I  I528  1  0.304150  0.842480  0.687270  1.0  -0.341
  I  I529  1  0.005650  0.304630  0.533230  1.0  -0.4128
  I  I530  1  0.074020  0.289390  0.623910  1.0  -0.3149
  I  I531  1  0.054060  0.326930  0.419870  1.0  -0.4264
  I  I532  1  0.982520  0.059590  0.383550  1.0  -0.3793
  I  I533  1  0.328710  0.182780  0.667470  1.0  -0.3207
  I  I534  1  0.195850  0.342480  0.687270  1.0  -0.3405
  I  I535  1  0.494350  0.695370  0.033230  1.0  -0.4108
  I  I536  1  0.425980  0.710610  0.123910  1.0  -0.3149
  I  I537  1  0.445940  0.673070  0.919870  1.0  -0.426
  I  I538  1  0.517480  0.940410  0.883550  1.0  -0.3786
  I  I539  1  0.171290  0.817220  0.167470  1.0  -0.3216
  I  I540  1  0.304150  0.657520  0.187270  1.0  -0.3409
  I  I541  1  0.994350  0.804630  0.966770  1.0  -0.4107
  I  I542  1  0.925980  0.789390  0.876090  1.0  -0.3155
  I  I543  1  0.945940  0.826930  0.080130  1.0  -0.4261
  I  I544  1  0.017480  0.559590  0.116450  1.0  -0.3777
  I  I545  1  0.671290  0.682780  0.832530  1.0  -0.321
  I  I546  1  0.804150  0.842480  0.812730  1.0  -0.3409
  I  I547  1  0.505650  0.195370  0.466770  1.0  -0.4129
  I  I548  1  0.574020  0.210610  0.376090  1.0  -0.315
  I  I549  1  0.554060  0.173070  0.580130  1.0  -0.4272
  I  I550  1  0.482520  0.440410  0.616450  1.0  -0.3778
  I  I551  1  0.828710  0.317220  0.332530  1.0  -0.3203
  I  I552  1  0.695850  0.157520  0.312730  1.0  -0.341
  N  N553  1  0.796590  0.899300  0.350110  1.0  -0.3081
  N  N554  1  0.946790  0.916600  0.544050  1.0  -0.3091
  N  N555  1  0.944810  0.488600  0.422860  1.0  -0.3097
  N  N556  1  0.881920  0.009700  0.442890  1.0  -0.4575
  N  N557  1  0.916700  0.154500  0.461180  1.0  -0.4487
  N  N558  1  0.874530  0.154500  0.414710  1.0  -0.4659
  N  N559  1  0.039700  0.590300  0.394200  1.0  -0.3094
  N  N560  1  0.387610  0.602000  0.395450  1.0  -0.3067
  N  N561  1  0.230100  0.396000  0.219770  1.0  -0.3055
  N  N562  1  0.213570  0.566500  0.365450  1.0  -0.4867
  N  N563  1  0.257830  0.526400  0.321640  1.0  -0.4646
  N  N564  1  0.172670  0.522000  0.320390  1.0  -0.4656
  N  N565  1  0.703410  0.100700  0.850110  1.0  -0.3075
  N  N566  1  0.553210  0.083400  0.044050  1.0  -0.3097
  N  N567  1  0.555190  0.511400  0.922860  1.0  -0.3079
  N  N568  1  0.618080  0.990300  0.942890  1.0  -0.4603
  N  N569  1  0.583300  0.845500  0.961180  1.0  -0.4485
  N  N570  1  0.625470  0.845500  0.914710  1.0  -0.4665
  N  N571  1  0.460300  0.409700  0.894200  1.0  -0.3069
  N  N572  1  0.112390  0.398000  0.895450  1.0  -0.3088
  N  N573  1  0.269900  0.604000  0.719770  1.0  -0.306
  N  N574  1  0.286430  0.433500  0.865450  1.0  -0.4866
  N  N575  1  0.242170  0.473600  0.821640  1.0  -0.4641
  N  N576  1  0.327330  0.478000  0.820390  1.0  -0.4657
  N  N577  1  0.203410  0.399300  0.149890  1.0  -0.3054
  N  N578  1  0.053210  0.416600  0.955950  1.0  -0.3128
  N  N579  1  0.055190  0.988600  0.077140  1.0  -0.3095
  N  N580  1  0.118080  0.509700  0.057110  1.0  -0.4574
  N  N581  1  0.083300  0.654500  0.038820  1.0  -0.4477
  N  N582  1  0.125470  0.654500  0.085290  1.0  -0.4675
  N  N583  1  0.960300  0.090300  0.105800  1.0  -0.3071
  N  N584  1  0.612390  0.102000  0.104550  1.0  -0.3067
  N  N585  1  0.769900  0.896000  0.280230  1.0  -0.3058
  N  N586  1  0.786430  0.066500  0.134550  1.0  -0.4831
  N  N587  1  0.742170  0.026400  0.178360  1.0  -0.4641
  N  N588  1  0.827330  0.022000  0.179610  1.0  -0.4656
  N  N589  1  0.296590  0.600700  0.649890  1.0  -0.3076
  N  N590  1  0.446790  0.583400  0.455950  1.0  -0.3112
  N  N591  1  0.444810  0.011400  0.577140  1.0  -0.3079
  N  N592  1  0.381920  0.490300  0.557110  1.0  -0.4586
  N  N593  1  0.416700  0.345500  0.538820  1.0  -0.4483
  N  N594  1  0.374530  0.345500  0.585290  1.0  -0.467
  N  N595  1  0.539700  0.909700  0.605800  1.0  -0.3081
  N  N596  1  0.887610  0.898000  0.604550  1.0  -0.3062
  N  N597  1  0.730100  0.104000  0.780230  1.0  -0.3064
  N  N598  1  0.713570  0.933500  0.634550  1.0  -0.4842
  N  N599  1  0.757830  0.973600  0.678360  1.0  -0.4647
  N  N600  1  0.672670  0.978000  0.679610  1.0  -0.4667
  N  N601  1  0.203410  0.100700  0.649890  1.0  -0.3069
  N  N602  1  0.053210  0.083400  0.455950  1.0  -0.3113
  N  N603  1  0.055190  0.511400  0.577140  1.0  -0.308
  N  N604  1  0.118080  0.990300  0.557110  1.0  -0.4593
  N  N605  1  0.083300  0.845500  0.538820  1.0  -0.449
  N  N606  1  0.125470  0.845500  0.585290  1.0  -0.467
  N  N607  1  0.960300  0.409700  0.605800  1.0  -0.3066
  N  N608  1  0.612390  0.398000  0.604550  1.0  -0.3075
  N  N609  1  0.769900  0.604000  0.780230  1.0  -0.3067
  N  N610  1  0.786430  0.433500  0.634550  1.0  -0.484
  N  N611  1  0.742170  0.473600  0.678360  1.0  -0.4643
  N  N612  1  0.827330  0.478000  0.679610  1.0  -0.4659
  N  N613  1  0.296590  0.899300  0.149890  1.0  -0.3067
  N  N614  1  0.446790  0.916600  0.955950  1.0  -0.3119
  N  N615  1  0.444810  0.488600  0.077140  1.0  -0.3097
  N  N616  1  0.381920  0.009700  0.057110  1.0  -0.4572
  N  N617  1  0.416700  0.154500  0.038820  1.0  -0.4476
  N  N618  1  0.374530  0.154500  0.085290  1.0  -0.4676
  N  N619  1  0.539700  0.590300  0.105800  1.0  -0.3075
  N  N620  1  0.887610  0.602000  0.104550  1.0  -0.3058
  N  N621  1  0.730100  0.396000  0.280230  1.0  -0.3053
  N  N622  1  0.713570  0.566500  0.134550  1.0  -0.4833
  N  N623  1  0.757830  0.526400  0.178360  1.0  -0.4643
  N  N624  1  0.672670  0.522000  0.179610  1.0  -0.4664
  N  N625  1  0.796590  0.600700  0.850110  1.0  -0.3073
  N  N626  1  0.946790  0.583400  0.044050  1.0  -0.3097
  N  N627  1  0.944810  0.011400  0.922860  1.0  -0.3079
  N  N628  1  0.881920  0.490300  0.942890  1.0  -0.4594
  N  N629  1  0.916700  0.345500  0.961180  1.0  -0.4481
  N  N630  1  0.874530  0.345500  0.914710  1.0  -0.4662
  N  N631  1  0.039700  0.909700  0.894200  1.0  -0.3091
  N  N632  1  0.387610  0.898000  0.895450  1.0  -0.3068
  N  N633  1  0.230100  0.104000  0.719770  1.0  -0.3058
  N  N634  1  0.213570  0.933500  0.865450  1.0  -0.4868
  N  N635  1  0.257830  0.973600  0.821640  1.0  -0.4647
  N  N636  1  0.172670  0.978000  0.820390  1.0  -0.4659
  N  N637  1  0.703410  0.399300  0.350110  1.0  -0.3072
  N  N638  1  0.553210  0.416600  0.544050  1.0  -0.3096
  N  N639  1  0.555190  0.988600  0.422860  1.0  -0.3094
  N  N640  1  0.618080  0.509700  0.442890  1.0  -0.4581
  N  N641  1  0.583300  0.654500  0.461180  1.0  -0.4491
  N  N642  1  0.625470  0.654500  0.414710  1.0  -0.466
  N  N643  1  0.460300  0.090300  0.394200  1.0  -0.3081
  N  N644  1  0.112390  0.102000  0.395450  1.0  -0.3082
  N  N645  1  0.269900  0.896000  0.219770  1.0  -0.3061
  N  N646  1  0.286430  0.066500  0.365450  1.0  -0.4865
  N  N647  1  0.242170  0.026400  0.321640  1.0  -0.4642
  N  N648  1  0.327330  0.022000  0.320390  1.0  -0.4657
