# generated using pymatgen
data_ZnH8C12(IN2)2
_symmetry_space_group_name_H-M   'P 1'
_cell_length_a   13.82380000
_cell_length_b   28.17450000
_cell_length_c   45.19950000
_cell_angle_alpha   90.00000000
_cell_angle_beta   90.00000000
_cell_angle_gamma   90.00000000
_symmetry_Int_Tables_number   1
_chemical_formula_structural   ZnH8C12(IN2)2
_chemical_formula_sum   'Zn24 H192 C288 I48 N96'
_cell_volume   17604.24038079
_cell_formula_units_Z   24
loop_
 _symmetry_equiv_pos_site_id
 _symmetry_equiv_pos_as_xyz
  1  'x, y, z'
loop_
 _atom_site_type_symbol
 _atom_site_label
 _atom_site_symmetry_multiplicity
 _atom_site_fract_x
 _atom_site_fract_y
 _atom_site_fract_z
 _atom_site_occupancy
 _atom_site_charge
  Zn  Zn1  1  0.144660  0.447420  0.578880  1.0  0.8377
  Zn  Zn2  1  0.834160  0.238600  0.815560  1.0  0.8815
  Zn  Zn3  1  0.127420  0.977950  0.586630  1.0  0.8829
  Zn  Zn4  1  0.855340  0.052580  0.078880  1.0  0.84
  Zn  Zn5  1  0.165840  0.261400  0.315560  1.0  0.8846
  Zn  Zn6  1  0.872580  0.522050  0.086630  1.0  0.8836
  Zn  Zn7  1  0.644660  0.552580  0.921120  1.0  0.8396
  Zn  Zn8  1  0.334160  0.761400  0.684440  1.0  0.8827
  Zn  Zn9  1  0.627420  0.022050  0.913370  1.0  0.8828
  Zn  Zn10  1  0.355340  0.947420  0.421120  1.0  0.8373
  Zn  Zn11  1  0.665840  0.738600  0.184440  1.0  0.8833
  Zn  Zn12  1  0.372580  0.477950  0.413370  1.0  0.8847
  Zn  Zn13  1  0.855340  0.552580  0.421120  1.0  0.8395
  Zn  Zn14  1  0.165840  0.761400  0.184440  1.0  0.8842
  Zn  Zn15  1  0.872580  0.022050  0.413370  1.0  0.884
  Zn  Zn16  1  0.144660  0.947420  0.921120  1.0  0.8378
  Zn  Zn17  1  0.834160  0.738600  0.684440  1.0  0.8813
  Zn  Zn18  1  0.127420  0.477950  0.913370  1.0  0.8832
  Zn  Zn19  1  0.355340  0.447420  0.078880  1.0  0.8364
  Zn  Zn20  1  0.665840  0.238600  0.315560  1.0  0.8834
  Zn  Zn21  1  0.372580  0.977950  0.086630  1.0  0.8843
  Zn  Zn22  1  0.644660  0.052580  0.578880  1.0  0.8402
  Zn  Zn23  1  0.334160  0.261400  0.815560  1.0  0.8832
  Zn  Zn24  1  0.627420  0.522050  0.586630  1.0  0.8825
  H  H25  1  0.090400  0.271500  0.589000  1.0  0.1091
  H  H26  1  0.125800  0.344100  0.565800  1.0  0.0734
  H  H27  1  0.067500  0.414300  0.635600  1.0  0.0859
  H  H28  1  0.028700  0.345200  0.661600  1.0  0.116
  H  H29  1  0.993000  0.293400  0.722800  1.0  0.1001
  H  H30  1  0.942800  0.297800  0.771600  1.0  0.0765
  H  H31  1  0.894800  0.163400  0.773600  1.0  0.0795
  H  H32  1  0.947400  0.154500  0.727200  1.0  0.0958
  H  H33  1  0.037000  0.088200  0.669500  1.0  0.1118
  H  H34  1  0.067300  0.017100  0.645600  1.0  0.0769
  H  H35  1  0.117600  0.083100  0.570700  1.0  0.0922
  H  H36  1  0.079200  0.155600  0.591200  1.0  0.1151
  H  H37  1  0.870400  0.446900  0.507600  1.0  0.1089
  H  H38  1  0.953700  0.465700  0.550500  1.0  0.0855
  H  H39  1  0.195900  0.418100  0.516900  1.0  0.0719
  H  H40  1  0.118400  0.395800  0.474400  1.0  0.1015
  H  H41  1  0.116200  0.355700  0.404600  1.0  0.0965
  H  H42  1  0.196600  0.321700  0.367400  1.0  0.0881
  H  H43  1  0.955600  0.279100  0.332000  1.0  0.0904
  H  H44  1  0.869900  0.318900  0.367200  1.0  0.0956
  H  H45  1  0.676400  0.393100  0.386500  1.0  0.1101
  H  H46  1  0.518600  0.415800  0.381500  1.0  0.0783
  H  H47  1  0.514800  0.467600  0.462600  1.0  0.1025
  H  H48  1  0.674600  0.438800  0.470000  1.0  0.0987
  H  H49  1  0.909600  0.228500  0.089000  1.0  0.1095
  H  H50  1  0.874200  0.155900  0.065800  1.0  0.0745
  H  H51  1  0.932500  0.085700  0.135600  1.0  0.0862
  H  H52  1  0.971300  0.154800  0.161600  1.0  0.116
  H  H53  1  0.007000  0.206600  0.222800  1.0  0.0999
  H  H54  1  0.057200  0.202200  0.271600  1.0  0.0761
  H  H55  1  0.105200  0.336600  0.273600  1.0  0.0795
  H  H56  1  0.052600  0.345500  0.227200  1.0  0.0962
  H  H57  1  0.963000  0.411800  0.169500  1.0  0.1118
  H  H58  1  0.932700  0.482900  0.145600  1.0  0.077
  H  H59  1  0.882400  0.416900  0.070700  1.0  0.0918
  H  H60  1  0.920800  0.344400  0.091200  1.0  0.1151
  H  H61  1  0.129600  0.053100  0.007600  1.0  0.1094
  H  H62  1  0.046300  0.034300  0.050500  1.0  0.0854
  H  H63  1  0.804100  0.081900  0.016900  1.0  0.0718
  H  H64  1  0.881600  0.104200  0.974400  1.0  0.1014
  H  H65  1  0.883800  0.144300  0.904600  1.0  0.0964
  H  H66  1  0.803400  0.178300  0.867400  1.0  0.0894
  H  H67  1  0.044400  0.220900  0.832000  1.0  0.0906
  H  H68  1  0.130100  0.181100  0.867200  1.0  0.0937
  H  H69  1  0.323600  0.106900  0.886500  1.0  0.1101
  H  H70  1  0.481400  0.084200  0.881500  1.0  0.0781
  H  H71  1  0.485200  0.032400  0.962600  1.0  0.1025
  H  H72  1  0.325400  0.061200  0.970000  1.0  0.0988
  H  H73  1  0.590400  0.728500  0.911000  1.0  0.1095
  H  H74  1  0.625800  0.655900  0.934200  1.0  0.0734
  H  H75  1  0.567500  0.585700  0.864400  1.0  0.0854
  H  H76  1  0.528700  0.654800  0.838400  1.0  0.1156
  H  H77  1  0.493000  0.706600  0.777200  1.0  0.1001
  H  H78  1  0.442800  0.702200  0.728400  1.0  0.0761
  H  H79  1  0.394800  0.836600  0.726400  1.0  0.0798
  H  H80  1  0.447400  0.845500  0.772800  1.0  0.096
  H  H81  1  0.537000  0.911800  0.830500  1.0  0.1119
  H  H82  1  0.567300  0.982900  0.854400  1.0  0.0762
  H  H83  1  0.617600  0.916900  0.929300  1.0  0.0917
  H  H84  1  0.579200  0.844400  0.908800  1.0  0.1151
  H  H85  1  0.370400  0.553100  0.992400  1.0  0.1091
  H  H86  1  0.453700  0.534300  0.949500  1.0  0.0854
  H  H87  1  0.695900  0.581900  0.983100  1.0  0.0723
  H  H88  1  0.618400  0.604200  0.025600  1.0  0.1017
  H  H89  1  0.616200  0.644300  0.095400  1.0  0.0961
  H  H90  1  0.696600  0.678300  0.132600  1.0  0.0879
  H  H91  1  0.455600  0.720900  0.168000  1.0  0.09
  H  H92  1  0.369900  0.681100  0.132800  1.0  0.0956
  H  H93  1  0.176400  0.606900  0.113500  1.0  0.1099
  H  H94  1  0.018600  0.584200  0.118500  1.0  0.0785
  H  H95  1  0.014800  0.532400  0.037400  1.0  0.102
  H  H96  1  0.174600  0.561200  0.030000  1.0  0.0986
  H  H97  1  0.409600  0.771500  0.411000  1.0  0.1097
  H  H98  1  0.374200  0.844100  0.434200  1.0  0.0731
  H  H99  1  0.432500  0.914300  0.364400  1.0  0.0861
  H  H100  1  0.471300  0.845200  0.338400  1.0  0.1157
  H  H101  1  0.507000  0.793400  0.277200  1.0  0.1003
  H  H102  1  0.557200  0.797800  0.228400  1.0  0.0763
  H  H103  1  0.605200  0.663400  0.226400  1.0  0.0797
  H  H104  1  0.552600  0.654500  0.272800  1.0  0.096
  H  H105  1  0.463000  0.588200  0.330500  1.0  0.112
  H  H106  1  0.432700  0.517100  0.354400  1.0  0.0764
  H  H107  1  0.382400  0.583100  0.429300  1.0  0.0912
  H  H108  1  0.420800  0.655600  0.408800  1.0  0.1147
  H  H109  1  0.629600  0.946900  0.492400  1.0  0.1097
  H  H110  1  0.546300  0.965700  0.449500  1.0  0.0853
  H  H111  1  0.304100  0.918100  0.483100  1.0  0.072
  H  H112  1  0.381600  0.895800  0.525600  1.0  0.102
  H  H113  1  0.383800  0.855700  0.595400  1.0  0.0959
  H  H114  1  0.303400  0.821700  0.632600  1.0  0.0894
  H  H115  1  0.544400  0.779100  0.668000  1.0  0.0896
  H  H116  1  0.630100  0.818900  0.632800  1.0  0.094
  H  H117  1  0.823600  0.893100  0.613500  1.0  0.1099
  H  H118  1  0.981400  0.915800  0.618500  1.0  0.0788
  H  H119  1  0.985200  0.967600  0.537400  1.0  0.1017
  H  H120  1  0.825400  0.938800  0.530000  1.0  0.0985
  H  H121  1  0.909600  0.728500  0.411000  1.0  0.1096
  H  H122  1  0.874200  0.655900  0.434200  1.0  0.0736
  H  H123  1  0.932500  0.585700  0.364400  1.0  0.0853
  H  H124  1  0.971300  0.654800  0.338400  1.0  0.1157
  H  H125  1  0.007000  0.706600  0.277200  1.0  0.1
  H  H126  1  0.057200  0.702200  0.228400  1.0  0.0759
  H  H127  1  0.105200  0.836600  0.226400  1.0  0.0799
  H  H128  1  0.052600  0.845500  0.272800  1.0  0.0961
  H  H129  1  0.963000  0.911800  0.330500  1.0  0.1117
  H  H130  1  0.932700  0.982900  0.354400  1.0  0.0764
  H  H131  1  0.882400  0.916900  0.429300  1.0  0.0914
  H  H132  1  0.920800  0.844400  0.408800  1.0  0.1153
  H  H133  1  0.129600  0.553100  0.492400  1.0  0.1096
  H  H134  1  0.046300  0.534300  0.449500  1.0  0.0858
  H  H135  1  0.804100  0.581900  0.483100  1.0  0.0718
  H  H136  1  0.881600  0.604200  0.525600  1.0  0.1017
  H  H137  1  0.883800  0.644300  0.595400  1.0  0.0958
  H  H138  1  0.803400  0.678300  0.632600  1.0  0.0893
  H  H139  1  0.044400  0.720900  0.668000  1.0  0.0897
  H  H140  1  0.130100  0.681100  0.632800  1.0  0.0936
  H  H141  1  0.323600  0.606900  0.613500  1.0  0.11
  H  H142  1  0.481400  0.584200  0.618500  1.0  0.0784
  H  H143  1  0.485200  0.532400  0.537400  1.0  0.1021
  H  H144  1  0.325400  0.561200  0.530000  1.0  0.0985
  H  H145  1  0.090400  0.771500  0.911000  1.0  0.1096
  H  H146  1  0.125800  0.844100  0.934200  1.0  0.0727
  H  H147  1  0.067500  0.914300  0.864400  1.0  0.0861
  H  H148  1  0.028700  0.845200  0.838400  1.0  0.1156
  H  H149  1  0.993000  0.793400  0.777200  1.0  0.1002
  H  H150  1  0.942800  0.797800  0.728400  1.0  0.0766
  H  H151  1  0.894800  0.663400  0.726400  1.0  0.0796
  H  H152  1  0.947400  0.654500  0.772800  1.0  0.096
  H  H153  1  0.037000  0.588200  0.830500  1.0  0.112
  H  H154  1  0.067300  0.517100  0.854400  1.0  0.0763
  H  H155  1  0.117600  0.583100  0.929300  1.0  0.0915
  H  H156  1  0.079200  0.655600  0.908800  1.0  0.1144
  H  H157  1  0.870400  0.946900  0.992400  1.0  0.1092
  H  H158  1  0.953700  0.965700  0.949500  1.0  0.0853
  H  H159  1  0.195900  0.918100  0.983100  1.0  0.0721
  H  H160  1  0.118400  0.895800  0.025600  1.0  0.1019
  H  H161  1  0.116200  0.855700  0.095400  1.0  0.096
  H  H162  1  0.196600  0.821700  0.132600  1.0  0.088
  H  H163  1  0.955600  0.779100  0.168000  1.0  0.09
  H  H164  1  0.869900  0.818900  0.132800  1.0  0.0957
  H  H165  1  0.676400  0.893100  0.113500  1.0  0.11
  H  H166  1  0.518600  0.915800  0.118500  1.0  0.0789
  H  H167  1  0.514800  0.967600  0.037400  1.0  0.1017
  H  H168  1  0.674600  0.938800  0.030000  1.0  0.0985
  H  H169  1  0.409600  0.271500  0.089000  1.0  0.1094
  H  H170  1  0.374200  0.344100  0.065800  1.0  0.0739
  H  H171  1  0.432500  0.414300  0.135600  1.0  0.0861
  H  H172  1  0.471300  0.345200  0.161600  1.0  0.1159
  H  H173  1  0.507000  0.293400  0.222800  1.0  0.1002
  H  H174  1  0.557200  0.297800  0.271600  1.0  0.0763
  H  H175  1  0.605200  0.163400  0.273600  1.0  0.0796
  H  H176  1  0.552600  0.154500  0.227200  1.0  0.0957
  H  H177  1  0.463000  0.088200  0.169500  1.0  0.1121
  H  H178  1  0.432700  0.017100  0.145600  1.0  0.0771
  H  H179  1  0.382400  0.083100  0.070700  1.0  0.092
  H  H180  1  0.420800  0.155600  0.091200  1.0  0.1152
  H  H181  1  0.629600  0.446900  0.007600  1.0  0.1095
  H  H182  1  0.546300  0.465700  0.050500  1.0  0.0851
  H  H183  1  0.304100  0.418100  0.016900  1.0  0.0721
  H  H184  1  0.381600  0.395800  0.974400  1.0  0.1014
  H  H185  1  0.383800  0.355700  0.904600  1.0  0.0964
  H  H186  1  0.303400  0.321700  0.867400  1.0  0.0894
  H  H187  1  0.544400  0.279100  0.832000  1.0  0.0901
  H  H188  1  0.630100  0.318900  0.867200  1.0  0.0938
  H  H189  1  0.823600  0.393100  0.886500  1.0  0.11
  H  H190  1  0.981400  0.415800  0.881500  1.0  0.0783
  H  H191  1  0.985200  0.467600  0.962600  1.0  0.1022
  H  H192  1  0.825400  0.438800  0.970000  1.0  0.0986
  H  H193  1  0.590400  0.228500  0.589000  1.0  0.1093
  H  H194  1  0.625800  0.155900  0.565800  1.0  0.0738
  H  H195  1  0.567500  0.085700  0.635600  1.0  0.0862
  H  H196  1  0.528700  0.154800  0.661600  1.0  0.1162
  H  H197  1  0.493000  0.206600  0.722800  1.0  0.1
  H  H198  1  0.442800  0.202200  0.771600  1.0  0.0762
  H  H199  1  0.394800  0.336600  0.773600  1.0  0.0794
  H  H200  1  0.447400  0.345500  0.727200  1.0  0.0962
  H  H201  1  0.537000  0.411800  0.669500  1.0  0.1117
  H  H202  1  0.567300  0.482900  0.645600  1.0  0.0768
  H  H203  1  0.617600  0.416900  0.570700  1.0  0.0922
  H  H204  1  0.579200  0.344400  0.591200  1.0  0.1149
  H  H205  1  0.370400  0.053100  0.507600  1.0  0.1092
  H  H206  1  0.453700  0.034300  0.550500  1.0  0.0858
  H  H207  1  0.695900  0.081900  0.516900  1.0  0.0721
  H  H208  1  0.618400  0.104200  0.474400  1.0  0.1015
  H  H209  1  0.616200  0.144300  0.404600  1.0  0.0964
  H  H210  1  0.696600  0.178300  0.367400  1.0  0.088
  H  H211  1  0.455600  0.220900  0.332000  1.0  0.0907
  H  H212  1  0.369900  0.181100  0.367200  1.0  0.0957
  H  H213  1  0.176400  0.106900  0.386500  1.0  0.1099
  H  H214  1  0.018600  0.084200  0.381500  1.0  0.078
  H  H215  1  0.014800  0.032400  0.462600  1.0  0.1027
  H  H216  1  0.174600  0.061200  0.470000  1.0  0.0989
  C  C217  1  0.044800  0.254800  0.645000  1.0  0.3794
  C  C218  1  0.007900  0.218300  0.688100  1.0  0.4154
  C  C219  1  0.043300  0.176100  0.648000  1.0  0.3519
  C  C220  1  0.061100  0.300500  0.628000  1.0  -0.1194
  C  C221  1  0.086300  0.299900  0.599500  1.0  -0.1011
  C  C222  1  0.106700  0.344500  0.585500  1.0  0.1703
  C  C223  1  0.072600  0.385100  0.626100  1.0  0.1315
  C  C224  1  0.050200  0.343600  0.642200  1.0  -0.1263
  C  C225  1  0.979200  0.223200  0.718300  1.0  -0.0665
  C  C226  1  0.974500  0.265800  0.732600  1.0  -0.1056
  C  C227  1  0.941800  0.268500  0.762000  1.0  0.1311
  C  C228  1  0.914800  0.190100  0.763200  1.0  0.152
  C  C229  1  0.946700  0.184800  0.735500  1.0  -0.1069
  C  C230  1  0.057600  0.129700  0.633400  1.0  -0.1008
  C  C231  1  0.052400  0.087900  0.649400  1.0  -0.128
  C  C232  1  0.071100  0.044900  0.634600  1.0  0.138
  C  C233  1  0.099200  0.084100  0.590500  1.0  0.1232
  C  C234  1  0.078900  0.128200  0.602700  1.0  -0.1109
  C  C235  1  0.932100  0.402500  0.459500  1.0  0.3487
  C  C236  1  0.929100  0.365500  0.414600  1.0  0.3067
  C  C237  1  0.794100  0.399400  0.432400  1.0  0.371
  C  C238  1  0.984700  0.418100  0.486200  1.0  -0.0851
  C  C239  1  0.935900  0.439900  0.509200  1.0  -0.0885
  C  C240  1  0.986400  0.451100  0.535000  1.0  0.1297
  C  C241  1  0.129400  0.422700  0.515400  1.0  0.141
  C  C242  1  0.083400  0.409900  0.489700  1.0  -0.1259
  C  C243  1  0.982400  0.342100  0.390600  1.0  -0.0409
  C  C244  1  0.081400  0.341300  0.389400  1.0  -0.1021
  C  C245  1  0.129400  0.320800  0.367400  1.0  0.1325
  C  C246  1  0.988200  0.296500  0.346400  1.0  0.099
  C  C247  1  0.937100  0.319100  0.367900  1.0  -0.1055
  C  C248  1  0.691900  0.413100  0.429000  1.0  -0.1449
  C  C249  1  0.644600  0.407300  0.402300  1.0  -0.105
  C  C250  1  0.550800  0.422400  0.399100  1.0  0.1474
  C  C251  1  0.547500  0.452400  0.447300  1.0  0.1122
  C  C252  1  0.644400  0.435100  0.451700  1.0  -0.0871
  C  C253  1  0.955200  0.245200  0.145000  1.0  0.3798
  C  C254  1  0.992100  0.281700  0.188100  1.0  0.4154
  C  C255  1  0.956700  0.323900  0.148000  1.0  0.3522
  C  C256  1  0.938900  0.199500  0.128000  1.0  -0.1198
  C  C257  1  0.913700  0.200100  0.099500  1.0  -0.1012
  C  C258  1  0.893300  0.155500  0.085500  1.0  0.1696
  C  C259  1  0.927400  0.114900  0.126100  1.0  0.1321
  C  C260  1  0.949800  0.156400  0.142200  1.0  -0.1273
  C  C261  1  0.020800  0.276800  0.218300  1.0  -0.0653
  C  C262  1  0.025500  0.234200  0.232600  1.0  -0.1057
  C  C263  1  0.058200  0.231500  0.262000  1.0  0.1308
  C  C264  1  0.085200  0.309900  0.263200  1.0  0.1508
  C  C265  1  0.053300  0.315200  0.235500  1.0  -0.108
  C  C266  1  0.942400  0.370300  0.133400  1.0  -0.101
  C  C267  1  0.947600  0.412100  0.149400  1.0  -0.127
  C  C268  1  0.928900  0.455100  0.134600  1.0  0.1382
  C  C269  1  0.900800  0.415900  0.090500  1.0  0.1242
  C  C270  1  0.921100  0.371800  0.102700  1.0  -0.1091
  C  C271  1  0.067900  0.097500  0.959500  1.0  0.3491
  C  C272  1  0.070900  0.134500  0.914600  1.0  0.3067
  C  C273  1  0.205900  0.100600  0.932400  1.0  0.3706
  C  C274  1  0.015300  0.081900  0.986200  1.0  -0.0849
  C  C275  1  0.064100  0.060100  0.009200  1.0  -0.0865
  C  C276  1  0.013600  0.048900  0.035000  1.0  0.1311
  C  C277  1  0.870600  0.077300  0.015400  1.0  0.1397
  C  C278  1  0.916600  0.090100  0.989700  1.0  -0.1242
  C  C279  1  0.017600  0.157900  0.890600  1.0  -0.0404
  C  C280  1  0.918600  0.158700  0.889400  1.0  -0.1014
  C  C281  1  0.870600  0.179200  0.867400  1.0  0.1314
  C  C282  1  0.011800  0.203500  0.846400  1.0  0.099
  C  C283  1  0.062900  0.180900  0.867900  1.0  -0.1031
  C  C284  1  0.308100  0.086900  0.929000  1.0  -0.1443
  C  C285  1  0.355400  0.092700  0.902300  1.0  -0.1058
  C  C286  1  0.449200  0.077600  0.899100  1.0  0.1461
  C  C287  1  0.452500  0.047600  0.947300  1.0  0.1138
  C  C288  1  0.355600  0.064900  0.951700  1.0  -0.0868
  C  C289  1  0.544800  0.745200  0.855000  1.0  0.3796
  C  C290  1  0.507900  0.781700  0.811900  1.0  0.4155
  C  C291  1  0.543300  0.823900  0.852000  1.0  0.3525
  C  C292  1  0.561100  0.699500  0.872000  1.0  -0.1196
  C  C293  1  0.586300  0.700100  0.900500  1.0  -0.1002
  C  C294  1  0.606700  0.655500  0.914500  1.0  0.1709
  C  C295  1  0.572600  0.614900  0.873900  1.0  0.1304
  C  C296  1  0.550200  0.656400  0.857800  1.0  -0.1244
  C  C297  1  0.479200  0.776800  0.781700  1.0  -0.0666
  C  C298  1  0.474500  0.734200  0.767400  1.0  -0.1057
  C  C299  1  0.441800  0.731500  0.738000  1.0  0.1312
  C  C300  1  0.414800  0.809900  0.736800  1.0  0.1521
  C  C301  1  0.446700  0.815200  0.764500  1.0  -0.1083
  C  C302  1  0.557600  0.870300  0.866600  1.0  -0.1014
  C  C303  1  0.552400  0.912100  0.850600  1.0  -0.1272
  C  C304  1  0.571100  0.955100  0.865400  1.0  0.1379
  C  C305  1  0.599200  0.915900  0.909500  1.0  0.1245
  C  C306  1  0.578900  0.871800  0.897300  1.0  -0.1088
  C  C307  1  0.432100  0.597500  0.040500  1.0  0.3492
  C  C308  1  0.429100  0.634500  0.085400  1.0  0.307
  C  C309  1  0.294100  0.600600  0.067600  1.0  0.3716
  C  C310  1  0.484700  0.581900  0.013800  1.0  -0.0857
  C  C311  1  0.435900  0.560100  0.990800  1.0  -0.0895
  C  C312  1  0.486400  0.548900  0.965000  1.0  0.1317
  C  C313  1  0.629400  0.577300  0.984600  1.0  0.1415
  C  C314  1  0.583400  0.590100  0.010300  1.0  -0.1249
  C  C315  1  0.482400  0.657900  0.109400  1.0  -0.041
  C  C316  1  0.581400  0.658700  0.110600  1.0  -0.101
  C  C317  1  0.629400  0.679200  0.132600  1.0  0.1328
  C  C318  1  0.488200  0.703500  0.153600  1.0  0.0984
  C  C319  1  0.437100  0.680900  0.132100  1.0  -0.106
  C  C320  1  0.191900  0.586900  0.071000  1.0  -0.1443
  C  C321  1  0.144600  0.592700  0.097700  1.0  -0.1062
  C  C322  1  0.050800  0.577600  0.100900  1.0  0.1461
  C  C323  1  0.047500  0.547600  0.052700  1.0  0.1129
  C  C324  1  0.144400  0.564900  0.048300  1.0  -0.0862
  C  C325  1  0.455200  0.754800  0.355000  1.0  0.3793
  C  C326  1  0.492100  0.718300  0.311900  1.0  0.4154
  C  C327  1  0.456700  0.676100  0.352000  1.0  0.3518
  C  C328  1  0.438900  0.800500  0.372000  1.0  -0.1195
  C  C329  1  0.413700  0.799900  0.400500  1.0  -0.1
  C  C330  1  0.393300  0.844500  0.414500  1.0  0.1707
  C  C331  1  0.427400  0.885100  0.373900  1.0  0.1291
  C  C332  1  0.449800  0.843600  0.357800  1.0  -0.1274
  C  C333  1  0.520800  0.723200  0.281700  1.0  -0.0659
  C  C334  1  0.525500  0.765800  0.267400  1.0  -0.1057
  C  C335  1  0.558200  0.768500  0.238000  1.0  0.1312
  C  C336  1  0.585200  0.690100  0.236800  1.0  0.1509
  C  C337  1  0.553300  0.684800  0.264500  1.0  -0.1086
  C  C338  1  0.442400  0.629700  0.366600  1.0  -0.1005
  C  C339  1  0.447600  0.587900  0.350600  1.0  -0.126
  C  C340  1  0.428900  0.544900  0.365400  1.0  0.1377
  C  C341  1  0.400800  0.584100  0.409500  1.0  0.124
  C  C342  1  0.421100  0.628200  0.397300  1.0  -0.1095
  C  C343  1  0.567900  0.902500  0.540500  1.0  0.3493
  C  C344  1  0.570900  0.865500  0.585400  1.0  0.3068
  C  C345  1  0.705900  0.899400  0.567600  1.0  0.3706
  C  C346  1  0.515300  0.918100  0.513800  1.0  -0.0853
  C  C347  1  0.564100  0.939900  0.490800  1.0  -0.0862
  C  C348  1  0.513600  0.951100  0.465000  1.0  0.1322
  C  C349  1  0.370600  0.922700  0.484600  1.0  0.1397
  C  C350  1  0.416600  0.909900  0.510300  1.0  -0.1252
  C  C351  1  0.517600  0.842100  0.609400  1.0  -0.0405
  C  C352  1  0.418600  0.841300  0.610600  1.0  -0.1005
  C  C353  1  0.370600  0.820800  0.632600  1.0  0.1319
  C  C354  1  0.511800  0.796500  0.653600  1.0  0.1002
  C  C355  1  0.562900  0.819100  0.632100  1.0  -0.1033
  C  C356  1  0.808100  0.913100  0.571000  1.0  -0.1451
  C  C357  1  0.855400  0.907300  0.597700  1.0  -0.1059
  C  C358  1  0.949200  0.922400  0.600900  1.0  0.1479
  C  C359  1  0.952500  0.952400  0.552700  1.0  0.1131
  C  C360  1  0.855600  0.935100  0.548300  1.0  -0.086
  C  C361  1  0.955200  0.745200  0.355000  1.0  0.3797
  C  C362  1  0.992100  0.781700  0.311900  1.0  0.4154
  C  C363  1  0.956700  0.823900  0.352000  1.0  0.3523
  C  C364  1  0.938900  0.699500  0.372000  1.0  -0.1197
  C  C365  1  0.913700  0.700100  0.400500  1.0  -0.1001
  C  C366  1  0.893300  0.655500  0.414500  1.0  0.1698
  C  C367  1  0.927400  0.614900  0.373900  1.0  0.1303
  C  C368  1  0.949800  0.656400  0.357800  1.0  -0.1271
  C  C369  1  0.020800  0.776800  0.281700  1.0  -0.0659
  C  C370  1  0.025500  0.734200  0.267400  1.0  -0.1056
  C  C371  1  0.058200  0.731500  0.238000  1.0  0.1307
  C  C372  1  0.085200  0.809900  0.236800  1.0  0.1519
  C  C373  1  0.053300  0.815200  0.264500  1.0  -0.1082
  C  C374  1  0.942400  0.870300  0.366600  1.0  -0.1012
  C  C375  1  0.947600  0.912100  0.350600  1.0  -0.1273
  C  C376  1  0.928900  0.955100  0.365400  1.0  0.1377
  C  C377  1  0.900800  0.915900  0.409500  1.0  0.1234
  C  C378  1  0.921100  0.871800  0.397300  1.0  -0.1089
  C  C379  1  0.067900  0.597500  0.540500  1.0  0.3491
  C  C380  1  0.070900  0.634500  0.585400  1.0  0.307
  C  C381  1  0.205900  0.600600  0.567600  1.0  0.3708
  C  C382  1  0.015300  0.581900  0.513800  1.0  -0.0854
  C  C383  1  0.064100  0.560100  0.490800  1.0  -0.0859
  C  C384  1  0.013600  0.548900  0.465000  1.0  0.1316
  C  C385  1  0.870600  0.577300  0.484600  1.0  0.14
  C  C386  1  0.916600  0.590100  0.510300  1.0  -0.1244
  C  C387  1  0.017600  0.657900  0.609400  1.0  -0.0405
  C  C388  1  0.918600  0.658700  0.610600  1.0  -0.1007
  C  C389  1  0.870600  0.679200  0.632600  1.0  0.1314
  C  C390  1  0.011800  0.703500  0.653600  1.0  0.0994
  C  C391  1  0.062900  0.680900  0.632100  1.0  -0.1035
  C  C392  1  0.308100  0.586900  0.571000  1.0  -0.1444
  C  C393  1  0.355400  0.592700  0.597700  1.0  -0.1063
  C  C394  1  0.449200  0.577600  0.600900  1.0  0.1471
  C  C395  1  0.452500  0.547600  0.552700  1.0  0.1131
  C  C396  1  0.355600  0.564900  0.548300  1.0  -0.086
  C  C397  1  0.044800  0.754800  0.855000  1.0  0.3793
  C  C398  1  0.007900  0.718300  0.811900  1.0  0.4155
  C  C399  1  0.043300  0.676100  0.852000  1.0  0.3519
  C  C400  1  0.061100  0.800500  0.872000  1.0  -0.1195
  C  C401  1  0.086300  0.799900  0.900500  1.0  -0.1006
  C  C402  1  0.106700  0.844500  0.914500  1.0  0.1716
  C  C403  1  0.072600  0.885100  0.873900  1.0  0.1287
  C  C404  1  0.050200  0.843600  0.857800  1.0  -0.1247
  C  C405  1  0.979200  0.723200  0.781700  1.0  -0.0667
  C  C406  1  0.974500  0.765800  0.767400  1.0  -0.1058
  C  C407  1  0.941800  0.768500  0.738000  1.0  0.1313
  C  C408  1  0.914800  0.690100  0.736800  1.0  0.1519
  C  C409  1  0.946700  0.684800  0.764500  1.0  -0.1078
  C  C410  1  0.057600  0.629700  0.866600  1.0  -0.1008
  C  C411  1  0.052400  0.587900  0.850600  1.0  -0.1261
  C  C412  1  0.071100  0.544900  0.865400  1.0  0.1372
  C  C413  1  0.099200  0.584100  0.909500  1.0  0.1248
  C  C414  1  0.078900  0.628200  0.897300  1.0  -0.1092
  C  C415  1  0.932100  0.902500  0.040500  1.0  0.3493
  C  C416  1  0.929100  0.865500  0.085400  1.0  0.3068
  C  C417  1  0.794100  0.899400  0.067600  1.0  0.3711
  C  C418  1  0.984700  0.918100  0.013800  1.0  -0.0855
  C  C419  1  0.935900  0.939900  0.990800  1.0  -0.0893
  C  C420  1  0.986400  0.951100  0.965000  1.0  0.1323
  C  C421  1  0.129400  0.922700  0.984600  1.0  0.1413
  C  C422  1  0.083400  0.909900  0.010300  1.0  -0.1259
  C  C423  1  0.982400  0.842100  0.109400  1.0  -0.0407
  C  C424  1  0.081400  0.841300  0.110600  1.0  -0.1012
  C  C425  1  0.129400  0.820800  0.132600  1.0  0.1323
  C  C426  1  0.988200  0.796500  0.153600  1.0  0.0999
  C  C427  1  0.937100  0.819100  0.132100  1.0  -0.1056
  C  C428  1  0.691900  0.913100  0.071000  1.0  -0.1448
  C  C429  1  0.644600  0.907300  0.097700  1.0  -0.1049
  C  C430  1  0.550800  0.922400  0.100900  1.0  0.1472
  C  C431  1  0.547500  0.952400  0.052700  1.0  0.1129
  C  C432  1  0.644400  0.935100  0.048300  1.0  -0.0865
  C  C433  1  0.455200  0.254800  0.145000  1.0  0.3794
  C  C434  1  0.492100  0.218300  0.188100  1.0  0.4154
  C  C435  1  0.456700  0.176100  0.148000  1.0  0.3518
  C  C436  1  0.438900  0.300500  0.128000  1.0  -0.1194
  C  C437  1  0.413700  0.299900  0.099500  1.0  -0.1004
  C  C438  1  0.393300  0.344500  0.085500  1.0  0.1701
  C  C439  1  0.427400  0.385100  0.126100  1.0  0.1321
  C  C440  1  0.449800  0.343600  0.142200  1.0  -0.1269
  C  C441  1  0.520800  0.223200  0.218300  1.0  -0.0657
  C  C442  1  0.525500  0.265800  0.232600  1.0  -0.1056
  C  C443  1  0.558200  0.268500  0.262000  1.0  0.131
  C  C444  1  0.585200  0.190100  0.263200  1.0  0.151
  C  C445  1  0.553300  0.184800  0.235500  1.0  -0.1075
  C  C446  1  0.442400  0.129700  0.133400  1.0  -0.1005
  C  C447  1  0.447600  0.087900  0.149400  1.0  -0.1269
  C  C448  1  0.428900  0.044900  0.134600  1.0  0.1382
  C  C449  1  0.400800  0.084100  0.090500  1.0  0.1242
  C  C450  1  0.421100  0.128200  0.102700  1.0  -0.1097
  C  C451  1  0.567900  0.402500  0.959500  1.0  0.3487
  C  C452  1  0.570900  0.365500  0.914600  1.0  0.3066
  C  C453  1  0.705900  0.399400  0.932400  1.0  0.3705
  C  C454  1  0.515300  0.418100  0.986200  1.0  -0.0848
  C  C455  1  0.564100  0.439900  0.009200  1.0  -0.0864
  C  C456  1  0.513600  0.451100  0.035000  1.0  0.1309
  C  C457  1  0.370600  0.422700  0.015400  1.0  0.1393
  C  C458  1  0.416600  0.409900  0.989700  1.0  -0.1255
  C  C459  1  0.517600  0.342100  0.890600  1.0  -0.0409
  C  C460  1  0.418600  0.341300  0.889400  1.0  -0.1017
  C  C461  1  0.370600  0.320800  0.867400  1.0  0.132
  C  C462  1  0.511800  0.296500  0.846400  1.0  0.0988
  C  C463  1  0.562900  0.319100  0.867900  1.0  -0.103
  C  C464  1  0.808100  0.413100  0.929000  1.0  -0.1452
  C  C465  1  0.855400  0.407300  0.902300  1.0  -0.1053
  C  C466  1  0.949200  0.422400  0.899100  1.0  0.1463
  C  C467  1  0.952500  0.452400  0.947300  1.0  0.114
  C  C468  1  0.855600  0.435100  0.951700  1.0  -0.0867
  C  C469  1  0.544800  0.245200  0.645000  1.0  0.3798
  C  C470  1  0.507900  0.281700  0.688100  1.0  0.4155
  C  C471  1  0.543300  0.323900  0.648000  1.0  0.3524
  C  C472  1  0.561100  0.199500  0.628000  1.0  -0.1197
  C  C473  1  0.586300  0.200100  0.599500  1.0  -0.1016
  C  C474  1  0.606700  0.155500  0.585500  1.0  0.1698
  C  C475  1  0.572600  0.114900  0.626100  1.0  0.132
  C  C476  1  0.550200  0.156400  0.642200  1.0  -0.1266
  C  C477  1  0.479200  0.276800  0.718300  1.0  -0.066
  C  C478  1  0.474500  0.234200  0.732600  1.0  -0.1057
  C  C479  1  0.441800  0.231500  0.762000  1.0  0.1313
  C  C480  1  0.414800  0.309900  0.763200  1.0  0.1507
  C  C481  1  0.446700  0.315200  0.735500  1.0  -0.1085
  C  C482  1  0.557600  0.370300  0.633400  1.0  -0.1013
  C  C483  1  0.552400  0.412100  0.649400  1.0  -0.1278
  C  C484  1  0.571100  0.455100  0.634600  1.0  0.1386
  C  C485  1  0.599200  0.415900  0.590500  1.0  0.1233
  C  C486  1  0.578900  0.371800  0.602700  1.0  -0.1102
  C  C487  1  0.432100  0.097500  0.459500  1.0  0.3491
  C  C488  1  0.429100  0.134500  0.414600  1.0  0.3068
  C  C489  1  0.294100  0.100600  0.432400  1.0  0.3713
  C  C490  1  0.484700  0.081900  0.486200  1.0  -0.0855
  C  C491  1  0.435900  0.060100  0.509200  1.0  -0.0891
  C  C492  1  0.486400  0.048900  0.535000  1.0  0.1297
  C  C493  1  0.629400  0.077300  0.515400  1.0  0.1413
  C  C494  1  0.583400  0.090100  0.489700  1.0  -0.1242
  C  C495  1  0.482400  0.157900  0.390600  1.0  -0.0405
  C  C496  1  0.581400  0.158700  0.389400  1.0  -0.1017
  C  C497  1  0.629400  0.179200  0.367400  1.0  0.133
  C  C498  1  0.488200  0.203500  0.346400  1.0  0.0987
  C  C499  1  0.437100  0.180900  0.367900  1.0  -0.1058
  C  C500  1  0.191900  0.086900  0.429000  1.0  -0.1442
  C  C501  1  0.144600  0.092700  0.402300  1.0  -0.106
  C  C502  1  0.050800  0.077600  0.399100  1.0  0.1471
  C  C503  1  0.047500  0.047600  0.447300  1.0  0.1121
  C  C504  1  0.144400  0.064900  0.451700  1.0  -0.0871
  I  I505  1  0.325870  0.438820  0.573670  1.0  -0.4004
  I  I506  1  0.053620  0.512240  0.606570  1.0  -0.3838
  I  I507  1  0.673060  0.195070  0.809100  1.0  -0.386
  I  I508  1  0.832290  0.325660  0.830480  1.0  -0.2975
  I  I509  1  0.203270  0.994050  0.535960  1.0  -0.4082
  I  I510  1  0.211860  0.930420  0.626420  1.0  -0.3449
  I  I511  1  0.674130  0.061180  0.073670  1.0  -0.4
  I  I512  1  0.946380  0.987760  0.106570  1.0  -0.3843
  I  I513  1  0.326940  0.304930  0.309100  1.0  -0.3861
  I  I514  1  0.167710  0.174340  0.330480  1.0  -0.2975
  I  I515  1  0.796730  0.505950  0.035960  1.0  -0.4089
  I  I516  1  0.788140  0.569580  0.126420  1.0  -0.3447
  I  I517  1  0.825870  0.561180  0.926330  1.0  -0.4006
  I  I518  1  0.553620  0.487760  0.893430  1.0  -0.3855
  I  I519  1  0.173060  0.804930  0.690900  1.0  -0.3861
  I  I520  1  0.332290  0.674340  0.669520  1.0  -0.2972
  I  I521  1  0.703270  0.005950  0.964040  1.0  -0.4078
  I  I522  1  0.711860  0.069580  0.873580  1.0  -0.3458
  I  I523  1  0.174130  0.938820  0.426330  1.0  -0.3994
  I  I524  1  0.446380  0.012240  0.393430  1.0  -0.3857
  I  I525  1  0.826940  0.695070  0.190900  1.0  -0.3865
  I  I526  1  0.667710  0.825660  0.169520  1.0  -0.2975
  I  I527  1  0.296730  0.494050  0.464040  1.0  -0.4091
  I  I528  1  0.288140  0.430420  0.373580  1.0  -0.3467
  I  I529  1  0.674130  0.561180  0.426330  1.0  -0.3999
  I  I530  1  0.946380  0.487760  0.393430  1.0  -0.3856
  I  I531  1  0.326940  0.804930  0.190900  1.0  -0.3863
  I  I532  1  0.167710  0.674340  0.169520  1.0  -0.2974
  I  I533  1  0.796730  0.005950  0.464040  1.0  -0.4089
  I  I534  1  0.788140  0.069580  0.373580  1.0  -0.3462
  I  I535  1  0.325870  0.938820  0.926330  1.0  -0.4002
  I  I536  1  0.053620  0.012240  0.893430  1.0  -0.3856
  I  I537  1  0.673060  0.695070  0.690900  1.0  -0.3862
  I  I538  1  0.832290  0.825660  0.669520  1.0  -0.2976
  I  I539  1  0.203270  0.494050  0.964040  1.0  -0.4079
  I  I540  1  0.211860  0.430420  0.873580  1.0  -0.3462
  I  I541  1  0.174130  0.438820  0.073670  1.0  -0.3996
  I  I542  1  0.446380  0.512240  0.106570  1.0  -0.3844
  I  I543  1  0.826940  0.195070  0.309100  1.0  -0.3863
  I  I544  1  0.667710  0.325660  0.330480  1.0  -0.2974
  I  I545  1  0.296730  0.994050  0.035960  1.0  -0.4094
  I  I546  1  0.288140  0.930420  0.126420  1.0  -0.345
  I  I547  1  0.825870  0.061180  0.573670  1.0  -0.4007
  I  I548  1  0.553620  0.987760  0.606570  1.0  -0.3836
  I  I549  1  0.173060  0.304930  0.809100  1.0  -0.386
  I  I550  1  0.332290  0.174340  0.830480  1.0  -0.2974
  I  I551  1  0.703270  0.505950  0.535960  1.0  -0.4079
  I  I552  1  0.711860  0.569580  0.626420  1.0  -0.3446
  N  N553  1  0.021300  0.260000  0.673580  1.0  -0.5068
  N  N554  1  0.017900  0.176900  0.676400  1.0  -0.4652
  N  N555  1  0.059100  0.215200  0.630820  1.0  -0.4227
  N  N556  1  0.100600  0.384300  0.598100  1.0  -0.225
  N  N557  1  0.910600  0.232100  0.776140  1.0  -0.3025
  N  N558  1  0.094000  0.041300  0.605800  1.0  -0.3294
  N  N559  1  0.980200  0.379200  0.438800  1.0  -0.3471
  N  N560  1  0.834000  0.373100  0.411200  1.0  -0.5276
  N  N561  1  0.837200  0.413600  0.457800  1.0  -0.4702
  N  N562  1  0.083100  0.441100  0.538100  1.0  -0.3286
  N  N563  1  0.084200  0.299000  0.345600  1.0  -0.3154
  N  N564  1  0.504000  0.446300  0.420400  1.0  -0.3353
  N  N565  1  0.978700  0.240000  0.173580  1.0  -0.5066
  N  N566  1  0.982100  0.323100  0.176400  1.0  -0.4658
  N  N567  1  0.940900  0.284800  0.130820  1.0  -0.4223
  N  N568  1  0.899400  0.115700  0.098100  1.0  -0.2248
  N  N569  1  0.089400  0.267900  0.276140  1.0  -0.3019
  N  N570  1  0.906000  0.458700  0.105800  1.0  -0.3298
  N  N571  1  0.019800  0.120800  0.938800  1.0  -0.3464
  N  N572  1  0.166000  0.126900  0.911200  1.0  -0.5279
  N  N573  1  0.162800  0.086400  0.957800  1.0  -0.4687
  N  N574  1  0.916900  0.058900  0.038100  1.0  -0.329
  N  N575  1  0.915800  0.201000  0.845600  1.0  -0.3158
  N  N576  1  0.496000  0.053700  0.920400  1.0  -0.335
  N  N577  1  0.521300  0.740000  0.826420  1.0  -0.5076
  N  N578  1  0.517900  0.823100  0.823600  1.0  -0.4651
  N  N579  1  0.559100  0.784800  0.869180  1.0  -0.4237
  N  N580  1  0.600600  0.615700  0.901900  1.0  -0.2245
  N  N581  1  0.410600  0.767900  0.723860  1.0  -0.3068
  N  N582  1  0.594000  0.958700  0.894200  1.0  -0.3308
  N  N583  1  0.480200  0.620800  0.061200  1.0  -0.3471
  N  N584  1  0.334000  0.626900  0.088800  1.0  -0.5289
  N  N585  1  0.337200  0.586400  0.042200  1.0  -0.4682
  N  N586  1  0.583100  0.558900  0.961900  1.0  -0.3325
  N  N587  1  0.584200  0.701000  0.154400  1.0  -0.3151
  N  N588  1  0.004000  0.553700  0.079600  1.0  -0.3359
  N  N589  1  0.478700  0.760000  0.326420  1.0  -0.5069
  N  N590  1  0.482100  0.676900  0.323600  1.0  -0.4648
  N  N591  1  0.440900  0.715200  0.369180  1.0  -0.4234
  N  N592  1  0.399400  0.884300  0.401900  1.0  -0.2257
  N  N593  1  0.589400  0.732100  0.223860  1.0  -0.306
  N  N594  1  0.406000  0.541300  0.394200  1.0  -0.3304
  N  N595  1  0.519800  0.879200  0.561200  1.0  -0.3469
  N  N596  1  0.666000  0.873100  0.588800  1.0  -0.5272
  N  N597  1  0.662800  0.913600  0.542200  1.0  -0.4663
  N  N598  1  0.416900  0.941100  0.461900  1.0  -0.3305
  N  N599  1  0.415800  0.799000  0.654400  1.0  -0.3169
  N  N600  1  0.996000  0.946300  0.579600  1.0  -0.3348
  N  N601  1  0.978700  0.740000  0.326420  1.0  -0.5069
  N  N602  1  0.982100  0.823100  0.323600  1.0  -0.465
  N  N603  1  0.940900  0.784800  0.369180  1.0  -0.4237
  N  N604  1  0.899400  0.615700  0.401900  1.0  -0.2251
  N  N605  1  0.089400  0.767900  0.223860  1.0  -0.3059
  N  N606  1  0.906000  0.958700  0.394200  1.0  -0.3305
  N  N607  1  0.019800  0.620800  0.561200  1.0  -0.3463
  N  N608  1  0.166000  0.626900  0.588800  1.0  -0.5282
  N  N609  1  0.162800  0.586400  0.542200  1.0  -0.4667
  N  N610  1  0.916900  0.558900  0.461900  1.0  -0.3321
  N  N611  1  0.915800  0.701000  0.654400  1.0  -0.3169
  N  N612  1  0.496000  0.553700  0.579600  1.0  -0.335
  N  N613  1  0.021300  0.760000  0.826420  1.0  -0.5073
  N  N614  1  0.017900  0.676900  0.823600  1.0  -0.4652
  N  N615  1  0.059100  0.715200  0.869180  1.0  -0.4234
  N  N616  1  0.100600  0.884300  0.901900  1.0  -0.2255
  N  N617  1  0.910600  0.732100  0.723860  1.0  -0.3064
  N  N618  1  0.094000  0.541300  0.894200  1.0  -0.3298
  N  N619  1  0.980200  0.879200  0.061200  1.0  -0.3473
  N  N620  1  0.834000  0.873100  0.088800  1.0  -0.5286
  N  N621  1  0.837200  0.913600  0.042200  1.0  -0.4679
  N  N622  1  0.083100  0.941100  0.961900  1.0  -0.3307
  N  N623  1  0.084200  0.799000  0.154400  1.0  -0.3151
  N  N624  1  0.504000  0.946300  0.079600  1.0  -0.3354
  N  N625  1  0.478700  0.260000  0.173580  1.0  -0.5066
  N  N626  1  0.482100  0.176900  0.176400  1.0  -0.4648
  N  N627  1  0.440900  0.215200  0.130820  1.0  -0.4227
  N  N628  1  0.399400  0.384300  0.098100  1.0  -0.225
  N  N629  1  0.589400  0.232100  0.276140  1.0  -0.302
  N  N630  1  0.406000  0.041300  0.105800  1.0  -0.3302
  N  N631  1  0.519800  0.379200  0.938800  1.0  -0.3468
  N  N632  1  0.666000  0.373100  0.911200  1.0  -0.5269
  N  N633  1  0.662800  0.413600  0.957800  1.0  -0.4688
  N  N634  1  0.416900  0.441100  0.038100  1.0  -0.3288
  N  N635  1  0.415800  0.299000  0.845600  1.0  -0.3173
  N  N636  1  0.996000  0.446300  0.920400  1.0  -0.3348
  N  N637  1  0.521300  0.240000  0.673580  1.0  -0.507
  N  N638  1  0.517900  0.323100  0.676400  1.0  -0.4658
  N  N639  1  0.559100  0.284800  0.630820  1.0  -0.4223
  N  N640  1  0.600600  0.115700  0.598100  1.0  -0.2243
  N  N641  1  0.410600  0.267900  0.776140  1.0  -0.3027
  N  N642  1  0.594000  0.458700  0.605800  1.0  -0.3298
  N  N643  1  0.480200  0.120800  0.438800  1.0  -0.3472
  N  N644  1  0.334000  0.126900  0.411200  1.0  -0.5282
  N  N645  1  0.337200  0.086400  0.457800  1.0  -0.4698
  N  N646  1  0.583100  0.058900  0.538100  1.0  -0.3293
  N  N647  1  0.584200  0.201000  0.345600  1.0  -0.3149
  N  N648  1  0.004000  0.053700  0.420400  1.0  -0.336
