# generated using pymatgen
data_ZnH8C12(IN2)2
_symmetry_space_group_name_H-M   'P 1'
_cell_length_a   13.82960000
_cell_length_b   28.18070000
_cell_length_c   44.30940000
_cell_angle_alpha   90.00000000
_cell_angle_beta   90.00000000
_cell_angle_gamma   90.00000000
_symmetry_Int_Tables_number   1
_chemical_formula_structural   ZnH8C12(IN2)2
_chemical_formula_sum   'Zn24 H192 C288 I48 N96'
_cell_volume   17268.60536770
_cell_formula_units_Z   24
loop_
 _symmetry_equiv_pos_site_id
 _symmetry_equiv_pos_as_xyz
  1  'x, y, z'
loop_
 _atom_site_type_symbol
 _atom_site_label
 _atom_site_symmetry_multiplicity
 _atom_site_fract_x
 _atom_site_fract_y
 _atom_site_fract_z
 _atom_site_occupancy
 _atom_site_charge
  Zn  Zn1  1  0.570460  0.027560  0.931070  1.0  0.8682
  Zn  Zn2  1  0.373050  0.231350  0.827070  1.0  0.8527
  Zn  Zn3  1  0.611190  0.204670  0.657930  1.0  0.8888
  Zn  Zn4  1  0.929540  0.972440  0.431070  1.0  0.8695
  Zn  Zn5  1  0.126950  0.768650  0.327070  1.0  0.8505
  Zn  Zn6  1  0.888810  0.795330  0.157930  1.0  0.8888
  Zn  Zn7  1  0.429540  0.527560  0.568930  1.0  0.8694
  Zn  Zn8  1  0.626950  0.731350  0.672930  1.0  0.8516
  Zn  Zn9  1  0.388810  0.704670  0.842070  1.0  0.8879
  Zn  Zn10  1  0.070460  0.472440  0.068930  1.0  0.8679
  Zn  Zn11  1  0.873050  0.268650  0.172930  1.0  0.8526
  Zn  Zn12  1  0.111190  0.295330  0.342070  1.0  0.8891
  Zn  Zn13  1  0.561170  0.497210  0.069720  1.0  0.8708
  Zn  Zn14  1  0.887410  0.302900  0.832740  1.0  0.8718
  Zn  Zn15  1  0.867130  0.779230  0.847750  1.0  0.8291
  Zn  Zn16  1  0.938830  0.502790  0.569720  1.0  0.8732
  Zn  Zn17  1  0.612590  0.697100  0.332740  1.0  0.87
  Zn  Zn18  1  0.632870  0.220770  0.347750  1.0  0.8296
  Zn  Zn19  1  0.438830  0.997210  0.430280  1.0  0.8725
  Zn  Zn20  1  0.112590  0.802900  0.667260  1.0  0.8708
  Zn  Zn21  1  0.132870  0.279230  0.652250  1.0  0.8286
  Zn  Zn22  1  0.061170  0.002790  0.930280  1.0  0.8714
  Zn  Zn23  1  0.387410  0.197100  0.167260  1.0  0.87
  Zn  Zn24  1  0.367130  0.720770  0.152250  1.0  0.8285
  H  H25  1  0.798200  0.222800  0.688700  1.0  0.0541
  H  H26  1  0.880800  0.200400  0.731000  1.0  0.1155
  H  H27  1  0.551400  0.179100  0.722400  1.0  0.0881
  H  H28  1  0.627200  0.160600  0.768500  1.0  0.1127
  H  H29  1  0.542400  0.066400  0.870300  1.0  0.0905
  H  H30  1  0.625500  0.102300  0.832200  1.0  0.1056
  H  H31  1  0.779500  0.062200  0.919800  1.0  0.0949
  H  H32  1  0.864500  0.101100  0.882100  1.0  0.1034
  H  H33  1  0.229100  0.173200  0.862200  1.0  0.107
  H  H34  1  0.063700  0.151600  0.856900  1.0  0.0951
  H  H35  1  0.229600  0.218100  0.777000  1.0  0.0802
  H  H36  1  0.073400  0.193400  0.768900  1.0  0.1091
  H  H37  1  0.863200  0.162000  0.186200  1.0  0.1052
  H  H38  1  0.841500  0.093300  0.160100  1.0  0.0944
  H  H39  1  0.807800  0.234800  0.112700  1.0  0.0735
  H  H40  1  0.780400  0.166800  0.085400  1.0  0.1118
  H  H41  1  0.612700  0.100300  0.979000  1.0  0.0903
  H  H42  1  0.702300  0.108200  0.023200  1.0  0.1015
  H  H43  1  0.678000  0.964800  0.972800  1.0  0.0833
  H  H44  1  0.752700  0.968100  0.020900  1.0  0.0945
  H  H45  1  0.801100  0.838000  0.102200  1.0  0.0851
  H  H46  1  0.788100  0.911400  0.079600  1.0  0.0948
  H  H47  1  0.870800  0.899100  0.178800  1.0  0.0875
  H  H48  1  0.849600  0.972600  0.157800  1.0  0.102
  H  H49  1  0.701800  0.777200  0.188700  1.0  0.0548
  H  H50  1  0.619200  0.799600  0.231000  1.0  0.1163
  H  H51  1  0.948600  0.820900  0.222400  1.0  0.0882
  H  H52  1  0.872800  0.839400  0.268500  1.0  0.1126
  H  H53  1  0.957600  0.933600  0.370300  1.0  0.0883
  H  H54  1  0.874500  0.897700  0.332200  1.0  0.1059
  H  H55  1  0.720500  0.937800  0.419800  1.0  0.0951
  H  H56  1  0.635500  0.898900  0.382100  1.0  0.104
  H  H57  1  0.270900  0.826800  0.362200  1.0  0.1072
  H  H58  1  0.436300  0.848400  0.356900  1.0  0.0951
  H  H59  1  0.270400  0.781900  0.277000  1.0  0.0799
  H  H60  1  0.426600  0.806600  0.268900  1.0  0.1092
  H  H61  1  0.636800  0.838000  0.686200  1.0  0.1045
  H  H62  1  0.658500  0.906700  0.660100  1.0  0.0941
  H  H63  1  0.692200  0.765200  0.612700  1.0  0.0737
  H  H64  1  0.719600  0.833200  0.585400  1.0  0.1117
  H  H65  1  0.887300  0.899700  0.479000  1.0  0.0897
  H  H66  1  0.797700  0.891800  0.523200  1.0  0.1014
  H  H67  1  0.822000  0.035200  0.472800  1.0  0.0831
  H  H68  1  0.747300  0.031900  0.520900  1.0  0.0947
  H  H69  1  0.698900  0.162000  0.602200  1.0  0.0855
  H  H70  1  0.711900  0.088600  0.579600  1.0  0.0944
  H  H71  1  0.629200  0.100900  0.678800  1.0  0.088
  H  H72  1  0.650400  0.027400  0.657800  1.0  0.102
  H  H73  1  0.201800  0.722800  0.811300  1.0  0.055
  H  H74  1  0.119200  0.700400  0.769000  1.0  0.116
  H  H75  1  0.448600  0.679100  0.777600  1.0  0.0881
  H  H76  1  0.372800  0.660600  0.731500  1.0  0.112
  H  H77  1  0.457600  0.566400  0.629700  1.0  0.0887
  H  H78  1  0.374500  0.602300  0.667800  1.0  0.1058
  H  H79  1  0.220500  0.562200  0.580200  1.0  0.0949
  H  H80  1  0.135500  0.601100  0.617900  1.0  0.1041
  H  H81  1  0.770900  0.673200  0.637800  1.0  0.1067
  H  H82  1  0.936300  0.651600  0.643100  1.0  0.0956
  H  H83  1  0.770400  0.718100  0.723000  1.0  0.0803
  H  H84  1  0.926600  0.693400  0.731100  1.0  0.1095
  H  H85  1  0.136800  0.662000  0.313800  1.0  0.1043
  H  H86  1  0.158500  0.593300  0.339900  1.0  0.0943
  H  H87  1  0.192200  0.734800  0.387300  1.0  0.074
  H  H88  1  0.219600  0.666800  0.414600  1.0  0.1116
  H  H89  1  0.387300  0.600300  0.521000  1.0  0.0905
  H  H90  1  0.297700  0.608200  0.476800  1.0  0.1015
  H  H91  1  0.322000  0.464800  0.527200  1.0  0.0832
  H  H92  1  0.247300  0.468100  0.479100  1.0  0.095
  H  H93  1  0.198900  0.338000  0.397800  1.0  0.0855
  H  H94  1  0.211900  0.411400  0.420400  1.0  0.0951
  H  H95  1  0.129200  0.399100  0.321200  1.0  0.0881
  H  H96  1  0.150400  0.472600  0.342200  1.0  0.1022
  H  H97  1  0.298200  0.277200  0.311300  1.0  0.0546
  H  H98  1  0.380800  0.299600  0.269000  1.0  0.1155
  H  H99  1  0.051400  0.320900  0.277600  1.0  0.0878
  H  H100  1  0.127200  0.339400  0.231500  1.0  0.1122
  H  H101  1  0.042400  0.433600  0.129700  1.0  0.0912
  H  H102  1  0.125500  0.397700  0.167800  1.0  0.1055
  H  H103  1  0.279500  0.437800  0.080200  1.0  0.0945
  H  H104  1  0.364500  0.398900  0.117900  1.0  0.1035
  H  H105  1  0.729100  0.326800  0.137800  1.0  0.1068
  H  H106  1  0.563700  0.348400  0.143100  1.0  0.0952
  H  H107  1  0.729600  0.281900  0.223000  1.0  0.0801
  H  H108  1  0.573400  0.306600  0.231100  1.0  0.1094
  H  H109  1  0.363200  0.338000  0.813800  1.0  0.1041
  H  H110  1  0.341500  0.406700  0.839900  1.0  0.0939
  H  H111  1  0.307800  0.265200  0.887300  1.0  0.0737
  H  H112  1  0.280400  0.333200  0.914600  1.0  0.1117
  H  H113  1  0.112700  0.399700  0.021000  1.0  0.0898
  H  H114  1  0.202300  0.391800  0.976800  1.0  0.1012
  H  H115  1  0.178000  0.535200  0.027200  1.0  0.0825
  H  H116  1  0.252700  0.531900  0.979100  1.0  0.0951
  H  H117  1  0.301100  0.662000  0.897800  1.0  0.0852
  H  H118  1  0.288100  0.588600  0.920400  1.0  0.0947
  H  H119  1  0.370800  0.600900  0.821200  1.0  0.0878
  H  H120  1  0.349600  0.527400  0.842200  1.0  0.1023
  H  H121  1  0.827400  0.339200  0.891800  1.0  0.0776
  H  H122  1  0.785900  0.406000  0.915800  1.0  0.096
  H  H123  1  0.871000  0.408200  0.817500  1.0  0.0787
  H  H124  1  0.841700  0.480200  0.841500  1.0  0.1004
  H  H125  1  0.871300  0.676700  0.827500  1.0  0.0878
  H  H126  1  0.849000  0.600200  0.848100  1.0  0.0978
  H  H127  1  0.792000  0.734700  0.902800  1.0  0.0724
  H  H128  1  0.762200  0.662500  0.924500  1.0  0.101
  H  H129  1  0.615600  0.578800  0.028500  1.0  0.1051
  H  H130  1  0.684100  0.590600  0.984200  1.0  0.0932
  H  H131  1  0.692500  0.445600  0.025200  1.0  0.0685
  H  H132  1  0.752700  0.455700  0.978200  1.0  0.1042
  H  H133  1  0.766400  0.514900  0.084700  1.0  0.0738
  H  H134  1  0.862000  0.552400  0.120400  1.0  0.1156
  H  H135  1  0.533100  0.571400  0.116000  1.0  0.0924
  H  H136  1  0.618300  0.608700  0.153900  1.0  0.0989
  H  H137  1  0.554000  0.667000  0.270000  1.0  0.0917
  H  H138  1  0.628900  0.649500  0.224900  1.0  0.1007
  H  H139  1  0.797800  0.722500  0.299200  1.0  0.0845
  H  H140  1  0.880500  0.698600  0.254700  1.0  0.1008
  H  H141  1  0.239700  0.700600  0.205100  1.0  0.0715
  H  H142  1  0.079600  0.678200  0.217600  1.0  0.111
  H  H143  1  0.198300  0.678700  0.120100  1.0  0.0812
  H  H144  1  0.044900  0.653400  0.127700  1.0  0.1123
  H  H145  1  0.672600  0.660800  0.391800  1.0  0.0775
  H  H146  1  0.714100  0.594000  0.415800  1.0  0.0958
  H  H147  1  0.629000  0.591800  0.317500  1.0  0.0792
  H  H148  1  0.658300  0.519800  0.341500  1.0  0.1002
  H  H149  1  0.628700  0.323300  0.327500  1.0  0.0872
  H  H150  1  0.651000  0.399800  0.348100  1.0  0.098
  H  H151  1  0.708000  0.265300  0.402800  1.0  0.0724
  H  H152  1  0.737800  0.337500  0.424500  1.0  0.1012
  H  H153  1  0.884400  0.421200  0.528500  1.0  0.1042
  H  H154  1  0.815900  0.409400  0.484200  1.0  0.0926
  H  H155  1  0.807500  0.554400  0.525200  1.0  0.0669
  H  H156  1  0.747300  0.544300  0.478200  1.0  0.1046
  H  H157  1  0.733600  0.485100  0.584700  1.0  0.0741
  H  H158  1  0.638000  0.447600  0.620400  1.0  0.1174
  H  H159  1  0.966900  0.428600  0.616000  1.0  0.0913
  H  H160  1  0.881700  0.391300  0.653900  1.0  0.0988
  H  H161  1  0.946000  0.333000  0.770000  1.0  0.0909
  H  H162  1  0.871100  0.350500  0.724900  1.0  0.1008
  H  H163  1  0.702200  0.277500  0.799200  1.0  0.0854
  H  H164  1  0.619500  0.301400  0.754700  1.0  0.1002
  H  H165  1  0.260300  0.299400  0.705100  1.0  0.0719
  H  H166  1  0.420400  0.321800  0.717600  1.0  0.111
  H  H167  1  0.301700  0.321300  0.620100  1.0  0.0814
  H  H168  1  0.455100  0.346600  0.627700  1.0  0.112
  H  H169  1  0.172600  0.839200  0.608200  1.0  0.077
  H  H170  1  0.214100  0.906000  0.584200  1.0  0.0955
  H  H171  1  0.129000  0.908200  0.682500  1.0  0.0788
  H  H172  1  0.158300  0.980200  0.658500  1.0  0.1003
  H  H173  1  0.128700  0.176700  0.672500  1.0  0.0878
  H  H174  1  0.151000  0.100200  0.651900  1.0  0.0982
  H  H175  1  0.208000  0.234700  0.597200  1.0  0.0725
  H  H176  1  0.237800  0.162500  0.575500  1.0  0.1014
  H  H177  1  0.384400  0.078800  0.471500  1.0  0.1049
  H  H178  1  0.315900  0.090600  0.515800  1.0  0.0932
  H  H179  1  0.307500  0.945600  0.474800  1.0  0.0684
  H  H180  1  0.247300  0.955700  0.521800  1.0  0.1042
  H  H181  1  0.233600  0.014900  0.415300  1.0  0.0743
  H  H182  1  0.138000  0.052400  0.379600  1.0  0.1175
  H  H183  1  0.466900  0.071400  0.384000  1.0  0.0914
  H  H184  1  0.381700  0.108700  0.346100  1.0  0.0993
  H  H185  1  0.446000  0.167000  0.230000  1.0  0.0908
  H  H186  1  0.371100  0.149500  0.275100  1.0  0.1009
  H  H187  1  0.202200  0.222500  0.200800  1.0  0.085
  H  H188  1  0.119500  0.198600  0.245300  1.0  0.1005
  H  H189  1  0.760300  0.200600  0.294900  1.0  0.072
  H  H190  1  0.920400  0.178200  0.282400  1.0  0.1108
  H  H191  1  0.801700  0.178700  0.379900  1.0  0.0819
  H  H192  1  0.955100  0.153400  0.372300  1.0  0.1125
  H  H193  1  0.327400  0.160800  0.108200  1.0  0.0767
  H  H194  1  0.285900  0.094000  0.084200  1.0  0.0955
  H  H195  1  0.371000  0.091800  0.182500  1.0  0.0787
  H  H196  1  0.341700  0.019800  0.158500  1.0  0.1006
  H  H197  1  0.371300  0.823300  0.172500  1.0  0.0875
  H  H198  1  0.349000  0.899800  0.151900  1.0  0.0978
  H  H199  1  0.292000  0.765300  0.097200  1.0  0.0716
  H  H200  1  0.262200  0.837500  0.075500  1.0  0.1014
  H  H201  1  0.115600  0.921200  0.971500  1.0  0.1042
  H  H202  1  0.184100  0.909400  0.015800  1.0  0.0927
  H  H203  1  0.192500  0.054400  0.974800  1.0  0.0668
  H  H204  1  0.252700  0.044300  0.021800  1.0  0.1044
  H  H205  1  0.266400  0.985100  0.915300  1.0  0.0738
  H  H206  1  0.362000  0.947600  0.879600  1.0  0.1159
  H  H207  1  0.033100  0.928600  0.884000  1.0  0.0922
  H  H208  1  0.118300  0.891300  0.846100  1.0  0.0987
  H  H209  1  0.054000  0.833000  0.730000  1.0  0.091
  H  H210  1  0.128900  0.850500  0.775100  1.0  0.1007
  H  H211  1  0.297800  0.777500  0.700800  1.0  0.0849
  H  H212  1  0.380500  0.801400  0.745300  1.0  0.1008
  H  H213  1  0.739700  0.799400  0.794900  1.0  0.0721
  H  H214  1  0.579600  0.821800  0.782400  1.0  0.1107
  H  H215  1  0.698300  0.821300  0.879900  1.0  0.0816
  H  H216  1  0.544900  0.846600  0.872300  1.0  0.1126
  C  C217  1  0.764200  0.208500  0.704300  1.0  0.1419
  C  C218  1  0.814100  0.196400  0.729800  1.0  -0.1174
  C  C219  1  0.617700  0.183500  0.724400  1.0  0.1144
  C  C220  1  0.662900  0.171900  0.752200  1.0  -0.114
  C  C221  1  0.760800  0.177800  0.754200  1.0  -0.1196
  C  C222  1  0.810600  0.163000  0.781600  1.0  0.3842
  C  C223  1  0.607700  0.073200  0.872800  1.0  0.1254
  C  C224  1  0.657400  0.094000  0.849900  1.0  -0.0831
  C  C225  1  0.748300  0.071200  0.902100  1.0  0.1102
  C  C226  1  0.799900  0.093100  0.879300  1.0  -0.0544
  C  C227  1  0.754800  0.102800  0.852800  1.0  -0.1387
  C  C228  1  0.810500  0.126200  0.827200  1.0  0.2931
  C  C229  1  0.196300  0.178300  0.844200  1.0  0.1018
  C  C230  1  0.097000  0.164600  0.840700  1.0  -0.0645
  C  C231  1  0.195700  0.204400  0.792900  1.0  0.1342
  C  C232  1  0.102300  0.190400  0.787800  1.0  -0.1307
  C  C233  1  0.050800  0.170700  0.813600  1.0  -0.1373
  C  C234  1  0.946000  0.159100  0.808800  1.0  0.2906
  C  C235  1  0.848000  0.163100  0.165700  1.0  0.0734
  C  C236  1  0.835300  0.122000  0.149900  1.0  -0.0638
  C  C237  1  0.814700  0.205700  0.122300  1.0  0.159
  C  C238  1  0.799500  0.165000  0.105500  1.0  -0.1028
  C  C239  1  0.813800  0.120900  0.119700  1.0  -0.1175
  C  C240  1  0.797200  0.076800  0.102700  1.0  0.3671
  C  C241  1  0.645600  0.074300  0.986700  1.0  0.1092
  C  C242  1  0.692800  0.078600  0.014400  1.0  -0.1029
  C  C243  1  0.681500  0.993400  0.983100  1.0  0.1217
  C  C244  1  0.725000  0.995200  0.012700  1.0  -0.0731
  C  C245  1  0.725600  0.037200  0.028700  1.0  -0.0674
  C  C246  1  0.758900  0.037400  0.060200  1.0  0.3508
  C  C247  1  0.815300  0.865100  0.113300  1.0  0.1033
  C  C248  1  0.802400  0.909400  0.100000  1.0  -0.0607
  C  C249  1  0.855000  0.901300  0.158500  1.0  0.1126
  C  C250  1  0.839900  0.945600  0.146100  1.0  -0.0741
  C  C251  1  0.810600  0.950000  0.116800  1.0  -0.1046
  C  C252  1  0.798700  0.996900  0.101700  1.0  0.3672
  C  C253  1  0.735800  0.791500  0.204300  1.0  0.1428
  C  C254  1  0.685900  0.803600  0.229800  1.0  -0.1169
  C  C255  1  0.882300  0.816500  0.224400  1.0  0.1148
  C  C256  1  0.837100  0.828100  0.252200  1.0  -0.1137
  C  C257  1  0.739200  0.822200  0.254200  1.0  -0.1206
  C  C258  1  0.689400  0.837000  0.281600  1.0  0.3831
  C  C259  1  0.892300  0.926800  0.372800  1.0  0.1266
  C  C260  1  0.842600  0.906000  0.349900  1.0  -0.0834
  C  C261  1  0.751700  0.928800  0.402100  1.0  0.1098
  C  C262  1  0.700100  0.906900  0.379300  1.0  -0.0565
  C  C263  1  0.745200  0.897200  0.352800  1.0  -0.1389
  C  C264  1  0.689500  0.873800  0.327200  1.0  0.2936
  C  C265  1  0.303700  0.821700  0.344200  1.0  0.1006
  C  C266  1  0.403000  0.835400  0.340700  1.0  -0.0658
  C  C267  1  0.304300  0.795600  0.292900  1.0  0.1349
  C  C268  1  0.397700  0.809600  0.287800  1.0  -0.13
  C  C269  1  0.449200  0.829300  0.313600  1.0  -0.1365
  C  C270  1  0.554000  0.840900  0.308800  1.0  0.2908
  C  C271  1  0.652000  0.836900  0.665700  1.0  0.0732
  C  C272  1  0.664700  0.878000  0.649900  1.0  -0.0639
  C  C273  1  0.685300  0.794300  0.622300  1.0  0.1587
  C  C274  1  0.700500  0.835000  0.605500  1.0  -0.1015
  C  C275  1  0.686200  0.879100  0.619700  1.0  -0.1185
  C  C276  1  0.702800  0.923200  0.602700  1.0  0.3669
  C  C277  1  0.854400  0.925700  0.486700  1.0  0.1066
  C  C278  1  0.807200  0.921400  0.514400  1.0  -0.1035
  C  C279  1  0.818500  0.006600  0.483100  1.0  0.1216
  C  C280  1  0.775000  0.004800  0.512700  1.0  -0.0725
  C  C281  1  0.774400  0.962800  0.528700  1.0  -0.0677
  C  C282  1  0.741100  0.962600  0.560200  1.0  0.3508
  C  C283  1  0.684700  0.134900  0.613300  1.0  0.1041
  C  C284  1  0.697600  0.090600  0.600000  1.0  -0.0634
  C  C285  1  0.645000  0.098700  0.658500  1.0  0.1107
  C  C286  1  0.660100  0.054400  0.646100  1.0  -0.0744
  C  C287  1  0.689400  0.050000  0.616800  1.0  -0.1022
  C  C288  1  0.701300  0.003100  0.601700  1.0  0.367
  C  C289  1  0.235800  0.708500  0.795700  1.0  0.1414
  C  C290  1  0.185900  0.696400  0.770200  1.0  -0.1164
  C  C291  1  0.382300  0.683500  0.775600  1.0  0.1154
  C  C292  1  0.337100  0.671900  0.747800  1.0  -0.1136
  C  C293  1  0.239200  0.677800  0.745800  1.0  -0.1192
  C  C294  1  0.189400  0.663000  0.718400  1.0  0.3834
  C  C295  1  0.392300  0.573200  0.627200  1.0  0.126
  C  C296  1  0.342600  0.594000  0.650100  1.0  -0.0838
  C  C297  1  0.251700  0.571200  0.597900  1.0  0.1104
  C  C298  1  0.200100  0.593100  0.620700  1.0  -0.0565
  C  C299  1  0.245200  0.602800  0.647200  1.0  -0.1393
  C  C300  1  0.189500  0.626200  0.672800  1.0  0.2934
  C  C301  1  0.803700  0.678300  0.655800  1.0  0.1028
  C  C302  1  0.903000  0.664600  0.659300  1.0  -0.0653
  C  C303  1  0.804300  0.704400  0.707100  1.0  0.1342
  C  C304  1  0.897700  0.690400  0.712200  1.0  -0.1302
  C  C305  1  0.949200  0.670700  0.686400  1.0  -0.1365
  C  C306  1  0.054000  0.659100  0.691200  1.0  0.2909
  C  C307  1  0.152000  0.663100  0.334300  1.0  0.075
  C  C308  1  0.164700  0.622000  0.350100  1.0  -0.0634
  C  C309  1  0.185300  0.705700  0.377700  1.0  0.1595
  C  C310  1  0.200500  0.665000  0.394500  1.0  -0.1024
  C  C311  1  0.186200  0.620900  0.380300  1.0  -0.1188
  C  C312  1  0.202800  0.576800  0.397300  1.0  0.3668
  C  C313  1  0.354400  0.574300  0.513300  1.0  0.1086
  C  C314  1  0.307200  0.578600  0.485600  1.0  -0.1033
  C  C315  1  0.318500  0.493400  0.516900  1.0  0.1223
  C  C316  1  0.275000  0.495200  0.487300  1.0  -0.0721
  C  C317  1  0.274400  0.537200  0.471300  1.0  -0.0664
  C  C318  1  0.241100  0.537400  0.439800  1.0  0.3505
  C  C319  1  0.184700  0.365100  0.386700  1.0  0.104
  C  C320  1  0.197600  0.409400  0.400000  1.0  -0.0622
  C  C321  1  0.145000  0.401300  0.341500  1.0  0.1101
  C  C322  1  0.160100  0.445600  0.353900  1.0  -0.0741
  C  C323  1  0.189400  0.450000  0.383200  1.0  -0.1035
  C  C324  1  0.201300  0.496900  0.398300  1.0  0.3674
  C  C325  1  0.264200  0.291500  0.295700  1.0  0.1411
  C  C326  1  0.314100  0.303600  0.270200  1.0  -0.1173
  C  C327  1  0.117700  0.316500  0.275600  1.0  0.1138
  C  C328  1  0.162900  0.328100  0.247800  1.0  -0.1153
  C  C329  1  0.260800  0.322200  0.245800  1.0  -0.1212
  C  C330  1  0.310600  0.337000  0.218400  1.0  0.3835
  C  C331  1  0.107700  0.426800  0.127200  1.0  0.1251
  C  C332  1  0.157400  0.406000  0.150100  1.0  -0.0823
  C  C333  1  0.248300  0.428800  0.097900  1.0  0.1107
  C  C334  1  0.299900  0.406900  0.120700  1.0  -0.0531
  C  C335  1  0.254800  0.397200  0.147200  1.0  -0.1393
  C  C336  1  0.310500  0.373800  0.172800  1.0  0.2931
  C  C337  1  0.696300  0.321700  0.155800  1.0  0.1016
  C  C338  1  0.597000  0.335400  0.159300  1.0  -0.0645
  C  C339  1  0.695700  0.295600  0.207100  1.0  0.1355
  C  C340  1  0.602300  0.309600  0.212200  1.0  -0.1311
  C  C341  1  0.550800  0.329300  0.186400  1.0  -0.1367
  C  C342  1  0.446000  0.340900  0.191200  1.0  0.2898
  C  C343  1  0.348000  0.336900  0.834300  1.0  0.0738
  C  C344  1  0.335300  0.378000  0.850100  1.0  -0.0647
  C  C345  1  0.314700  0.294300  0.877700  1.0  0.1589
  C  C346  1  0.299500  0.335000  0.894500  1.0  -0.1031
  C  C347  1  0.313800  0.379100  0.880300  1.0  -0.1173
  C  C348  1  0.297200  0.423200  0.897300  1.0  0.3669
  C  C349  1  0.145600  0.425700  0.013300  1.0  0.1087
  C  C350  1  0.192800  0.421400  0.985600  1.0  -0.1025
  C  C351  1  0.181500  0.506600  0.016900  1.0  0.1225
  C  C352  1  0.225000  0.504800  0.987300  1.0  -0.0727
  C  C353  1  0.225600  0.462800  0.971300  1.0  -0.0663
  C  C354  1  0.258900  0.462600  0.939800  1.0  0.3503
  C  C355  1  0.315300  0.634900  0.886700  1.0  0.1049
  C  C356  1  0.302400  0.590600  0.900000  1.0  -0.0636
  C  C357  1  0.355000  0.598700  0.841500  1.0  0.1113
  C  C358  1  0.339900  0.554400  0.853900  1.0  -0.0737
  C  C359  1  0.310600  0.550000  0.883200  1.0  -0.1033
  C  C360  1  0.298700  0.503100  0.898300  1.0  0.3673
  C  C361  1  0.826900  0.367600  0.881100  1.0  0.1409
  C  C362  1  0.806100  0.407700  0.895800  1.0  -0.1109
  C  C363  1  0.854000  0.408100  0.837800  1.0  0.1309
  C  C364  1  0.837100  0.452000  0.852200  1.0  -0.1302
  C  C365  1  0.814000  0.452300  0.881900  1.0  -0.1317
  C  C366  1  0.797100  0.496900  0.900100  1.0  0.3717
  C  C367  1  0.849100  0.673500  0.847200  1.0  0.1115
  C  C368  1  0.835400  0.626900  0.859600  1.0  -0.0823
  C  C369  1  0.801800  0.707500  0.891300  1.0  0.1647
  C  C370  1  0.784900  0.663800  0.904700  1.0  -0.1466
  C  C371  1  0.801500  0.622100  0.889000  1.0  -0.0965
  C  C372  1  0.796200  0.574900  0.902700  1.0  0.406
  C  C373  1  0.643200  0.553300  0.018300  1.0  0.1032
  C  C374  1  0.682400  0.560000  0.992000  1.0  -0.0634
  C  C375  1  0.686600  0.475300  0.016200  1.0  0.1474
  C  C376  1  0.724700  0.481300  0.988100  1.0  -0.1446
  C  C377  1  0.722200  0.523100  0.975000  1.0  -0.0343
  C  C378  1  0.757000  0.530600  0.943100  1.0  0.4395
  C  C379  1  0.737300  0.533600  0.099500  1.0  0.1396
  C  C380  1  0.795400  0.557100  0.120000  1.0  -0.1585
  C  C381  1  0.599200  0.566300  0.117800  1.0  0.1226
  C  C382  1  0.650900  0.590600  0.139600  1.0  -0.0987
  C  C383  1  0.750000  0.588200  0.140300  1.0  -0.0936
  C  C384  1  0.806900  0.616400  0.164200  1.0  0.3463
  C  C385  1  0.619400  0.673600  0.267500  1.0  0.116
  C  C386  1  0.664600  0.662500  0.240600  1.0  -0.0887
  C  C387  1  0.765000  0.705400  0.284500  1.0  0.1186
  C  C388  1  0.815100  0.692300  0.257600  1.0  -0.0746
  C  C389  1  0.761900  0.670400  0.237000  1.0  -0.0799
  C  C390  1  0.812000  0.653200  0.208200  1.0  0.344
  C  C391  1  0.198700  0.691400  0.189500  1.0  0.147
  C  C392  1  0.102300  0.677400  0.197800  1.0  -0.1205
  C  C393  1  0.174500  0.678100  0.139800  1.0  0.1559
  C  C394  1  0.082200  0.663100  0.144000  1.0  -0.1634
  C  C395  1  0.044400  0.662200  0.172800  1.0  -0.08
  C  C396  1  0.946700  0.649000  0.178600  1.0  0.3562
  C  C397  1  0.673100  0.632400  0.381100  1.0  0.1417
  C  C398  1  0.693900  0.592300  0.395800  1.0  -0.1113
  C  C399  1  0.646000  0.591900  0.337800  1.0  0.1324
  C  C400  1  0.662900  0.548000  0.352200  1.0  -0.129
  C  C401  1  0.686000  0.547700  0.381900  1.0  -0.1313
  C  C402  1  0.702900  0.503100  0.400100  1.0  0.3713
  C  C403  1  0.650900  0.326500  0.347200  1.0  0.1127
  C  C404  1  0.664600  0.373100  0.359600  1.0  -0.0826
  C  C405  1  0.698200  0.292500  0.391300  1.0  0.1637
  C  C406  1  0.715100  0.336200  0.404700  1.0  -0.1464
  C  C407  1  0.698500  0.377900  0.389000  1.0  -0.0967
  C  C408  1  0.703800  0.425100  0.402700  1.0  0.4061
  C  C409  1  0.856800  0.446700  0.518300  1.0  0.1048
  C  C410  1  0.817600  0.440000  0.492000  1.0  -0.0646
  C  C411  1  0.813400  0.524700  0.516200  1.0  0.1482
  C  C412  1  0.775300  0.518700  0.488100  1.0  -0.1432
  C  C413  1  0.777800  0.476900  0.475000  1.0  -0.034
  C  C414  1  0.743000  0.469400  0.443100  1.0  0.4391
  C  C415  1  0.762700  0.466400  0.599500  1.0  0.1404
  C  C416  1  0.704600  0.442900  0.620000  1.0  -0.1595
  C  C417  1  0.900800  0.433700  0.617800  1.0  0.1218
  C  C418  1  0.849100  0.409400  0.639600  1.0  -0.0994
  C  C419  1  0.750000  0.411800  0.640300  1.0  -0.0934
  C  C420  1  0.693100  0.383600  0.664200  1.0  0.3462
  C  C421  1  0.880600  0.326400  0.767500  1.0  0.1161
  C  C422  1  0.835400  0.337500  0.740600  1.0  -0.0874
  C  C423  1  0.735000  0.294600  0.784500  1.0  0.1173
  C  C424  1  0.684900  0.307700  0.757600  1.0  -0.0764
  C  C425  1  0.738100  0.329600  0.737000  1.0  -0.0812
  C  C426  1  0.688000  0.346800  0.708200  1.0  0.3434
  C  C427  1  0.301300  0.308600  0.689500  1.0  0.1463
  C  C428  1  0.397700  0.322600  0.697800  1.0  -0.1198
  C  C429  1  0.325500  0.321900  0.639800  1.0  0.1559
  C  C430  1  0.417800  0.336900  0.644000  1.0  -0.1638
  C  C431  1  0.455600  0.337800  0.672800  1.0  -0.079
  C  C432  1  0.553300  0.351000  0.678600  1.0  0.3562
  C  C433  1  0.173100  0.867600  0.618900  1.0  0.1409
  C  C434  1  0.193900  0.907700  0.604200  1.0  -0.112
  C  C435  1  0.146000  0.908100  0.662200  1.0  0.1331
  C  C436  1  0.162900  0.952000  0.647800  1.0  -0.1323
  C  C437  1  0.186000  0.952300  0.618100  1.0  -0.1314
  C  C438  1  0.202900  0.996900  0.599900  1.0  0.3714
  C  C439  1  0.150900  0.173500  0.652800  1.0  0.1103
  C  C440  1  0.164600  0.126900  0.640400  1.0  -0.0845
  C  C441  1  0.198200  0.207500  0.608700  1.0  0.1645
  C  C442  1  0.215100  0.163800  0.595300  1.0  -0.1464
  C  C443  1  0.198500  0.122100  0.611000  1.0  -0.0964
  C  C444  1  0.203800  0.074900  0.597300  1.0  0.4065
  C  C445  1  0.356800  0.053300  0.481700  1.0  0.1046
  C  C446  1  0.317600  0.060000  0.508000  1.0  -0.0639
  C  C447  1  0.313400  0.975300  0.483800  1.0  0.147
  C  C448  1  0.275300  0.981300  0.511900  1.0  -0.1443
  C  C449  1  0.277800  0.023100  0.525000  1.0  -0.035
  C  C450  1  0.243000  0.030600  0.556900  1.0  0.4391
  C  C451  1  0.262700  0.033600  0.400500  1.0  0.1415
  C  C452  1  0.204600  0.057100  0.380000  1.0  -0.1589
  C  C453  1  0.400800  0.066300  0.382200  1.0  0.1219
  C  C454  1  0.349100  0.090600  0.360400  1.0  -0.0995
  C  C455  1  0.250000  0.088200  0.359700  1.0  -0.0935
  C  C456  1  0.193100  0.116400  0.335800  1.0  0.3465
  C  C457  1  0.380600  0.173600  0.232500  1.0  0.1155
  C  C458  1  0.335400  0.162500  0.259400  1.0  -0.0879
  C  C459  1  0.235000  0.205400  0.215500  1.0  0.1183
  C  C460  1  0.184900  0.192300  0.242400  1.0  -0.0763
  C  C461  1  0.238100  0.170400  0.263000  1.0  -0.08
  C  C462  1  0.188000  0.153200  0.291800  1.0  0.3439
  C  C463  1  0.801300  0.191400  0.310500  1.0  0.145
  C  C464  1  0.897700  0.177400  0.302200  1.0  -0.119
  C  C465  1  0.825500  0.178100  0.360200  1.0  0.1569
  C  C466  1  0.917800  0.163100  0.356000  1.0  -0.164
  C  C467  1  0.955600  0.162200  0.327200  1.0  -0.0795
  C  C468  1  0.053300  0.149000  0.321400  1.0  0.356
  C  C469  1  0.326900  0.132400  0.118900  1.0  0.1419
  C  C470  1  0.306100  0.092300  0.104200  1.0  -0.1123
  C  C471  1  0.354000  0.091900  0.162200  1.0  0.134
  C  C472  1  0.337100  0.048000  0.147800  1.0  -0.1321
  C  C473  1  0.314000  0.047700  0.118100  1.0  -0.1314
  C  C474  1  0.297100  0.003100  0.099900  1.0  0.3715
  C  C475  1  0.349100  0.826500  0.152800  1.0  0.1117
  C  C476  1  0.335400  0.873100  0.140400  1.0  -0.0827
  C  C477  1  0.301800  0.792500  0.108700  1.0  0.1635
  C  C478  1  0.284900  0.836200  0.095300  1.0  -0.1443
  C  C479  1  0.301500  0.877900  0.111000  1.0  -0.0961
  C  C480  1  0.296200  0.925100  0.097300  1.0  0.4056
  C  C481  1  0.143200  0.946700  0.981700  1.0  0.1057
  C  C482  1  0.182400  0.940000  0.008000  1.0  -0.0646
  C  C483  1  0.186600  0.024700  0.983800  1.0  0.1484
  C  C484  1  0.224700  0.018700  0.011900  1.0  -0.1437
  C  C485  1  0.222200  0.976900  0.025000  1.0  -0.0339
  C  C486  1  0.257000  0.969400  0.056900  1.0  0.4395
  C  C487  1  0.237300  0.966400  0.900500  1.0  0.14
  C  C488  1  0.295400  0.942900  0.880000  1.0  -0.159
  C  C489  1  0.099200  0.933700  0.882200  1.0  0.1214
  C  C490  1  0.150900  0.909400  0.860400  1.0  -0.098
  C  C491  1  0.250000  0.911800  0.859700  1.0  -0.0929
  C  C492  1  0.306900  0.883600  0.835800  1.0  0.3463
  C  C493  1  0.119400  0.826400  0.732500  1.0  0.1164
  C  C494  1  0.164600  0.837500  0.759400  1.0  -0.0863
  C  C495  1  0.265000  0.794600  0.715500  1.0  0.1179
  C  C496  1  0.315100  0.807700  0.742400  1.0  -0.0733
  C  C497  1  0.261900  0.829600  0.763000  1.0  -0.0808
  C  C498  1  0.312000  0.846800  0.791800  1.0  0.3433
  C  C499  1  0.698700  0.808600  0.810500  1.0  0.1458
  C  C500  1  0.602300  0.822600  0.802200  1.0  -0.119
  C  C501  1  0.674500  0.821900  0.860200  1.0  0.1575
  C  C502  1  0.582200  0.836900  0.856000  1.0  -0.1663
  C  C503  1  0.544400  0.837800  0.827200  1.0  -0.0783
  C  C504  1  0.446700  0.851000  0.821400  1.0  0.3565
  I  I505  1  0.566390  0.940790  0.914460  1.0  -0.333
  I  I506  1  0.410930  0.072200  0.937030  1.0  -0.3389
  I  I507  1  0.439080  0.250290  0.774580  1.0  -0.3936
  I  I508  1  0.465790  0.181860  0.864970  1.0  -0.3294
  I  I509  1  0.427160  0.201940  0.661580  1.0  -0.3929
  I  I510  1  0.699790  0.267250  0.627470  1.0  -0.3773
  I  I511  1  0.933610  0.059210  0.414460  1.0  -0.3334
  I  I512  1  0.089070  0.927800  0.437030  1.0  -0.3389
  I  I513  1  0.060920  0.749710  0.274580  1.0  -0.3944
  I  I514  1  0.034210  0.818140  0.364970  1.0  -0.3288
  I  I515  1  0.072840  0.798060  0.161580  1.0  -0.3928
  I  I516  1  0.800210  0.732750  0.127470  1.0  -0.3771
  I  I517  1  0.433610  0.440790  0.585540  1.0  -0.3335
  I  I518  1  0.589070  0.572200  0.562970  1.0  -0.3391
  I  I519  1  0.560920  0.750290  0.725420  1.0  -0.3932
  I  I520  1  0.534210  0.681860  0.635030  1.0  -0.3287
  I  I521  1  0.572840  0.701940  0.838420  1.0  -0.3937
  I  I522  1  0.300210  0.767250  0.872530  1.0  -0.3786
  I  I523  1  0.066390  0.559210  0.085540  1.0  -0.3328
  I  I524  1  0.910930  0.427800  0.062970  1.0  -0.3389
  I  I525  1  0.939080  0.249710  0.225420  1.0  -0.3935
  I  I526  1  0.965790  0.318140  0.135030  1.0  -0.3299
  I  I527  1  0.927160  0.298060  0.338420  1.0  -0.3928
  I  I528  1  0.199790  0.232750  0.372530  1.0  -0.3794
  I  I529  1  0.569180  0.408500  0.081420  1.0  -0.3327
  I  I530  1  0.398820  0.537880  0.062120  1.0  -0.3741
  I  I531  1  0.072850  0.306820  0.828790  1.0  -0.4261
  I  I532  1  0.803590  0.238110  0.862620  1.0  -0.3884
  I  I533  1  0.957910  0.771440  0.797550  1.0  -0.408
  I  I534  1  0.939410  0.822530  0.893200  1.0  -0.326
  I  I535  1  0.930820  0.591500  0.581420  1.0  -0.3335
  I  I536  1  0.101180  0.462120  0.562120  1.0  -0.3729
  I  I537  1  0.427150  0.693180  0.328790  1.0  -0.4254
  I  I538  1  0.696410  0.761890  0.362620  1.0  -0.3886
  I  I539  1  0.542090  0.228560  0.297550  1.0  -0.4082
  I  I540  1  0.560590  0.177470  0.393200  1.0  -0.3253
  I  I541  1  0.430820  0.908500  0.418580  1.0  -0.3332
  I  I542  1  0.601180  0.037880  0.437880  1.0  -0.3728
  I  I543  1  0.927150  0.806820  0.671210  1.0  -0.4252
  I  I544  1  0.196410  0.738110  0.637380  1.0  -0.3886
  I  I545  1  0.042090  0.271440  0.702450  1.0  -0.4082
  I  I546  1  0.060590  0.322530  0.606800  1.0  -0.3243
  I  I547  1  0.069180  0.091500  0.918580  1.0  -0.3332
  I  I548  1  0.898820  0.962120  0.937880  1.0  -0.374
  I  I549  1  0.572850  0.193180  0.171210  1.0  -0.426
  I  I550  1  0.303590  0.261890  0.137380  1.0  -0.388
  I  I551  1  0.457910  0.728560  0.202450  1.0  -0.4081
  I  I552  1  0.439410  0.677470  0.106800  1.0  -0.3247
  N  N553  1  0.669100  0.201100  0.700400  1.0  -0.3275
  N  N554  1  0.650900  0.062600  0.898700  1.0  -0.325
  N  N555  1  0.241700  0.199400  0.819800  1.0  -0.3069
  N  N556  1  0.757300  0.139900  0.802700  1.0  -0.3629
  N  N557  1  0.904400  0.132900  0.831300  1.0  -0.4606
  N  N558  1  0.903900  0.174000  0.784000  1.0  -0.4469
  N  N559  1  0.838300  0.205800  0.151300  1.0  -0.3354
  N  N560  1  0.646500  0.032500  0.970700  1.0  -0.3187
  N  N561  1  0.847700  0.860200  0.142000  1.0  -0.36
  N  N562  1  0.771100  0.080800  0.074100  1.0  -0.4533
  N  N563  1  0.773100  0.995600  0.072700  1.0  -0.4332
  N  N564  1  0.811000  0.035800  0.117500  1.0  -0.4395
  N  N565  1  0.830900  0.798900  0.200400  1.0  -0.3285
  N  N566  1  0.849100  0.937400  0.398700  1.0  -0.3243
  N  N567  1  0.258300  0.800600  0.319800  1.0  -0.3079
  N  N568  1  0.742700  0.860100  0.302700  1.0  -0.363
  N  N569  1  0.595600  0.867100  0.331300  1.0  -0.461
  N  N570  1  0.596100  0.826000  0.284000  1.0  -0.4462
  N  N571  1  0.661700  0.794200  0.651300  1.0  -0.3335
  N  N572  1  0.853500  0.967500  0.470700  1.0  -0.3182
  N  N573  1  0.652300  0.139800  0.642000  1.0  -0.3614
  N  N574  1  0.728900  0.919200  0.574100  1.0  -0.4539
  N  N575  1  0.726900  0.004400  0.572700  1.0  -0.4324
  N  N576  1  0.689000  0.964200  0.617500  1.0  -0.4402
  N  N577  1  0.330900  0.701100  0.799600  1.0  -0.3253
  N  N578  1  0.349100  0.562600  0.601300  1.0  -0.3239
  N  N579  1  0.758300  0.699400  0.680200  1.0  -0.3072
  N  N580  1  0.242700  0.639900  0.697300  1.0  -0.3628
  N  N581  1  0.095600  0.632900  0.668700  1.0  -0.4601
  N  N582  1  0.096100  0.674000  0.716000  1.0  -0.4472
  N  N583  1  0.161700  0.705800  0.348700  1.0  -0.3328
  N  N584  1  0.353500  0.532500  0.529300  1.0  -0.3174
  N  N585  1  0.152300  0.360200  0.358000  1.0  -0.3594
  N  N586  1  0.228900  0.580800  0.425900  1.0  -0.454
  N  N587  1  0.226900  0.495600  0.427300  1.0  -0.4328
  N  N588  1  0.189000  0.535800  0.382500  1.0  -0.4414
  N  N589  1  0.169100  0.298900  0.299600  1.0  -0.3253
  N  N590  1  0.150900  0.437400  0.101300  1.0  -0.3231
  N  N591  1  0.741700  0.300600  0.180200  1.0  -0.3072
  N  N592  1  0.257300  0.360100  0.197300  1.0  -0.3632
  N  N593  1  0.404400  0.367100  0.168700  1.0  -0.4615
  N  N594  1  0.403900  0.326000  0.216000  1.0  -0.4477
  N  N595  1  0.338300  0.294200  0.848700  1.0  -0.3332
  N  N596  1  0.146500  0.467500  0.029300  1.0  -0.3169
  N  N597  1  0.347700  0.639800  0.858000  1.0  -0.3608
  N  N598  1  0.271100  0.419200  0.925900  1.0  -0.4528
  N  N599  1  0.273100  0.504400  0.927300  1.0  -0.4332
  N  N600  1  0.311000  0.464200  0.882500  1.0  -0.4411
  N  N601  1  0.846600  0.366600  0.852000  1.0  -0.3225
  N  N602  1  0.830500  0.712600  0.863600  1.0  -0.3396
  N  N603  1  0.642000  0.508900  0.031300  1.0  -0.3407
  N  N604  1  0.809500  0.538300  0.885800  1.0  -0.4445
  N  N605  1  0.768300  0.573300  0.931900  1.0  -0.2734
  N  N606  1  0.771900  0.491800  0.927900  1.0  -0.4463
  N  N607  1  0.641400  0.536600  0.100100  1.0  -0.3088
  N  N608  1  0.668100  0.693400  0.289300  1.0  -0.3372
  N  N609  1  0.234100  0.692500  0.162300  1.0  -0.3534
  N  N610  1  0.758700  0.631000  0.188100  1.0  -0.4305
  N  N611  1  0.902900  0.664900  0.205200  1.0  -0.4129
  N  N612  1  0.899100  0.622800  0.158800  1.0  -0.3796
  N  N613  1  0.653400  0.633400  0.352000  1.0  -0.3249
  N  N614  1  0.669500  0.287400  0.363600  1.0  -0.3374
  N  N615  1  0.858000  0.491100  0.531300  1.0  -0.3386
  N  N616  1  0.690500  0.461700  0.385800  1.0  -0.444
  N  N617  1  0.731700  0.426700  0.431900  1.0  -0.2731
  N  N618  1  0.728100  0.508200  0.427900  1.0  -0.4446
  N  N619  1  0.858600  0.463400  0.600100  1.0  -0.3115
  N  N620  1  0.831900  0.306600  0.789300  1.0  -0.3376
  N  N621  1  0.265900  0.307500  0.662300  1.0  -0.35
  N  N622  1  0.741300  0.369000  0.688100  1.0  -0.4311
  N  N623  1  0.597100  0.335100  0.705200  1.0  -0.4117
  N  N624  1  0.600900  0.377200  0.658800  1.0  -0.3792
  N  N625  1  0.153400  0.866600  0.648000  1.0  -0.3227
  N  N626  1  0.169500  0.212600  0.636400  1.0  -0.3375
  N  N627  1  0.358000  0.008900  0.468700  1.0  -0.3394
  N  N628  1  0.190500  0.038300  0.614200  1.0  -0.4428
  N  N629  1  0.231700  0.073300  0.568100  1.0  -0.2732
  N  N630  1  0.228100  0.991800  0.572100  1.0  -0.4466
  N  N631  1  0.358600  0.036600  0.399900  1.0  -0.3084
  N  N632  1  0.331900  0.193400  0.210700  1.0  -0.3382
  N  N633  1  0.765900  0.192500  0.337700  1.0  -0.3499
  N  N634  1  0.241300  0.131000  0.311900  1.0  -0.4311
  N  N635  1  0.097100  0.164900  0.294800  1.0  -0.411
  N  N636  1  0.100900  0.122800  0.341200  1.0  -0.3796
  N  N637  1  0.346600  0.133400  0.148000  1.0  -0.3248
  N  N638  1  0.330500  0.787400  0.136400  1.0  -0.3369
  N  N639  1  0.142000  0.991100  0.968700  1.0  -0.3406
  N  N640  1  0.309500  0.961700  0.114200  1.0  -0.4428
  N  N641  1  0.268300  0.926700  0.068100  1.0  -0.2736
  N  N642  1  0.271900  0.008200  0.072100  1.0  -0.4458
  N  N643  1  0.141400  0.963400  0.899900  1.0  -0.3102
  N  N644  1  0.168100  0.806600  0.710700  1.0  -0.3391
  N  N645  1  0.734100  0.807500  0.837700  1.0  -0.3534
  N  N646  1  0.258700  0.869000  0.811900  1.0  -0.4295
  N  N647  1  0.402900  0.835100  0.794800  1.0  -0.411
  N  N648  1  0.399100  0.877200  0.841200  1.0  -0.3796
