# generated using pymatgen
data_ZnH8C12(IN2)2
_symmetry_space_group_name_H-M   'P 1'
_cell_length_a   28.85700000
_cell_length_b   13.70630000
_cell_length_c   45.18800000
_cell_angle_alpha   90.00000000
_cell_angle_beta   90.00000000
_cell_angle_gamma   90.00000000
_symmetry_Int_Tables_number   1
_chemical_formula_structural   ZnH8C12(IN2)2
_chemical_formula_sum   'Zn24 H192 C288 I48 N96'
_cell_volume   17872.87972693
_cell_formula_units_Z   24
loop_
 _symmetry_equiv_pos_site_id
 _symmetry_equiv_pos_as_xyz
  1  'x, y, z'
loop_
 _atom_site_type_symbol
 _atom_site_label
 _atom_site_symmetry_multiplicity
 _atom_site_fract_x
 _atom_site_fract_y
 _atom_site_fract_z
 _atom_site_occupancy
 _atom_site_charge
  Zn  Zn1  1  0.022800  0.147220  0.914130  1.0  0.8167
  Zn  Zn2  1  0.563580  0.158550  0.928740  1.0  0.8691
  Zn  Zn3  1  0.762230  0.855940  0.689450  1.0  0.8759
  Zn  Zn4  1  0.477200  0.852780  0.414130  1.0  0.8178
  Zn  Zn5  1  0.936420  0.841450  0.428740  1.0  0.8692
  Zn  Zn6  1  0.737770  0.144060  0.189450  1.0  0.874
  Zn  Zn7  1  0.977200  0.647220  0.585870  1.0  0.8158
  Zn  Zn8  1  0.436420  0.658550  0.571260  1.0  0.8694
  Zn  Zn9  1  0.237770  0.355940  0.810550  1.0  0.8769
  Zn  Zn10  1  0.522800  0.352780  0.085870  1.0  0.8174
  Zn  Zn11  1  0.063580  0.341450  0.071260  1.0  0.869
  Zn  Zn12  1  0.262230  0.644060  0.310550  1.0  0.8735
  Zn  Zn13  1  0.977200  0.852780  0.085870  1.0  0.8172
  Zn  Zn14  1  0.436420  0.841450  0.071260  1.0  0.8695
  Zn  Zn15  1  0.237770  0.144060  0.310550  1.0  0.8742
  Zn  Zn16  1  0.522800  0.147220  0.585870  1.0  0.8165
  Zn  Zn17  1  0.063580  0.158550  0.571260  1.0  0.8686
  Zn  Zn18  1  0.262230  0.855940  0.810550  1.0  0.8763
  Zn  Zn19  1  0.022800  0.352780  0.414130  1.0  0.8178
  Zn  Zn20  1  0.563580  0.341450  0.428740  1.0  0.8687
  Zn  Zn21  1  0.762230  0.644060  0.189450  1.0  0.8732
  Zn  Zn22  1  0.477200  0.647220  0.914130  1.0  0.8162
  Zn  Zn23  1  0.936420  0.658550  0.928740  1.0  0.8696
  Zn  Zn24  1  0.737770  0.355940  0.689450  1.0  0.8764
  H  H25  1  0.923200  0.123800  0.933000  1.0  0.0886
  H  H26  1  0.850200  0.100600  0.912200  1.0  0.1174
  H  H27  1  0.982500  0.094700  0.855300  1.0  0.0832
  H  H28  1  0.911600  0.070200  0.832600  1.0  0.115
  H  H29  1  0.835700  0.894000  0.733300  1.0  0.0885
  H  H30  1  0.845900  0.960100  0.780200  1.0  0.1126
  H  H31  1  0.705400  0.975500  0.732000  1.0  0.0919
  H  H32  1  0.711400  0.037800  0.779700  1.0  0.1091
  H  H33  1  0.594200  0.088800  0.869000  1.0  0.088
  H  H34  1  0.661200  0.064800  0.842000  1.0  0.114
  H  H35  1  0.665800  0.145700  0.940800  1.0  0.093
  H  H36  1  0.735000  0.118200  0.916600  1.0  0.1177
  H  H37  1  0.103500  0.309800  0.011000  1.0  0.0871
  H  H38  1  0.119700  0.395400  0.968600  1.0  0.1198
  H  H39  1  0.036300  0.532100  0.044500  1.0  0.0715
  H  H40  1  0.052200  0.626400  0.003400  1.0  0.119
  H  H41  1  0.022600  0.988100  0.958400  1.0  0.0816
  H  H42  1  0.050000  0.831300  0.965600  1.0  0.1171
  H  H43  1  0.088700  0.010700  0.883500  1.0  0.0873
  H  H44  1  0.119400  0.855300  0.888900  1.0  0.1126
  H  H45  1  0.214100  0.567700  0.824900  1.0  0.0715
  H  H46  1  0.177600  0.656500  0.862200  1.0  0.1155
  H  H47  1  0.175700  0.320800  0.860300  1.0  0.0834
  H  H48  1  0.141000  0.400800  0.899900  1.0  0.1194
  H  H49  1  0.576800  0.876200  0.433000  1.0  0.0886
  H  H50  1  0.649800  0.899400  0.412200  1.0  0.1175
  H  H51  1  0.517500  0.905300  0.355300  1.0  0.0836
  H  H52  1  0.588400  0.929800  0.332600  1.0  0.115
  H  H53  1  0.664300  0.106000  0.233300  1.0  0.0875
  H  H54  1  0.654100  0.039900  0.280200  1.0  0.1126
  H  H55  1  0.794600  0.024500  0.232000  1.0  0.0919
  H  H56  1  0.788600  0.962200  0.279700  1.0  0.1093
  H  H57  1  0.905800  0.911200  0.369000  1.0  0.0874
  H  H58  1  0.838800  0.935200  0.342000  1.0  0.1143
  H  H59  1  0.834200  0.854300  0.440800  1.0  0.0933
  H  H60  1  0.765000  0.881800  0.416600  1.0  0.1181
  H  H61  1  0.396500  0.690200  0.511000  1.0  0.088
  H  H62  1  0.380300  0.604600  0.468600  1.0  0.1198
  H  H63  1  0.463700  0.467900  0.544500  1.0  0.0719
  H  H64  1  0.447800  0.373600  0.503400  1.0  0.119
  H  H65  1  0.477400  0.011900  0.458400  1.0  0.0816
  H  H66  1  0.450000  0.168700  0.465600  1.0  0.1169
  H  H67  1  0.411300  0.989300  0.383500  1.0  0.0871
  H  H68  1  0.380600  0.144700  0.388900  1.0  0.1127
  H  H69  1  0.285900  0.432300  0.324900  1.0  0.0715
  H  H70  1  0.322400  0.343500  0.362200  1.0  0.1152
  H  H71  1  0.324300  0.679200  0.360300  1.0  0.0819
  H  H72  1  0.359000  0.599200  0.399900  1.0  0.1195
  H  H73  1  0.076800  0.623800  0.567000  1.0  0.0878
  H  H74  1  0.149800  0.600600  0.587800  1.0  0.1171
  H  H75  1  0.017500  0.594700  0.644700  1.0  0.0841
  H  H76  1  0.088400  0.570200  0.667400  1.0  0.1153
  H  H77  1  0.164300  0.394000  0.766700  1.0  0.0877
  H  H78  1  0.154100  0.460100  0.719800  1.0  0.1128
  H  H79  1  0.294600  0.475500  0.768000  1.0  0.0918
  H  H80  1  0.288600  0.537800  0.720300  1.0  0.1094
  H  H81  1  0.405800  0.588800  0.631000  1.0  0.0877
  H  H82  1  0.338800  0.564800  0.658000  1.0  0.1134
  H  H83  1  0.334200  0.645700  0.559200  1.0  0.0933
  H  H84  1  0.265000  0.618200  0.583400  1.0  0.1178
  H  H85  1  0.896500  0.809800  0.489000  1.0  0.0867
  H  H86  1  0.880300  0.895400  0.531400  1.0  0.1199
  H  H87  1  0.963700  0.032100  0.455500  1.0  0.071
  H  H88  1  0.947800  0.126400  0.496600  1.0  0.1188
  H  H89  1  0.977400  0.488100  0.541600  1.0  0.081
  H  H90  1  0.950000  0.331300  0.534400  1.0  0.1179
  H  H91  1  0.911300  0.510700  0.616500  1.0  0.0868
  H  H92  1  0.880600  0.355300  0.611100  1.0  0.1129
  H  H93  1  0.785900  0.067700  0.675100  1.0  0.0722
  H  H94  1  0.822400  0.156500  0.637800  1.0  0.1152
  H  H95  1  0.824300  0.820800  0.639700  1.0  0.0835
  H  H96  1  0.859000  0.900800  0.600100  1.0  0.119
  H  H97  1  0.423200  0.376200  0.067000  1.0  0.0878
  H  H98  1  0.350200  0.399400  0.087800  1.0  0.1173
  H  H99  1  0.482500  0.405300  0.144700  1.0  0.0836
  H  H100  1  0.411600  0.429800  0.167400  1.0  0.115
  H  H101  1  0.335700  0.606000  0.266700  1.0  0.0877
  H  H102  1  0.345900  0.539900  0.219800  1.0  0.1126
  H  H103  1  0.205400  0.524500  0.268000  1.0  0.0917
  H  H104  1  0.211400  0.462200  0.220300  1.0  0.1093
  H  H105  1  0.094200  0.411200  0.131000  1.0  0.088
  H  H106  1  0.161200  0.435200  0.158000  1.0  0.114
  H  H107  1  0.165800  0.354300  0.059200  1.0  0.0932
  H  H108  1  0.235000  0.381800  0.083400  1.0  0.1177
  H  H109  1  0.603500  0.190200  0.989000  1.0  0.0878
  H  H110  1  0.619700  0.104600  0.031400  1.0  0.1197
  H  H111  1  0.536300  0.967900  0.955500  1.0  0.0708
  H  H112  1  0.552200  0.873600  0.996600  1.0  0.119
  H  H113  1  0.522600  0.511900  0.041600  1.0  0.0808
  H  H114  1  0.550000  0.668700  0.034400  1.0  0.1177
  H  H115  1  0.588700  0.489300  0.116500  1.0  0.0873
  H  H116  1  0.619400  0.644700  0.111100  1.0  0.113
  H  H117  1  0.714100  0.932300  0.175100  1.0  0.0723
  H  H118  1  0.677600  0.843500  0.137800  1.0  0.1152
  H  H119  1  0.675700  0.179200  0.139700  1.0  0.0819
  H  H120  1  0.641000  0.099200  0.100100  1.0  0.1199
  H  H121  1  0.076800  0.876200  0.067000  1.0  0.0878
  H  H122  1  0.149800  0.899400  0.087800  1.0  0.1171
  H  H123  1  0.017500  0.905300  0.144700  1.0  0.084
  H  H124  1  0.088400  0.929800  0.167400  1.0  0.1152
  H  H125  1  0.164300  0.106000  0.266700  1.0  0.0876
  H  H126  1  0.154100  0.039900  0.219800  1.0  0.1128
  H  H127  1  0.294600  0.024500  0.268000  1.0  0.0917
  H  H128  1  0.288600  0.962200  0.220300  1.0  0.109
  H  H129  1  0.405800  0.911200  0.131000  1.0  0.0877
  H  H130  1  0.338800  0.935200  0.158000  1.0  0.1134
  H  H131  1  0.334200  0.854300  0.059200  1.0  0.0934
  H  H132  1  0.265000  0.881800  0.083400  1.0  0.1177
  H  H133  1  0.896500  0.690200  0.989000  1.0  0.0877
  H  H134  1  0.880300  0.604600  0.031400  1.0  0.1197
  H  H135  1  0.963700  0.467900  0.955500  1.0  0.0713
  H  H136  1  0.947800  0.373600  0.996600  1.0  0.1188
  H  H137  1  0.977400  0.011900  0.041600  1.0  0.081
  H  H138  1  0.950000  0.168700  0.034400  1.0  0.1176
  H  H139  1  0.911300  0.989300  0.116500  1.0  0.0876
  H  H140  1  0.880600  0.144700  0.111100  1.0  0.113
  H  H141  1  0.785900  0.432300  0.175100  1.0  0.0718
  H  H142  1  0.822400  0.343500  0.137800  1.0  0.1153
  H  H143  1  0.824300  0.679200  0.139700  1.0  0.082
  H  H144  1  0.859000  0.599200  0.100100  1.0  0.1195
  H  H145  1  0.423200  0.123800  0.567000  1.0  0.0877
  H  H146  1  0.350200  0.100600  0.587800  1.0  0.1174
  H  H147  1  0.482500  0.094700  0.644700  1.0  0.0836
  H  H148  1  0.411600  0.070200  0.667400  1.0  0.1151
  H  H149  1  0.335700  0.894000  0.766700  1.0  0.088
  H  H150  1  0.345900  0.960100  0.719800  1.0  0.1124
  H  H151  1  0.205400  0.975500  0.768000  1.0  0.0918
  H  H152  1  0.211400  0.037800  0.720300  1.0  0.1092
  H  H153  1  0.094200  0.088800  0.631000  1.0  0.0882
  H  H154  1  0.161200  0.064800  0.658000  1.0  0.114
  H  H155  1  0.165800  0.145700  0.559200  1.0  0.0934
  H  H156  1  0.235000  0.118200  0.583400  1.0  0.1177
  H  H157  1  0.603500  0.309800  0.489000  1.0  0.0873
  H  H158  1  0.619700  0.395400  0.531400  1.0  0.1197
  H  H159  1  0.536300  0.532100  0.455500  1.0  0.0709
  H  H160  1  0.552200  0.626400  0.496600  1.0  0.119
  H  H161  1  0.522600  0.988100  0.541600  1.0  0.081
  H  H162  1  0.550000  0.831300  0.534400  1.0  0.1178
  H  H163  1  0.588700  0.010700  0.616500  1.0  0.0867
  H  H164  1  0.619400  0.855300  0.611100  1.0  0.1127
  H  H165  1  0.714100  0.567700  0.675100  1.0  0.0713
  H  H166  1  0.677600  0.656500  0.637800  1.0  0.1151
  H  H167  1  0.675700  0.320800  0.639700  1.0  0.0834
  H  H168  1  0.641000  0.400800  0.600100  1.0  0.1191
  H  H169  1  0.923200  0.376200  0.433000  1.0  0.0889
  H  H170  1  0.850200  0.399400  0.412200  1.0  0.1175
  H  H171  1  0.982500  0.405300  0.355300  1.0  0.0832
  H  H172  1  0.911600  0.429800  0.332600  1.0  0.1151
  H  H173  1  0.835700  0.606000  0.233300  1.0  0.0882
  H  H174  1  0.845900  0.539900  0.280200  1.0  0.1125
  H  H175  1  0.705400  0.524500  0.232000  1.0  0.0917
  H  H176  1  0.711400  0.462200  0.279700  1.0  0.1093
  H  H177  1  0.594200  0.411200  0.369000  1.0  0.088
  H  H178  1  0.661200  0.435200  0.342000  1.0  0.1142
  H  H179  1  0.665800  0.354300  0.440800  1.0  0.0927
  H  H180  1  0.735000  0.381800  0.416600  1.0  0.1179
  H  H181  1  0.103500  0.190200  0.511000  1.0  0.0879
  H  H182  1  0.119700  0.104600  0.468600  1.0  0.12
  H  H183  1  0.036300  0.967900  0.544500  1.0  0.0715
  H  H184  1  0.052200  0.873600  0.503400  1.0  0.1192
  H  H185  1  0.022600  0.511900  0.458400  1.0  0.0816
  H  H186  1  0.050000  0.668700  0.465600  1.0  0.1168
  H  H187  1  0.088700  0.489300  0.383500  1.0  0.0873
  H  H188  1  0.119400  0.644700  0.388900  1.0  0.1128
  H  H189  1  0.214100  0.932300  0.324900  1.0  0.0721
  H  H190  1  0.177600  0.843500  0.362200  1.0  0.1152
  H  H191  1  0.175700  0.179200  0.360300  1.0  0.0817
  H  H192  1  0.141000  0.099200  0.399900  1.0  0.1197
  H  H193  1  0.576800  0.623800  0.933000  1.0  0.0884
  H  H194  1  0.649800  0.600600  0.912200  1.0  0.1173
  H  H195  1  0.517500  0.594700  0.855300  1.0  0.0836
  H  H196  1  0.588400  0.570200  0.832600  1.0  0.1149
  H  H197  1  0.664300  0.394000  0.733300  1.0  0.0878
  H  H198  1  0.654100  0.460100  0.780200  1.0  0.1128
  H  H199  1  0.794600  0.475500  0.732000  1.0  0.092
  H  H200  1  0.788600  0.537800  0.779700  1.0  0.1093
  H  H201  1  0.905800  0.588800  0.869000  1.0  0.0874
  H  H202  1  0.838800  0.564800  0.842000  1.0  0.1141
  H  H203  1  0.834200  0.645700  0.940800  1.0  0.093
  H  H204  1  0.765000  0.618200  0.916600  1.0  0.1181
  H  H205  1  0.396500  0.809800  0.011000  1.0  0.0869
  H  H206  1  0.380300  0.895400  0.968600  1.0  0.1196
  H  H207  1  0.463700  0.032100  0.044500  1.0  0.0718
  H  H208  1  0.447800  0.126400  0.003400  1.0  0.1189
  H  H209  1  0.477400  0.488100  0.958400  1.0  0.0816
  H  H210  1  0.450000  0.331300  0.965600  1.0  0.1171
  H  H211  1  0.411300  0.510700  0.883500  1.0  0.0869
  H  H212  1  0.380600  0.355300  0.888900  1.0  0.1126
  H  H213  1  0.285900  0.067700  0.824900  1.0  0.0722
  H  H214  1  0.322400  0.156500  0.862200  1.0  0.1155
  H  H215  1  0.324300  0.820800  0.860300  1.0  0.0835
  H  H216  1  0.359000  0.900800  0.899900  1.0  0.1193
  C  C217  1  0.920600  0.113700  0.912220  1.0  0.1316
  C  C218  1  0.877000  0.100200  0.899960  1.0  -0.1237
  C  C219  1  0.955200  0.096700  0.866970  1.0  0.1398
  C  C220  1  0.913000  0.082400  0.853230  1.0  -0.1483
  C  C221  1  0.872900  0.086100  0.869950  1.0  -0.1013
  C  C222  1  0.826700  0.073500  0.856060  1.0  0.4038
  C  C223  1  0.810200  0.924600  0.742850  1.0  0.1273
  C  C224  1  0.816400  0.962800  0.770910  1.0  -0.1132
  C  C225  1  0.734200  0.971200  0.742140  1.0  0.1243
  C  C226  1  0.737600  0.009000  0.770430  1.0  -0.1367
  C  C227  1  0.779600  0.004400  0.784980  1.0  -0.0717
  C  C228  1  0.783500  0.038300  0.816130  1.0  0.3687
  C  C229  1  0.623300  0.096200  0.878550  1.0  0.1181
  C  C230  1  0.663000  0.081100  0.862380  1.0  -0.1257
  C  C231  1  0.665100  0.128600  0.920470  1.0  0.1471
  C  C232  1  0.706500  0.113200  0.906260  1.0  -0.1464
  C  C233  1  0.705700  0.090100  0.876150  1.0  -0.1151
  C  C234  1  0.749200  0.076100  0.859260  1.0  0.3832
  C  C235  1  0.093300  0.375500  0.009520  1.0  0.1355
  C  C236  1  0.103400  0.426100  0.984290  1.0  -0.1484
  C  C237  1  0.054500  0.505100  0.028970  1.0  0.1315
  C  C238  1  0.063600  0.561500  0.004570  1.0  -0.1752
  C  C239  1  0.089600  0.522400  0.981730  1.0  -0.1078
  C  C240  1  0.101600  0.580500  0.955150  1.0  0.3924
  C  C241  1  0.042400  0.960300  0.943900  1.0  0.1482
  C  C242  1  0.058400  0.866700  0.948370  1.0  -0.1499
  C  C243  1  0.081000  0.973600  0.900540  1.0  0.1367
  C  C244  1  0.098900  0.880500  0.903410  1.0  -0.1117
  C  C245  1  0.087000  0.825400  0.927290  1.0  -0.0564
  C  C246  1  0.101600  0.722200  0.930170  1.0  0.3959
  C  C247  1  0.198900  0.533400  0.840400  1.0  0.1397
  C  C248  1  0.177500  0.587200  0.862640  1.0  -0.1457
  C  C249  1  0.177100  0.390100  0.861050  1.0  0.1445
  C  C250  1  0.155700  0.437000  0.884580  1.0  -0.1281
  C  C251  1  0.156300  0.537400  0.885150  1.0  -0.0901
  C  C252  1  0.134000  0.589100  0.909890  1.0  0.372
  C  C253  1  0.579400  0.886300  0.412220  1.0  0.1318
  C  C254  1  0.623000  0.899800  0.399960  1.0  -0.1224
  C  C255  1  0.544800  0.903300  0.366970  1.0  0.1403
  C  C256  1  0.587000  0.917600  0.353230  1.0  -0.148
  C  C257  1  0.627100  0.913900  0.369950  1.0  -0.1018
  C  C258  1  0.673300  0.926500  0.356060  1.0  0.4028
  C  C259  1  0.689800  0.075400  0.242850  1.0  0.1284
  C  C260  1  0.683600  0.037200  0.270910  1.0  -0.1138
  C  C261  1  0.765800  0.028800  0.242140  1.0  0.1239
  C  C262  1  0.762400  0.991000  0.270430  1.0  -0.1348
  C  C263  1  0.720400  0.995600  0.284980  1.0  -0.0706
  C  C264  1  0.716500  0.961700  0.316130  1.0  0.3686
  C  C265  1  0.876700  0.903800  0.378550  1.0  0.1174
  C  C266  1  0.837000  0.918900  0.362380  1.0  -0.1274
  C  C267  1  0.834900  0.871400  0.420470  1.0  0.1475
  C  C268  1  0.793500  0.886800  0.406260  1.0  -0.148
  C  C269  1  0.794300  0.909900  0.376150  1.0  -0.1156
  C  C270  1  0.750800  0.923900  0.359260  1.0  0.3828
  C  C271  1  0.406700  0.624500  0.509520  1.0  0.1366
  C  C272  1  0.396600  0.573900  0.484290  1.0  -0.1482
  C  C273  1  0.445500  0.494900  0.528970  1.0  0.1319
  C  C274  1  0.436400  0.438500  0.504570  1.0  -0.1746
  C  C275  1  0.410400  0.477600  0.481730  1.0  -0.1088
  C  C276  1  0.398400  0.419500  0.455150  1.0  0.393
  C  C277  1  0.457600  0.039700  0.443900  1.0  0.1485
  C  C278  1  0.441600  0.133300  0.448370  1.0  -0.1482
  C  C279  1  0.419000  0.026400  0.400540  1.0  0.1376
  C  C280  1  0.401100  0.119500  0.403410  1.0  -0.1122
  C  C281  1  0.413000  0.174600  0.427290  1.0  -0.0575
  C  C282  1  0.398400  0.277800  0.430170  1.0  0.3957
  C  C283  1  0.301100  0.466600  0.340400  1.0  0.1408
  C  C284  1  0.322500  0.412800  0.362640  1.0  -0.1445
  C  C285  1  0.322900  0.609900  0.361050  1.0  0.1448
  C  C286  1  0.344300  0.563000  0.384580  1.0  -0.1288
  C  C287  1  0.343700  0.462600  0.385150  1.0  -0.0895
  C  C288  1  0.366000  0.410900  0.409890  1.0  0.3723
  C  C289  1  0.079400  0.613700  0.587780  1.0  0.1318
  C  C290  1  0.123000  0.600200  0.600040  1.0  -0.1236
  C  C291  1  0.044800  0.596700  0.633030  1.0  0.1403
  C  C292  1  0.087000  0.582400  0.646770  1.0  -0.1505
  C  C293  1  0.127100  0.586100  0.630050  1.0  -0.1021
  C  C294  1  0.173300  0.573500  0.643940  1.0  0.403
  C  C295  1  0.189800  0.424600  0.757150  1.0  0.1297
  C  C296  1  0.183600  0.462800  0.729090  1.0  -0.1131
  C  C297  1  0.265800  0.471200  0.757860  1.0  0.125
  C  C298  1  0.262400  0.509000  0.729570  1.0  -0.1346
  C  C299  1  0.220400  0.504400  0.715020  1.0  -0.0713
  C  C300  1  0.216500  0.538300  0.683870  1.0  0.3688
  C  C301  1  0.376700  0.596200  0.621450  1.0  0.118
  C  C302  1  0.337000  0.581100  0.637620  1.0  -0.1287
  C  C303  1  0.334900  0.628600  0.579530  1.0  0.1471
  C  C304  1  0.293500  0.613200  0.593740  1.0  -0.1472
  C  C305  1  0.294300  0.590100  0.623850  1.0  -0.1157
  C  C306  1  0.250800  0.576100  0.640740  1.0  0.3828
  C  C307  1  0.906700  0.875500  0.490480  1.0  0.1361
  C  C308  1  0.896600  0.926100  0.515710  1.0  -0.1485
  C  C309  1  0.945500  0.005100  0.471030  1.0  0.1326
  C  C310  1  0.936400  0.061500  0.495430  1.0  -0.1742
  C  C311  1  0.910400  0.022400  0.518270  1.0  -0.1073
  C  C312  1  0.898400  0.080500  0.544850  1.0  0.3929
  C  C313  1  0.957600  0.460300  0.556100  1.0  0.1467
  C  C314  1  0.941600  0.366700  0.551630  1.0  -0.1486
  C  C315  1  0.919000  0.473600  0.599460  1.0  0.1366
  C  C316  1  0.901100  0.380500  0.596590  1.0  -0.1128
  C  C317  1  0.913000  0.325400  0.572710  1.0  -0.0563
  C  C318  1  0.898400  0.222200  0.569830  1.0  0.3961
  C  C319  1  0.801100  0.033400  0.659600  1.0  0.1401
  C  C320  1  0.822500  0.087200  0.637360  1.0  -0.1449
  C  C321  1  0.822900  0.890100  0.638950  1.0  0.1441
  C  C322  1  0.844300  0.937000  0.615420  1.0  -0.128
  C  C323  1  0.843700  0.037400  0.614850  1.0  -0.0899
  C  C324  1  0.866000  0.089100  0.590110  1.0  0.3723
  C  C325  1  0.420600  0.386300  0.087780  1.0  0.1324
  C  C326  1  0.377000  0.399800  0.100040  1.0  -0.1232
  C  C327  1  0.455200  0.403300  0.133030  1.0  0.1398
  C  C328  1  0.413000  0.417600  0.146770  1.0  -0.1502
  C  C329  1  0.372900  0.413900  0.130050  1.0  -0.101
  C  C330  1  0.326700  0.426500  0.143940  1.0  0.4038
  C  C331  1  0.310200  0.575400  0.257150  1.0  0.1267
  C  C332  1  0.316400  0.537200  0.229090  1.0  -0.114
  C  C333  1  0.234200  0.528800  0.257860  1.0  0.1252
  C  C334  1  0.237600  0.491000  0.229570  1.0  -0.1363
  C  C335  1  0.279600  0.495600  0.215020  1.0  -0.0709
  C  C336  1  0.283500  0.461700  0.183870  1.0  0.369
  C  C337  1  0.123300  0.403800  0.121450  1.0  0.1184
  C  C338  1  0.163000  0.418900  0.137620  1.0  -0.1288
  C  C339  1  0.165100  0.371400  0.079530  1.0  0.1472
  C  C340  1  0.206500  0.386800  0.093740  1.0  -0.1473
  C  C341  1  0.205700  0.409900  0.123850  1.0  -0.1155
  C  C342  1  0.249200  0.423900  0.140740  1.0  0.3833
  C  C343  1  0.593300  0.124500  0.990480  1.0  0.137
  C  C344  1  0.603400  0.073900  0.015710  1.0  -0.1503
  C  C345  1  0.554500  0.994900  0.971030  1.0  0.1329
  C  C346  1  0.563600  0.938500  0.995430  1.0  -0.1751
  C  C347  1  0.589600  0.977600  0.018270  1.0  -0.1087
  C  C348  1  0.601600  0.919500  0.044850  1.0  0.3924
  C  C349  1  0.542400  0.539700  0.056100  1.0  0.1462
  C  C350  1  0.558400  0.633300  0.051630  1.0  -0.1497
  C  C351  1  0.581000  0.526400  0.099460  1.0  0.1382
  C  C352  1  0.598900  0.619500  0.096590  1.0  -0.1108
  C  C353  1  0.587000  0.674600  0.072710  1.0  -0.0579
  C  C354  1  0.601600  0.777800  0.069830  1.0  0.396
  C  C355  1  0.698900  0.966600  0.159600  1.0  0.1402
  C  C356  1  0.677500  0.912800  0.137360  1.0  -0.1447
  C  C357  1  0.677100  0.109900  0.138950  1.0  0.1443
  C  C358  1  0.655700  0.063000  0.115420  1.0  -0.1291
  C  C359  1  0.656300  0.962600  0.114850  1.0  -0.0905
  C  C360  1  0.634000  0.910900  0.090110  1.0  0.372
  C  C361  1  0.079400  0.886300  0.087780  1.0  0.1317
  C  C362  1  0.123000  0.899800  0.100040  1.0  -0.1237
  C  C363  1  0.044800  0.903300  0.133030  1.0  0.1401
  C  C364  1  0.087000  0.917600  0.146770  1.0  -0.1507
  C  C365  1  0.127100  0.913900  0.130050  1.0  -0.102
  C  C366  1  0.173300  0.926500  0.143940  1.0  0.4029
  C  C367  1  0.189800  0.075400  0.257150  1.0  0.1283
  C  C368  1  0.183600  0.037200  0.229090  1.0  -0.1134
  C  C369  1  0.265800  0.028800  0.257860  1.0  0.1251
  C  C370  1  0.262400  0.991000  0.229570  1.0  -0.1344
  C  C371  1  0.220400  0.995600  0.215020  1.0  -0.071
  C  C372  1  0.216500  0.961700  0.183870  1.0  0.3688
  C  C373  1  0.376700  0.903800  0.121450  1.0  0.1182
  C  C374  1  0.337000  0.918900  0.137620  1.0  -0.1288
  C  C375  1  0.334900  0.871400  0.079530  1.0  0.1472
  C  C376  1  0.293500  0.886800  0.093740  1.0  -0.1472
  C  C377  1  0.294300  0.909900  0.123850  1.0  -0.1158
  C  C378  1  0.250800  0.923900  0.140740  1.0  0.3828
  C  C379  1  0.906700  0.624500  0.990480  1.0  0.1366
  C  C380  1  0.896600  0.573900  0.015710  1.0  -0.1499
  C  C381  1  0.945500  0.494900  0.971030  1.0  0.1328
  C  C382  1  0.936400  0.438500  0.995430  1.0  -0.1746
  C  C383  1  0.910400  0.477600  0.018270  1.0  -0.1078
  C  C384  1  0.898400  0.419500  0.044850  1.0  0.3929
  C  C385  1  0.957600  0.039700  0.056100  1.0  0.1463
  C  C386  1  0.941600  0.133300  0.051630  1.0  -0.1488
  C  C387  1  0.919000  0.026400  0.099460  1.0  0.1383
  C  C388  1  0.901100  0.119500  0.096590  1.0  -0.1126
  C  C389  1  0.913000  0.174600  0.072710  1.0  -0.0574
  C  C390  1  0.898400  0.277800  0.069830  1.0  0.3957
  C  C391  1  0.801100  0.466600  0.159600  1.0  0.141
  C  C392  1  0.822500  0.412800  0.137360  1.0  -0.1438
  C  C393  1  0.822900  0.609900  0.138950  1.0  0.1446
  C  C394  1  0.844300  0.563000  0.115420  1.0  -0.1289
  C  C395  1  0.843700  0.462600  0.114850  1.0  -0.0898
  C  C396  1  0.866000  0.410900  0.090110  1.0  0.3723
  C  C397  1  0.420600  0.113700  0.587780  1.0  0.1323
  C  C398  1  0.377000  0.100200  0.600040  1.0  -0.1231
  C  C399  1  0.455200  0.096700  0.633030  1.0  0.1397
  C  C400  1  0.413000  0.082400  0.646770  1.0  -0.15
  C  C401  1  0.372900  0.086100  0.630050  1.0  -0.1011
  C  C402  1  0.326700  0.073500  0.643940  1.0  0.4039
  C  C403  1  0.310200  0.924600  0.757150  1.0  0.1286
  C  C404  1  0.316400  0.962800  0.729090  1.0  -0.1134
  C  C405  1  0.234200  0.971200  0.757860  1.0  0.1251
  C  C406  1  0.237600  0.009000  0.729570  1.0  -0.1363
  C  C407  1  0.279600  0.004400  0.715020  1.0  -0.0712
  C  C408  1  0.283500  0.038300  0.683870  1.0  0.369
  C  C409  1  0.123300  0.096200  0.621450  1.0  0.1182
  C  C410  1  0.163000  0.081100  0.637620  1.0  -0.1287
  C  C411  1  0.165100  0.128600  0.579530  1.0  0.1471
  C  C412  1  0.206500  0.113200  0.593740  1.0  -0.1473
  C  C413  1  0.205700  0.090100  0.623850  1.0  -0.1155
  C  C414  1  0.249200  0.076100  0.640740  1.0  0.3833
  C  C415  1  0.593300  0.375500  0.490480  1.0  0.1358
  C  C416  1  0.603400  0.426100  0.515710  1.0  -0.149
  C  C417  1  0.554500  0.505100  0.471030  1.0  0.1329
  C  C418  1  0.563600  0.561500  0.495430  1.0  -0.1745
  C  C419  1  0.589600  0.522400  0.518270  1.0  -0.1089
  C  C420  1  0.601600  0.580500  0.544850  1.0  0.3924
  C  C421  1  0.542400  0.960300  0.556100  1.0  0.147
  C  C422  1  0.558400  0.866700  0.551630  1.0  -0.1497
  C  C423  1  0.581000  0.973600  0.599460  1.0  0.1369
  C  C424  1  0.598900  0.880500  0.596590  1.0  -0.1113
  C  C425  1  0.587000  0.825400  0.572710  1.0  -0.0561
  C  C426  1  0.601600  0.722200  0.569830  1.0  0.396
  C  C427  1  0.698900  0.533400  0.659600  1.0  0.1394
  C  C428  1  0.677500  0.587200  0.637360  1.0  -0.1452
  C  C429  1  0.677100  0.390100  0.638950  1.0  0.1439
  C  C430  1  0.655700  0.437000  0.615420  1.0  -0.1283
  C  C431  1  0.656300  0.537400  0.614850  1.0  -0.0905
  C  C432  1  0.634000  0.589100  0.590110  1.0  0.372
  C  C433  1  0.920600  0.386300  0.412220  1.0  0.1325
  C  C434  1  0.877000  0.399800  0.399960  1.0  -0.1237
  C  C435  1  0.955200  0.403300  0.366970  1.0  0.14
  C  C436  1  0.913000  0.417600  0.353230  1.0  -0.1485
  C  C437  1  0.872900  0.413900  0.369950  1.0  -0.1012
  C  C438  1  0.826700  0.426500  0.356060  1.0  0.4038
  C  C439  1  0.810200  0.575400  0.242850  1.0  0.1265
  C  C440  1  0.816400  0.537200  0.270910  1.0  -0.1136
  C  C441  1  0.734200  0.528800  0.242140  1.0  0.1246
  C  C442  1  0.737600  0.491000  0.270430  1.0  -0.1366
  C  C443  1  0.779600  0.495600  0.284980  1.0  -0.0707
  C  C444  1  0.783500  0.461700  0.316130  1.0  0.3687
  C  C445  1  0.623300  0.403800  0.378550  1.0  0.1184
  C  C446  1  0.663000  0.418900  0.362380  1.0  -0.1257
  C  C447  1  0.665100  0.371400  0.420470  1.0  0.1474
  C  C448  1  0.706500  0.386800  0.406260  1.0  -0.1464
  C  C449  1  0.705700  0.409900  0.376150  1.0  -0.1151
  C  C450  1  0.749200  0.423900  0.359260  1.0  0.3833
  C  C451  1  0.093300  0.124500  0.509520  1.0  0.1368
  C  C452  1  0.103400  0.073900  0.484290  1.0  -0.1486
  C  C453  1  0.054500  0.994900  0.528970  1.0  0.132
  C  C454  1  0.063600  0.938500  0.504570  1.0  -0.1758
  C  C455  1  0.089600  0.977600  0.481730  1.0  -0.1082
  C  C456  1  0.101600  0.919500  0.455150  1.0  0.3923
  C  C457  1  0.042400  0.539700  0.443900  1.0  0.1481
  C  C458  1  0.058400  0.633300  0.448370  1.0  -0.1497
  C  C459  1  0.081000  0.526400  0.400540  1.0  0.1368
  C  C460  1  0.098900  0.619500  0.403410  1.0  -0.1115
  C  C461  1  0.087000  0.674600  0.427290  1.0  -0.0581
  C  C462  1  0.101600  0.777800  0.430170  1.0  0.3959
  C  C463  1  0.198900  0.966600  0.340400  1.0  0.1399
  C  C464  1  0.177500  0.912800  0.362640  1.0  -0.1453
  C  C465  1  0.177100  0.109900  0.361050  1.0  0.1446
  C  C466  1  0.155700  0.063000  0.384580  1.0  -0.1292
  C  C467  1  0.156300  0.962600  0.385150  1.0  -0.0899
  C  C468  1  0.134000  0.910900  0.409890  1.0  0.372
  C  C469  1  0.579400  0.613700  0.912220  1.0  0.1311
  C  C470  1  0.623000  0.600200  0.899960  1.0  -0.1223
  C  C471  1  0.544800  0.596700  0.866970  1.0  0.1404
  C  C472  1  0.587000  0.582400  0.853230  1.0  -0.1478
  C  C473  1  0.627100  0.586100  0.869950  1.0  -0.102
  C  C474  1  0.673300  0.573500  0.856060  1.0  0.403
  C  C475  1  0.689800  0.424600  0.742850  1.0  0.1287
  C  C476  1  0.683600  0.462800  0.770910  1.0  -0.1135
  C  C477  1  0.765800  0.471200  0.742140  1.0  0.1236
  C  C478  1  0.762400  0.509000  0.770430  1.0  -0.1351
  C  C479  1  0.720400  0.504400  0.784980  1.0  -0.0717
  C  C480  1  0.716500  0.538300  0.816130  1.0  0.3685
  C  C481  1  0.876700  0.596200  0.878550  1.0  0.1171
  C  C482  1  0.837000  0.581100  0.862380  1.0  -0.1273
  C  C483  1  0.834900  0.628600  0.920470  1.0  0.1469
  C  C484  1  0.793500  0.613200  0.906260  1.0  -0.1481
  C  C485  1  0.794300  0.590100  0.876150  1.0  -0.1155
  C  C486  1  0.750800  0.576100  0.859260  1.0  0.3827
  C  C487  1  0.406700  0.875500  0.009520  1.0  0.1358
  C  C488  1  0.396600  0.926100  0.984290  1.0  -0.1478
  C  C489  1  0.445500  0.005100  0.028970  1.0  0.1313
  C  C490  1  0.436400  0.061500  0.004570  1.0  -0.1746
  C  C491  1  0.410400  0.022400  0.981730  1.0  -0.1078
  C  C492  1  0.398400  0.080500  0.955150  1.0  0.393
  C  C493  1  0.457600  0.460300  0.943900  1.0  0.1484
  C  C494  1  0.441600  0.366700  0.948370  1.0  -0.1483
  C  C495  1  0.419000  0.473600  0.900540  1.0  0.1377
  C  C496  1  0.401100  0.380500  0.903410  1.0  -0.1122
  C  C497  1  0.413000  0.325400  0.927290  1.0  -0.0564
  C  C498  1  0.398400  0.222200  0.930170  1.0  0.3961
  C  C499  1  0.301100  0.033400  0.840400  1.0  0.1405
  C  C500  1  0.322500  0.087200  0.862640  1.0  -0.1456
  C  C501  1  0.322900  0.890100  0.861050  1.0  0.1446
  C  C502  1  0.344300  0.937000  0.884580  1.0  -0.1277
  C  C503  1  0.343700  0.037400  0.885150  1.0  -0.0897
  C  C504  1  0.366000  0.089100  0.909890  1.0  0.3723
  I  I505  1  0.008380  0.218000  0.965700  1.0  -0.4136
  I  I506  1  0.068910  0.234830  0.874590  1.0  -0.3291
  I  I507  1  0.574340  0.341730  0.939700  1.0  -0.3826
  I  I508  1  0.496850  0.089540  0.899630  1.0  -0.3805
  I  I509  1  0.801260  0.690230  0.694420  1.0  -0.3672
  I  I510  1  0.678360  0.862400  0.672840  1.0  -0.3319
  I  I511  1  0.491620  0.782000  0.465700  1.0  -0.4141
  I  I512  1  0.431090  0.765170  0.374590  1.0  -0.3283
  I  I513  1  0.925660  0.658270  0.439700  1.0  -0.3833
  I  I514  1  0.003150  0.910460  0.399630  1.0  -0.3796
  I  I515  1  0.698740  0.309770  0.194420  1.0  -0.3667
  I  I516  1  0.821640  0.137600  0.172840  1.0  -0.3331
  I  I517  1  0.991620  0.718000  0.534300  1.0  -0.4135
  I  I518  1  0.931090  0.734830  0.625410  1.0  -0.3288
  I  I519  1  0.425660  0.841730  0.560300  1.0  -0.3826
  I  I520  1  0.503150  0.589540  0.600370  1.0  -0.3795
  I  I521  1  0.198740  0.190230  0.805580  1.0  -0.3688
  I  I522  1  0.321640  0.362400  0.827160  1.0  -0.3327
  I  I523  1  0.508380  0.282000  0.034300  1.0  -0.414
  I  I524  1  0.568910  0.265170  0.125410  1.0  -0.328
  I  I525  1  0.074340  0.158270  0.060300  1.0  -0.3836
  I  I526  1  0.996850  0.410460  0.100370  1.0  -0.3809
  I  I527  1  0.301260  0.809770  0.305580  1.0  -0.3683
  I  I528  1  0.178360  0.637600  0.327160  1.0  -0.3315
  I  I529  1  0.991620  0.782000  0.034300  1.0  -0.414
  I  I530  1  0.931090  0.765170  0.125410  1.0  -0.3279
  I  I531  1  0.425660  0.658270  0.060300  1.0  -0.3837
  I  I532  1  0.503150  0.910460  0.100370  1.0  -0.3795
  I  I533  1  0.198740  0.309770  0.305580  1.0  -0.3669
  I  I534  1  0.321640  0.137600  0.327160  1.0  -0.3327
  I  I535  1  0.508380  0.218000  0.534300  1.0  -0.4134
  I  I536  1  0.568910  0.234830  0.625410  1.0  -0.3288
  I  I537  1  0.074340  0.341730  0.560300  1.0  -0.3828
  I  I538  1  0.996850  0.089540  0.600370  1.0  -0.3809
  I  I539  1  0.301260  0.690230  0.805580  1.0  -0.3674
  I  I540  1  0.178360  0.862400  0.827160  1.0  -0.3314
  I  I541  1  0.008380  0.282000  0.465700  1.0  -0.4141
  I  I542  1  0.068910  0.265170  0.374590  1.0  -0.3283
  I  I543  1  0.574340  0.158270  0.439700  1.0  -0.3833
  I  I544  1  0.496850  0.410460  0.399630  1.0  -0.3805
  I  I545  1  0.801260  0.809770  0.194420  1.0  -0.3697
  I  I546  1  0.678360  0.637600  0.172840  1.0  -0.3319
  I  I547  1  0.491620  0.718000  0.965700  1.0  -0.4137
  I  I548  1  0.431090  0.734830  0.874590  1.0  -0.3292
  I  I549  1  0.925660  0.841730  0.939700  1.0  -0.3824
  I  I550  1  0.003150  0.589540  0.899630  1.0  -0.3796
  I  I551  1  0.698740  0.190230  0.694420  1.0  -0.3704
  I  I552  1  0.821640  0.362400  0.672840  1.0  -0.3331
  N  N553  1  0.959300  0.113100  0.895720  1.0  -0.303
  N  N554  1  0.769900  0.929100  0.728730  1.0  -0.3129
  N  N555  1  0.624000  0.120900  0.907330  1.0  -0.3126
  N  N556  1  0.825900  0.048500  0.827370  1.0  -0.4667
  N  N557  1  0.744270  0.052600  0.830640  1.0  -0.5233
  N  N558  1  0.789300  0.086500  0.872950  1.0  -0.4486
  N  N559  1  0.199100  0.435900  0.839700  1.0  -0.298
  N  N560  1  0.070100  0.413700  0.031930  1.0  -0.2995
  N  N561  1  0.053330  0.012900  0.920670  1.0  -0.2958
  N  N562  1  0.123000  0.533900  0.933420  1.0  -0.3089
  N  N563  1  0.090400  0.674700  0.954890  1.0  -0.4707
  N  N564  1  0.124670  0.683900  0.907220  1.0  -0.4673
  N  N565  1  0.540700  0.886900  0.395720  1.0  -0.3036
  N  N566  1  0.730100  0.070900  0.228730  1.0  -0.3124
  N  N567  1  0.876000  0.879100  0.407330  1.0  -0.3113
  N  N568  1  0.674100  0.951500  0.327370  1.0  -0.4665
  N  N569  1  0.755730  0.947400  0.330640  1.0  -0.5232
  N  N570  1  0.710700  0.913500  0.372950  1.0  -0.4493
  N  N571  1  0.300900  0.564100  0.339700  1.0  -0.3003
  N  N572  1  0.429900  0.586300  0.531930  1.0  -0.2999
  N  N573  1  0.446670  0.987100  0.420670  1.0  -0.2941
  N  N574  1  0.377000  0.466100  0.433420  1.0  -0.3088
  N  N575  1  0.409600  0.325300  0.454890  1.0  -0.4687
  N  N576  1  0.375330  0.316100  0.407220  1.0  -0.4669
  N  N577  1  0.040700  0.613100  0.604280  1.0  -0.3027
  N  N578  1  0.230100  0.429100  0.771270  1.0  -0.3111
  N  N579  1  0.376000  0.620900  0.592670  1.0  -0.3104
  N  N580  1  0.174100  0.548500  0.672630  1.0  -0.467
  N  N581  1  0.255730  0.552600  0.669360  1.0  -0.5232
  N  N582  1  0.210700  0.586500  0.627050  1.0  -0.4468
  N  N583  1  0.800900  0.935900  0.660300  1.0  -0.2997
  N  N584  1  0.929900  0.913700  0.468070  1.0  -0.3019
  N  N585  1  0.946670  0.512900  0.579330  1.0  -0.2967
  N  N586  1  0.877000  0.033900  0.566580  1.0  -0.3091
  N  N587  1  0.909600  0.174700  0.545110  1.0  -0.4676
  N  N588  1  0.875330  0.183900  0.592780  1.0  -0.4664
  N  N589  1  0.459300  0.386900  0.104280  1.0  -0.3024
  N  N590  1  0.269900  0.570900  0.271270  1.0  -0.3125
  N  N591  1  0.124000  0.379100  0.092670  1.0  -0.3125
  N  N592  1  0.325900  0.451500  0.172630  1.0  -0.4665
  N  N593  1  0.244270  0.447400  0.169360  1.0  -0.5236
  N  N594  1  0.289300  0.413500  0.127050  1.0  -0.4477
  N  N595  1  0.699100  0.064100  0.160300  1.0  -0.2988
  N  N596  1  0.570100  0.086300  0.968070  1.0  -0.3004
  N  N597  1  0.553330  0.487100  0.079330  1.0  -0.2943
  N  N598  1  0.623000  0.966100  0.066580  1.0  -0.3086
  N  N599  1  0.590400  0.825300  0.045110  1.0  -0.4691
  N  N600  1  0.624670  0.816100  0.092780  1.0  -0.4666
  N  N601  1  0.040700  0.886900  0.104280  1.0  -0.3032
  N  N602  1  0.230100  0.070900  0.271270  1.0  -0.312
  N  N603  1  0.376000  0.879100  0.092670  1.0  -0.3109
  N  N604  1  0.174100  0.951500  0.172630  1.0  -0.4671
  N  N605  1  0.255730  0.947400  0.169360  1.0  -0.5232
  N  N606  1  0.210700  0.913500  0.127050  1.0  -0.4478
  N  N607  1  0.800900  0.564100  0.160300  1.0  -0.3014
  N  N608  1  0.929900  0.586300  0.968070  1.0  -0.3003
  N  N609  1  0.946670  0.987100  0.079330  1.0  -0.2945
  N  N610  1  0.877000  0.466100  0.066580  1.0  -0.3088
  N  N611  1  0.909600  0.325300  0.045110  1.0  -0.4686
  N  N612  1  0.875330  0.316100  0.092780  1.0  -0.4658
  N  N613  1  0.459300  0.113100  0.604280  1.0  -0.302
  N  N614  1  0.269900  0.929100  0.771270  1.0  -0.3117
  N  N615  1  0.124000  0.120900  0.592670  1.0  -0.3115
  N  N616  1  0.325900  0.048500  0.672630  1.0  -0.4664
  N  N617  1  0.244270  0.052600  0.669360  1.0  -0.5236
  N  N618  1  0.289300  0.086500  0.627050  1.0  -0.4466
  N  N619  1  0.699100  0.435900  0.660300  1.0  -0.2971
  N  N620  1  0.570100  0.413700  0.468070  1.0  -0.3024
  N  N621  1  0.553330  0.012900  0.579330  1.0  -0.296
  N  N622  1  0.623000  0.533900  0.566580  1.0  -0.3088
  N  N623  1  0.590400  0.674700  0.545110  1.0  -0.4676
  N  N624  1  0.624670  0.683900  0.592780  1.0  -0.4676
  N  N625  1  0.959300  0.386900  0.395720  1.0  -0.3027
  N  N626  1  0.769900  0.570900  0.228730  1.0  -0.313
  N  N627  1  0.624000  0.379100  0.407330  1.0  -0.3133
  N  N628  1  0.825900  0.451500  0.327370  1.0  -0.4666
  N  N629  1  0.744270  0.447400  0.330640  1.0  -0.5233
  N  N630  1  0.789300  0.413500  0.372950  1.0  -0.4493
  N  N631  1  0.199100  0.064100  0.339700  1.0  -0.2983
  N  N632  1  0.070100  0.086300  0.531930  1.0  -0.2998
  N  N633  1  0.053330  0.487100  0.420670  1.0  -0.2939
  N  N634  1  0.123000  0.966100  0.433420  1.0  -0.3088
  N  N635  1  0.090400  0.825300  0.454890  1.0  -0.4701
  N  N636  1  0.124670  0.816100  0.407220  1.0  -0.4674
  N  N637  1  0.540700  0.613100  0.895720  1.0  -0.304
  N  N638  1  0.730100  0.429100  0.728730  1.0  -0.3118
  N  N639  1  0.876000  0.620900  0.907330  1.0  -0.3112
  N  N640  1  0.674100  0.548500  0.827370  1.0  -0.4666
  N  N641  1  0.755730  0.552600  0.830640  1.0  -0.5231
  N  N642  1  0.710700  0.586500  0.872950  1.0  -0.4487
  N  N643  1  0.300900  0.935900  0.839700  1.0  -0.3003
  N  N644  1  0.429900  0.913700  0.031930  1.0  -0.2996
  N  N645  1  0.446670  0.512900  0.920670  1.0  -0.2964
  N  N646  1  0.377000  0.033900  0.933420  1.0  -0.309
  N  N647  1  0.409600  0.174700  0.954890  1.0  -0.4697
  N  N648  1  0.375330  0.183900  0.907220  1.0  -0.4663
