# generated using pymatgen
data_ZnH8C12(IN2)2
_symmetry_space_group_name_H-M   'P 1'
_cell_length_a   27.80600000
_cell_length_b   13.80910000
_cell_length_c   45.13780000
_cell_angle_alpha   90.00000000
_cell_angle_beta   90.00000000
_cell_angle_gamma   90.00000000
_symmetry_Int_Tables_number   1
_chemical_formula_structural   ZnH8C12(IN2)2
_chemical_formula_sum   'Zn24 H192 C288 I48 N96'
_cell_volume   17331.82442701
_cell_formula_units_Z   24
loop_
 _symmetry_equiv_pos_site_id
 _symmetry_equiv_pos_as_xyz
  1  'x, y, z'
loop_
 _atom_site_type_symbol
 _atom_site_label
 _atom_site_symmetry_multiplicity
 _atom_site_fract_x
 _atom_site_fract_y
 _atom_site_fract_z
 _atom_site_occupancy
 _atom_site_charge
  Zn  Zn1  1  0.476520  0.128440  0.415320  1.0  0.8195
  Zn  Zn2  1  0.738800  0.830920  0.185330  1.0  0.8911
  Zn  Zn3  1  0.951480  0.145180  0.421690  1.0  0.8662
  Zn  Zn4  1  0.023480  0.871560  0.915320  1.0  0.8212
  Zn  Zn5  1  0.761200  0.169080  0.685330  1.0  0.8904
  Zn  Zn6  1  0.548520  0.854820  0.921690  1.0  0.8666
  Zn  Zn7  1  0.523480  0.628440  0.084680  1.0  0.8196
  Zn  Zn8  1  0.261200  0.330920  0.314670  1.0  0.8912
  Zn  Zn9  1  0.048520  0.645180  0.078310  1.0  0.8659
  Zn  Zn10  1  0.976520  0.371560  0.584680  1.0  0.8216
  Zn  Zn11  1  0.238800  0.669080  0.814670  1.0  0.8905
  Zn  Zn12  1  0.451480  0.354820  0.578310  1.0  0.8676
  Zn  Zn13  1  0.523480  0.871560  0.584680  1.0  0.821
  Zn  Zn14  1  0.261200  0.169080  0.814670  1.0  0.8905
  Zn  Zn15  1  0.048520  0.854820  0.578310  1.0  0.8675
  Zn  Zn16  1  0.976520  0.128440  0.084680  1.0  0.8194
  Zn  Zn17  1  0.238800  0.830920  0.314670  1.0  0.8913
  Zn  Zn18  1  0.451480  0.145180  0.078310  1.0  0.8662
  Zn  Zn19  1  0.476520  0.371560  0.915320  1.0  0.8218
  Zn  Zn20  1  0.738800  0.669080  0.685330  1.0  0.8904
  Zn  Zn21  1  0.951480  0.354820  0.921690  1.0  0.8668
  Zn  Zn22  1  0.023480  0.628440  0.415320  1.0  0.8194
  Zn  Zn23  1  0.761200  0.330920  0.185330  1.0  0.8911
  Zn  Zn24  1  0.548520  0.645180  0.421690  1.0  0.8659
  H  H25  1  0.655100  0.084200  0.409300  1.0  0.1126
  H  H26  1  0.582600  0.112000  0.431700  1.0  0.1007
  H  H27  1  0.515500  0.062500  0.356400  1.0  0.0874
  H  H28  1  0.586700  0.034600  0.332300  1.0  0.1219
  H  H29  1  0.652400  0.940000  0.276400  1.0  0.1205
  H  H30  1  0.662600  0.877300  0.228300  1.0  0.087
  H  H31  1  0.799100  0.944700  0.228100  1.0  0.0887
  H  H32  1  0.794900  0.003400  0.276100  1.0  0.1116
  H  H33  1  0.848400  0.039900  0.337200  1.0  0.1169
  H  H34  1  0.918200  0.067900  0.363200  1.0  0.1033
  H  H35  1  0.845100  0.129200  0.435700  1.0  0.0865
  H  H36  1  0.772700  0.096500  0.412300  1.0  0.12
  H  H37  1  0.392300  0.823000  0.386400  1.0  0.1183
  H  H38  1  0.418100  0.979400  0.382000  1.0  0.0895
  H  H39  1  0.458900  0.987200  0.465100  1.0  0.08
  H  H40  1  0.432000  0.832600  0.473200  1.0  0.1181
  H  H41  1  0.447000  0.628800  0.507300  1.0  0.1154
  H  H42  1  0.469500  0.544700  0.549100  1.0  0.0703
  H  H43  1  0.414000  0.303600  0.517700  1.0  0.0963
  H  H44  1  0.390200  0.383000  0.474000  1.0  0.1156
  H  H45  1  0.357000  0.382900  0.405800  1.0  0.1204
  H  H46  1  0.320600  0.300000  0.368300  1.0  0.0948
  H  H47  1  0.275500  0.540700  0.331600  1.0  0.0758
  H  H48  1  0.309500  0.632800  0.367900  1.0  0.126
  H  H49  1  0.844900  0.915800  0.909300  1.0  0.1126
  H  H50  1  0.917400  0.888000  0.931700  1.0  0.1013
  H  H51  1  0.984500  0.937500  0.856400  1.0  0.0873
  H  H52  1  0.913300  0.965400  0.832300  1.0  0.122
  H  H53  1  0.847600  0.060000  0.776400  1.0  0.1204
  H  H54  1  0.837400  0.122700  0.728300  1.0  0.0861
  H  H55  1  0.700900  0.055300  0.728100  1.0  0.089
  H  H56  1  0.705100  0.996600  0.776100  1.0  0.1116
  H  H57  1  0.651600  0.960100  0.837200  1.0  0.1171
  H  H58  1  0.581800  0.932100  0.863200  1.0  0.1029
  H  H59  1  0.654900  0.870800  0.935700  1.0  0.0865
  H  H60  1  0.727300  0.903500  0.912300  1.0  0.1198
  H  H61  1  0.107700  0.177000  0.886400  1.0  0.1179
  H  H62  1  0.081900  0.020600  0.882000  1.0  0.09
  H  H63  1  0.041100  0.012800  0.965100  1.0  0.0804
  H  H64  1  0.068000  0.167400  0.973200  1.0  0.1181
  H  H65  1  0.053000  0.371200  0.007300  1.0  0.1157
  H  H66  1  0.030500  0.455300  0.049100  1.0  0.0703
  H  H67  1  0.086000  0.696400  0.017700  1.0  0.0958
  H  H68  1  0.109800  0.617000  0.974000  1.0  0.1161
  H  H69  1  0.143000  0.617100  0.905800  1.0  0.1205
  H  H70  1  0.179400  0.700000  0.868300  1.0  0.095
  H  H71  1  0.224500  0.459300  0.831600  1.0  0.0751
  H  H72  1  0.190500  0.367200  0.867900  1.0  0.1264
  H  H73  1  0.344900  0.584200  0.090700  1.0  0.1126
  H  H74  1  0.417400  0.612000  0.068300  1.0  0.1005
  H  H75  1  0.484500  0.562500  0.143600  1.0  0.0878
  H  H76  1  0.413300  0.534600  0.167700  1.0  0.1217
  H  H77  1  0.347600  0.440000  0.223600  1.0  0.1204
  H  H78  1  0.337400  0.377300  0.271700  1.0  0.0863
  H  H79  1  0.200900  0.444700  0.271900  1.0  0.0884
  H  H80  1  0.205100  0.503400  0.223900  1.0  0.1116
  H  H81  1  0.151600  0.539900  0.162800  1.0  0.1169
  H  H82  1  0.081800  0.567900  0.136800  1.0  0.1034
  H  H83  1  0.154900  0.629200  0.064300  1.0  0.0873
  H  H84  1  0.227300  0.596500  0.087700  1.0  0.1195
  H  H85  1  0.607700  0.323000  0.113600  1.0  0.1186
  H  H86  1  0.581900  0.479400  0.118000  1.0  0.0901
  H  H87  1  0.541100  0.487200  0.034900  1.0  0.0792
  H  H88  1  0.568000  0.332600  0.026800  1.0  0.1183
  H  H89  1  0.553000  0.128800  0.992700  1.0  0.1153
  H  H90  1  0.530500  0.044700  0.950900  1.0  0.0705
  H  H91  1  0.586000  0.803600  0.982300  1.0  0.0964
  H  H92  1  0.609800  0.883000  0.026000  1.0  0.115
  H  H93  1  0.643000  0.882900  0.094200  1.0  0.1201
  H  H94  1  0.679400  0.800000  0.131700  1.0  0.095
  H  H95  1  0.724500  0.040700  0.168400  1.0  0.0757
  H  H96  1  0.690500  0.132800  0.132100  1.0  0.1261
  H  H97  1  0.155100  0.415800  0.590700  1.0  0.1123
  H  H98  1  0.082600  0.388000  0.568300  1.0  0.1005
  H  H99  1  0.015500  0.437500  0.643600  1.0  0.0877
  H  H100  1  0.086700  0.465400  0.667700  1.0  0.1218
  H  H101  1  0.152400  0.560000  0.723600  1.0  0.1207
  H  H102  1  0.162600  0.622700  0.771700  1.0  0.0861
  H  H103  1  0.299100  0.555300  0.771900  1.0  0.0882
  H  H104  1  0.294900  0.496600  0.723900  1.0  0.1116
  H  H105  1  0.348400  0.460100  0.662800  1.0  0.1163
  H  H106  1  0.418200  0.432100  0.636800  1.0  0.1025
  H  H107  1  0.345100  0.370800  0.564300  1.0  0.0872
  H  H108  1  0.272700  0.403500  0.587700  1.0  0.1202
  H  H109  1  0.892300  0.677000  0.613600  1.0  0.1187
  H  H110  1  0.918100  0.520600  0.618000  1.0  0.0907
  H  H111  1  0.958900  0.512800  0.534900  1.0  0.0796
  H  H112  1  0.932000  0.667400  0.526800  1.0  0.1181
  H  H113  1  0.947000  0.871200  0.492700  1.0  0.1158
  H  H114  1  0.969500  0.955300  0.450900  1.0  0.0701
  H  H115  1  0.914000  0.196400  0.482300  1.0  0.0963
  H  H116  1  0.890200  0.117000  0.526000  1.0  0.1154
  H  H117  1  0.857000  0.117100  0.594200  1.0  0.1201
  H  H118  1  0.820600  0.200000  0.631700  1.0  0.0952
  H  H119  1  0.775500  0.959300  0.668400  1.0  0.0761
  H  H120  1  0.809500  0.867200  0.632100  1.0  0.1269
  H  H121  1  0.344900  0.915800  0.590700  1.0  0.1126
  H  H122  1  0.417400  0.888000  0.568300  1.0  0.1006
  H  H123  1  0.484500  0.937500  0.643600  1.0  0.0877
  H  H124  1  0.413300  0.965400  0.667700  1.0  0.1216
  H  H125  1  0.347600  0.060000  0.723600  1.0  0.1204
  H  H126  1  0.337400  0.122700  0.771700  1.0  0.0857
  H  H127  1  0.200900  0.055300  0.771900  1.0  0.0886
  H  H128  1  0.205100  0.996600  0.723900  1.0  0.1117
  H  H129  1  0.151600  0.960100  0.662800  1.0  0.1169
  H  H130  1  0.081800  0.932100  0.636800  1.0  0.1031
  H  H131  1  0.154900  0.870800  0.564300  1.0  0.087
  H  H132  1  0.227300  0.903500  0.587700  1.0  0.1198
  H  H133  1  0.607700  0.177000  0.613600  1.0  0.1184
  H  H134  1  0.581900  0.020600  0.618000  1.0  0.0901
  H  H135  1  0.541100  0.012800  0.534900  1.0  0.0797
  H  H136  1  0.568000  0.167400  0.526800  1.0  0.1181
  H  H137  1  0.553000  0.371200  0.492700  1.0  0.116
  H  H138  1  0.530500  0.455300  0.450900  1.0  0.0702
  H  H139  1  0.586000  0.696400  0.482300  1.0  0.0961
  H  H140  1  0.609800  0.617000  0.526000  1.0  0.1151
  H  H141  1  0.643000  0.617100  0.594200  1.0  0.1204
  H  H142  1  0.679400  0.700000  0.631700  1.0  0.095
  H  H143  1  0.724500  0.459300  0.668400  1.0  0.0758
  H  H144  1  0.690500  0.367200  0.632100  1.0  0.1266
  H  H145  1  0.155100  0.084200  0.090700  1.0  0.1126
  H  H146  1  0.082600  0.112000  0.068300  1.0  0.1004
  H  H147  1  0.015500  0.062500  0.143600  1.0  0.0876
  H  H148  1  0.086700  0.034600  0.167700  1.0  0.122
  H  H149  1  0.152400  0.940000  0.223600  1.0  0.1206
  H  H150  1  0.162600  0.877300  0.271700  1.0  0.0872
  H  H151  1  0.299100  0.944700  0.271900  1.0  0.0883
  H  H152  1  0.294900  0.003400  0.223900  1.0  0.1118
  H  H153  1  0.348400  0.039900  0.162800  1.0  0.1164
  H  H154  1  0.418200  0.067900  0.136800  1.0  0.1028
  H  H155  1  0.345100  0.129200  0.064300  1.0  0.0869
  H  H156  1  0.272700  0.096500  0.087700  1.0  0.1199
  H  H157  1  0.892300  0.823000  0.113600  1.0  0.1191
  H  H158  1  0.918100  0.979400  0.118000  1.0  0.0901
  H  H159  1  0.958900  0.987200  0.034900  1.0  0.0793
  H  H160  1  0.932000  0.832600  0.026800  1.0  0.1183
  H  H161  1  0.947000  0.628800  0.992700  1.0  0.1154
  H  H162  1  0.969500  0.544700  0.950900  1.0  0.0701
  H  H163  1  0.914000  0.303600  0.982300  1.0  0.0965
  H  H164  1  0.890200  0.383000  0.026000  1.0  0.1155
  H  H165  1  0.857000  0.382900  0.094200  1.0  0.12
  H  H166  1  0.820600  0.300000  0.131700  1.0  0.0949
  H  H167  1  0.775500  0.540700  0.168400  1.0  0.0759
  H  H168  1  0.809500  0.632800  0.132100  1.0  0.1262
  H  H169  1  0.655100  0.415800  0.909300  1.0  0.1126
  H  H170  1  0.582600  0.388000  0.931700  1.0  0.101
  H  H171  1  0.515500  0.437500  0.856400  1.0  0.0876
  H  H172  1  0.586700  0.465400  0.832300  1.0  0.1218
  H  H173  1  0.652400  0.560000  0.776400  1.0  0.1204
  H  H174  1  0.662600  0.622700  0.728300  1.0  0.0863
  H  H175  1  0.799100  0.555300  0.728100  1.0  0.0887
  H  H176  1  0.794900  0.496600  0.776100  1.0  0.1116
  H  H177  1  0.848400  0.460100  0.837200  1.0  0.117
  H  H178  1  0.918200  0.432100  0.863200  1.0  0.1026
  H  H179  1  0.845100  0.370800  0.935700  1.0  0.0874
  H  H180  1  0.772700  0.403500  0.912300  1.0  0.1205
  H  H181  1  0.392300  0.677000  0.886400  1.0  0.118
  H  H182  1  0.418100  0.520600  0.882000  1.0  0.09
  H  H183  1  0.458900  0.512800  0.965100  1.0  0.0805
  H  H184  1  0.432000  0.667400  0.973200  1.0  0.1185
  H  H185  1  0.447000  0.871200  0.007300  1.0  0.1156
  H  H186  1  0.469500  0.955300  0.049100  1.0  0.0704
  H  H187  1  0.414000  0.196400  0.017700  1.0  0.0961
  H  H188  1  0.390200  0.117000  0.974000  1.0  0.116
  H  H189  1  0.357000  0.117100  0.905800  1.0  0.1202
  H  H190  1  0.320600  0.200000  0.868300  1.0  0.0952
  H  H191  1  0.275500  0.959300  0.831600  1.0  0.0755
  H  H192  1  0.309500  0.867200  0.867900  1.0  0.1266
  H  H193  1  0.844900  0.584200  0.409300  1.0  0.1124
  H  H194  1  0.917400  0.612000  0.431700  1.0  0.1011
  H  H195  1  0.984500  0.562500  0.356400  1.0  0.087
  H  H196  1  0.913300  0.534600  0.332300  1.0  0.122
  H  H197  1  0.847600  0.440000  0.276400  1.0  0.1205
  H  H198  1  0.837400  0.377300  0.228300  1.0  0.0862
  H  H199  1  0.700900  0.444700  0.228100  1.0  0.089
  H  H200  1  0.705100  0.503400  0.276100  1.0  0.1115
  H  H201  1  0.651600  0.539900  0.337200  1.0  0.1169
  H  H202  1  0.581800  0.567900  0.363200  1.0  0.1031
  H  H203  1  0.654900  0.629200  0.435700  1.0  0.0867
  H  H204  1  0.727300  0.596500  0.412300  1.0  0.1192
  H  H205  1  0.107700  0.323000  0.386400  1.0  0.1182
  H  H206  1  0.081900  0.479400  0.382000  1.0  0.0899
  H  H207  1  0.041100  0.487200  0.465100  1.0  0.0799
  H  H208  1  0.068000  0.332600  0.473200  1.0  0.1178
  H  H209  1  0.053000  0.128800  0.507300  1.0  0.1152
  H  H210  1  0.030500  0.044700  0.549100  1.0  0.0706
  H  H211  1  0.086000  0.803600  0.517700  1.0  0.0961
  H  H212  1  0.109800  0.883000  0.474000  1.0  0.1157
  H  H213  1  0.143000  0.882900  0.405800  1.0  0.1204
  H  H214  1  0.179400  0.800000  0.368300  1.0  0.0949
  H  H215  1  0.224500  0.040700  0.331600  1.0  0.0754
  H  H216  1  0.190500  0.132800  0.367900  1.0  0.1261
  C  C217  1  0.676600  0.047100  0.353440  1.0  0.3969
  C  C218  1  0.719800  0.010600  0.312670  1.0  0.3928
  C  C219  1  0.756900  0.050200  0.355040  1.0  0.3678
  C  C220  1  0.629300  0.060000  0.368500  1.0  -0.0956
  C  C221  1  0.626500  0.080600  0.397860  1.0  -0.0944
  C  C222  1  0.583300  0.096400  0.411230  1.0  0.1114
  C  C223  1  0.544600  0.067700  0.367300  1.0  0.1505
  C  C224  1  0.586600  0.051400  0.352760  1.0  -0.1105
  C  C225  1  0.723600  0.977500  0.281640  1.0  -0.1059
  C  C226  1  0.683000  0.940500  0.267160  1.0  -0.1434
  C  C227  1  0.689600  0.903800  0.238230  1.0  0.1362
  C  C228  1  0.769200  0.942400  0.238280  1.0  0.1297
  C  C229  1  0.766900  0.978300  0.266780  1.0  -0.1464
  C  C230  1  0.802400  0.067000  0.371450  1.0  -0.1075
  C  C231  1  0.846900  0.058000  0.357480  1.0  -0.1227
  C  C232  1  0.888200  0.075300  0.372960  1.0  0.1316
  C  C233  1  0.845400  0.110300  0.415460  1.0  0.1379
  C  C234  1  0.802000  0.092100  0.401690  1.0  -0.1353
  C  C235  1  0.394300  0.706800  0.433800  1.0  0.4079
  C  C236  1  0.398800  0.569300  0.460200  1.0  0.3896
  C  C237  1  0.361500  0.571700  0.415560  1.0  0.3304
  C  C238  1  0.408500  0.809800  0.430150  1.0  -0.0968
  C  C239  1  0.405500  0.855600  0.403050  1.0  -0.1463
  C  C240  1  0.421700  0.947700  0.400530  1.0  0.1475
  C  C241  1  0.445200  0.952900  0.448980  1.0  0.1469
  C  C242  1  0.429300  0.861200  0.454120  1.0  -0.1399
  C  C243  1  0.415000  0.515400  0.486040  1.0  -0.1065
  C  C244  1  0.439500  0.561900  0.508940  1.0  -0.1408
  C  C245  1  0.452600  0.511500  0.533850  1.0  0.1341
  C  C246  1  0.420300  0.370800  0.515550  1.0  0.1333
  C  C247  1  0.406000  0.418100  0.489320  1.0  -0.108
  C  C248  1  0.338000  0.517800  0.391650  1.0  -0.0803
  C  C249  1  0.340400  0.417400  0.390700  1.0  -0.1237
  C  C250  1  0.319200  0.368700  0.368200  1.0  0.1384
  C  C251  1  0.292800  0.508800  0.346870  1.0  0.1645
  C  C252  1  0.312600  0.564300  0.368380  1.0  -0.1382
  C  C253  1  0.823400  0.952900  0.853440  1.0  0.3974
  C  C254  1  0.780200  0.989400  0.812670  1.0  0.3927
  C  C255  1  0.743100  0.949800  0.855040  1.0  0.3685
  C  C256  1  0.870700  0.940000  0.868500  1.0  -0.0967
  C  C257  1  0.873500  0.919400  0.897860  1.0  -0.0917
  C  C258  1  0.916700  0.903600  0.911230  1.0  0.1127
  C  C259  1  0.955400  0.932300  0.867300  1.0  0.1496
  C  C260  1  0.913400  0.948600  0.852760  1.0  -0.1118
  C  C261  1  0.776400  0.022500  0.781640  1.0  -0.1057
  C  C262  1  0.817000  0.059500  0.767160  1.0  -0.1419
  C  C263  1  0.810400  0.096200  0.738230  1.0  0.1358
  C  C264  1  0.730800  0.057600  0.738280  1.0  0.1312
  C  C265  1  0.733100  0.021700  0.766780  1.0  -0.1479
  C  C266  1  0.697600  0.933000  0.871450  1.0  -0.1078
  C  C267  1  0.653100  0.942000  0.857480  1.0  -0.1215
  C  C268  1  0.611800  0.924700  0.872960  1.0  0.133
  C  C269  1  0.654600  0.889700  0.915460  1.0  0.1372
  C  C270  1  0.698000  0.907900  0.901690  1.0  -0.1346
  C  C271  1  0.105700  0.293200  0.933800  1.0  0.4073
  C  C272  1  0.101200  0.430700  0.960200  1.0  0.3883
  C  C273  1  0.138500  0.428300  0.915560  1.0  0.3305
  C  C274  1  0.091500  0.190200  0.930150  1.0  -0.0983
  C  C275  1  0.094500  0.144400  0.903050  1.0  -0.1472
  C  C276  1  0.078300  0.052300  0.900530  1.0  0.146
  C  C277  1  0.054800  0.047100  0.948980  1.0  0.148
  C  C278  1  0.070700  0.138800  0.954120  1.0  -0.1405
  C  C279  1  0.085000  0.484600  0.986040  1.0  -0.1047
  C  C280  1  0.060500  0.438100  0.008940  1.0  -0.1414
  C  C281  1  0.047400  0.488500  0.033850  1.0  0.1347
  C  C282  1  0.079700  0.629200  0.015550  1.0  0.1357
  C  C283  1  0.094000  0.581900  0.989320  1.0  -0.1075
  C  C284  1  0.162000  0.482200  0.891650  1.0  -0.0799
  C  C285  1  0.159600  0.582600  0.890700  1.0  -0.1242
  C  C286  1  0.180800  0.631300  0.868200  1.0  0.1404
  C  C287  1  0.207200  0.491200  0.846870  1.0  0.1642
  C  C288  1  0.187400  0.435700  0.868380  1.0  -0.1375
  C  C289  1  0.323400  0.547100  0.146560  1.0  0.3975
  C  C290  1  0.280200  0.510600  0.187330  1.0  0.3929
  C  C291  1  0.243100  0.550200  0.144960  1.0  0.3687
  C  C292  1  0.370700  0.560000  0.131500  1.0  -0.0959
  C  C293  1  0.373500  0.580600  0.102140  1.0  -0.0909
  C  C294  1  0.416700  0.596400  0.088770  1.0  0.1132
  C  C295  1  0.455400  0.567700  0.132700  1.0  0.1496
  C  C296  1  0.413400  0.551400  0.147240  1.0  -0.112
  C  C297  1  0.276400  0.477500  0.218360  1.0  -0.1051
  C  C298  1  0.317000  0.440500  0.232840  1.0  -0.1426
  C  C299  1  0.310400  0.403800  0.261770  1.0  0.1355
  C  C300  1  0.230800  0.442400  0.261720  1.0  0.1316
  C  C301  1  0.233100  0.478300  0.233220  1.0  -0.1477
  C  C302  1  0.197600  0.567000  0.128550  1.0  -0.108
  C  C303  1  0.153100  0.558000  0.142520  1.0  -0.1234
  C  C304  1  0.111800  0.575300  0.127040  1.0  0.1334
  C  C305  1  0.154600  0.610300  0.084540  1.0  0.1365
  C  C306  1  0.198000  0.592100  0.098310  1.0  -0.1349
  C  C307  1  0.605700  0.206800  0.066200  1.0  0.4068
  C  C308  1  0.601200  0.069300  0.039800  1.0  0.3884
  C  C309  1  0.638500  0.071700  0.084440  1.0  0.3304
  C  C310  1  0.591500  0.309800  0.069850  1.0  -0.0969
  C  C311  1  0.594500  0.355600  0.096950  1.0  -0.1467
  C  C312  1  0.578300  0.447700  0.099470  1.0  0.147
  C  C313  1  0.554800  0.452900  0.051020  1.0  0.1478
  C  C314  1  0.570700  0.361200  0.045880  1.0  -0.1395
  C  C315  1  0.585000  0.015400  0.013960  1.0  -0.1057
  C  C316  1  0.560500  0.061900  0.991060  1.0  -0.1402
  C  C317  1  0.547400  0.011500  0.966150  1.0  0.1362
  C  C318  1  0.579700  0.870800  0.984450  1.0  0.135
  C  C319  1  0.594000  0.918100  0.010680  1.0  -0.1068
  C  C320  1  0.662000  0.017800  0.108350  1.0  -0.0795
  C  C321  1  0.659600  0.917400  0.109300  1.0  -0.1239
  C  C322  1  0.680800  0.868700  0.131800  1.0  0.1381
  C  C323  1  0.707200  0.008800  0.153130  1.0  0.1641
  C  C324  1  0.687400  0.064300  0.131620  1.0  -0.1382
  C  C325  1  0.176600  0.452900  0.646560  1.0  0.3969
  C  C326  1  0.219800  0.489400  0.687330  1.0  0.3929
  C  C327  1  0.256900  0.449800  0.644960  1.0  0.3679
  C  C328  1  0.129300  0.440000  0.631500  1.0  -0.0955
  C  C329  1  0.126500  0.419400  0.602140  1.0  -0.0937
  C  C330  1  0.083300  0.403600  0.588770  1.0  0.1119
  C  C331  1  0.044600  0.432300  0.632700  1.0  0.1511
  C  C332  1  0.086600  0.448600  0.647240  1.0  -0.1121
  C  C333  1  0.223600  0.522500  0.718360  1.0  -0.1055
  C  C334  1  0.183000  0.559500  0.732840  1.0  -0.1424
  C  C335  1  0.189600  0.596200  0.761770  1.0  0.136
  C  C336  1  0.269200  0.557600  0.761720  1.0  0.1308
  C  C337  1  0.266900  0.521700  0.733220  1.0  -0.1458
  C  C338  1  0.302400  0.433000  0.628550  1.0  -0.1078
  C  C339  1  0.346900  0.442000  0.642520  1.0  -0.1238
  C  C340  1  0.388200  0.424700  0.627040  1.0  0.1333
  C  C341  1  0.345400  0.389700  0.584540  1.0  0.1376
  C  C342  1  0.302000  0.407900  0.598310  1.0  -0.1342
  C  C343  1  0.894300  0.793200  0.566200  1.0  0.4082
  C  C344  1  0.898800  0.930700  0.539800  1.0  0.3899
  C  C345  1  0.861500  0.928300  0.584440  1.0  0.3305
  C  C346  1  0.908500  0.690200  0.569850  1.0  -0.097
  C  C347  1  0.905500  0.644400  0.596950  1.0  -0.1471
  C  C348  1  0.921700  0.552300  0.599470  1.0  0.1474
  C  C349  1  0.945200  0.547100  0.551020  1.0  0.1468
  C  C350  1  0.929300  0.638800  0.545880  1.0  -0.1379
  C  C351  1  0.915000  0.984600  0.513960  1.0  -0.1065
  C  C352  1  0.939500  0.938100  0.491060  1.0  -0.1418
  C  C353  1  0.952600  0.988500  0.466150  1.0  0.1352
  C  C354  1  0.920300  0.129200  0.484450  1.0  0.1366
  C  C355  1  0.906000  0.081900  0.510680  1.0  -0.1086
  C  C356  1  0.838000  0.982200  0.608350  1.0  -0.08
  C  C357  1  0.840400  0.082600  0.609300  1.0  -0.1238
  C  C358  1  0.819200  0.131300  0.631800  1.0  0.1401
  C  C359  1  0.792800  0.991200  0.653130  1.0  0.1651
  C  C360  1  0.812600  0.935700  0.631620  1.0  -0.1373
  C  C361  1  0.323400  0.952900  0.646560  1.0  0.3974
  C  C362  1  0.280200  0.989400  0.687330  1.0  0.3928
  C  C363  1  0.243100  0.949800  0.644960  1.0  0.3687
  C  C364  1  0.370700  0.940000  0.631500  1.0  -0.0961
  C  C365  1  0.373500  0.919400  0.602140  1.0  -0.0904
  C  C366  1  0.416700  0.903600  0.588770  1.0  0.1133
  C  C367  1  0.455400  0.932300  0.632700  1.0  0.1499
  C  C368  1  0.413400  0.948600  0.647240  1.0  -0.1122
  C  C369  1  0.276400  0.022500  0.718360  1.0  -0.1052
  C  C370  1  0.317000  0.059500  0.732840  1.0  -0.1427
  C  C371  1  0.310400  0.096200  0.761770  1.0  0.1353
  C  C372  1  0.230800  0.057600  0.761720  1.0  0.1316
  C  C373  1  0.233100  0.021700  0.733220  1.0  -0.1475
  C  C374  1  0.197600  0.933000  0.628550  1.0  -0.1081
  C  C375  1  0.153100  0.942000  0.642520  1.0  -0.1235
  C  C376  1  0.111800  0.924700  0.627040  1.0  0.1334
  C  C377  1  0.154600  0.889700  0.584540  1.0  0.1364
  C  C378  1  0.198000  0.907900  0.598310  1.0  -0.135
  C  C379  1  0.605700  0.293200  0.566200  1.0  0.4072
  C  C380  1  0.601200  0.430700  0.539800  1.0  0.3885
  C  C381  1  0.638500  0.428300  0.584440  1.0  0.3303
  C  C382  1  0.591500  0.190200  0.569850  1.0  -0.0977
  C  C383  1  0.594500  0.144400  0.596950  1.0  -0.1467
  C  C384  1  0.578300  0.052300  0.599470  1.0  0.1477
  C  C385  1  0.554800  0.047100  0.551020  1.0  0.147
  C  C386  1  0.570700  0.138800  0.545880  1.0  -0.139
  C  C387  1  0.585000  0.484600  0.513960  1.0  -0.1056
  C  C388  1  0.560500  0.438100  0.491060  1.0  -0.1416
  C  C389  1  0.547400  0.488500  0.466150  1.0  0.1355
  C  C390  1  0.579700  0.629200  0.484450  1.0  0.1361
  C  C391  1  0.594000  0.581900  0.510680  1.0  -0.1075
  C  C392  1  0.662000  0.482200  0.608350  1.0  -0.0795
  C  C393  1  0.659600  0.582600  0.609300  1.0  -0.1236
  C  C394  1  0.680800  0.631300  0.631800  1.0  0.1402
  C  C395  1  0.707200  0.491200  0.653130  1.0  0.1647
  C  C396  1  0.687400  0.435700  0.631620  1.0  -0.1377
  C  C397  1  0.176600  0.047100  0.146560  1.0  0.397
  C  C398  1  0.219800  0.010600  0.187330  1.0  0.3929
  C  C399  1  0.256900  0.050200  0.144960  1.0  0.3679
  C  C400  1  0.129300  0.060000  0.131500  1.0  -0.0953
  C  C401  1  0.126500  0.080600  0.102140  1.0  -0.0943
  C  C402  1  0.083300  0.096400  0.088770  1.0  0.1118
  C  C403  1  0.044600  0.067700  0.132700  1.0  0.1508
  C  C404  1  0.086600  0.051400  0.147240  1.0  -0.1117
  C  C405  1  0.223600  0.977500  0.218360  1.0  -0.1053
  C  C406  1  0.183000  0.940500  0.232840  1.0  -0.1425
  C  C407  1  0.189600  0.903800  0.261770  1.0  0.1363
  C  C408  1  0.269200  0.942400  0.261720  1.0  0.1307
  C  C409  1  0.266900  0.978300  0.233220  1.0  -0.1459
  C  C410  1  0.302400  0.067000  0.128550  1.0  -0.1078
  C  C411  1  0.346900  0.058000  0.142520  1.0  -0.1239
  C  C412  1  0.388200  0.075300  0.127040  1.0  0.1333
  C  C413  1  0.345400  0.110300  0.084540  1.0  0.1376
  C  C414  1  0.302000  0.092100  0.098310  1.0  -0.1341
  C  C415  1  0.894300  0.706800  0.066200  1.0  0.4079
  C  C416  1  0.898800  0.569300  0.039800  1.0  0.3898
  C  C417  1  0.861500  0.571700  0.084440  1.0  0.3306
  C  C418  1  0.908500  0.809800  0.069850  1.0  -0.0968
  C  C419  1  0.905500  0.855600  0.096950  1.0  -0.1469
  C  C420  1  0.921700  0.947700  0.099470  1.0  0.1466
  C  C421  1  0.945200  0.952900  0.051020  1.0  0.1472
  C  C422  1  0.929300  0.861200  0.045880  1.0  -0.1386
  C  C423  1  0.915000  0.515400  0.013960  1.0  -0.1062
  C  C424  1  0.939500  0.561900  0.991060  1.0  -0.1403
  C  C425  1  0.952600  0.511500  0.966150  1.0  0.1356
  C  C426  1  0.920300  0.370800  0.984450  1.0  0.1336
  C  C427  1  0.906000  0.418100  0.010680  1.0  -0.1074
  C  C428  1  0.838000  0.517800  0.108350  1.0  -0.0798
  C  C429  1  0.840400  0.417400  0.109300  1.0  -0.1239
  C  C430  1  0.819200  0.368700  0.131800  1.0  0.1381
  C  C431  1  0.792800  0.508800  0.153130  1.0  0.1641
  C  C432  1  0.812600  0.564300  0.131620  1.0  -0.1381
  C  C433  1  0.676600  0.452900  0.853440  1.0  0.3968
  C  C434  1  0.719800  0.489400  0.812670  1.0  0.3928
  C  C435  1  0.756900  0.449800  0.855040  1.0  0.3678
  C  C436  1  0.629300  0.440000  0.868500  1.0  -0.0957
  C  C437  1  0.626500  0.419400  0.897860  1.0  -0.0941
  C  C438  1  0.583300  0.403600  0.911230  1.0  0.1124
  C  C439  1  0.544600  0.432300  0.867300  1.0  0.1508
  C  C440  1  0.586600  0.448600  0.852760  1.0  -0.1108
  C  C441  1  0.723600  0.522500  0.781640  1.0  -0.1057
  C  C442  1  0.683000  0.559500  0.767160  1.0  -0.1433
  C  C443  1  0.689600  0.596200  0.738230  1.0  0.1364
  C  C444  1  0.769200  0.557600  0.738280  1.0  0.1299
  C  C445  1  0.766900  0.521700  0.766780  1.0  -0.1464
  C  C446  1  0.802400  0.433000  0.871450  1.0  -0.1076
  C  C447  1  0.846900  0.442000  0.857480  1.0  -0.1228
  C  C448  1  0.888200  0.424700  0.872960  1.0  0.1319
  C  C449  1  0.845400  0.389700  0.915460  1.0  0.1385
  C  C450  1  0.802000  0.407900  0.901690  1.0  -0.1354
  C  C451  1  0.394300  0.793200  0.933800  1.0  0.4082
  C  C452  1  0.398800  0.930700  0.960200  1.0  0.3897
  C  C453  1  0.361500  0.928300  0.915560  1.0  0.3305
  C  C454  1  0.408500  0.690200  0.930150  1.0  -0.0972
  C  C455  1  0.405500  0.644400  0.903050  1.0  -0.1462
  C  C456  1  0.421700  0.552300  0.900530  1.0  0.1471
  C  C457  1  0.445200  0.547100  0.948980  1.0  0.148
  C  C458  1  0.429300  0.638800  0.954120  1.0  -0.1403
  C  C459  1  0.415000  0.984600  0.986040  1.0  -0.1071
  C  C460  1  0.439500  0.938100  0.008940  1.0  -0.1416
  C  C461  1  0.452600  0.988500  0.033850  1.0  0.1348
  C  C462  1  0.420300  0.129200  0.015550  1.0  0.1363
  C  C463  1  0.406000  0.081900  0.989320  1.0  -0.1084
  C  C464  1  0.338000  0.982200  0.891650  1.0  -0.0805
  C  C465  1  0.340400  0.082600  0.890700  1.0  -0.1245
  C  C466  1  0.319200  0.131300  0.868200  1.0  0.1403
  C  C467  1  0.292800  0.991200  0.846870  1.0  0.1648
  C  C468  1  0.312600  0.935700  0.868380  1.0  -0.1372
  C  C469  1  0.823400  0.547100  0.353440  1.0  0.3974
  C  C470  1  0.780200  0.510600  0.312670  1.0  0.3928
  C  C471  1  0.743100  0.550200  0.355040  1.0  0.3685
  C  C472  1  0.870700  0.560000  0.368500  1.0  -0.0966
  C  C473  1  0.873500  0.580600  0.397860  1.0  -0.0923
  C  C474  1  0.916700  0.596400  0.411230  1.0  0.1118
  C  C475  1  0.955400  0.567700  0.367300  1.0  0.1494
  C  C476  1  0.913400  0.551400  0.352760  1.0  -0.1117
  C  C477  1  0.776400  0.477500  0.281640  1.0  -0.1059
  C  C478  1  0.817000  0.440500  0.267160  1.0  -0.1421
  C  C479  1  0.810400  0.403800  0.238230  1.0  0.1355
  C  C480  1  0.730800  0.442400  0.238280  1.0  0.1311
  C  C481  1  0.733100  0.478300  0.266780  1.0  -0.1481
  C  C482  1  0.697600  0.567000  0.371450  1.0  -0.1077
  C  C483  1  0.653100  0.558000  0.357480  1.0  -0.1212
  C  C484  1  0.611800  0.575300  0.372960  1.0  0.1328
  C  C485  1  0.654600  0.610300  0.415460  1.0  0.1368
  C  C486  1  0.698000  0.592100  0.401690  1.0  -0.1344
  C  C487  1  0.105700  0.206800  0.433800  1.0  0.4068
  C  C488  1  0.101200  0.069300  0.460200  1.0  0.3883
  C  C489  1  0.138500  0.071700  0.415560  1.0  0.3306
  C  C490  1  0.091500  0.309800  0.430150  1.0  -0.0973
  C  C491  1  0.094500  0.355600  0.403050  1.0  -0.1474
  C  C492  1  0.078300  0.447700  0.400530  1.0  0.1463
  C  C493  1  0.054800  0.452900  0.448980  1.0  0.1474
  C  C494  1  0.070700  0.361200  0.454120  1.0  -0.1402
  C  C495  1  0.085000  0.015400  0.486040  1.0  -0.1043
  C  C496  1  0.060500  0.061900  0.508940  1.0  -0.1408
  C  C497  1  0.047400  0.011500  0.533850  1.0  0.1343
  C  C498  1  0.079700  0.870800  0.515550  1.0  0.1345
  C  C499  1  0.094000  0.918100  0.489320  1.0  -0.1077
  C  C500  1  0.162000  0.017800  0.391650  1.0  -0.08
  C  C501  1  0.159600  0.917400  0.390700  1.0  -0.1236
  C  C502  1  0.180800  0.868700  0.368200  1.0  0.1386
  C  C503  1  0.207200  0.008800  0.346870  1.0  0.1641
  C  C504  1  0.187400  0.064300  0.368380  1.0  -0.1383
  I  I505  1  0.494520  0.201580  0.466330  1.0  -0.4006
  I  I506  1  0.430730  0.216820  0.375280  1.0  -0.3399
  I  I507  1  0.693890  0.670950  0.192260  1.0  -0.3816
  I  I508  1  0.826760  0.832290  0.170100  1.0  -0.3398
  I  I509  1  0.945750  0.327570  0.426940  1.0  -0.405
  I  I510  1  0.016260  0.052270  0.394450  1.0  -0.3603
  I  I511  1  0.005480  0.798420  0.966330  1.0  -0.4019
  I  I512  1  0.069270  0.783180  0.875280  1.0  -0.3401
  I  I513  1  0.806110  0.329050  0.692260  1.0  -0.381
  I  I514  1  0.673240  0.167710  0.670100  1.0  -0.3392
  I  I515  1  0.554250  0.672430  0.926940  1.0  -0.4055
  I  I516  1  0.483740  0.947730  0.894450  1.0  -0.3616
  I  I517  1  0.505480  0.701580  0.033670  1.0  -0.4014
  I  I518  1  0.569270  0.716820  0.124720  1.0  -0.3392
  I  I519  1  0.306110  0.170950  0.307740  1.0  -0.3817
  I  I520  1  0.173240  0.332290  0.329900  1.0  -0.3382
  I  I521  1  0.054250  0.827570  0.073060  1.0  -0.4057
  I  I522  1  0.983740  0.552270  0.105550  1.0  -0.362
  I  I523  1  0.994520  0.298420  0.533670  1.0  -0.4009
  I  I524  1  0.930730  0.283180  0.624720  1.0  -0.3393
  I  I525  1  0.193890  0.829050  0.807740  1.0  -0.3811
  I  I526  1  0.326760  0.667710  0.829900  1.0  -0.339
  I  I527  1  0.445750  0.172430  0.573060  1.0  -0.4051
  I  I528  1  0.516260  0.447730  0.605550  1.0  -0.3602
  I  I529  1  0.505480  0.798420  0.533670  1.0  -0.4019
  I  I530  1  0.569270  0.783180  0.624720  1.0  -0.3394
  I  I531  1  0.306110  0.329050  0.807740  1.0  -0.3811
  I  I532  1  0.173240  0.167710  0.829900  1.0  -0.3382
  I  I533  1  0.054250  0.672430  0.573060  1.0  -0.4055
  I  I534  1  0.983740  0.947730  0.605550  1.0  -0.3616
  I  I535  1  0.994520  0.201580  0.033670  1.0  -0.4004
  I  I536  1  0.930730  0.216820  0.124720  1.0  -0.3391
  I  I537  1  0.193890  0.670950  0.307740  1.0  -0.3818
  I  I538  1  0.326760  0.832290  0.329900  1.0  -0.339
  I  I539  1  0.445750  0.327570  0.073060  1.0  -0.4052
  I  I540  1  0.516260  0.052270  0.105550  1.0  -0.3606
  I  I541  1  0.494520  0.298420  0.966330  1.0  -0.4009
  I  I542  1  0.430730  0.283180  0.875280  1.0  -0.34
  I  I543  1  0.693890  0.829050  0.692260  1.0  -0.381
  I  I544  1  0.826760  0.667710  0.670100  1.0  -0.3398
  I  I545  1  0.945750  0.172430  0.926940  1.0  -0.405
  I  I546  1  0.016260  0.447730  0.894450  1.0  -0.3603
  I  I547  1  0.005480  0.701580  0.466330  1.0  -0.4016
  I  I548  1  0.069270  0.716820  0.375280  1.0  -0.34
  I  I549  1  0.806110  0.170950  0.192260  1.0  -0.3815
  I  I550  1  0.673240  0.332290  0.170100  1.0  -0.3391
  I  I551  1  0.554250  0.827570  0.426940  1.0  -0.4056
  I  I552  1  0.483740  0.552270  0.394450  1.0  -0.3617
  N  N553  1  0.676000  0.021000  0.324540  1.0  -0.4765
  N  N554  1  0.761300  0.025300  0.327040  1.0  -0.4786
  N  N555  1  0.715600  0.063100  0.369630  1.0  -0.4799
  N  N556  1  0.541600  0.090500  0.396230  1.0  -0.3352
  N  N557  1  0.731200  0.904500  0.224410  1.0  -0.2872
  N  N558  1  0.887700  0.102600  0.401840  1.0  -0.3386
  N  N559  1  0.409300  0.664000  0.458510  1.0  -0.5524
  N  N560  1  0.374200  0.519900  0.439480  1.0  -0.3224
  N  N561  1  0.369700  0.666300  0.411800  1.0  -0.4263
  N  N562  1  0.442800  0.997500  0.423120  1.0  -0.3134
  N  N563  1  0.442700  0.418200  0.537600  1.0  -0.3119
  N  N564  1  0.296000  0.413300  0.345600  1.0  -0.3196
  N  N565  1  0.824000  0.979000  0.824540  1.0  -0.4765
  N  N566  1  0.738700  0.974700  0.827040  1.0  -0.4778
  N  N567  1  0.784400  0.936900  0.869630  1.0  -0.4806
  N  N568  1  0.958400  0.909500  0.896230  1.0  -0.3345
  N  N569  1  0.768800  0.095500  0.724410  1.0  -0.2871
  N  N570  1  0.612300  0.897400  0.901840  1.0  -0.3385
  N  N571  1  0.090700  0.336000  0.958510  1.0  -0.5544
  N  N572  1  0.125800  0.480100  0.939480  1.0  -0.3229
  N  N573  1  0.130300  0.333700  0.911800  1.0  -0.4262
  N  N574  1  0.057200  0.002500  0.923120  1.0  -0.3129
  N  N575  1  0.057300  0.581800  0.037600  1.0  -0.312
  N  N576  1  0.204000  0.586700  0.845600  1.0  -0.3185
  N  N577  1  0.324000  0.521000  0.175460  1.0  -0.4771
  N  N578  1  0.238700  0.525300  0.172960  1.0  -0.4783
  N  N579  1  0.284400  0.563100  0.130370  1.0  -0.479
  N  N580  1  0.458400  0.590500  0.103770  1.0  -0.3344
  N  N581  1  0.268800  0.404500  0.275590  1.0  -0.2856
  N  N582  1  0.112300  0.602600  0.098160  1.0  -0.3374
  N  N583  1  0.590700  0.164000  0.041490  1.0  -0.5537
  N  N584  1  0.625800  0.019900  0.060520  1.0  -0.3222
  N  N585  1  0.630300  0.166300  0.088200  1.0  -0.425
  N  N586  1  0.557200  0.497500  0.076880  1.0  -0.3125
  N  N587  1  0.557300  0.918200  0.962400  1.0  -0.314
  N  N588  1  0.704000  0.913300  0.154400  1.0  -0.3166
  N  N589  1  0.176000  0.479000  0.675460  1.0  -0.4775
  N  N590  1  0.261300  0.474700  0.672960  1.0  -0.4787
  N  N591  1  0.215600  0.436900  0.630370  1.0  -0.4805
  N  N592  1  0.041600  0.409500  0.603770  1.0  -0.3362
  N  N593  1  0.231200  0.595500  0.775590  1.0  -0.2872
  N  N594  1  0.387700  0.397400  0.598160  1.0  -0.3388
  N  N595  1  0.909300  0.836000  0.541490  1.0  -0.552
  N  N596  1  0.874200  0.980100  0.560520  1.0  -0.323
  N  N597  1  0.869700  0.833700  0.588200  1.0  -0.4236
  N  N598  1  0.942800  0.502500  0.576880  1.0  -0.3126
  N  N599  1  0.942700  0.081800  0.462400  1.0  -0.3123
  N  N600  1  0.796000  0.086700  0.654400  1.0  -0.3188
  N  N601  1  0.324000  0.979000  0.675460  1.0  -0.4771
  N  N602  1  0.238700  0.974700  0.672960  1.0  -0.4783
  N  N603  1  0.284400  0.936900  0.630370  1.0  -0.4805
  N  N604  1  0.458400  0.909500  0.603770  1.0  -0.3349
  N  N605  1  0.268800  0.095500  0.775590  1.0  -0.2872
  N  N606  1  0.112300  0.897400  0.598160  1.0  -0.3379
  N  N607  1  0.590700  0.336000  0.541490  1.0  -0.5544
  N  N608  1  0.625800  0.480100  0.560520  1.0  -0.3226
  N  N609  1  0.630300  0.333700  0.588200  1.0  -0.4233
  N  N610  1  0.557200  0.002500  0.576880  1.0  -0.3129
  N  N611  1  0.557300  0.581800  0.462400  1.0  -0.312
  N  N612  1  0.704000  0.586700  0.654400  1.0  -0.3178
  N  N613  1  0.176000  0.021000  0.175460  1.0  -0.4775
  N  N614  1  0.261300  0.025300  0.172960  1.0  -0.4786
  N  N615  1  0.215600  0.063100  0.130370  1.0  -0.479
  N  N616  1  0.041600  0.090500  0.103770  1.0  -0.3341
  N  N617  1  0.231200  0.904500  0.275590  1.0  -0.2855
  N  N618  1  0.387700  0.102600  0.098160  1.0  -0.3387
  N  N619  1  0.909300  0.664000  0.041490  1.0  -0.5521
  N  N620  1  0.874200  0.519900  0.060520  1.0  -0.3228
  N  N621  1  0.869700  0.666300  0.088200  1.0  -0.4253
  N  N622  1  0.942800  0.997500  0.076880  1.0  -0.3135
  N  N623  1  0.942700  0.418200  0.962400  1.0  -0.3134
  N  N624  1  0.796000  0.413300  0.154400  1.0  -0.318
  N  N625  1  0.676000  0.479000  0.824540  1.0  -0.4764
  N  N626  1  0.761300  0.474700  0.827040  1.0  -0.4785
  N  N627  1  0.715600  0.436900  0.869630  1.0  -0.4806
  N  N628  1  0.541600  0.409500  0.896230  1.0  -0.3361
  N  N629  1  0.731200  0.595500  0.724410  1.0  -0.2871
  N  N630  1  0.887700  0.397400  0.901840  1.0  -0.3386
  N  N631  1  0.409300  0.836000  0.958510  1.0  -0.5518
  N  N632  1  0.374200  0.980100  0.939480  1.0  -0.3232
  N  N633  1  0.369700  0.833700  0.911800  1.0  -0.4264
  N  N634  1  0.442800  0.502500  0.923120  1.0  -0.3126
  N  N635  1  0.442700  0.081800  0.037600  1.0  -0.313
  N  N636  1  0.296000  0.086700  0.845600  1.0  -0.319
  N  N637  1  0.824000  0.521000  0.324540  1.0  -0.4767
  N  N638  1  0.738700  0.525300  0.327040  1.0  -0.478
  N  N639  1  0.784400  0.563100  0.369630  1.0  -0.4799
  N  N640  1  0.958400  0.590500  0.396230  1.0  -0.335
  N  N641  1  0.768800  0.404500  0.224410  1.0  -0.2872
  N  N642  1  0.612300  0.602600  0.401840  1.0  -0.3381
  N  N643  1  0.090700  0.164000  0.458510  1.0  -0.5545
  N  N644  1  0.125800  0.019900  0.439480  1.0  -0.3222
  N  N645  1  0.130300  0.166300  0.411800  1.0  -0.4259
  N  N646  1  0.057200  0.497500  0.423120  1.0  -0.3125
  N  N647  1  0.057300  0.918200  0.537600  1.0  -0.3113
  N  N648  1  0.204000  0.913300  0.345600  1.0  -0.3188
