# generated using pymatgen
data_ZnH8C12(IN2)2
_symmetry_space_group_name_H-M   'P 1'
_cell_length_a   13.67280000
_cell_length_b   45.59870000
_cell_length_c   28.45760000
_cell_angle_alpha   90.00000000
_cell_angle_beta   90.00000000
_cell_angle_gamma   90.00000000
_symmetry_Int_Tables_number   1
_chemical_formula_structural   ZnH8C12(IN2)2
_chemical_formula_sum   'Zn24 H192 C288 I48 N96'
_cell_volume   17742.22951797
_cell_formula_units_Z   24
loop_
 _symmetry_equiv_pos_site_id
 _symmetry_equiv_pos_as_xyz
  1  'x, y, z'
loop_
 _atom_site_type_symbol
 _atom_site_label
 _atom_site_symmetry_multiplicity
 _atom_site_fract_x
 _atom_site_fract_y
 _atom_site_fract_z
 _atom_site_occupancy
 _atom_site_charge
  Zn  Zn1  1  0.330550  0.568230  0.563240  1.0  0.8506
  Zn  Zn2  1  0.638170  0.810060  0.756860  1.0  0.8622
  Zn  Zn3  1  0.347180  0.587370  0.026180  1.0  0.8763
  Zn  Zn4  1  0.169450  0.431770  0.063240  1.0  0.8513
  Zn  Zn5  1  0.861830  0.189940  0.256860  1.0  0.8599
  Zn  Zn6  1  0.152820  0.412630  0.526180  1.0  0.8717
  Zn  Zn7  1  0.669450  0.068230  0.936760  1.0  0.8524
  Zn  Zn8  1  0.361830  0.310060  0.743140  1.0  0.8601
  Zn  Zn9  1  0.652820  0.087370  0.473820  1.0  0.8708
  Zn  Zn10  1  0.830550  0.931770  0.436760  1.0  0.8507
  Zn  Zn11  1  0.138170  0.689940  0.243140  1.0  0.8626
  Zn  Zn12  1  0.847180  0.912630  0.973820  1.0  0.8761
  Zn  Zn13  1  0.669450  0.431770  0.436760  1.0  0.8517
  Zn  Zn14  1  0.361830  0.189940  0.243140  1.0  0.8603
  Zn  Zn15  1  0.652820  0.412630  0.973820  1.0  0.8714
  Zn  Zn16  1  0.830550  0.568230  0.936760  1.0  0.8504
  Zn  Zn17  1  0.138170  0.810060  0.743140  1.0  0.8625
  Zn  Zn18  1  0.847180  0.587370  0.473820  1.0  0.8755
  Zn  Zn19  1  0.330550  0.931770  0.063240  1.0  0.8506
  Zn  Zn20  1  0.638170  0.689940  0.256860  1.0  0.8619
  Zn  Zn21  1  0.347180  0.912630  0.526180  1.0  0.8764
  Zn  Zn22  1  0.169450  0.068230  0.563240  1.0  0.852
  Zn  Zn23  1  0.861830  0.310060  0.756860  1.0  0.8601
  Zn  Zn24  1  0.152820  0.087370  0.026180  1.0  0.8716
  H  H25  1  0.367100  0.585300  0.736300  1.0  0.1202
  H  H26  1  0.342000  0.559600  0.668000  1.0  0.0859
  H  H27  1  0.404400  0.628500  0.591100  1.0  0.0928
  H  H28  1  0.433000  0.656600  0.657600  1.0  0.1196
  H  H29  1  0.452100  0.720100  0.708400  1.0  0.1118
  H  H30  1  0.516600  0.767400  0.700300  1.0  0.0969
  H  H31  1  0.595400  0.768000  0.833400  1.0  0.0883
  H  H32  1  0.531200  0.721000  0.844500  1.0  0.1117
  H  H33  1  0.415500  0.669200  0.913500  1.0  0.1178
  H  H34  1  0.397100  0.646300  0.985200  1.0  0.0805
  H  H35  1  0.373500  0.569000  0.924700  1.0  0.0933
  H  H36  1  0.397100  0.589900  0.851200  1.0  0.1159
  H  H37  1  0.625300  0.502400  0.554500  1.0  0.1141
  H  H38  1  0.525400  0.542200  0.535400  1.0  0.081
  H  H39  1  0.308300  0.510000  0.608600  1.0  0.0897
  H  H40  1  0.402100  0.469700  0.631200  1.0  0.1144
  H  H41  1  0.402900  0.400000  0.648300  1.0  0.1156
  H  H42  1  0.322200  0.360700  0.682500  1.0  0.1002
  H  H43  1  0.572300  0.324300  0.717100  1.0  0.0835
  H  H44  1  0.660500  0.361900  0.680300  1.0  0.1102
  H  H45  1  0.856400  0.388100  0.620600  1.0  0.1114
  H  H46  1  0.011200  0.382500  0.591200  1.0  0.0916
  H  H47  1  0.995000  0.458600  0.527700  1.0  0.0754
  H  H48  1  0.839500  0.466100  0.554800  1.0  0.1178
  H  H49  1  0.132900  0.414700  0.236300  1.0  0.1199
  H  H50  1  0.158000  0.440400  0.168000  1.0  0.0861
  H  H51  1  0.095600  0.371500  0.091100  1.0  0.0939
  H  H52  1  0.067000  0.343400  0.157600  1.0  0.1199
  H  H53  1  0.047900  0.279900  0.208400  1.0  0.1117
  H  H54  1  0.983400  0.232600  0.200300  1.0  0.097
  H  H55  1  0.904600  0.232000  0.333400  1.0  0.0887
  H  H56  1  0.968800  0.279000  0.344500  1.0  0.1115
  H  H57  1  0.084500  0.330800  0.413500  1.0  0.1209
  H  H58  1  0.102900  0.353700  0.485200  1.0  0.0806
  H  H59  1  0.126500  0.431000  0.424700  1.0  0.0929
  H  H60  1  0.102900  0.410100  0.351200  1.0  0.1159
  H  H61  1  0.874700  0.497600  0.054500  1.0  0.1136
  H  H62  1  0.974600  0.457800  0.035400  1.0  0.0807
  H  H63  1  0.191700  0.490000  0.108600  1.0  0.0897
  H  H64  1  0.097900  0.530300  0.131200  1.0  0.1134
  H  H65  1  0.097100  0.600000  0.148300  1.0  0.1156
  H  H66  1  0.177800  0.639300  0.182500  1.0  0.1007
  H  H67  1  0.927700  0.675700  0.217100  1.0  0.0839
  H  H68  1  0.839500  0.638100  0.180300  1.0  0.113
  H  H69  1  0.643600  0.611900  0.120600  1.0  0.1112
  H  H70  1  0.488800  0.617500  0.091200  1.0  0.0911
  H  H71  1  0.505000  0.541400  0.027700  1.0  0.075
  H  H72  1  0.660500  0.533900  0.054800  1.0  0.1176
  H  H73  1  0.632900  0.085300  0.763700  1.0  0.1201
  H  H74  1  0.658000  0.059600  0.832000  1.0  0.0863
  H  H75  1  0.595600  0.128500  0.908900  1.0  0.0938
  H  H76  1  0.567000  0.156600  0.842400  1.0  0.1197
  H  H77  1  0.547900  0.220100  0.791600  1.0  0.112
  H  H78  1  0.483400  0.267400  0.799700  1.0  0.0975
  H  H79  1  0.404600  0.268000  0.666667  1.0  0.0898
  H  H80  1  0.468800  0.221000  0.655500  1.0  0.1114
  H  H81  1  0.584500  0.169200  0.586500  1.0  0.1181
  H  H82  1  0.602900  0.146300  0.514800  1.0  0.0799
  H  H83  1  0.626500  0.069000  0.575300  1.0  0.0933
  H  H84  1  0.602900  0.089900  0.648800  1.0  0.1164
  H  H85  1  0.374700  0.002400  0.945500  1.0  0.1133
  H  H86  1  0.474600  0.042200  0.964600  1.0  0.081
  H  H87  1  0.691700  0.010000  0.891400  1.0  0.0898
  H  H88  1  0.597900  0.969700  0.868800  1.0  0.1139
  H  H89  1  0.597100  0.900000  0.851700  1.0  0.1153
  H  H90  1  0.677800  0.860700  0.817500  1.0  0.1004
  H  H91  1  0.427700  0.824300  0.782900  1.0  0.0839
  H  H92  1  0.339500  0.861900  0.819700  1.0  0.1128
  H  H93  1  0.143600  0.888100  0.879400  1.0  0.111
  H  H94  1  0.988800  0.882500  0.908800  1.0  0.0905
  H  H95  1  0.005000  0.958600  0.972300  1.0  0.0752
  H  H96  1  0.160500  0.966100  0.945200  1.0  0.1172
  H  H97  1  0.867100  0.914700  0.263700  1.0  0.12
  H  H98  1  0.842000  0.940400  0.332000  1.0  0.0861
  H  H99  1  0.904400  0.871500  0.408900  1.0  0.0939
  H  H100  1  0.933000  0.843400  0.342400  1.0  0.1196
  H  H101  1  0.952100  0.779900  0.291600  1.0  0.1121
  H  H102  1  0.016600  0.732600  0.299700  1.0  0.0968
  H  H103  1  0.095400  0.732000  0.166600  1.0  0.0881
  H  H104  1  0.031200  0.779000  0.155500  1.0  0.111
  H  H105  1  0.915500  0.830800  0.086500  1.0  0.1184
  H  H106  1  0.897100  0.853700  0.014800  1.0  0.0797
  H  H107  1  0.873500  0.931000  0.075300  1.0  0.093
  H  H108  1  0.897100  0.910100  0.148800  1.0  0.1161
  H  H109  1  0.125300  0.997600  0.445500  1.0  0.1138
  H  H110  1  0.025400  0.957800  0.464600  1.0  0.081
  H  H111  1  0.808300  0.990000  0.391400  1.0  0.09
  H  H112  1  0.902100  0.030300  0.368800  1.0  0.1139
  H  H113  1  0.902900  0.100000  0.351700  1.0  0.1153
  H  H114  1  0.822200  0.139300  0.317500  1.0  0.1002
  H  H115  1  0.072300  0.175700  0.282900  1.0  0.084
  H  H116  1  0.160500  0.138100  0.319700  1.0  0.1101
  H  H117  1  0.356400  0.111900  0.379400  1.0  0.1114
  H  H118  1  0.511200  0.117500  0.408800  1.0  0.0911
  H  H119  1  0.495000  0.041400  0.472300  1.0  0.0755
  H  H120  1  0.339500  0.033900  0.445200  1.0  0.1173
  H  H121  1  0.632900  0.414700  0.263700  1.0  0.1199
  H  H122  1  0.658000  0.440400  0.332000  1.0  0.0865
  H  H123  1  0.595600  0.371500  0.408900  1.0  0.0943
  H  H124  1  0.567000  0.343400  0.342400  1.0  0.1199
  H  H125  1  0.547900  0.279900  0.291600  1.0  0.112
  H  H126  1  0.483400  0.232600  0.299700  1.0  0.0968
  H  H127  1  0.404600  0.232000  0.166600  1.0  0.0879
  H  H128  1  0.468800  0.279000  0.155500  1.0  0.1117
  H  H129  1  0.584500  0.330800  0.086500  1.0  0.1183
  H  H130  1  0.602900  0.353700  0.014800  1.0  0.0798
  H  H131  1  0.626500  0.431000  0.075300  1.0  0.093
  H  H132  1  0.602900  0.410100  0.148800  1.0  0.1161
  H  H133  1  0.374700  0.497600  0.445500  1.0  0.1133
  H  H134  1  0.474600  0.457800  0.464600  1.0  0.0808
  H  H135  1  0.691700  0.490000  0.391400  1.0  0.0898
  H  H136  1  0.597900  0.530300  0.368800  1.0  0.1137
  H  H137  1  0.597100  0.600000  0.351700  1.0  0.1155
  H  H138  1  0.677800  0.639300  0.317500  1.0  0.1005
  H  H139  1  0.427700  0.675700  0.282900  1.0  0.0845
  H  H140  1  0.339500  0.638100  0.319700  1.0  0.113
  H  H141  1  0.143600  0.611900  0.379400  1.0  0.111
  H  H142  1  0.988800  0.617500  0.408800  1.0  0.0911
  H  H143  1  0.005000  0.541400  0.472300  1.0  0.0757
  H  H144  1  0.160500  0.533900  0.445200  1.0  0.1174
  H  H145  1  0.867100  0.585300  0.763700  1.0  0.1203
  H  H146  1  0.842000  0.559600  0.832000  1.0  0.086
  H  H147  1  0.904400  0.628500  0.908900  1.0  0.0937
  H  H148  1  0.933000  0.656600  0.842400  1.0  0.1194
  H  H149  1  0.952100  0.720100  0.791600  1.0  0.1123
  H  H150  1  0.016600  0.767400  0.799700  1.0  0.0974
  H  H151  1  0.095400  0.768000  0.666667  1.0  0.0898
  H  H152  1  0.031200  0.721000  0.655500  1.0  0.1115
  H  H153  1  0.915500  0.669200  0.586500  1.0  0.1182
  H  H154  1  0.897100  0.646300  0.514800  1.0  0.0799
  H  H155  1  0.873500  0.569000  0.575300  1.0  0.0933
  H  H156  1  0.897100  0.589900  0.648800  1.0  0.1164
  H  H157  1  0.125300  0.502400  0.945500  1.0  0.1136
  H  H158  1  0.025400  0.542200  0.964600  1.0  0.0808
  H  H159  1  0.808300  0.510000  0.891400  1.0  0.0901
  H  H160  1  0.902100  0.469700  0.868800  1.0  0.114
  H  H161  1  0.902900  0.400000  0.851700  1.0  0.1153
  H  H162  1  0.822200  0.360700  0.817500  1.0  0.1002
  H  H163  1  0.072300  0.324300  0.782900  1.0  0.0839
  H  H164  1  0.160500  0.361900  0.819700  1.0  0.11
  H  H165  1  0.356400  0.388100  0.879400  1.0  0.1111
  H  H166  1  0.511200  0.382500  0.908800  1.0  0.0912
  H  H167  1  0.495000  0.458600  0.972300  1.0  0.0752
  H  H168  1  0.339500  0.466100  0.945200  1.0  0.1177
  H  H169  1  0.367100  0.914700  0.236300  1.0  0.12
  H  H170  1  0.342000  0.940400  0.168000  1.0  0.0859
  H  H171  1  0.404400  0.871500  0.091100  1.0  0.0935
  H  H172  1  0.433000  0.843400  0.157600  1.0  0.1196
  H  H173  1  0.452100  0.779900  0.208400  1.0  0.1118
  H  H174  1  0.516600  0.732600  0.200300  1.0  0.0973
  H  H175  1  0.595400  0.732000  0.333400  1.0  0.0884
  H  H176  1  0.531200  0.779000  0.344500  1.0  0.112
  H  H177  1  0.415500  0.830800  0.413500  1.0  0.1208
  H  H178  1  0.397100  0.853700  0.485200  1.0  0.0806
  H  H179  1  0.373500  0.931000  0.424700  1.0  0.0929
  H  H180  1  0.397100  0.910100  0.351200  1.0  0.1159
  H  H181  1  0.625300  0.997600  0.054500  1.0  0.1139
  H  H182  1  0.525400  0.957800  0.035400  1.0  0.0809
  H  H183  1  0.308300  0.990000  0.108600  1.0  0.0895
  H  H184  1  0.402100  0.030300  0.131200  1.0  0.1139
  H  H185  1  0.402900  0.100000  0.148300  1.0  0.1154
  H  H186  1  0.322200  0.139300  0.182500  1.0  0.1002
  H  H187  1  0.572300  0.175700  0.217100  1.0  0.0833
  H  H188  1  0.660500  0.138100  0.180300  1.0  0.11
  H  H189  1  0.856400  0.111900  0.120600  1.0  0.1113
  H  H190  1  0.011200  0.117500  0.091200  1.0  0.091
  H  H191  1  0.995000  0.041400  0.027700  1.0  0.0752
  H  H192  1  0.839500  0.033900  0.054800  1.0  0.1176
  H  H193  1  0.132900  0.085300  0.736300  1.0  0.1198
  H  H194  1  0.158000  0.059600  0.668000  1.0  0.086
  H  H195  1  0.095600  0.128500  0.591100  1.0  0.0931
  H  H196  1  0.067000  0.156600  0.657600  1.0  0.1199
  H  H197  1  0.047900  0.220100  0.708400  1.0  0.1117
  H  H198  1  0.983400  0.267400  0.700300  1.0  0.0968
  H  H199  1  0.904600  0.268000  0.833400  1.0  0.0887
  H  H200  1  0.968800  0.221000  0.844500  1.0  0.1104
  H  H201  1  0.084500  0.169200  0.913500  1.0  0.1177
  H  H202  1  0.102900  0.146300  0.985200  1.0  0.0804
  H  H203  1  0.126500  0.069000  0.924700  1.0  0.0932
  H  H204  1  0.102900  0.089900  0.851200  1.0  0.1161
  H  H205  1  0.874700  0.002400  0.554500  1.0  0.1139
  H  H206  1  0.974600  0.042200  0.535400  1.0  0.0811
  H  H207  1  0.191700  0.010000  0.608600  1.0  0.0896
  H  H208  1  0.097900  0.969700  0.631200  1.0  0.1139
  H  H209  1  0.097100  0.900000  0.648300  1.0  0.1157
  H  H210  1  0.177800  0.860700  0.682500  1.0  0.1007
  H  H211  1  0.927700  0.824300  0.717100  1.0  0.0835
  H  H212  1  0.839500  0.861900  0.680300  1.0  0.113
  H  H213  1  0.643600  0.888100  0.620600  1.0  0.1115
  H  H214  1  0.488800  0.882500  0.591200  1.0  0.091
  H  H215  1  0.505000  0.958600  0.527700  1.0  0.0752
  H  H216  1  0.660500  0.966100  0.554800  1.0  0.1173
  C  C217  1  0.415300  0.641390  0.748600  1.0  0.3866
  C  C218  1  0.452800  0.684840  0.782400  1.0  0.3681
  C  C219  1  0.417000  0.645560  0.827300  1.0  0.3854
  C  C220  1  0.401500  0.624020  0.704600  1.0  -0.1143
  C  C221  1  0.374800  0.594730  0.706800  1.0  -0.1353
  C  C222  1  0.359800  0.579680  0.666000  1.0  0.1492
  C  C223  1  0.396300  0.619830  0.621300  1.0  0.1242
  C  C224  1  0.413400  0.636700  0.660500  1.0  -0.1548
  C  C225  1  0.486800  0.715690  0.777100  1.0  -0.1157
  C  C226  1  0.481900  0.729570  0.734500  1.0  -0.1112
  C  C227  1  0.520800  0.757670  0.729800  1.0  0.1189
  C  C228  1  0.566600  0.758070  0.807500  1.0  0.1168
  C  C229  1  0.528400  0.729990  0.814400  1.0  -0.1195
  C  C230  1  0.406900  0.631640  0.874100  1.0  -0.0873
  C  C231  1  0.407300  0.648560  0.915000  1.0  -0.1539
  C  C232  1  0.395700  0.634700  0.957500  1.0  0.1375
  C  C233  1  0.382700  0.589630  0.922300  1.0  0.1196
  C  C234  1  0.395800  0.602020  0.878400  1.0  -0.0944
  C  C235  1  0.582600  0.455460  0.607500  1.0  0.3178
  C  C236  1  0.591400  0.410010  0.638300  1.0  0.3712
  C  C237  1  0.725400  0.430540  0.606600  1.0  0.397
  C  C238  1  0.524100  0.481670  0.594600  1.0  -0.1091
  C  C239  1  0.560500  0.503520  0.566500  1.0  -0.12
  C  C240  1  0.500900  0.527390  0.555700  1.0  0.1137
  C  C241  1  0.374400  0.508790  0.598500  1.0  0.127
  C  C242  1  0.429300  0.484310  0.611300  1.0  -0.1324
  C  C243  1  0.540700  0.385090  0.660400  1.0  -0.131
  C  C244  1  0.439500  0.384440  0.661900  1.0  -0.0905
  C  C245  1  0.391700  0.361310  0.683000  1.0  0.1271
  C  C246  1  0.537800  0.339960  0.702800  1.0  0.1372
  C  C247  1  0.591100  0.362400  0.680900  1.0  -0.1203
  C  C248  1  0.828600  0.427810  0.590700  1.0  -0.081
  C  C249  1  0.883400  0.402970  0.601100  1.0  -0.1296
  C  C250  1  0.975500  0.399730  0.583600  1.0  0.121
  C  C251  1  0.965800  0.443870  0.546700  1.0  0.1514
  C  C252  1  0.873200  0.448590  0.562800  1.0  -0.1422
  C  C253  1  0.084700  0.358610  0.248600  1.0  0.387
  C  C254  1  0.047200  0.315160  0.282400  1.0  0.368
  C  C255  1  0.083000  0.354440  0.327300  1.0  0.3856
  C  C256  1  0.098500  0.375980  0.204600  1.0  -0.1136
  C  C257  1  0.125200  0.405270  0.206800  1.0  -0.1364
  C  C258  1  0.140200  0.420320  0.166000  1.0  0.1486
  C  C259  1  0.103700  0.380170  0.121300  1.0  0.1251
  C  C260  1  0.086600  0.363300  0.160500  1.0  -0.1534
  C  C261  1  0.013200  0.284310  0.277100  1.0  -0.1158
  C  C262  1  0.018100  0.270430  0.234500  1.0  -0.1126
  C  C263  1  0.979200  0.242330  0.229800  1.0  0.1194
  C  C264  1  0.933400  0.241930  0.307500  1.0  0.1162
  C  C265  1  0.971600  0.270010  0.314400  1.0  -0.1206
  C  C266  1  0.093100  0.368360  0.374100  1.0  -0.0873
  C  C267  1  0.092700  0.351440  0.415000  1.0  -0.1535
  C  C268  1  0.104300  0.365300  0.457500  1.0  0.1386
  C  C269  1  0.117300  0.410370  0.422300  1.0  0.1184
  C  C270  1  0.104200  0.397980  0.378400  1.0  -0.0942
  C  C271  1  0.917400  0.544540  0.107500  1.0  0.3179
  C  C272  1  0.908600  0.589990  0.138300  1.0  0.3714
  C  C273  1  0.774600  0.569460  0.106600  1.0  0.3967
  C  C274  1  0.975900  0.518330  0.094600  1.0  -0.1095
  C  C275  1  0.939500  0.496480  0.066500  1.0  -0.1217
  C  C276  1  0.999100  0.472610  0.055700  1.0  0.1129
  C  C277  1  0.125600  0.491210  0.098500  1.0  0.1275
  C  C278  1  0.070700  0.515690  0.111300  1.0  -0.1312
  C  C279  1  0.959300  0.614910  0.160400  1.0  -0.13
  C  C280  1  0.060500  0.615560  0.161900  1.0  -0.0905
  C  C281  1  0.108300  0.638690  0.183000  1.0  0.126
  C  C282  1  0.962200  0.660040  0.202800  1.0  0.1362
  C  C283  1  0.908900  0.637600  0.180900  1.0  -0.1229
  C  C284  1  0.671400  0.572190  0.090700  1.0  -0.0825
  C  C285  1  0.616600  0.597030  0.101100  1.0  -0.1293
  C  C286  1  0.524500  0.600270  0.083600  1.0  0.1204
  C  C287  1  0.534200  0.556130  0.046700  1.0  0.152
  C  C288  1  0.626800  0.551410  0.062800  1.0  -0.1412
  C  C289  1  0.584700  0.141390  0.751400  1.0  0.3868
  C  C290  1  0.547200  0.184840  0.717600  1.0  0.368
  C  C291  1  0.583000  0.145560  0.672700  1.0  0.3855
  C  C292  1  0.598500  0.124020  0.795400  1.0  -0.1134
  C  C293  1  0.625200  0.094730  0.793200  1.0  -0.1367
  C  C294  1  0.640200  0.079680  0.834000  1.0  0.1491
  C  C295  1  0.603700  0.119830  0.878700  1.0  0.1233
  C  C296  1  0.586600  0.136700  0.839500  1.0  -0.1544
  C  C297  1  0.513200  0.215690  0.722900  1.0  -0.1154
  C  C298  1  0.518100  0.229570  0.765500  1.0  -0.1111
  C  C299  1  0.479200  0.257670  0.770200  1.0  0.1194
  C  C300  1  0.433400  0.258070  0.692500  1.0  0.1236
  C  C301  1  0.471600  0.229990  0.685600  1.0  -0.1165
  C  C302  1  0.593100  0.131640  0.625900  1.0  -0.0879
  C  C303  1  0.592700  0.148560  0.585000  1.0  -0.1537
  C  C304  1  0.604300  0.134700  0.542500  1.0  0.1373
  C  C305  1  0.617300  0.089630  0.577700  1.0  0.1199
  C  C306  1  0.604200  0.102020  0.621600  1.0  -0.0945
  C  C307  1  0.417400  0.955460  0.892500  1.0  0.3171
  C  C308  1  0.408600  0.910010  0.861700  1.0  0.3705
  C  C309  1  0.274600  0.930540  0.893400  1.0  0.3965
  C  C310  1  0.475900  0.981670  0.905400  1.0  -0.1092
  C  C311  1  0.439500  0.003520  0.933500  1.0  -0.1226
  C  C312  1  0.499100  0.027390  0.944300  1.0  0.1128
  C  C313  1  0.625600  0.008790  0.901500  1.0  0.1284
  C  C314  1  0.570700  0.984310  0.888700  1.0  -0.1319
  C  C315  1  0.459300  0.885090  0.839600  1.0  -0.1312
  C  C316  1  0.560500  0.884440  0.838100  1.0  -0.0903
  C  C317  1  0.608300  0.861310  0.817000  1.0  0.1257
  C  C318  1  0.462200  0.839960  0.797200  1.0  0.136
  C  C319  1  0.408900  0.862400  0.819100  1.0  -0.1222
  C  C320  1  0.171400  0.927810  0.909300  1.0  -0.0815
  C  C321  1  0.116600  0.902970  0.898900  1.0  -0.1286
  C  C322  1  0.024500  0.899730  0.916400  1.0  0.1207
  C  C323  1  0.034200  0.943870  0.953300  1.0  0.1524
  C  C324  1  0.126800  0.948590  0.937200  1.0  -0.1417
  C  C325  1  0.915300  0.858610  0.251400  1.0  0.3869
  C  C326  1  0.952800  0.815160  0.217600  1.0  0.3683
  C  C327  1  0.917000  0.854440  0.172700  1.0  0.3857
  C  C328  1  0.901500  0.875980  0.295400  1.0  -0.114
  C  C329  1  0.874800  0.905270  0.293200  1.0  -0.1363
  C  C330  1  0.859800  0.920320  0.334000  1.0  0.1483
  C  C331  1  0.896300  0.880170  0.378700  1.0  0.1247
  C  C332  1  0.913400  0.863300  0.339500  1.0  -0.1534
  C  C333  1  0.986800  0.784310  0.222900  1.0  -0.1158
  C  C334  1  0.981900  0.770430  0.265500  1.0  -0.1132
  C  C335  1  0.020800  0.742330  0.270200  1.0  0.1194
  C  C336  1  0.066600  0.741930  0.192500  1.0  0.1145
  C  C337  1  0.028400  0.770010  0.185600  1.0  -0.1171
  C  C338  1  0.906900  0.868360  0.125900  1.0  -0.0867
  C  C339  1  0.907300  0.851440  0.085000  1.0  -0.1527
  C  C340  1  0.895700  0.865300  0.042500  1.0  0.1382
  C  C341  1  0.882700  0.910370  0.077700  1.0  0.1196
  C  C342  1  0.895800  0.897980  0.121600  1.0  -0.094
  C  C343  1  0.082600  0.044540  0.392500  1.0  0.3172
  C  C344  1  0.091400  0.089990  0.361700  1.0  0.3706
  C  C345  1  0.225400  0.069460  0.393400  1.0  0.3966
  C  C346  1  0.024100  0.018330  0.405400  1.0  -0.1089
  C  C347  1  0.060500  0.996480  0.433500  1.0  -0.1203
  C  C348  1  0.000900  0.972610  0.444300  1.0  0.1132
  C  C349  1  0.874400  0.991210  0.401500  1.0  0.1272
  C  C350  1  0.929300  0.015690  0.388700  1.0  -0.1317
  C  C351  1  0.040700  0.114910  0.339600  1.0  -0.1306
  C  C352  1  0.939500  0.115560  0.338100  1.0  -0.0901
  C  C353  1  0.891700  0.138690  0.317000  1.0  0.1268
  C  C354  1  0.037800  0.160040  0.297200  1.0  0.1358
  C  C355  1  0.091100  0.137600  0.319100  1.0  -0.1209
  C  C356  1  0.328600  0.072190  0.409300  1.0  -0.0805
  C  C357  1  0.383400  0.097030  0.398900  1.0  -0.1296
  C  C358  1  0.475500  0.100270  0.416400  1.0  0.1205
  C  C359  1  0.465800  0.056130  0.453300  1.0  0.1523
  C  C360  1  0.373200  0.051410  0.437200  1.0  -0.1412
  C  C361  1  0.584700  0.358610  0.251400  1.0  0.387
  C  C362  1  0.547200  0.315160  0.217600  1.0  0.3681
  C  C363  1  0.583000  0.354440  0.172700  1.0  0.3857
  C  C364  1  0.598500  0.375980  0.295400  1.0  -0.1142
  C  C365  1  0.625200  0.405270  0.293200  1.0  -0.1369
  C  C366  1  0.640200  0.420320  0.334000  1.0  0.1483
  C  C367  1  0.603700  0.380170  0.378700  1.0  0.1247
  C  C368  1  0.586600  0.363300  0.339500  1.0  -0.1529
  C  C369  1  0.513200  0.284310  0.222900  1.0  -0.1156
  C  C370  1  0.518100  0.270430  0.265500  1.0  -0.112
  C  C371  1  0.479200  0.242330  0.270200  1.0  0.1197
  C  C372  1  0.433400  0.241930  0.192500  1.0  0.1154
  C  C373  1  0.471600  0.270010  0.185600  1.0  -0.1168
  C  C374  1  0.593100  0.368360  0.125900  1.0  -0.087
  C  C375  1  0.592700  0.351440  0.085000  1.0  -0.1531
  C  C376  1  0.604300  0.365300  0.042500  1.0  0.1379
  C  C377  1  0.617300  0.410370  0.077700  1.0  0.1193
  C  C378  1  0.604200  0.397980  0.121600  1.0  -0.094
  C  C379  1  0.417400  0.544540  0.392500  1.0  0.3171
  C  C380  1  0.408600  0.589990  0.361700  1.0  0.3707
  C  C381  1  0.274600  0.569460  0.393400  1.0  0.3964
  C  C382  1  0.475900  0.518330  0.405400  1.0  -0.1089
  C  C383  1  0.439500  0.496480  0.433500  1.0  -0.1222
  C  C384  1  0.499100  0.472610  0.444300  1.0  0.1133
  C  C385  1  0.625600  0.491210  0.401500  1.0  0.1275
  C  C386  1  0.570700  0.515690  0.388700  1.0  -0.1317
  C  C387  1  0.459300  0.614910  0.339600  1.0  -0.1304
  C  C388  1  0.560500  0.615560  0.338100  1.0  -0.0906
  C  C389  1  0.608300  0.638690  0.317000  1.0  0.1259
  C  C390  1  0.462200  0.660040  0.297200  1.0  0.1363
  C  C391  1  0.408900  0.637600  0.319100  1.0  -0.1225
  C  C392  1  0.171400  0.572190  0.409300  1.0  -0.0817
  C  C393  1  0.116600  0.597030  0.398900  1.0  -0.1283
  C  C394  1  0.024500  0.600270  0.416400  1.0  0.1205
  C  C395  1  0.034200  0.556130  0.453300  1.0  0.153
  C  C396  1  0.126800  0.551410  0.437200  1.0  -0.1409
  C  C397  1  0.915300  0.641390  0.751400  1.0  0.3867
  C  C398  1  0.952800  0.684840  0.717600  1.0  0.3682
  C  C399  1  0.917000  0.645560  0.672700  1.0  0.3855
  C  C400  1  0.901500  0.624020  0.795400  1.0  -0.1132
  C  C401  1  0.874800  0.594730  0.793200  1.0  -0.1357
  C  C402  1  0.859800  0.579680  0.834000  1.0  0.1487
  C  C403  1  0.896300  0.619830  0.878700  1.0  0.1235
  C  C404  1  0.913400  0.636700  0.839500  1.0  -0.154
  C  C405  1  0.986800  0.715690  0.722900  1.0  -0.1158
  C  C406  1  0.981900  0.729570  0.765500  1.0  -0.1123
  C  C407  1  0.020800  0.757670  0.770200  1.0  0.1191
  C  C408  1  0.066600  0.758070  0.692500  1.0  0.1225
  C  C409  1  0.028400  0.729990  0.685600  1.0  -0.1169
  C  C410  1  0.906900  0.631640  0.625900  1.0  -0.0877
  C  C411  1  0.907300  0.648560  0.585000  1.0  -0.1535
  C  C412  1  0.895700  0.634700  0.542500  1.0  0.1375
  C  C413  1  0.882700  0.589630  0.577700  1.0  0.1204
  C  C414  1  0.895800  0.602020  0.621600  1.0  -0.0941
  C  C415  1  0.082600  0.455460  0.892500  1.0  0.3171
  C  C416  1  0.091400  0.410010  0.861700  1.0  0.3704
  C  C417  1  0.225400  0.430540  0.893400  1.0  0.3967
  C  C418  1  0.024100  0.481670  0.905400  1.0  -0.1093
  C  C419  1  0.060500  0.503520  0.933500  1.0  -0.12
  C  C420  1  0.000900  0.527390  0.944300  1.0  0.113
  C  C421  1  0.874400  0.508790  0.901500  1.0  0.1275
  C  C422  1  0.929300  0.484310  0.888700  1.0  -0.1316
  C  C423  1  0.040700  0.385090  0.839600  1.0  -0.1314
  C  C424  1  0.939500  0.384440  0.838100  1.0  -0.0906
  C  C425  1  0.891700  0.361310  0.817000  1.0  0.1269
  C  C426  1  0.037800  0.339960  0.797200  1.0  0.1358
  C  C427  1  0.091100  0.362400  0.819100  1.0  -0.1209
  C  C428  1  0.328600  0.427810  0.909300  1.0  -0.0804
  C  C429  1  0.383400  0.402970  0.898900  1.0  -0.1298
  C  C430  1  0.475500  0.399730  0.916400  1.0  0.1209
  C  C431  1  0.465800  0.443870  0.953300  1.0  0.1516
  C  C432  1  0.373200  0.448590  0.937200  1.0  -0.1419
  C  C433  1  0.415300  0.858610  0.248600  1.0  0.3869
  C  C434  1  0.452800  0.815160  0.282400  1.0  0.3682
  C  C435  1  0.417000  0.854440  0.327300  1.0  0.3856
  C  C436  1  0.401500  0.875980  0.204600  1.0  -0.1135
  C  C437  1  0.374800  0.905270  0.206800  1.0  -0.1364
  C  C438  1  0.359800  0.920320  0.166000  1.0  0.1487
  C  C439  1  0.396300  0.880170  0.121300  1.0  0.1246
  C  C440  1  0.413400  0.863300  0.160500  1.0  -0.154
  C  C441  1  0.486800  0.784310  0.277100  1.0  -0.116
  C  C442  1  0.481900  0.770430  0.234500  1.0  -0.1122
  C  C443  1  0.520800  0.742330  0.229800  1.0  0.1187
  C  C444  1  0.566600  0.741930  0.307500  1.0  0.1166
  C  C445  1  0.528400  0.770010  0.314400  1.0  -0.1202
  C  C446  1  0.406900  0.868360  0.374100  1.0  -0.0871
  C  C447  1  0.407300  0.851440  0.415000  1.0  -0.1532
  C  C448  1  0.395700  0.865300  0.457500  1.0  0.1388
  C  C449  1  0.382700  0.910370  0.422300  1.0  0.1185
  C  C450  1  0.395800  0.897980  0.378400  1.0  -0.0941
  C  C451  1  0.582600  0.044540  0.107500  1.0  0.3181
  C  C452  1  0.591400  0.089990  0.138300  1.0  0.3713
  C  C453  1  0.725400  0.069460  0.106600  1.0  0.3969
  C  C454  1  0.524100  0.018330  0.094600  1.0  -0.1093
  C  C455  1  0.560500  0.996480  0.066500  1.0  -0.1203
  C  C456  1  0.500900  0.972610  0.055700  1.0  0.1126
  C  C457  1  0.374400  0.991210  0.098500  1.0  0.1268
  C  C458  1  0.429300  0.015690  0.111300  1.0  -0.1329
  C  C459  1  0.540700  0.114910  0.160400  1.0  -0.1302
  C  C460  1  0.439500  0.115560  0.161900  1.0  -0.09
  C  C461  1  0.391700  0.138690  0.183000  1.0  0.127
  C  C462  1  0.537800  0.160040  0.202800  1.0  0.1361
  C  C463  1  0.591100  0.137600  0.180900  1.0  -0.1209
  C  C464  1  0.828600  0.072190  0.090700  1.0  -0.0809
  C  C465  1  0.883400  0.097030  0.101100  1.0  -0.1301
  C  C466  1  0.975500  0.100270  0.083600  1.0  0.1206
  C  C467  1  0.965800  0.056130  0.046700  1.0  0.1509
  C  C468  1  0.873200  0.051410  0.062800  1.0  -0.1416
  C  C469  1  0.084700  0.141390  0.748600  1.0  0.3868
  C  C470  1  0.047200  0.184840  0.782400  1.0  0.3678
  C  C471  1  0.083000  0.145560  0.827300  1.0  0.3854
  C  C472  1  0.098500  0.124020  0.704600  1.0  -0.1143
  C  C473  1  0.125200  0.094730  0.706800  1.0  -0.1357
  C  C474  1  0.140200  0.079680  0.666000  1.0  0.1493
  C  C475  1  0.103700  0.119830  0.621300  1.0  0.1245
  C  C476  1  0.086600  0.136700  0.660500  1.0  -0.155
  C  C477  1  0.013200  0.215690  0.777100  1.0  -0.1154
  C  C478  1  0.018100  0.229570  0.734500  1.0  -0.1117
  C  C479  1  0.979200  0.257670  0.729800  1.0  0.1198
  C  C480  1  0.933400  0.258070  0.807500  1.0  0.1163
  C  C481  1  0.971600  0.229990  0.814400  1.0  -0.1196
  C  C482  1  0.093100  0.131640  0.874100  1.0  -0.0875
  C  C483  1  0.092700  0.148560  0.915000  1.0  -0.1541
  C  C484  1  0.104300  0.134700  0.957500  1.0  0.1374
  C  C485  1  0.117300  0.089630  0.922300  1.0  0.1191
  C  C486  1  0.104200  0.102020  0.878400  1.0  -0.0948
  C  C487  1  0.917400  0.955460  0.607500  1.0  0.3177
  C  C488  1  0.908600  0.910010  0.638300  1.0  0.3713
  C  C489  1  0.774600  0.930540  0.606600  1.0  0.3969
  C  C490  1  0.975900  0.981670  0.594600  1.0  -0.1089
  C  C491  1  0.939500  0.003520  0.566500  1.0  -0.122
  C  C492  1  0.999100  0.027390  0.555700  1.0  0.1135
  C  C493  1  0.125600  0.008790  0.598500  1.0  0.1281
  C  C494  1  0.070700  0.984310  0.611300  1.0  -0.1312
  C  C495  1  0.959300  0.885090  0.660400  1.0  -0.1307
  C  C496  1  0.060500  0.884440  0.661900  1.0  -0.0903
  C  C497  1  0.108300  0.861310  0.683000  1.0  0.1258
  C  C498  1  0.962200  0.839960  0.702800  1.0  0.1373
  C  C499  1  0.908900  0.862400  0.680900  1.0  -0.1219
  C  C500  1  0.671400  0.927810  0.590700  1.0  -0.0825
  C  C501  1  0.616600  0.902970  0.601100  1.0  -0.1286
  C  C502  1  0.524500  0.899730  0.583600  1.0  0.1209
  C  C503  1  0.534200  0.943870  0.546700  1.0  0.1527
  C  C504  1  0.626800  0.948590  0.562800  1.0  -0.1418
  I  I505  1  0.402340  0.596600  0.495380  1.0  -0.3712
  I  I506  1  0.150600  0.555330  0.576670  1.0  -0.3789
  I  I507  1  0.800990  0.803270  0.798810  1.0  -0.3552
  I  I508  1  0.634090  0.824700  0.670960  1.0  -0.3013
  I  I509  1  0.270070  0.537430  0.010200  1.0  -0.395
  I  I510  1  0.261450  0.627960  0.071730  1.0  -0.3232
  I  I511  1  0.097660  0.403400  0.995380  1.0  -0.3705
  I  I512  1  0.349400  0.444670  0.076670  1.0  -0.3796
  I  I513  1  0.699010  0.196730  0.298810  1.0  -0.3535
  I  I514  1  0.865910  0.175300  0.170960  1.0  -0.3014
  I  I515  1  0.229930  0.462570  0.510200  1.0  -0.3941
  I  I516  1  0.238550  0.372040  0.571730  1.0  -0.3216
  I  I517  1  0.597660  0.096600  0.004620  1.0  -0.3714
  I  I518  1  0.849400  0.055330  0.923330  1.0  -0.3788
  I  I519  1  0.199010  0.303270  0.701190  1.0  -0.3536
  I  I520  1  0.365910  0.324700  0.829040  1.0  -0.3011
  I  I521  1  0.729930  0.037430  0.489800  1.0  -0.394
  I  I522  1  0.738550  0.127960  0.428270  1.0  -0.3225
  I  I523  1  0.902340  0.903400  0.504620  1.0  -0.371
  I  I524  1  0.650600  0.944670  0.423330  1.0  -0.3772
  I  I525  1  0.300990  0.696730  0.201190  1.0  -0.355
  I  I526  1  0.134090  0.675300  0.329040  1.0  -0.2963
  I  I527  1  0.770070  0.962570  0.989800  1.0  -0.3947
  I  I528  1  0.761450  0.872040  0.928270  1.0  -0.3215
  I  I529  1  0.597660  0.403400  0.504620  1.0  -0.3706
  I  I530  1  0.849400  0.444670  0.423330  1.0  -0.3783
  I  I531  1  0.199010  0.196730  0.201190  1.0  -0.3536
  I  I532  1  0.365910  0.175300  0.329040  1.0  -0.2962
  I  I533  1  0.729930  0.462570  0.989800  1.0  -0.3939
  I  I534  1  0.738550  0.372040  0.928270  1.0  -0.3221
  I  I535  1  0.902340  0.596600  0.004620  1.0  -0.3715
  I  I536  1  0.650600  0.555330  0.923330  1.0  -0.3779
  I  I537  1  0.300990  0.803270  0.701190  1.0  -0.3552
  I  I538  1  0.134090  0.824700  0.829040  1.0  -0.3013
  I  I539  1  0.770070  0.537430  0.489800  1.0  -0.3948
  I  I540  1  0.761450  0.627960  0.428270  1.0  -0.3222
  I  I541  1  0.402340  0.903400  0.995380  1.0  -0.3708
  I  I542  1  0.150600  0.944670  0.076670  1.0  -0.3783
  I  I543  1  0.800990  0.696730  0.298810  1.0  -0.3548
  I  I544  1  0.634090  0.675300  0.170960  1.0  -0.3016
  I  I545  1  0.270070  0.962570  0.510200  1.0  -0.3949
  I  I546  1  0.261450  0.872040  0.571730  1.0  -0.3223
  I  I547  1  0.097660  0.096600  0.495380  1.0  -0.3712
  I  I548  1  0.349400  0.055330  0.576670  1.0  -0.3801
  I  I549  1  0.699010  0.303270  0.798810  1.0  -0.3537
  I  I550  1  0.865910  0.324700  0.670960  1.0  -0.3011
  I  I551  1  0.229930  0.037430  0.010200  1.0  -0.3942
  I  I552  1  0.238550  0.127960  0.071730  1.0  -0.3222
  N  N553  1  0.438200  0.670090  0.742200  1.0  -0.4953
  N  N554  1  0.441200  0.674150  0.825400  1.0  -0.4619
  N  N555  1  0.404400  0.628330  0.789300  1.0  -0.4715
  N  N556  1  0.368700  0.591640  0.623900  1.0  -0.3184
  N  N557  1  0.564200  0.771370  0.766100  1.0  -0.3111
  N  N558  1  0.382600  0.606080  0.962000  1.0  -0.3158
  N  N559  1  0.536700  0.433820  0.627900  1.0  -0.3357
  N  N560  1  0.687200  0.407540  0.628600  1.0  -0.4624
  N  N561  1  0.679200  0.455510  0.595700  1.0  -0.4659
  N  N562  1  0.410100  0.530170  0.573000  1.0  -0.2905
  N  N563  1  0.440400  0.339930  0.704100  1.0  -0.2853
  N  N564  1  0.017800  0.420020  0.555800  1.0  -0.3176
  N  N565  1  0.061800  0.329910  0.242200  1.0  -0.4967
  N  N566  1  0.058800  0.325850  0.325400  1.0  -0.4608
  N  N567  1  0.095600  0.371670  0.289300  1.0  -0.4718
  N  N568  1  0.131300  0.408360  0.123900  1.0  -0.3159
  N  N569  1  0.935800  0.228630  0.266100  1.0  -0.3107
  N  N570  1  0.117400  0.393920  0.462000  1.0  -0.3167
  N  N571  1  0.963300  0.566180  0.127900  1.0  -0.3362
  N  N572  1  0.812800  0.592460  0.128600  1.0  -0.4639
  N  N573  1  0.820800  0.544490  0.095700  1.0  -0.4667
  N  N574  1  0.089900  0.469830  0.073000  1.0  -0.2908
  N  N575  1  0.059600  0.660070  0.204100  1.0  -0.2868
  N  N576  1  0.482200  0.579980  0.055800  1.0  -0.3205
  N  N577  1  0.561800  0.170090  0.757800  1.0  -0.4972
  N  N578  1  0.558800  0.174150  0.674600  1.0  -0.4611
  N  N579  1  0.595600  0.128330  0.710700  1.0  -0.4715
  N  N580  1  0.631300  0.091640  0.876100  1.0  -0.3115
  N  N581  1  0.435800  0.271370  0.733900  1.0  -0.3098
  N  N582  1  0.617400  0.106080  0.538000  1.0  -0.3163
  N  N583  1  0.463300  0.933820  0.872100  1.0  -0.3363
  N  N584  1  0.312800  0.907540  0.871400  1.0  -0.465
  N  N585  1  0.320800  0.955510  0.904300  1.0  -0.4665
  N  N586  1  0.589900  0.030170  0.927000  1.0  -0.2928
  N  N587  1  0.559600  0.839930  0.795900  1.0  -0.2852
  N  N588  1  0.982200  0.920020  0.944200  1.0  -0.3219
  N  N589  1  0.938200  0.829910  0.257800  1.0  -0.4973
  N  N590  1  0.941200  0.825850  0.174600  1.0  -0.4622
  N  N591  1  0.904400  0.871670  0.210700  1.0  -0.472
  N  N592  1  0.868700  0.908360  0.376100  1.0  -0.3131
  N  N593  1  0.064200  0.728630  0.233900  1.0  -0.3098
  N  N594  1  0.882600  0.893920  0.038000  1.0  -0.3153
  N  N595  1  0.036700  0.066180  0.372100  1.0  -0.3353
  N  N596  1  0.187200  0.092460  0.371400  1.0  -0.4629
  N  N597  1  0.179200  0.044490  0.404300  1.0  -0.4657
  N  N598  1  0.910100  0.969830  0.427000  1.0  -0.293
  N  N599  1  0.940400  0.160070  0.295900  1.0  -0.2855
  N  N600  1  0.517800  0.079980  0.444200  1.0  -0.3183
  N  N601  1  0.561800  0.329910  0.257800  1.0  -0.4975
  N  N602  1  0.558800  0.325850  0.174600  1.0  -0.462
  N  N603  1  0.595600  0.371670  0.210700  1.0  -0.4718
  N  N604  1  0.631300  0.408360  0.376100  1.0  -0.312
  N  N605  1  0.435800  0.228630  0.233900  1.0  -0.3105
  N  N606  1  0.617400  0.393920  0.038000  1.0  -0.3158
  N  N607  1  0.463300  0.566180  0.372100  1.0  -0.3362
  N  N608  1  0.312800  0.592460  0.371400  1.0  -0.4641
  N  N609  1  0.320800  0.544490  0.404300  1.0  -0.467
  N  N610  1  0.589900  0.469830  0.427000  1.0  -0.2916
  N  N611  1  0.559600  0.660070  0.295900  1.0  -0.2857
  N  N612  1  0.982200  0.579980  0.444200  1.0  -0.3217
  N  N613  1  0.938200  0.670090  0.757800  1.0  -0.497
  N  N614  1  0.941200  0.674150  0.674600  1.0  -0.4614
  N  N615  1  0.904400  0.628330  0.710700  1.0  -0.4716
  N  N616  1  0.868700  0.591640  0.876100  1.0  -0.3127
  N  N617  1  0.064200  0.771370  0.733900  1.0  -0.3105
  N  N618  1  0.882600  0.606080  0.538000  1.0  -0.3164
  N  N619  1  0.036700  0.433820  0.872100  1.0  -0.3354
  N  N620  1  0.187200  0.407540  0.871400  1.0  -0.4631
  N  N621  1  0.179200  0.455510  0.904300  1.0  -0.466
  N  N622  1  0.910100  0.530170  0.927000  1.0  -0.2927
  N  N623  1  0.940400  0.339930  0.795900  1.0  -0.2854
  N  N624  1  0.517800  0.420020  0.944200  1.0  -0.3184
  N  N625  1  0.438200  0.829910  0.242200  1.0  -0.4966
  N  N626  1  0.441200  0.825850  0.325400  1.0  -0.4612
  N  N627  1  0.404400  0.871670  0.289300  1.0  -0.4719
  N  N628  1  0.368700  0.908360  0.123900  1.0  -0.3168
  N  N629  1  0.564200  0.728630  0.266100  1.0  -0.3097
  N  N630  1  0.382600  0.893920  0.462000  1.0  -0.3161
  N  N631  1  0.536700  0.066180  0.127900  1.0  -0.3356
  N  N632  1  0.687200  0.092460  0.128600  1.0  -0.4627
  N  N633  1  0.679200  0.044490  0.095700  1.0  -0.4654
  N  N634  1  0.410100  0.969830  0.073000  1.0  -0.2923
  N  N635  1  0.440400  0.160070  0.204100  1.0  -0.2864
  N  N636  1  0.017800  0.079980  0.055800  1.0  -0.3179
  N  N637  1  0.061800  0.170090  0.742200  1.0  -0.4954
  N  N638  1  0.058800  0.174150  0.825400  1.0  -0.4613
  N  N639  1  0.095600  0.128330  0.789300  1.0  -0.4715
  N  N640  1  0.131300  0.091640  0.623900  1.0  -0.3173
  N  N641  1  0.935800  0.271370  0.766100  1.0  -0.3107
  N  N642  1  0.117400  0.106080  0.962000  1.0  -0.3161
  N  N643  1  0.963300  0.933820  0.627900  1.0  -0.3363
  N  N644  1  0.812800  0.907540  0.628600  1.0  -0.4643
  N  N645  1  0.820800  0.955510  0.595700  1.0  -0.4665
  N  N646  1  0.089900  0.030170  0.573000  1.0  -0.2909
  N  N647  1  0.059600  0.839930  0.704100  1.0  -0.2856
  N  N648  1  0.482200  0.920020  0.555800  1.0  -0.3207
