# generated using pymatgen
data_Cr(C8N5)2
_symmetry_space_group_name_H-M   'P 1'
_cell_length_a   11.39660000
_cell_length_b   11.47870000
_cell_length_c   16.87750000
_cell_angle_alpha   90.00000000
_cell_angle_beta   90.00000000
_cell_angle_gamma   90.00000000
_symmetry_Int_Tables_number   1
_chemical_formula_structural   Cr(C8N5)2
_chemical_formula_sum   'Cr4 C64 N40'
_cell_volume   2207.88336747
_cell_formula_units_Z   4
loop_
 _symmetry_equiv_pos_site_id
 _symmetry_equiv_pos_as_xyz
  1  'x, y, z'
loop_
 _atom_site_type_symbol
 _atom_site_label
 _atom_site_symmetry_multiplicity
 _atom_site_fract_x
 _atom_site_fract_y
 _atom_site_fract_z
 _atom_site_occupancy
 _atom_site_charge
  Cr  Cr1  1  0.000000  0.500000  0.500000  1.0  1.2595
  Cr  Cr2  1  0.000000  0.000000  0.000000  1.0  1.2595
  Cr  Cr3  1  0.500000  0.500000  0.000000  1.0  1.2595
  Cr  Cr4  1  0.500000  0.000000  0.500000  1.0  1.2595
  C  C5  1  0.771600  0.603800  0.584800  1.0  0.458
  C  C6  1  0.634200  0.758600  0.590300  1.0  0.4267
  C  C7  1  0.706000  0.512500  0.730100  1.0  0.2789
  C  C8  1  0.548100  0.617900  0.831100  1.0  0.4548
  C  C9  1  0.499800  0.769600  0.737800  1.0  0.3534
  C  C10  1  0.682200  0.659800  0.628100  1.0  -0.3068
  C  C11  1  0.649100  0.619700  0.703300  1.0  0.1613
  C  C12  1  0.566700  0.667200  0.754700  1.0  -0.2634
  C  C13  1  0.228400  0.896200  0.084800  1.0  0.4579
  C  C14  1  0.365800  0.741400  0.090300  1.0  0.4268
  C  C15  1  0.294000  0.987500  0.230100  1.0  0.2771
  C  C16  1  0.451900  0.882100  0.331100  1.0  0.4537
  C  C17  1  0.500200  0.730400  0.237800  1.0  0.3533
  C  C18  1  0.317800  0.840200  0.128100  1.0  -0.3069
  C  C19  1  0.350900  0.880300  0.203300  1.0  0.1611
  C  C20  1  0.433300  0.832800  0.254700  1.0  -0.2638
  C  C21  1  0.271600  0.396200  0.915200  1.0  0.4577
  C  C22  1  0.134200  0.241400  0.909700  1.0  0.4271
  C  C23  1  0.206000  0.487500  0.769900  1.0  0.277
  C  C24  1  0.048100  0.382100  0.668900  1.0  0.4528
  C  C25  1  0.999800  0.230400  0.762200  1.0  0.3532
  C  C26  1  0.182200  0.340200  0.871900  1.0  -0.3064
  C  C27  1  0.149100  0.380300  0.796700  1.0  0.1607
  C  C28  1  0.066700  0.332800  0.745300  1.0  -0.2641
  C  C29  1  0.728400  0.103800  0.415200  1.0  0.4575
  C  C30  1  0.865800  0.258600  0.409700  1.0  0.4274
  C  C31  1  0.794000  0.012500  0.269900  1.0  0.2785
  C  C32  1  0.951900  0.117900  0.168900  1.0  0.4527
  C  C33  1  0.000200  0.269600  0.262200  1.0  0.3532
  C  C34  1  0.817800  0.159800  0.371900  1.0  -0.3066
  C  C35  1  0.850900  0.119700  0.296700  1.0  0.1608
  C  C36  1  0.933300  0.167200  0.245300  1.0  -0.264
  C  C37  1  0.228400  0.396200  0.415200  1.0  0.4575
  C  C38  1  0.365800  0.241400  0.409700  1.0  0.4274
  C  C39  1  0.294000  0.487500  0.269900  1.0  0.277
  C  C40  1  0.451900  0.382100  0.168900  1.0  0.452
  C  C41  1  0.500200  0.230400  0.262200  1.0  0.3534
  C  C42  1  0.317800  0.340200  0.371900  1.0  -0.3065
  C  C43  1  0.350900  0.380300  0.296700  1.0  0.1605
  C  C44  1  0.433300  0.332800  0.245300  1.0  -0.2643
  C  C45  1  0.771600  0.103800  0.915200  1.0  0.4575
  C  C46  1  0.634200  0.258600  0.909700  1.0  0.4269
  C  C47  1  0.706000  0.012500  0.769900  1.0  0.2787
  C  C48  1  0.548100  0.117900  0.668900  1.0  0.4536
  C  C49  1  0.499800  0.269600  0.762200  1.0  0.3531
  C  C50  1  0.682200  0.159800  0.871900  1.0  -0.3065
  C  C51  1  0.649100  0.119700  0.796700  1.0  0.1609
  C  C52  1  0.566700  0.167200  0.745300  1.0  -0.2638
  C  C53  1  0.728400  0.603800  0.084800  1.0  0.4577
  C  C54  1  0.865800  0.758600  0.090300  1.0  0.4271
  C  C55  1  0.794000  0.512500  0.230100  1.0  0.2787
  C  C56  1  0.951900  0.617900  0.331100  1.0  0.4542
  C  C57  1  0.000200  0.769600  0.237800  1.0  0.3532
  C  C58  1  0.817800  0.659800  0.128100  1.0  -0.307
  C  C59  1  0.850900  0.619700  0.203300  1.0  0.1612
  C  C60  1  0.933300  0.667200  0.254700  1.0  -0.2636
  C  C61  1  0.271600  0.896200  0.584800  1.0  0.4582
  C  C62  1  0.134200  0.741400  0.590300  1.0  0.4267
  C  C63  1  0.206000  0.987500  0.730100  1.0  0.277
  C  C64  1  0.048100  0.882100  0.831100  1.0  0.4544
  C  C65  1  0.999800  0.730400  0.737800  1.0  0.3532
  C  C66  1  0.182200  0.840200  0.628100  1.0  -0.3067
  C  C67  1  0.149100  0.880300  0.703300  1.0  0.1612
  C  C68  1  0.066700  0.832800  0.754700  1.0  -0.2637
  N  N69  1  0.845400  0.561500  0.548500  1.0  -0.4919
  N  N70  1  0.598300  0.837700  0.555400  1.0  -0.4743
  N  N71  1  0.748400  0.427800  0.750500  1.0  -0.3476
  N  N72  1  0.533300  0.582300  0.893230  1.0  -0.4807
  N  N73  1  0.443800  0.850400  0.726400  1.0  -0.3981
  N  N74  1  0.154600  0.938500  0.048500  1.0  -0.492
  N  N75  1  0.401700  0.662300  0.055400  1.0  -0.4718
  N  N76  1  0.251600  0.072200  0.250500  1.0  -0.3475
  N  N77  1  0.466700  0.917700  0.393230  1.0  -0.4798
  N  N78  1  0.556200  0.649600  0.226400  1.0  -0.396
  N  N79  1  0.345400  0.438500  0.951500  1.0  -0.4931
  N  N80  1  0.098300  0.162300  0.944600  1.0  -0.4728
  N  N81  1  0.248400  0.572200  0.749500  1.0  -0.3473
  N  N82  1  0.033300  0.417700  0.606770  1.0  -0.4799
  N  N83  1  0.943800  0.149600  0.773600  1.0  -0.3969
  N  N84  1  0.654600  0.061500  0.451500  1.0  -0.4914
  N  N85  1  0.901700  0.337700  0.444600  1.0  -0.4734
  N  N86  1  0.751600  0.927800  0.249500  1.0  -0.3469
  N  N87  1  0.966700  0.082300  0.106770  1.0  -0.4801
  N  N88  1  0.056200  0.350400  0.273600  1.0  -0.3968
  N  N89  1  0.154600  0.438500  0.451500  1.0  -0.492
  N  N90  1  0.401700  0.162300  0.444600  1.0  -0.4717
  N  N91  1  0.251600  0.572200  0.249500  1.0  -0.347
  N  N92  1  0.466700  0.417700  0.106770  1.0  -0.4796
  N  N93  1  0.556200  0.149600  0.273600  1.0  -0.3959
  N  N94  1  0.845400  0.061500  0.951500  1.0  -0.4921
  N  N95  1  0.598300  0.337700  0.944600  1.0  -0.4741
  N  N96  1  0.748400  0.927800  0.749500  1.0  -0.3471
  N  N97  1  0.533300  0.082300  0.606770  1.0  -0.4801
  N  N98  1  0.443800  0.350400  0.773600  1.0  -0.3978
  N  N99  1  0.654600  0.561500  0.048500  1.0  -0.4917
  N  N100  1  0.901700  0.837700  0.055400  1.0  -0.4736
  N  N101  1  0.751600  0.427800  0.250500  1.0  -0.3472
  N  N102  1  0.966700  0.582300  0.393230  1.0  -0.4808
  N  N103  1  0.056200  0.850400  0.226400  1.0  -0.3972
  N  N104  1  0.345400  0.938500  0.548500  1.0  -0.4926
  N  N105  1  0.098300  0.662300  0.555400  1.0  -0.4729
  N  N106  1  0.248400  0.072200  0.750500  1.0  -0.348
  N  N107  1  0.033300  0.917700  0.893230  1.0  -0.48
  N  N108  1  0.943800  0.649600  0.726400  1.0  -0.397
