# generated using pymatgen
data_Ce3H53C97(N4O9)2
_symmetry_space_group_name_H-M   'P 1'
_cell_length_a   11.84930000
_cell_length_b   13.96040000
_cell_length_c   34.27380000
_cell_angle_alpha   97.09610000
_cell_angle_beta   99.45430000
_cell_angle_gamma   100.10300000
_symmetry_Int_Tables_number   1
_chemical_formula_structural   Ce3H53C97(N4O9)2
_chemical_formula_sum   'Ce6 H106 C194 N16 O36'
_cell_volume   5437.70131467
_cell_formula_units_Z   2
loop_
 _symmetry_equiv_pos_site_id
 _symmetry_equiv_pos_as_xyz
  1  'x, y, z'
loop_
 _atom_site_type_symbol
 _atom_site_label
 _atom_site_symmetry_multiplicity
 _atom_site_fract_x
 _atom_site_fract_y
 _atom_site_fract_z
 _atom_site_occupancy
 _atom_site_charge
  Ce  Ce1  1  0.131670  0.957300  0.750180  1.0  2.2743
  Ce  Ce2  1  0.841320  0.092200  0.752570  1.0  2.2772
  Ce  Ce3  1  0.512810  0.986590  0.246260  1.0  2.2457
  Ce  Ce4  1  0.868330  0.042700  0.249820  1.0  2.2735
  Ce  Ce5  1  0.158680  0.907800  0.247430  1.0  2.2777
  Ce  Ce6  1  0.487190  0.013410  0.753740  1.0  2.2478
  H  H7  1  0.447600  0.451800  0.854200  1.0  0.1397
  H  H8  1  0.603900  0.593200  0.850400  1.0  0.1165
  H  H9  1  0.994400  0.789700  0.949000  1.0  0.1091
  H  H10  1  0.102700  0.770700  0.014100  1.0  0.1271
  H  H11  1  0.024900  0.532400  0.120600  1.0  0.1239
  H  H12  1  0.874600  0.389700  0.123600  1.0  0.1138
  H  H13  1  0.467500  0.204700  0.029300  1.0  0.1167
  H  H14  1  0.361700  0.225600  0.963800  1.0  0.1194
  H  H15  1  0.674700  0.514400  0.959900  1.0  0.2723
  H  H16  1  0.793900  0.476700  0.016700  1.0  0.2685
  H  H17  1  0.928200  0.643600  0.869400  1.0  0.0944
  H  H18  1  0.982500  0.748000  0.824900  1.0  0.115
  H  H19  1  0.755200  0.914500  0.855000  1.0  0.1034
  H  H20  1  0.698100  0.807100  0.898300  1.0  0.1076
  H  H21  1  0.000700  0.787500  0.091200  1.0  0.1166
  H  H22  1  0.139300  0.884400  0.143100  1.0  0.1096
  H  H23  1  0.358300  0.696800  0.128000  1.0  0.1172
  H  H24  1  0.212700  0.594900  0.078200  1.0  0.0939
  H  H25  1  0.527300  0.306000  0.101600  1.0  0.0871
  H  H26  1  0.510300  0.211900  0.152200  1.0  0.1107
  H  H27  1  0.799300  0.111700  0.133500  1.0  0.1059
  H  H28  1  0.813100  0.203800  0.081200  1.0  0.1053
  H  H29  1  0.269800  0.429900  0.902200  1.0  0.113
  H  H30  1  0.110000  0.346700  0.855000  1.0  0.093
  H  H31  1  0.269100  0.115900  0.835200  1.0  0.1068
  H  H32  1  0.430100  0.199100  0.884400  1.0  0.1053
  H  H33  1  0.026100  0.440700  0.360700  1.0  0.1139
  H  H34  1  0.183700  0.581900  0.359600  1.0  0.1345
  H  H35  1  0.528400  0.809700  0.470500  1.0  0.1176
  H  H36  1  0.612600  0.800000  0.540800  1.0  0.1155
  H  H37  1  0.519200  0.561300  0.644700  1.0  0.1297
  H  H38  1  0.360300  0.419000  0.645800  1.0  0.131
  H  H39  1  0.968000  0.236000  0.543700  1.0  0.1189
  H  H40  1  0.881900  0.246400  0.473700  1.0  0.125
  H  H41  1  0.208000  0.526100  0.473500  1.0  0.2703
  H  H42  1  0.304000  0.501700  0.536100  1.0  0.2689
  H  H43  1  0.203500  0.777500  0.398300  1.0  0.0908
  H  H44  1  0.238600  0.873100  0.349400  1.0  0.1134
  H  H45  1  0.556300  0.802900  0.355300  1.0  0.0933
  H  H46  1  0.516100  0.697600  0.400700  1.0  0.1105
  H  H47  1  0.510200  0.802400  0.625200  1.0  0.1109
  H  H48  1  0.664600  0.894300  0.674300  1.0  0.0982
  H  H49  1  0.871000  0.712300  0.641600  1.0  0.0978
  H  H50  1  0.717500  0.622300  0.592100  1.0  0.0938
  H  H51  1  0.039300  0.379800  0.622300  1.0  0.0859
  H  H52  1  0.977100  0.284300  0.667900  1.0  0.1183
  H  H53  1  0.207200  0.111300  0.645800  1.0  0.1037
  H  H54  1  0.265500  0.207100  0.598500  1.0  0.1084
  H  H55  1  0.817100  0.420500  0.396300  1.0  0.0912
  H  H56  1  0.680000  0.323100  0.344700  1.0  0.1188
  H  H57  1  0.861400  0.100900  0.351900  1.0  0.118
  H  H58  1  0.990200  0.197900  0.406700  1.0  0.1129
  H  H59  1  0.318700  0.238600  0.756400  1.0  0.1042
  H  H60  1  0.552400  0.548200  0.145800  1.0  0.1393
  H  H61  1  0.396100  0.406800  0.149600  1.0  0.1162
  H  H62  1  0.005600  0.210300  0.051000  1.0  0.1079
  H  H63  1  0.897300  0.229300  0.985900  1.0  0.1262
  H  H64  1  0.975100  0.467600  0.879400  1.0  0.1245
  H  H65  1  0.125400  0.610300  0.876400  1.0  0.1139
  H  H66  1  0.532500  0.795300  0.970700  1.0  0.1178
  H  H67  1  0.638300  0.774400  0.036200  1.0  0.1207
  H  H68  1  0.325300  0.485600  0.040100  1.0  0.2722
  H  H69  1  0.206100  0.523300  0.983300  1.0  0.2676
  H  H70  1  0.071800  0.356400  0.130600  1.0  0.0948
  H  H71  1  0.017500  0.252000  0.175100  1.0  0.1153
  H  H72  1  0.244800  0.085500  0.145000  1.0  0.1033
  H  H73  1  0.301900  0.192900  0.101700  1.0  0.1066
  H  H74  1  0.999300  0.212500  0.908800  1.0  0.1159
  H  H75  1  0.860700  0.115600  0.856900  1.0  0.1102
  H  H76  1  0.641700  0.303200  0.872000  1.0  0.1164
  H  H77  1  0.787300  0.405100  0.921800  1.0  0.0932
  H  H78  1  0.472700  0.694000  0.898400  1.0  0.0877
  H  H79  1  0.489700  0.788100  0.847800  1.0  0.1103
  H  H80  1  0.200700  0.888300  0.866500  1.0  0.106
  H  H81  1  0.186900  0.796200  0.918800  1.0  0.1056
  H  H82  1  0.730200  0.570100  0.097800  1.0  0.1132
  H  H83  1  0.890000  0.653300  0.145000  1.0  0.0935
  H  H84  1  0.730900  0.884100  0.164800  1.0  0.1065
  H  H85  1  0.569900  0.800900  0.115600  1.0  0.1053
  H  H86  1  0.973900  0.559300  0.639300  1.0  0.113
  H  H87  1  0.816300  0.418100  0.640400  1.0  0.1342
  H  H88  1  0.471600  0.190300  0.529500  1.0  0.1165
  H  H89  1  0.387400  0.200000  0.459200  1.0  0.1146
  H  H90  1  0.480800  0.438700  0.355300  1.0  0.1299
  H  H91  1  0.639700  0.581000  0.354200  1.0  0.1315
  H  H92  1  0.032000  0.764000  0.456300  1.0  0.1205
  H  H93  1  0.118100  0.753600  0.526300  1.0  0.1283
  H  H94  1  0.792000  0.473900  0.526500  1.0  0.2716
  H  H95  1  0.696000  0.498300  0.463900  1.0  0.2685
  H  H96  1  0.796500  0.222500  0.601700  1.0  0.0914
  H  H97  1  0.761400  0.126900  0.650600  1.0  0.1136
  H  H98  1  0.443700  0.197100  0.644700  1.0  0.0939
  H  H99  1  0.483900  0.302400  0.599300  1.0  0.1093
  H  H100  1  0.489800  0.197600  0.374800  1.0  0.1101
  H  H101  1  0.335400  0.105700  0.325700  1.0  0.0983
  H  H102  1  0.129000  0.287700  0.358400  1.0  0.0975
  H  H103  1  0.282500  0.377700  0.407900  1.0  0.0939
  H  H104  1  0.960700  0.620200  0.377700  1.0  0.0856
  H  H105  1  0.022900  0.715700  0.332100  1.0  0.118
  H  H106  1  0.792800  0.888700  0.354200  1.0  0.1042
  H  H107  1  0.734500  0.792900  0.401500  1.0  0.1087
  H  H108  1  0.182900  0.579500  0.603700  1.0  0.0912
  H  H109  1  0.320000  0.676900  0.655300  1.0  0.1181
  H  H110  1  0.138600  0.899100  0.648100  1.0  0.1182
  H  H111  1  0.009800  0.802100  0.593300  1.0  0.1121
  H  H112  1  0.681300  0.761400  0.243600  1.0  0.1025
  C  C113  1  0.541000  0.455800  0.913980  1.0  0.1793
  C  C114  1  0.512800  0.482200  0.874590  1.0  -0.1789
  C  C115  1  0.598300  0.559300  0.872600  1.0  -0.1771
  C  C116  1  0.679500  0.580200  0.910700  1.0  0.1732
  C  C117  1  0.781800  0.651700  0.919380  1.0  -0.0691
  C  C118  1  0.868200  0.666400  0.953900  1.0  0.1583
  C  C119  1  0.971100  0.740800  0.964650  1.0  -0.1385
  C  C120  1  0.030100  0.731200  0.000400  1.0  -0.166
  C  C121  1  0.963100  0.649900  0.014170  1.0  0.1954
  C  C122  1  0.992700  0.615600  0.050460  1.0  -0.0864
  C  C123  1  0.929100  0.532900  0.062040  1.0  0.1807
  C  C124  1  0.959100  0.502800  0.100260  1.0  -0.1874
  C  C125  1  0.877400  0.425600  0.101810  1.0  -0.1834
  C  C126  1  0.794000  0.405900  0.064740  1.0  0.1521
  C  C127  1  0.689800  0.334400  0.056320  1.0  -0.0456
  C  C128  1  0.601000  0.322200  0.022830  1.0  0.1399
  C  C129  1  0.493500  0.251700  0.013250  1.0  -0.1567
  C  C130  1  0.435300  0.263600  0.977480  1.0  -0.1727
  C  C131  1  0.503400  0.343400  0.963530  1.0  0.1998
  C  C132  1  0.474800  0.378000  0.927180  1.0  -0.0832
  C  C133  1  0.809400  0.715700  0.889070  1.0  0.0935
  C  C134  1  0.892500  0.698900  0.866600  1.0  -0.106
  C  C135  1  0.925000  0.760900  0.840030  1.0  -0.0464
  C  C136  1  0.873700  0.841900  0.835450  1.0  -0.1443
  C  C137  1  0.790400  0.858900  0.857620  1.0  -0.0436
  C  C138  1  0.757400  0.795400  0.883810  1.0  -0.1404
  C  C139  1  0.914600  0.910000  0.808320  1.0  0.7539
  C  C140  1  0.090200  0.679800  0.080790  1.0  0.0491
  C  C141  1  0.072000  0.767100  0.099490  1.0  -0.1251
  C  C142  1  0.154700  0.825500  0.129910  1.0  -0.0693
  C  C143  1  0.260800  0.798000  0.141280  1.0  -0.0857
  C  C144  1  0.284100  0.713800  0.121360  1.0  -0.0548
  C  C145  1  0.197800  0.653900  0.091430  1.0  -0.0957
  C  C146  1  0.349200  0.861100  0.175930  1.0  0.7087
  C  C147  1  0.672500  0.267400  0.087020  1.0  0.0399
  C  C148  1  0.583500  0.266700  0.108070  1.0  -0.119
  C  C149  1  0.573100  0.211000  0.138210  1.0  -0.0707
  C  C150  1  0.654100  0.153900  0.148050  1.0  -0.1617
  C  C151  1  0.743700  0.151400  0.126950  1.0  -0.0322
  C  C152  1  0.752600  0.206900  0.096100  1.0  -0.1135
  C  C153  1  0.651100  0.096600  0.181800  1.0  0.7383
  C  C154  1  0.367500  0.321800  0.898260  1.0  0.0412
  C  C155  1  0.269900  0.366000  0.888850  1.0  -0.1249
  C  C156  1  0.175900  0.317000  0.860610  1.0  -0.0264
  C  C157  1  0.174100  0.223900  0.839700  1.0  -0.1371
  C  C158  1  0.269100  0.179500  0.848760  1.0  -0.0703
  C  C159  1  0.365100  0.229600  0.878200  1.0  -0.1055
  C  C160  1  0.071300  0.175600  0.807740  1.0  0.6928
  C  C161  1  0.090900  0.459100  0.424180  1.0  0.1844
  C  C162  1  0.082100  0.476700  0.383070  1.0  -0.1894
  C  C163  1  0.167700  0.553500  0.382440  1.0  -0.195
  C  C164  1  0.231200  0.584400  0.423450  1.0  0.1756
  C  C165  1  0.326600  0.661300  0.434630  1.0  -0.0757
  C  C166  1  0.401000  0.682600  0.472040  1.0  0.1459
  C  C167  1  0.500000  0.761500  0.485760  1.0  -0.1587
  C  C168  1  0.546800  0.756000  0.524440  1.0  -0.1715
  C  C169  1  0.479600  0.672800  0.535910  1.0  0.1448
  C  C170  1  0.499000  0.642600  0.573350  1.0  -0.0847
  C  C171  1  0.431700  0.560400  0.584200  1.0  0.1505
  C  C172  1  0.455600  0.531600  0.623500  1.0  -0.1729
  C  C173  1  0.369500  0.453900  0.624050  1.0  -0.1809
  C  C174  1  0.293800  0.434400  0.584580  1.0  0.1721
  C  C175  1  0.190700  0.363400  0.574370  1.0  -0.0867
  C  C176  1  0.109800  0.349100  0.538560  1.0  0.1399
  C  C177  1  0.000900  0.278900  0.527310  1.0  -0.1682
  C  C178  1  0.953300  0.285100  0.488850  1.0  -0.1782
  C  C179  1  0.028800  0.359300  0.475310  1.0  0.1635
  C  C180  1  0.016600  0.384800  0.437000  1.0  -0.0716
  C  C181  1  0.353800  0.726700  0.404750  1.0  0.074
  C  C182  1  0.275000  0.780700  0.388950  1.0  -0.0851
  C  C183  1  0.296100  0.838900  0.360210  1.0  -0.1176
  C  C184  1  0.401600  0.847300  0.347130  1.0  -0.1395
  C  C185  1  0.482800  0.795700  0.363440  1.0  -0.0269
  C  C186  1  0.460200  0.734400  0.391040  1.0  -0.1749
  C  C187  1  0.430900  0.910100  0.317070  1.0  0.6931
  C  C188  1  0.598300  0.701500  0.603610  1.0  0.0765
  C  C189  1  0.584000  0.783600  0.628250  1.0  -0.1339
  C  C190  1  0.676500  0.838900  0.657520  1.0  -0.0517
  C  C191  1  0.783600  0.814100  0.662260  1.0  -0.1337
  C  C192  1  0.797700  0.732000  0.638200  1.0  -0.0603
  C  C193  1  0.705200  0.677500  0.608820  1.0  -0.1368
  C  C194  1  0.884900  0.871500  0.693480  1.0  0.7134
  C  C195  1  0.156500  0.302300  0.605370  1.0  0.0791
  C  C196  1  0.072800  0.324200  0.626700  1.0  -0.0794
  C  C197  1  0.036400  0.268300  0.654110  1.0  -0.1066
  C  C198  1  0.086200  0.188600  0.661680  1.0  -0.1384
  C  C199  1  0.172200  0.166000  0.640770  1.0  -0.0545
  C  C200  1  0.207000  0.222900  0.612650  1.0  -0.152
  C  C201  1  0.045100  0.126700  0.690800  1.0  0.7264
  C  C202  1  0.920000  0.319800  0.406160  1.0  0.0747
  C  C203  1  0.825300  0.355300  0.387460  1.0  -0.0889
  C  C204  1  0.744500  0.298000  0.356760  1.0  -0.0539
  C  C205  1  0.756500  0.201600  0.342790  1.0  -0.1176
  C  C206  1  0.851000  0.165100  0.361220  1.0  -0.0951
  C  C207  1  0.928700  0.224000  0.393190  1.0  -0.0945
  C  C208  1  0.676400  0.138600  0.307100  1.0  0.7313
  C  C209  1  0.362100  0.187400  0.757000  1.0  0.5746
  C  C210  1  0.459000  0.544200  0.086020  1.0  0.1796
  C  C211  1  0.487200  0.517800  0.125410  1.0  -0.1788
  C  C212  1  0.401700  0.440700  0.127400  1.0  -0.1755
  C  C213  1  0.320500  0.419800  0.089300  1.0  0.1733
  C  C214  1  0.218200  0.348300  0.080620  1.0  -0.0694
  C  C215  1  0.131800  0.333600  0.046100  1.0  0.1593
  C  C216  1  0.028900  0.259200  0.035350  1.0  -0.1396
  C  C217  1  0.969900  0.268800  0.999600  1.0  -0.1667
  C  C218  1  0.036900  0.350100  0.985830  1.0  0.1949
  C  C219  1  0.007300  0.384400  0.949540  1.0  -0.0872
  C  C220  1  0.070900  0.467100  0.937960  1.0  0.1801
  C  C221  1  0.040900  0.497200  0.899740  1.0  -0.1869
  C  C222  1  0.122600  0.574400  0.898190  1.0  -0.1817
  C  C223  1  0.206000  0.594100  0.935260  1.0  0.1526
  C  C224  1  0.310200  0.665600  0.943680  1.0  -0.0458
  C  C225  1  0.399000  0.677800  0.977170  1.0  0.1406
  C  C226  1  0.506500  0.748300  0.986750  1.0  -0.1592
  C  C227  1  0.564700  0.736400  0.022520  1.0  -0.1707
  C  C228  1  0.496600  0.656600  0.036470  1.0  0.2002
  C  C229  1  0.525200  0.622000  0.072820  1.0  -0.0834
  C  C230  1  0.190600  0.284300  0.110930  1.0  0.0955
  C  C231  1  0.107500  0.301100  0.133400  1.0  -0.106
  C  C232  1  0.075000  0.239100  0.159970  1.0  -0.0473
  C  C233  1  0.126300  0.158100  0.164550  1.0  -0.144
  C  C234  1  0.209600  0.141100  0.142380  1.0  -0.0457
  C  C235  1  0.242600  0.204600  0.116190  1.0  -0.1401
  C  C236  1  0.085400  0.090000  0.191680  1.0  0.753
  C  C237  1  0.909800  0.320200  0.919210  1.0  0.0483
  C  C238  1  0.928000  0.232900  0.900510  1.0  -0.1277
  C  C239  1  0.845300  0.174500  0.870090  1.0  -0.07
  C  C240  1  0.739200  0.202000  0.858720  1.0  -0.087
  C  C241  1  0.715900  0.286200  0.878640  1.0  -0.0548
  C  C242  1  0.802200  0.346100  0.908570  1.0  -0.0953
  C  C243  1  0.650800  0.138900  0.824070  1.0  0.71
  C  C244  1  0.327500  0.732600  0.912980  1.0  0.0399
  C  C245  1  0.416500  0.733300  0.891930  1.0  -0.1187
  C  C246  1  0.426900  0.789000  0.861790  1.0  -0.0702
  C  C247  1  0.345900  0.846100  0.851950  1.0  -0.1639
  C  C248  1  0.256300  0.848600  0.873050  1.0  -0.0344
  C  C249  1  0.247400  0.793100  0.903900  1.0  -0.1128
  C  C250  1  0.348900  0.903400  0.818200  1.0  0.7361
  C  C251  1  0.632500  0.678200  0.101740  1.0  0.0411
  C  C252  1  0.730100  0.634000  0.111150  1.0  -0.1254
  C  C253  1  0.824100  0.683000  0.139390  1.0  -0.0281
  C  C254  1  0.825900  0.776100  0.160300  1.0  -0.137
  C  C255  1  0.730900  0.820500  0.151240  1.0  -0.0715
  C  C256  1  0.634900  0.770400  0.121800  1.0  -0.1056
  C  C257  1  0.928700  0.824400  0.192260  1.0  0.6942
  C  C258  1  0.909100  0.540900  0.575820  1.0  0.1855
  C  C259  1  0.917900  0.523300  0.616930  1.0  -0.1874
  C  C260  1  0.832300  0.446500  0.617560  1.0  -0.1947
  C  C261  1  0.768800  0.415600  0.576550  1.0  0.1751
  C  C262  1  0.673400  0.338700  0.565370  1.0  -0.0766
  C  C263  1  0.599000  0.317400  0.527960  1.0  0.1463
  C  C264  1  0.500000  0.238500  0.514240  1.0  -0.1584
  C  C265  1  0.453200  0.244000  0.475560  1.0  -0.1702
  C  C266  1  0.520400  0.327200  0.464090  1.0  0.1435
  C  C267  1  0.501000  0.357400  0.426650  1.0  -0.0853
  C  C268  1  0.568300  0.439600  0.415800  1.0  0.1504
  C  C269  1  0.544400  0.468400  0.376500  1.0  -0.1731
  C  C270  1  0.630500  0.546100  0.375950  1.0  -0.1791
  C  C271  1  0.706200  0.565600  0.415420  1.0  0.1723
  C  C272  1  0.809300  0.636600  0.425630  1.0  -0.0872
  C  C273  1  0.890200  0.650900  0.461440  1.0  0.1395
  C  C274  1  0.999100  0.721100  0.472690  1.0  -0.1673
  C  C275  1  0.046700  0.714900  0.511150  1.0  -0.177
  C  C276  1  0.971200  0.640700  0.524690  1.0  0.1643
  C  C277  1  0.983400  0.615200  0.563000  1.0  -0.0716
  C  C278  1  0.646200  0.273300  0.595250  1.0  0.0739
  C  C279  1  0.725000  0.219300  0.611050  1.0  -0.0863
  C  C280  1  0.703900  0.161100  0.639790  1.0  -0.1176
  C  C281  1  0.598400  0.152700  0.652870  1.0  -0.141
  C  C282  1  0.517200  0.204300  0.636560  1.0  -0.0274
  C  C283  1  0.539800  0.265600  0.608960  1.0  -0.1753
  C  C284  1  0.569100  0.089900  0.682930  1.0  0.6938
  C  C285  1  0.401700  0.298500  0.396390  1.0  0.0766
  C  C286  1  0.416000  0.216400  0.371750  1.0  -0.1335
  C  C287  1  0.323500  0.161100  0.342480  1.0  -0.0507
  C  C288  1  0.216400  0.185900  0.337740  1.0  -0.1349
  C  C289  1  0.202300  0.268000  0.361800  1.0  -0.0586
  C  C290  1  0.294800  0.322500  0.391180  1.0  -0.1363
  C  C291  1  0.115100  0.128500  0.306520  1.0  0.7146
  C  C292  1  0.843500  0.697700  0.394630  1.0  0.079
  C  C293  1  0.927200  0.675800  0.373300  1.0  -0.0806
  C  C294  1  0.963600  0.731700  0.345890  1.0  -0.1054
  C  C295  1  0.913800  0.811400  0.338320  1.0  -0.1381
  C  C296  1  0.827800  0.834000  0.359230  1.0  -0.0543
  C  C297  1  0.793000  0.777100  0.387350  1.0  -0.152
  C  C298  1  0.954900  0.873300  0.309200  1.0  0.7274
  C  C299  1  0.080000  0.680200  0.593840  1.0  0.0747
  C  C300  1  0.174700  0.644700  0.612540  1.0  -0.0894
  C  C301  1  0.255500  0.702000  0.643240  1.0  -0.0539
  C  C302  1  0.243500  0.798400  0.657210  1.0  -0.1172
  C  C303  1  0.149000  0.834900  0.638780  1.0  -0.0949
  C  C304  1  0.071300  0.776000  0.606810  1.0  -0.0939
  C  C305  1  0.323600  0.861400  0.692900  1.0  0.7317
  C  C306  1  0.637900  0.812600  0.243000  1.0  0.5787
  N  N307  1  0.641100  0.516200  0.935220  1.0  -0.272
  N  N308  1  0.866000  0.611500  0.985220  1.0  -0.3826
  N  N309  1  0.829300  0.473100  0.041010  1.0  -0.2715
  N  N310  1  0.603100  0.377800  0.991940  1.0  -0.371
  N  N311  1  0.183400  0.523700  0.447630  1.0  -0.2566
  N  N312  1  0.390100  0.630800  0.503900  1.0  -0.3518
  N  N313  1  0.334400  0.499400  0.561160  1.0  -0.273
  N  N314  1  0.123900  0.397300  0.506240  1.0  -0.3694
  N  N315  1  0.358900  0.483800  0.064780  1.0  -0.2741
  N  N316  1  0.134000  0.388500  0.014780  1.0  -0.3815
  N  N317  1  0.170700  0.526900  0.958990  1.0  -0.2694
  N  N318  1  0.396900  0.622200  0.008060  1.0  -0.3737
  N  N319  1  0.816600  0.476300  0.552370  1.0  -0.2575
  N  N320  1  0.609900  0.369200  0.496100  1.0  -0.349
  N  N321  1  0.665600  0.500600  0.438840  1.0  -0.2713
  N  N322  1  0.876100  0.602700  0.493760  1.0  -0.3731
  O  O323  1  0.997600  0.891800  0.791590  1.0  -0.7361
  O  O324  1  0.860300  0.979100  0.802410  1.0  -0.6965
  O  O325  1  0.311500  0.892700  0.206290  1.0  -0.8147
  O  O326  1  0.454100  0.882900  0.173650  1.0  -0.6188
  O  O327  1  0.568600  0.101300  0.200980  1.0  -0.6651
  O  O328  1  0.728100  0.049200  0.191060  1.0  -0.6871
  O  O329  1  0.983600  0.215700  0.803620  1.0  -0.6747
  O  O330  1  0.073400  0.096500  0.785510  1.0  -0.8406
  O  O331  1  0.350500  0.934800  0.293050  1.0  -0.7961
  O  O332  1  0.537300  0.940300  0.315700  1.0  -0.6892
  O  O333  1  0.868000  0.947000  0.714870  1.0  -0.7936
  O  O334  1  0.980800  0.842900  0.698300  1.0  -0.6831
  O  O335  1  0.094100  0.055800  0.697550  1.0  -0.7368
  O  O336  1  0.962300  0.149300  0.706980  1.0  -0.6978
  O  O337  1  0.572300  0.151400  0.297400  1.0  -0.6953
  O  O338  1  0.713300  0.075500  0.286000  1.0  -0.7445
  O  O339  1  0.315300  0.099100  0.759890  1.0  -0.7351
  O  O340  1  0.474200  0.203300  0.754850  1.0  -0.6546
  O  O341  1  0.002400  0.108200  0.208410  1.0  -0.7345
  O  O342  1  0.139700  0.020900  0.197590  1.0  -0.6969
  O  O343  1  0.688500  0.107300  0.793710  1.0  -0.8143
  O  O344  1  0.545900  0.117100  0.826350  1.0  -0.6162
  O  O345  1  0.431400  0.898700  0.799020  1.0  -0.6681
  O  O346  1  0.271900  0.950800  0.808940  1.0  -0.6873
  O  O347  1  0.016400  0.784300  0.196380  1.0  -0.6757
  O  O348  1  0.926600  0.903500  0.214490  1.0  -0.8429
  O  O349  1  0.649500  0.065200  0.706950  1.0  -0.7963
  O  O350  1  0.462700  0.059700  0.684300  1.0  -0.6889
  O  O351  1  0.132000  0.053000  0.285130  1.0  -0.7914
  O  O352  1  0.019200  0.157100  0.301700  1.0  -0.6818
  O  O353  1  0.905900  0.944200  0.302450  1.0  -0.7365
  O  O354  1  0.037700  0.850700  0.293020  1.0  -0.7003
  O  O355  1  0.427700  0.848600  0.702600  1.0  -0.6968
  O  O356  1  0.286700  0.924500  0.714000  1.0  -0.7435
  O  O357  1  0.684700  0.900900  0.240110  1.0  -0.7348
  O  O358  1  0.525800  0.796700  0.245150  1.0  -0.6543
