# generated using pymatgen
data_CoH3(CO2)3
_symmetry_space_group_name_H-M   'P 1'
_cell_length_a   7.94350000
_cell_length_b   13.83390000
_cell_length_c   7.30160000
_cell_angle_alpha   90.00000000
_cell_angle_beta   90.00000000
_cell_angle_gamma   90.00000000
_symmetry_Int_Tables_number   1
_chemical_formula_structural   CoH3(CO2)3
_chemical_formula_sum   'Co4 H12 C12 O24'
_cell_volume   802.36979128
_cell_formula_units_Z   4
loop_
 _symmetry_equiv_pos_site_id
 _symmetry_equiv_pos_as_xyz
  1  'x, y, z'
loop_
 _atom_site_type_symbol
 _atom_site_label
 _atom_site_symmetry_multiplicity
 _atom_site_fract_x
 _atom_site_fract_y
 _atom_site_fract_z
 _atom_site_occupancy
 _atom_site_charge
  Co  Co1  1  0.219190  0.335410  0.759690  1.0  1.0599
  Co  Co2  1  0.280810  0.664590  0.259690  1.0  1.06
  Co  Co3  1  0.780810  0.835410  0.740310  1.0  1.0601
  Co  Co4  1  0.719190  0.164590  0.240310  1.0  1.06
  H  H5  1  0.934200  0.295600  0.480200  1.0  0.0754
  H  H6  1  0.503800  0.273200  0.991200  1.0  0.0915
  H  H7  1  0.310700  0.491800  0.494700  1.0  0.0854
  H  H8  1  0.565800  0.704400  0.980200  1.0  0.0762
  H  H9  1  0.996200  0.726800  0.491200  1.0  0.0915
  H  H10  1  0.189300  0.508200  0.994700  1.0  0.0852
  H  H11  1  0.065800  0.795600  0.019800  1.0  0.0759
  H  H12  1  0.496200  0.773200  0.508800  1.0  0.0914
  H  H13  1  0.689300  0.991800  0.005300  1.0  0.0854
  H  H14  1  0.434200  0.204400  0.519800  1.0  0.0758
  H  H15  1  0.003800  0.226800  0.008800  1.0  0.0917
  H  H16  1  0.810700  0.008200  0.505300  1.0  0.0851
  C  C17  1  0.984400  0.234050  0.498700  1.0  0.6977
  C  C18  1  0.442800  0.214120  0.991000  1.0  0.7006
  C  C19  1  0.194100  0.505010  0.509400  1.0  0.7165
  C  C20  1  0.515600  0.765950  0.998700  1.0  0.698
  C  C21  1  0.057200  0.785880  0.491000  1.0  0.701
  C  C22  1  0.305900  0.494990  0.009400  1.0  0.7161
  C  C23  1  0.015600  0.734050  0.001300  1.0  0.6954
  C  C24  1  0.557200  0.714120  0.509000  1.0  0.7013
  C  C25  1  0.805900  0.005010  0.990600  1.0  0.7159
  C  C26  1  0.484400  0.265950  0.501300  1.0  0.6957
  C  C27  1  0.942800  0.285880  0.009000  1.0  0.7005
  C  C28  1  0.694100  0.994990  0.490600  1.0  0.7153
  O  O29  1  0.104510  0.228480  0.608390  1.0  -0.5753
  O  O30  1  0.925710  0.163840  0.411390  1.0  -0.5655
  O  O31  1  0.306740  0.211470  0.902910  1.0  -0.5798
  O  O32  1  0.503410  0.144500  0.078310  1.0  -0.576
  O  O33  1  0.111680  0.453140  0.619600  1.0  -0.5739
  O  O34  1  0.132010  0.572730  0.418220  1.0  -0.5544
  O  O35  1  0.395490  0.771520  0.108390  1.0  -0.5743
  O  O36  1  0.574290  0.836160  0.911390  1.0  -0.566
  O  O37  1  0.193260  0.788530  0.402910  1.0  -0.5808
  O  O38  1  0.996590  0.855500  0.578310  1.0  -0.5762
  O  O39  1  0.388320  0.546860  0.119600  1.0  -0.575
  O  O40  1  0.367990  0.427270  0.918220  1.0  -0.5546
  O  O41  1  0.895490  0.728480  0.891610  1.0  -0.5755
  O  O42  1  0.074290  0.663840  0.088610  1.0  -0.5661
  O  O43  1  0.693260  0.711470  0.597090  1.0  -0.5802
  O  O44  1  0.496590  0.644500  0.421690  1.0  -0.5762
  O  O45  1  0.888320  0.953140  0.880400  1.0  -0.5744
  O  O46  1  0.867990  0.072730  0.081780  1.0  -0.555
  O  O47  1  0.604510  0.271520  0.391610  1.0  -0.5754
  O  O48  1  0.425710  0.336160  0.588610  1.0  -0.5659
  O  O49  1  0.806740  0.288530  0.097090  1.0  -0.5795
  O  O50  1  0.003410  0.355500  0.921690  1.0  -0.5755
  O  O51  1  0.611680  0.046860  0.380400  1.0  -0.5739
  O  O52  1  0.632010  0.927270  0.581780  1.0  -0.5546
