# generated using pymatgen
data_CoH3(CO2)3
_symmetry_space_group_name_H-M   'P 1'
_cell_length_a   7.93410000
_cell_length_b   13.86970000
_cell_length_c   7.33610000
_cell_angle_alpha   90.00000000
_cell_angle_beta   90.00000000
_cell_angle_gamma   90.00000000
_symmetry_Int_Tables_number   1
_chemical_formula_structural   CoH3(CO2)3
_chemical_formula_sum   'Co4 H12 C12 O24'
_cell_volume   807.29075690
_cell_formula_units_Z   4
loop_
 _symmetry_equiv_pos_site_id
 _symmetry_equiv_pos_as_xyz
  1  'x, y, z'
loop_
 _atom_site_type_symbol
 _atom_site_label
 _atom_site_symmetry_multiplicity
 _atom_site_fract_x
 _atom_site_fract_y
 _atom_site_fract_z
 _atom_site_occupancy
 _atom_site_charge
  Co  Co1  1  0.223060  0.335450  0.758870  1.0  1.0607
  Co  Co2  1  0.276940  0.664550  0.258870  1.0  1.0608
  Co  Co3  1  0.776940  0.835450  0.741130  1.0  1.0608
  Co  Co4  1  0.723060  0.164550  0.241130  1.0  1.0607
  H  H5  1  0.940600  0.293200  0.478800  1.0  0.0498
  H  H6  1  0.501700  0.273400  0.999400  1.0  0.0553
  H  H7  1  0.305600  0.491000  0.490300  1.0  0.0512
  H  H8  1  0.559400  0.706800  0.978800  1.0  0.0496
  H  H9  1  0.998300  0.726600  0.499400  1.0  0.055
  H  H10  1  0.194400  0.509000  0.990300  1.0  0.0505
  H  H11  1  0.059400  0.793200  0.021200  1.0  0.0496
  H  H12  1  0.498300  0.773400  0.500600  1.0  0.0549
  H  H13  1  0.694400  0.991000  0.009700  1.0  0.0506
  H  H14  1  0.440600  0.206800  0.521200  1.0  0.0497
  H  H15  1  0.001700  0.226600  0.000600  1.0  0.0548
  H  H16  1  0.805600  0.009000  0.509700  1.0  0.0508
  C  C17  1  0.988900  0.232980  0.498700  1.0  0.7335
  C  C18  1  0.445200  0.214760  0.993300  1.0  0.7215
  C  C19  1  0.191700  0.504140  0.507300  1.0  0.7314
  C  C20  1  0.511100  0.767020  0.998700  1.0  0.7326
  C  C21  1  0.054800  0.785240  0.493300  1.0  0.722
  C  C22  1  0.308300  0.495860  0.007300  1.0  0.7321
  C  C23  1  0.011100  0.732980  0.001300  1.0  0.73
  C  C24  1  0.554800  0.714760  0.506700  1.0  0.7218
  C  C25  1  0.808300  0.004140  0.992700  1.0  0.732
  C  C26  1  0.488900  0.267020  0.501300  1.0  0.7311
  C  C27  1  0.945200  0.285240  0.006700  1.0  0.7217
  C  C28  1  0.691700  0.995860  0.492700  1.0  0.7311
  O  O29  1  0.107200  0.228710  0.608300  1.0  -0.5755
  O  O30  1  0.929300  0.163910  0.413300  1.0  -0.5624
  O  O31  1  0.312800  0.212600  0.901400  1.0  -0.5759
  O  O32  1  0.508400  0.146260  0.077100  1.0  -0.5576
  O  O33  1  0.113300  0.452270  0.617800  1.0  -0.567
  O  O34  1  0.130600  0.571520  0.418500  1.0  -0.5601
  O  O35  1  0.392800  0.771290  0.108300  1.0  -0.574
  O  O36  1  0.570700  0.836090  0.913300  1.0  -0.5634
  O  O37  1  0.187200  0.787400  0.401400  1.0  -0.5777
  O  O38  1  0.991600  0.853740  0.577100  1.0  -0.5594
  O  O39  1  0.386700  0.547730  0.117800  1.0  -0.5678
  O  O40  1  0.369400  0.428480  0.918500  1.0  -0.5612
  O  O41  1  0.892800  0.728710  0.891700  1.0  -0.5755
  O  O42  1  0.070700  0.663910  0.086700  1.0  -0.5627
  O  O43  1  0.687200  0.712600  0.598600  1.0  -0.5763
  O  O44  1  0.491600  0.646260  0.422900  1.0  -0.5599
  O  O45  1  0.886700  0.952270  0.882200  1.0  -0.5676
  O  O46  1  0.869400  0.071520  0.081500  1.0  -0.5612
  O  O47  1  0.607200  0.271290  0.391700  1.0  -0.5759
  O  O48  1  0.429300  0.336090  0.586700  1.0  -0.5633
  O  O49  1  0.812800  0.287400  0.098600  1.0  -0.5768
  O  O50  1  0.008400  0.353740  0.922900  1.0  -0.558
  O  O51  1  0.613300  0.047730  0.382200  1.0  -0.5671
  O  O52  1  0.630600  0.928480  0.581500  1.0  -0.5596
