# generated using pymatgen
data_CoH3(CO2)3
_symmetry_space_group_name_H-M   'P 1'
_cell_length_a   7.94150000
_cell_length_b   13.84600000
_cell_length_c   7.31030000
_cell_angle_alpha   90.00000000
_cell_angle_beta   90.00000000
_cell_angle_gamma   90.00000000
_symmetry_Int_Tables_number   1
_chemical_formula_structural   CoH3(CO2)3
_chemical_formula_sum   'Co4 H12 C12 O24'
_cell_volume   803.82603319
_cell_formula_units_Z   4
loop_
 _symmetry_equiv_pos_site_id
 _symmetry_equiv_pos_as_xyz
  1  'x, y, z'
loop_
 _atom_site_type_symbol
 _atom_site_label
 _atom_site_symmetry_multiplicity
 _atom_site_fract_x
 _atom_site_fract_y
 _atom_site_fract_z
 _atom_site_occupancy
 _atom_site_charge
  Co  Co1  1  0.220600  0.335450  0.759410  1.0  1.0559
  Co  Co2  1  0.279400  0.664550  0.259410  1.0  1.0556
  Co  Co3  1  0.779400  0.835450  0.740590  1.0  1.0557
  Co  Co4  1  0.720600  0.164550  0.240590  1.0  1.0558
  H  H5  1  0.936100  0.295200  0.479100  1.0  0.0702
  H  H6  1  0.503200  0.273700  0.994100  1.0  0.0713
  H  H7  1  0.309600  0.490900  0.492600  1.0  0.0819
  H  H8  1  0.563900  0.704800  0.979100  1.0  0.071
  H  H9  1  0.996800  0.726300  0.494100  1.0  0.0715
  H  H10  1  0.190400  0.509100  0.992600  1.0  0.0811
  H  H11  1  0.063900  0.795200  0.020900  1.0  0.0706
  H  H12  1  0.496800  0.773700  0.505900  1.0  0.0714
  H  H13  1  0.690400  0.990900  0.007400  1.0  0.0812
  H  H14  1  0.436100  0.204800  0.520900  1.0  0.0707
  H  H15  1  0.003200  0.226300  0.005900  1.0  0.0719
  H  H16  1  0.809600  0.009100  0.507400  1.0  0.0816
  C  C17  1  0.985900  0.233630  0.498400  1.0  0.712
  C  C18  1  0.443500  0.214280  0.991700  1.0  0.7127
  C  C19  1  0.193300  0.504490  0.508700  1.0  0.7063
  C  C20  1  0.514100  0.766370  0.998400  1.0  0.7123
  C  C21  1  0.056500  0.785720  0.491700  1.0  0.7154
  C  C22  1  0.306700  0.495510  0.008700  1.0  0.7066
  C  C23  1  0.014100  0.733630  0.001600  1.0  0.7097
  C  C24  1  0.556500  0.714280  0.508300  1.0  0.7161
  C  C25  1  0.806700  0.004490  0.991300  1.0  0.7066
  C  C26  1  0.485900  0.266370  0.501600  1.0  0.7102
  C  C27  1  0.943500  0.285720  0.008300  1.0  0.715
  C  C28  1  0.693300  0.995510  0.491300  1.0  0.7061
  O  O29  1  0.105200  0.228590  0.608100  1.0  -0.5726
  O  O30  1  0.926900  0.164020  0.412000  1.0  -0.5636
  O  O31  1  0.308840  0.211940  0.902600  1.0  -0.5763
  O  O32  1  0.505620  0.145240  0.077300  1.0  -0.5643
  O  O33  1  0.112100  0.452900  0.619000  1.0  -0.5741
  O  O34  1  0.131610  0.572420  0.418900  1.0  -0.5583
  O  O35  1  0.394800  0.771410  0.108100  1.0  -0.5717
  O  O36  1  0.573100  0.835980  0.912000  1.0  -0.5644
  O  O37  1  0.191160  0.788060  0.402600  1.0  -0.5777
  O  O38  1  0.994380  0.854760  0.577300  1.0  -0.5646
  O  O39  1  0.387900  0.547100  0.119000  1.0  -0.5758
  O  O40  1  0.368390  0.427580  0.918900  1.0  -0.56
  O  O41  1  0.894800  0.728590  0.891900  1.0  -0.5722
  O  O42  1  0.073100  0.664020  0.088000  1.0  -0.5641
  O  O43  1  0.691160  0.711940  0.597400  1.0  -0.5766
  O  O44  1  0.494380  0.645240  0.422700  1.0  -0.5644
  O  O45  1  0.887900  0.952900  0.881000  1.0  -0.5749
  O  O46  1  0.868390  0.072420  0.081100  1.0  -0.5605
  O  O47  1  0.605200  0.271410  0.391900  1.0  -0.5729
  O  O48  1  0.426900  0.335980  0.588000  1.0  -0.5645
  O  O49  1  0.808840  0.288060  0.097400  1.0  -0.5767
  O  O50  1  0.005620  0.354760  0.922700  1.0  -0.5637
  O  O51  1  0.612100  0.047100  0.381000  1.0  -0.5741
  O  O52  1  0.631610  0.927580  0.581100  1.0  -0.5583
