# generated using pymatgen
data_Cd3H34C46(N2O3)4
_symmetry_space_group_name_H-M   'P 1'
_cell_length_a   9.85360000
_cell_length_b   9.85360000
_cell_length_c   48.88650000
_cell_angle_alpha   90.00000000
_cell_angle_beta   90.00000000
_cell_angle_gamma   90.00000000
_symmetry_Int_Tables_number   1
_chemical_formula_structural   Cd3H34C46(N2O3)4
_chemical_formula_sum   'Cd12 H136 C184 N32 O48'
_cell_volume   4746.55811040
_cell_formula_units_Z   4
loop_
 _symmetry_equiv_pos_site_id
 _symmetry_equiv_pos_as_xyz
  1  'x, y, z'
loop_
 _atom_site_type_symbol
 _atom_site_label
 _atom_site_symmetry_multiplicity
 _atom_site_fract_x
 _atom_site_fract_y
 _atom_site_fract_z
 _atom_site_occupancy
 _atom_site_charge
  Cd  Cd1  1  0.751510  0.808870  0.077670  1.0  1.1085
  Cd  Cd2  1  0.248490  0.191130  0.577670  1.0  1.1084
  Cd  Cd3  1  0.691130  0.251510  0.327670  1.0  1.1084
  Cd  Cd4  1  0.308870  0.748490  0.827670  1.0  1.1084
  Cd  Cd5  1  0.748490  0.308870  0.172330  1.0  1.1086
  Cd  Cd6  1  0.251510  0.691130  0.672330  1.0  1.1086
  Cd  Cd7  1  0.808870  0.751510  0.922330  1.0  1.1086
  Cd  Cd8  1  0.191130  0.248490  0.422330  1.0  1.1086
  Cd  Cd9  1  0.694720  0.305280  0.250000  1.0  0.9409
  Cd  Cd10  1  0.305280  0.694720  0.750000  1.0  0.9417
  Cd  Cd11  1  0.194720  0.194720  0.500000  1.0  0.9413
  Cd  Cd12  1  0.805280  0.805280  0.000000  1.0  0.9413
  H  H13  1  0.702300  0.594900  0.168600  1.0  0.1087
  H  H14  1  0.697600  0.808600  0.238900  1.0  0.104
  H  H15  1  0.756600  0.998600  0.167400  1.0  0.1003
  H  H16  1  0.477600  0.462500  0.037900  1.0  0.1157
  H  H17  1  0.479300  0.226000  0.035300  1.0  0.1149
  H  H18  1  0.082500  0.223800  0.043700  1.0  0.1131
  H  H19  1  0.086100  0.456400  0.048600  1.0  0.0897
  H  H20  1  0.368100  0.652200  0.063500  1.0  0.1033
  H  H21  1  0.287300  0.683300  0.036600  1.0  0.118
  H  H22  1  0.221700  0.609900  0.108900  1.0  0.1209
  H  H23  1  0.993500  0.683100  0.122000  1.0  0.1217
  H  H24  1  0.039800  0.752400  0.043500  1.0  0.098
  H  H25  1  0.186800  0.017300  0.035300  1.0  0.1116
  H  H26  1  0.311900  0.027600  0.015600  1.0  0.1085
  H  H27  1  0.253000  0.004300  0.089700  1.0  0.135
  H  H28  1  0.457500  0.904400  0.110700  1.0  0.1053
  H  H29  1  0.528300  0.928800  0.033000  1.0  0.0988
  H  H30  1  0.297700  0.405100  0.668600  1.0  0.1088
  H  H31  1  0.302400  0.191400  0.738900  1.0  0.104
  H  H32  1  0.243400  0.001400  0.667400  1.0  0.1004
  H  H33  1  0.522400  0.537500  0.537900  1.0  0.1156
  H  H34  1  0.520700  0.774000  0.535300  1.0  0.1138
  H  H35  1  0.917500  0.776200  0.543700  1.0  0.1131
  H  H36  1  0.913900  0.543600  0.548600  1.0  0.0904
  H  H37  1  0.631900  0.347800  0.563500  1.0  0.1022
  H  H38  1  0.712700  0.316700  0.536600  1.0  0.1182
  H  H39  1  0.778300  0.390100  0.608900  1.0  0.1203
  H  H40  1  0.006500  0.316900  0.622000  1.0  0.1217
  H  H41  1  0.960200  0.247600  0.543500  1.0  0.0982
  H  H42  1  0.813200  0.982700  0.535300  1.0  0.1138
  H  H43  1  0.688100  0.972400  0.515600  1.0  0.1082
  H  H44  1  0.747000  0.995700  0.589700  1.0  0.1346
  H  H45  1  0.542500  0.095600  0.610700  1.0  0.1061
  H  H46  1  0.471700  0.071200  0.533000  1.0  0.0995
  H  H47  1  0.905100  0.202300  0.418600  1.0  0.1081
  H  H48  1  0.691400  0.197600  0.488900  1.0  0.1039
  H  H49  1  0.501400  0.256600  0.417400  1.0  0.1001
  H  H50  1  0.037500  0.977600  0.287900  1.0  0.1159
  H  H51  1  0.274000  0.979300  0.285300  1.0  0.1139
  H  H52  1  0.276200  0.582500  0.293700  1.0  0.1132
  H  H53  1  0.043600  0.586100  0.298600  1.0  0.0905
  H  H54  1  0.847800  0.868100  0.313500  1.0  0.1037
  H  H55  1  0.816700  0.787300  0.286600  1.0  0.1182
  H  H56  1  0.890100  0.721700  0.358900  1.0  0.1209
  H  H57  1  0.816900  0.493500  0.372000  1.0  0.1217
  H  H58  1  0.747600  0.539800  0.293500  1.0  0.0971
  H  H59  1  0.482700  0.686800  0.285300  1.0  0.1146
  H  H60  1  0.472400  0.811900  0.265600  1.0  0.1083
  H  H61  1  0.495700  0.753000  0.339700  1.0  0.1356
  H  H62  1  0.595600  0.957500  0.360700  1.0  0.1057
  H  H63  1  0.571200  0.028300  0.283000  1.0  0.0995
  H  H64  1  0.094900  0.797700  0.918600  1.0  0.1083
  H  H65  1  0.308600  0.802400  0.988900  1.0  0.1044
  H  H66  1  0.498600  0.743400  0.917400  1.0  0.0996
  H  H67  1  0.962500  0.022400  0.787900  1.0  0.1163
  H  H68  1  0.726000  0.020700  0.785300  1.0  0.1137
  H  H69  1  0.723800  0.417500  0.793700  1.0  0.1134
  H  H70  1  0.956400  0.413900  0.798600  1.0  0.0906
  H  H71  1  0.152200  0.131900  0.813500  1.0  0.1045
  H  H72  1  0.183300  0.212700  0.786600  1.0  0.1183
  H  H73  1  0.109900  0.278300  0.858900  1.0  0.121
  H  H74  1  0.183100  0.506500  0.872000  1.0  0.1216
  H  H75  1  0.252400  0.460200  0.793500  1.0  0.0987
  H  H76  1  0.517300  0.313200  0.785300  1.0  0.1162
  H  H77  1  0.527600  0.188100  0.765600  1.0  0.1085
  H  H78  1  0.504300  0.247000  0.839700  1.0  0.1347
  H  H79  1  0.404400  0.042500  0.860700  1.0  0.1059
  H  H80  1  0.428800  0.971700  0.783000  1.0  0.0994
  H  H81  1  0.797700  0.094900  0.081400  1.0  0.1088
  H  H82  1  0.802400  0.308600  0.011100  1.0  0.1042
  H  H83  1  0.743400  0.498600  0.082600  1.0  0.1
  H  H84  1  0.022400  0.962500  0.212100  1.0  0.1157
  H  H85  1  0.020700  0.726000  0.214700  1.0  0.1138
  H  H86  1  0.417500  0.723800  0.206300  1.0  0.1128
  H  H87  1  0.413900  0.956400  0.201400  1.0  0.0903
  H  H88  1  0.131900  0.152200  0.186500  1.0  0.1029
  H  H89  1  0.212700  0.183300  0.213400  1.0  0.1171
  H  H90  1  0.278300  0.109900  0.141100  1.0  0.1207
  H  H91  1  0.506500  0.183100  0.128000  1.0  0.1215
  H  H92  1  0.460200  0.252400  0.206500  1.0  0.0994
  H  H93  1  0.313200  0.517300  0.214700  1.0  0.1133
  H  H94  1  0.188100  0.527600  0.234400  1.0  0.1075
  H  H95  1  0.247000  0.504300  0.160300  1.0  0.1351
  H  H96  1  0.042500  0.404400  0.139300  1.0  0.1071
  H  H97  1  0.971700  0.428800  0.217000  1.0  0.0985
  H  H98  1  0.202300  0.905100  0.581400  1.0  0.1084
  H  H99  1  0.197600  0.691400  0.511100  1.0  0.1045
  H  H100  1  0.256600  0.501400  0.582600  1.0  0.1004
  H  H101  1  0.977600  0.037500  0.712100  1.0  0.1158
  H  H102  1  0.979300  0.274000  0.714700  1.0  0.1143
  H  H103  1  0.582500  0.276200  0.706300  1.0  0.1134
  H  H104  1  0.586100  0.043600  0.701400  1.0  0.0898
  H  H105  1  0.868100  0.847800  0.686500  1.0  0.1031
  H  H106  1  0.787300  0.816700  0.713400  1.0  0.1173
  H  H107  1  0.721700  0.890100  0.641100  1.0  0.1209
  H  H108  1  0.493500  0.816900  0.628000  1.0  0.1216
  H  H109  1  0.539800  0.747600  0.706500  1.0  0.0986
  H  H110  1  0.686800  0.482700  0.714700  1.0  0.1118
  H  H111  1  0.811900  0.472400  0.734400  1.0  0.1079
  H  H112  1  0.753000  0.495700  0.660300  1.0  0.1349
  H  H113  1  0.957500  0.595600  0.639300  1.0  0.106
  H  H114  1  0.028300  0.571200  0.717000  1.0  0.0986
  H  H115  1  0.594900  0.702300  0.831400  1.0  0.108
  H  H116  1  0.808600  0.697600  0.761100  1.0  0.1049
  H  H117  1  0.998600  0.756600  0.832600  1.0  0.0995
  H  H118  1  0.462500  0.477600  0.962100  1.0  0.1164
  H  H119  1  0.226000  0.479300  0.964700  1.0  0.1135
  H  H120  1  0.223800  0.082500  0.956300  1.0  0.113
  H  H121  1  0.456400  0.086100  0.951400  1.0  0.0905
  H  H122  1  0.652200  0.368100  0.936500  1.0  0.1046
  H  H123  1  0.683300  0.287300  0.963400  1.0  0.1176
  H  H124  1  0.609900  0.221700  0.891100  1.0  0.1208
  H  H125  1  0.683100  0.993500  0.878000  1.0  0.1216
  H  H126  1  0.752400  0.039800  0.956500  1.0  0.0991
  H  H127  1  0.017300  0.186800  0.964700  1.0  0.1144
  H  H128  1  0.027600  0.311900  0.984400  1.0  0.1076
  H  H129  1  0.004300  0.253000  0.910300  1.0  0.1354
  H  H130  1  0.904400  0.457500  0.889300  1.0  0.1065
  H  H131  1  0.928800  0.528300  0.967000  1.0  0.0987
  H  H132  1  0.405100  0.297700  0.331400  1.0  0.1082
  H  H133  1  0.191400  0.302400  0.261100  1.0  0.1043
  H  H134  1  0.001400  0.243400  0.332600  1.0  0.0996
  H  H135  1  0.537500  0.522400  0.462100  1.0  0.116
  H  H136  1  0.774000  0.520700  0.464700  1.0  0.1138
  H  H137  1  0.776200  0.917500  0.456300  1.0  0.1139
  H  H138  1  0.543600  0.913900  0.451400  1.0  0.091
  H  H139  1  0.347800  0.631900  0.436500  1.0  0.1036
  H  H140  1  0.316700  0.712700  0.463400  1.0  0.1178
  H  H141  1  0.390100  0.778300  0.391100  1.0  0.1213
  H  H142  1  0.316900  0.006500  0.378000  1.0  0.1214
  H  H143  1  0.247600  0.960200  0.456500  1.0  0.0984
  H  H144  1  0.982700  0.813200  0.464700  1.0  0.1153
  H  H145  1  0.972400  0.688100  0.484400  1.0  0.1079
  H  H146  1  0.995700  0.747000  0.410300  1.0  0.1353
  H  H147  1  0.095600  0.542500  0.389300  1.0  0.1065
  H  H148  1  0.071200  0.471700  0.467000  1.0  0.0988
  C  C149  1  0.721300  0.801700  0.162900  1.0  -0.1252
  C  C150  1  0.707200  0.677300  0.177900  1.0  -0.0165
  C  C151  1  0.700800  0.680600  0.206500  1.0  -0.121
  C  C152  1  0.705600  0.805400  0.220000  1.0  -0.0161
  C  C153  1  0.722400  0.927000  0.204900  1.0  -0.1214
  C  C154  1  0.736200  0.919800  0.177000  1.0  -0.0436
  C  C155  1  0.729900  0.799600  0.132900  1.0  0.6588
  C  C156  1  0.690200  0.553200  0.222200  1.0  0.6691
  C  C157  1  0.725800  0.059600  0.219600  1.0  0.7095
  C  C158  1  0.283200  0.475800  0.046500  1.0  0.0733
  C  C159  1  0.398000  0.413000  0.040300  1.0  -0.137
  C  C160  1  0.398000  0.272000  0.037300  1.0  -0.1075
  C  C161  1  0.280300  0.204000  0.037300  1.0  0.0182
  C  C162  1  0.164200  0.270800  0.042600  1.0  -0.1544
  C  C163  1  0.167000  0.409000  0.046200  1.0  -0.1275
  C  C164  1  0.285700  0.631600  0.053500  1.0  -0.0473
  C  C165  1  0.157000  0.647000  0.097300  1.0  -0.1035
  C  C166  1  0.030900  0.688000  0.104500  1.0  -0.0138
  C  C167  1  0.057400  0.725600  0.061400  1.0  0.1832
  C  C168  1  0.279000  0.050000  0.033700  1.0  -0.0492
  C  C169  1  0.332000  0.977000  0.080900  1.0  -0.1227
  C  C170  1  0.447000  0.920000  0.092000  1.0  0.0628
  C  C171  1  0.485800  0.933200  0.049900  1.0  0.16
  C  C172  1  0.278700  0.198300  0.662900  1.0  -0.1247
  C  C173  1  0.292800  0.322700  0.677900  1.0  -0.0168
  C  C174  1  0.299200  0.319400  0.706500  1.0  -0.1204
  C  C175  1  0.294400  0.194600  0.720000  1.0  -0.0164
  C  C176  1  0.277600  0.073000  0.704900  1.0  -0.1217
  C  C177  1  0.263800  0.080200  0.677000  1.0  -0.0431
  C  C178  1  0.270100  0.200400  0.632900  1.0  0.6588
  C  C179  1  0.309800  0.446800  0.722200  1.0  0.6676
  C  C180  1  0.274200  0.940400  0.719600  1.0  0.7097
  C  C181  1  0.716800  0.524200  0.546500  1.0  0.0725
  C  C182  1  0.602000  0.587000  0.540300  1.0  -0.1377
  C  C183  1  0.602000  0.728000  0.537300  1.0  -0.1061
  C  C184  1  0.719700  0.796000  0.537300  1.0  0.018
  C  C185  1  0.835800  0.729200  0.542600  1.0  -0.1549
  C  C186  1  0.833000  0.591000  0.546200  1.0  -0.1277
  C  C187  1  0.714300  0.368400  0.553500  1.0  -0.0469
  C  C188  1  0.843000  0.353000  0.597300  1.0  -0.1042
  C  C189  1  0.969100  0.312000  0.604500  1.0  -0.013
  C  C190  1  0.942600  0.274400  0.561400  1.0  0.183
  C  C191  1  0.721000  0.950000  0.533700  1.0  -0.0493
  C  C192  1  0.668000  0.023000  0.580900  1.0  -0.1231
  C  C193  1  0.553000  0.080000  0.592000  1.0  0.0616
  C  C194  1  0.514200  0.066800  0.549900  1.0  0.1597
  C  C195  1  0.698300  0.221300  0.412900  1.0  -0.1255
  C  C196  1  0.822700  0.207200  0.427900  1.0  -0.0182
  C  C197  1  0.819400  0.200800  0.456500  1.0  -0.1232
  C  C198  1  0.694600  0.205600  0.470000  1.0  -0.0163
  C  C199  1  0.573000  0.222400  0.454900  1.0  -0.1216
  C  C200  1  0.580200  0.236200  0.427000  1.0  -0.043
  C  C201  1  0.700400  0.229900  0.382900  1.0  0.6589
  C  C202  1  0.946800  0.190200  0.472200  1.0  0.6646
  C  C203  1  0.440400  0.225800  0.469600  1.0  0.7061
  C  C204  1  0.024200  0.783200  0.296500  1.0  0.0729
  C  C205  1  0.087000  0.898000  0.290300  1.0  -0.1356
  C  C206  1  0.228000  0.898000  0.287300  1.0  -0.1075
  C  C207  1  0.296000  0.780300  0.287300  1.0  0.0176
  C  C208  1  0.229200  0.664200  0.292600  1.0  -0.1546
  C  C209  1  0.091000  0.667000  0.296200  1.0  -0.1257
  C  C210  1  0.868400  0.785700  0.303500  1.0  -0.0476
  C  C211  1  0.853000  0.657000  0.347300  1.0  -0.1024
  C  C212  1  0.812000  0.530900  0.354500  1.0  -0.0134
  C  C213  1  0.774400  0.557400  0.311400  1.0  0.1839
  C  C214  1  0.450000  0.779000  0.283700  1.0  -0.0486
  C  C215  1  0.523000  0.832000  0.330900  1.0  -0.1231
  C  C216  1  0.580000  0.947000  0.342000  1.0  0.0624
  C  C217  1  0.566800  0.985800  0.299900  1.0  0.1605
  C  C218  1  0.301700  0.778700  0.912900  1.0  -0.1251
  C  C219  1  0.177300  0.792800  0.927900  1.0  -0.0168
  C  C220  1  0.180600  0.799200  0.956500  1.0  -0.1241
  C  C221  1  0.305400  0.794400  0.970000  1.0  -0.0168
  C  C222  1  0.427000  0.777600  0.954900  1.0  -0.1224
  C  C223  1  0.419800  0.763800  0.927000  1.0  -0.0427
  C  C224  1  0.299600  0.770100  0.882900  1.0  0.6587
  C  C225  1  0.053200  0.809800  0.972200  1.0  0.6645
  C  C226  1  0.559600  0.774200  0.969600  1.0  0.7072
  C  C227  1  0.975800  0.216800  0.796500  1.0  0.0724
  C  C228  1  0.913000  0.102000  0.790300  1.0  -0.1341
  C  C229  1  0.772000  0.102000  0.787300  1.0  -0.1078
  C  C230  1  0.704000  0.219700  0.787300  1.0  0.0159
  C  C231  1  0.770800  0.335800  0.792600  1.0  -0.1567
  C  C232  1  0.909000  0.333000  0.796200  1.0  -0.125
  C  C233  1  0.131600  0.214300  0.803500  1.0  -0.0488
  C  C234  1  0.147000  0.343000  0.847300  1.0  -0.1039
  C  C235  1  0.188000  0.469100  0.854500  1.0  -0.0133
  C  C236  1  0.225600  0.442600  0.811400  1.0  0.1832
  C  C237  1  0.550000  0.221000  0.783700  1.0  -0.0483
  C  C238  1  0.477000  0.168000  0.830900  1.0  -0.122
  C  C239  1  0.420000  0.053000  0.842000  1.0  0.0619
  C  C240  1  0.433200  0.014200  0.799900  1.0  0.161
  C  C241  1  0.778700  0.301700  0.087100  1.0  -0.1244
  C  C242  1  0.792800  0.177300  0.072100  1.0  -0.0166
  C  C243  1  0.799200  0.180600  0.043500  1.0  -0.1208
  C  C244  1  0.794400  0.305400  0.030000  1.0  -0.0163
  C  C245  1  0.777600  0.427000  0.045100  1.0  -0.1217
  C  C246  1  0.763800  0.419800  0.073000  1.0  -0.0426
  C  C247  1  0.770100  0.299600  0.117100  1.0  0.6587
  C  C248  1  0.809800  0.053200  0.027800  1.0  0.6685
  C  C249  1  0.774200  0.559600  0.030400  1.0  0.7096
  C  C250  1  0.216800  0.975800  0.203500  1.0  0.0728
  C  C251  1  0.102000  0.913000  0.209700  1.0  -0.1366
  C  C252  1  0.102000  0.772000  0.212700  1.0  -0.1069
  C  C253  1  0.219700  0.704000  0.212700  1.0  0.0174
  C  C254  1  0.335800  0.770800  0.207400  1.0  -0.1547
  C  C255  1  0.333000  0.909000  0.203800  1.0  -0.1279
  C  C256  1  0.214300  0.131600  0.196500  1.0  -0.0471
  C  C257  1  0.343000  0.147000  0.152700  1.0  -0.1067
  C  C258  1  0.469100  0.188000  0.145500  1.0  -0.0129
  C  C259  1  0.442600  0.225600  0.188600  1.0  0.1828
  C  C260  1  0.221000  0.550000  0.216300  1.0  -0.0493
  C  C261  1  0.168000  0.477000  0.169100  1.0  -0.1229
  C  C262  1  0.053000  0.420000  0.158000  1.0  0.0619
  C  C263  1  0.014200  0.433200  0.200100  1.0  0.1595
  C  C264  1  0.221300  0.698300  0.587100  1.0  -0.1246
  C  C265  1  0.207200  0.822700  0.572100  1.0  -0.0163
  C  C266  1  0.200800  0.819400  0.543500  1.0  -0.1201
  C  C267  1  0.205600  0.694600  0.530000  1.0  -0.0162
  C  C268  1  0.222400  0.573000  0.545100  1.0  -0.1213
  C  C269  1  0.236200  0.580200  0.573000  1.0  -0.0428
  C  C270  1  0.229900  0.700400  0.617100  1.0  0.6588
  C  C271  1  0.190200  0.946800  0.527800  1.0  0.6676
  C  C272  1  0.225800  0.440400  0.530400  1.0  0.7093
  C  C273  1  0.783200  0.024200  0.703500  1.0  0.0728
  C  C274  1  0.898000  0.087000  0.709700  1.0  -0.1378
  C  C275  1  0.898000  0.228000  0.712700  1.0  -0.1071
  C  C276  1  0.780300  0.296000  0.712700  1.0  0.0167
  C  C277  1  0.664200  0.229200  0.707400  1.0  -0.155
  C  C278  1  0.667000  0.091000  0.703800  1.0  -0.1285
  C  C279  1  0.785700  0.868400  0.696500  1.0  -0.0482
  C  C280  1  0.657000  0.853000  0.652700  1.0  -0.1052
  C  C281  1  0.530900  0.812000  0.645500  1.0  -0.0131
  C  C282  1  0.557400  0.774400  0.688600  1.0  0.1836
  C  C283  1  0.779000  0.450000  0.716300  1.0  -0.0488
  C  C284  1  0.832000  0.523000  0.669100  1.0  -0.1215
  C  C285  1  0.947000  0.580000  0.658000  1.0  0.0624
  C  C286  1  0.985800  0.566800  0.700100  1.0  0.1593
  C  C287  1  0.801700  0.721300  0.837100  1.0  -0.1247
  C  C288  1  0.677300  0.707200  0.822100  1.0  -0.0163
  C  C289  1  0.680600  0.700800  0.793500  1.0  -0.124
  C  C290  1  0.805400  0.705600  0.780000  1.0  -0.0162
  C  C291  1  0.927000  0.722400  0.795100  1.0  -0.123
  C  C292  1  0.919800  0.736200  0.823000  1.0  -0.0417
  C  C293  1  0.799600  0.729900  0.867100  1.0  0.6587
  C  C294  1  0.553200  0.690200  0.777800  1.0  0.6639
  C  C295  1  0.059600  0.725800  0.780400  1.0  0.7065
  C  C296  1  0.475800  0.283200  0.953500  1.0  0.0726
  C  C297  1  0.413000  0.398000  0.959700  1.0  -0.1354
  C  C298  1  0.272000  0.398000  0.962700  1.0  -0.108
  C  C299  1  0.204000  0.280300  0.962700  1.0  0.0148
  C  C300  1  0.270800  0.164200  0.957400  1.0  -0.1551
  C  C301  1  0.409000  0.167000  0.953800  1.0  -0.1269
  C  C302  1  0.631600  0.285700  0.946500  1.0  -0.0482
  C  C303  1  0.647000  0.157000  0.902700  1.0  -0.1056
  C  C304  1  0.688000  0.030900  0.895500  1.0  -0.0132
  C  C305  1  0.725600  0.057400  0.938600  1.0  0.184
  C  C306  1  0.050000  0.279000  0.966300  1.0  -0.0483
  C  C307  1  0.977000  0.332000  0.919100  1.0  -0.1217
  C  C308  1  0.920000  0.447000  0.908000  1.0  0.0618
  C  C309  1  0.933200  0.485800  0.950100  1.0  0.1602
  C  C310  1  0.198300  0.278700  0.337100  1.0  -0.1251
  C  C311  1  0.322700  0.292800  0.322100  1.0  -0.0179
  C  C312  1  0.319400  0.299200  0.293500  1.0  -0.1233
  C  C313  1  0.194600  0.294400  0.280000  1.0  -0.0167
  C  C314  1  0.073000  0.277600  0.295100  1.0  -0.1217
  C  C315  1  0.080200  0.263800  0.323000  1.0  -0.0419
  C  C316  1  0.200400  0.270100  0.367100  1.0  0.6589
  C  C317  1  0.446800  0.309800  0.277800  1.0  0.6642
  C  C318  1  0.940400  0.274200  0.280400  1.0  0.7066
  C  C319  1  0.524200  0.716800  0.453500  1.0  0.0727
  C  C320  1  0.587000  0.602000  0.459700  1.0  -0.1345
  C  C321  1  0.728000  0.602000  0.462700  1.0  -0.1075
  C  C322  1  0.796000  0.719700  0.462700  1.0  0.0166
  C  C323  1  0.729200  0.835800  0.457400  1.0  -0.1561
  C  C324  1  0.591000  0.833000  0.453800  1.0  -0.1256
  C  C325  1  0.368400  0.714300  0.446500  1.0  -0.0493
  C  C326  1  0.353000  0.843000  0.402700  1.0  -0.1055
  C  C327  1  0.312000  0.969100  0.395500  1.0  -0.0128
  C  C328  1  0.274400  0.942600  0.438600  1.0  0.1836
  C  C329  1  0.950000  0.721000  0.466300  1.0  -0.0481
  C  C330  1  0.023000  0.668000  0.419100  1.0  -0.1222
  C  C331  1  0.080000  0.553000  0.408000  1.0  0.0621
  C  C332  1  0.066800  0.514200  0.450100  1.0  0.1612
  N  N333  1  0.968000  0.738000  0.081600  1.0  -0.3905
  N  N334  1  0.172700  0.671800  0.069200  1.0  0.0337
  N  N335  1  0.543300  0.889800  0.073500  1.0  -0.4359
  N  N336  1  0.362200  0.982600  0.053700  1.0  0.1062
  N  N337  1  0.032000  0.262000  0.581600  1.0  -0.3887
  N  N338  1  0.827300  0.328200  0.569200  1.0  0.0335
  N  N339  1  0.456700  0.110200  0.573500  1.0  -0.4357
  N  N340  1  0.637800  0.017400  0.553700  1.0  0.1062
  N  N341  1  0.762000  0.468000  0.331600  1.0  -0.3891
  N  N342  1  0.828200  0.672700  0.319200  1.0  0.0334
  N  N343  1  0.610200  0.043300  0.323500  1.0  -0.4362
  N  N344  1  0.517400  0.862200  0.303700  1.0  0.106
  N  N345  1  0.238000  0.532000  0.831600  1.0  -0.3893
  N  N346  1  0.171800  0.327300  0.819200  1.0  0.033
  N  N347  1  0.389800  0.956700  0.823500  1.0  -0.4356
  N  N348  1  0.482600  0.137800  0.803700  1.0  0.1062
  N  N349  1  0.532000  0.238000  0.168400  1.0  -0.391
  N  N350  1  0.327300  0.171800  0.180800  1.0  0.0335
  N  N351  1  0.956700  0.389800  0.176500  1.0  -0.4355
  N  N352  1  0.137800  0.482600  0.196300  1.0  0.1065
  N  N353  1  0.468000  0.762000  0.668400  1.0  -0.3904
  N  N354  1  0.672700  0.828200  0.680800  1.0  0.0339
  N  N355  1  0.043300  0.610200  0.676500  1.0  -0.436
  N  N356  1  0.862200  0.517400  0.696300  1.0  0.1065
  N  N357  1  0.738000  0.968000  0.918400  1.0  -0.3878
  N  N358  1  0.671800  0.172700  0.930800  1.0  0.0334
  N  N359  1  0.889800  0.543300  0.926500  1.0  -0.4359
  N  N360  1  0.982600  0.362200  0.946300  1.0  0.1063
  N  N361  1  0.262000  0.032000  0.418400  1.0  -0.391
  N  N362  1  0.328200  0.827300  0.430800  1.0  0.033
  N  N363  1  0.110200  0.456700  0.426500  1.0  -0.4343
  N  N364  1  0.017400  0.637800  0.446300  1.0  0.1062
  O  O365  1  0.679900  0.703600  0.119250  1.0  -0.6025
  O  O366  1  0.779500  0.902600  0.121270  1.0  -0.6129
  O  O367  1  0.680700  0.440900  0.210250  1.0  -0.686
  O  O368  1  0.689800  0.558600  0.248300  1.0  -0.6992
  O  O369  1  0.783500  0.160500  0.207400  1.0  -0.7737
  O  O370  1  0.665200  0.077400  0.240500  1.0  -0.6109
  O  O371  1  0.320100  0.296400  0.619250  1.0  -0.6002
  O  O372  1  0.220500  0.097400  0.621270  1.0  -0.6132
  O  O373  1  0.319300  0.559100  0.710250  1.0  -0.6855
  O  O374  1  0.310200  0.441400  0.748300  1.0  -0.6994
  O  O375  1  0.216500  0.839500  0.707400  1.0  -0.7739
  O  O376  1  0.334800  0.922600  0.740500  1.0  -0.6122
  O  O377  1  0.796400  0.179900  0.369250  1.0  -0.6027
  O  O378  1  0.597400  0.279500  0.371270  1.0  -0.614
  O  O379  1  0.059100  0.180700  0.460250  1.0  -0.6848
  O  O380  1  0.941400  0.189800  0.498300  1.0  -0.7017
  O  O381  1  0.339500  0.283500  0.457400  1.0  -0.7729
  O  O382  1  0.422600  0.165200  0.490500  1.0  -0.6101
  O  O383  1  0.203600  0.820100  0.869250  1.0  -0.6021
  O  O384  1  0.402600  0.720500  0.871270  1.0  -0.6131
  O  O385  1  0.940900  0.819300  0.960250  1.0  -0.6847
  O  O386  1  0.058600  0.810200  0.998300  1.0  -0.7026
  O  O387  1  0.660500  0.716500  0.957400  1.0  -0.773
  O  O388  1  0.577400  0.834800  0.990500  1.0  -0.6101
  O  O389  1  0.820100  0.203600  0.130750  1.0  -0.6006
  O  O390  1  0.720500  0.402600  0.128730  1.0  -0.6148
  O  O391  1  0.819300  0.940900  0.039750  1.0  -0.6855
  O  O392  1  0.810200  0.058600  0.001700  1.0  -0.698
  O  O393  1  0.716500  0.660500  0.042600  1.0  -0.7746
  O  O394  1  0.834800  0.577400  0.009500  1.0  -0.6124
  O  O395  1  0.179900  0.796400  0.630750  1.0  -0.6019
  O  O396  1  0.279500  0.597400  0.628730  1.0  -0.613
  O  O397  1  0.180700  0.059100  0.539750  1.0  -0.6867
  O  O398  1  0.189800  0.941400  0.501700  1.0  -0.6983
  O  O399  1  0.283500  0.339500  0.542600  1.0  -0.7741
  O  O400  1  0.165200  0.422600  0.509500  1.0  -0.6109
  O  O401  1  0.703600  0.679900  0.880750  1.0  -0.6023
  O  O402  1  0.902600  0.779500  0.878730  1.0  -0.6143
  O  O403  1  0.440900  0.680700  0.789750  1.0  -0.6853
  O  O404  1  0.558600  0.689800  0.751700  1.0  -0.7015
  O  O405  1  0.160500  0.783500  0.792600  1.0  -0.7737
  O  O406  1  0.077400  0.665200  0.759500  1.0  -0.6098
  O  O407  1  0.296400  0.320100  0.380750  1.0  -0.601
  O  O408  1  0.097400  0.220500  0.378730  1.0  -0.614
  O  O409  1  0.559100  0.319300  0.289750  1.0  -0.6844
  O  O410  1  0.441400  0.310200  0.251700  1.0  -0.7004
  O  O411  1  0.839500  0.216500  0.292600  1.0  -0.7732
  O  O412  1  0.922600  0.334800  0.259500  1.0  -0.6104
