# generated using pymatgen
data_Gd2H42(C23O6)3
_symmetry_space_group_name_H-M   'P 1'
_cell_length_a   31.51700000
_cell_length_b   14.88200000
_cell_length_c   28.49400000
_cell_angle_alpha   90.00000000
_cell_angle_beta   120.19000000
_cell_angle_gamma   90.00000000
_symmetry_Int_Tables_number   1
_chemical_formula_structural   Gd2H42(C23O6)3
_chemical_formula_sum   'Gd8 H168 C276 O72'
_cell_volume   11551.95664197
_cell_formula_units_Z   4
loop_
 _symmetry_equiv_pos_site_id
 _symmetry_equiv_pos_as_xyz
  1  'x, y, z'
loop_
 _atom_site_type_symbol
 _atom_site_label
 _atom_site_symmetry_multiplicity
 _atom_site_fract_x
 _atom_site_fract_y
 _atom_site_fract_z
 _atom_site_occupancy
 _atom_site_charge
  Gd  Gd1  1  0.267520  0.118110  0.487810  1.0  2.1779
  Gd  Gd2  1  0.767510  0.618110  0.487810  1.0  2.1777
  Gd  Gd3  1  0.732480  0.118110  0.012190  1.0  2.1774
  Gd  Gd4  1  0.232480  0.618110  0.012190  1.0  2.1774
  Gd  Gd5  1  0.732480  0.881890  0.512190  1.0  2.1768
  Gd  Gd6  1  0.232480  0.381890  0.512190  1.0  2.1768
  Gd  Gd7  1  0.267520  0.881890  0.987810  1.0  2.1777
  Gd  Gd8  1  0.767510  0.381890  0.987810  1.0  2.1775
  H  H9  1  0.089000  0.402700  0.356000  1.0  0.3952
  H  H10  1  0.234300  0.014200  0.109300  1.0  0.3285
  H  H11  1  0.232800  0.119600  0.316000  1.0  0.3726
  H  H12  1  0.162100  0.137500  0.346000  1.0  0.1074
  H  H13  1  0.999500  0.364300  0.222300  1.0  0.1046
  H  H14  1  0.993400  0.218900  0.172100  1.0  0.0923
  H  H15  1  0.016700  0.126700  0.126300  1.0  0.1038
  H  H16  1  0.176300  0.714500  0.106800  1.0  0.0975
  H  H17  1  0.257100  0.053600  0.200400  1.0  0.1139
  H  H18  1  0.217100  0.049300  0.217400  1.0  0.1136
  H  H19  1  0.197100  0.934800  0.260200  1.0  0.0977
  H  H20  1  0.373000  0.979500  0.422500  1.0  0.1011
  H  H21  1  0.322900  0.959200  0.218200  1.0  0.087
  H  H22  1  0.400600  0.908700  0.244900  1.0  0.0948
  H  H23  1  0.156000  0.826900  0.280500  1.0  0.1046
  H  H24  1  0.437200  0.939200  0.399000  1.0  0.1036
  H  H25  1  0.138500  0.064700  0.258600  1.0  0.0704
  H  H26  1  0.081100  0.012600  0.181000  1.0  0.1185
  H  H27  1  0.128100  0.692900  0.231300  1.0  0.1185
  H  H28  1  0.145400  0.670300  0.164900  1.0  0.0746
  H  H29  1  0.460900  0.901800  0.339600  1.0  0.1276
  H  H30  1  0.589000  0.902700  0.356000  1.0  0.3952
  H  H31  1  0.734300  0.514200  0.109300  1.0  0.3285
  H  H32  1  0.732800  0.619600  0.316000  1.0  0.3726
  H  H33  1  0.662100  0.637500  0.346000  1.0  0.1074
  H  H34  1  0.499500  0.864300  0.222300  1.0  0.1046
  H  H35  1  0.493400  0.718900  0.172100  1.0  0.0923
  H  H36  1  0.516700  0.626700  0.126300  1.0  0.1039
  H  H37  1  0.676300  0.214500  0.106800  1.0  0.0975
  H  H38  1  0.757100  0.553600  0.200400  1.0  0.1139
  H  H39  1  0.717100  0.549300  0.217400  1.0  0.1136
  H  H40  1  0.697100  0.434800  0.260200  1.0  0.0977
  H  H41  1  0.873000  0.479500  0.422500  1.0  0.1011
  H  H42  1  0.822900  0.459200  0.218200  1.0  0.087
  H  H43  1  0.900600  0.408700  0.244900  1.0  0.0948
  H  H44  1  0.656000  0.326900  0.280500  1.0  0.1046
  H  H45  1  0.937200  0.439200  0.399000  1.0  0.1036
  H  H46  1  0.638500  0.564700  0.258600  1.0  0.0704
  H  H47  1  0.581100  0.512600  0.181000  1.0  0.1205
  H  H48  1  0.628100  0.192900  0.231300  1.0  0.1185
  H  H49  1  0.645400  0.170300  0.164900  1.0  0.0746
  H  H50  1  0.960900  0.401800  0.339600  1.0  0.1276
  H  H51  1  0.911000  0.402700  0.144000  1.0  0.3962
  H  H52  1  0.765700  0.014200  0.390700  1.0  0.3286
  H  H53  1  0.767200  0.119600  0.184000  1.0  0.3717
  H  H54  1  0.837900  0.137500  0.154000  1.0  0.1073
  H  H55  1  0.000500  0.364300  0.277700  1.0  0.1031
  H  H56  1  0.006600  0.218900  0.327900  1.0  0.0913
  H  H57  1  0.983300  0.126700  0.373700  1.0  0.1046
  H  H58  1  0.823700  0.714500  0.393200  1.0  0.0973
  H  H59  1  0.742900  0.053600  0.299600  1.0  0.1126
  H  H60  1  0.782900  0.049300  0.282600  1.0  0.1116
  H  H61  1  0.802900  0.934800  0.239800  1.0  0.0982
  H  H62  1  0.627000  0.979500  0.077500  1.0  0.1009
  H  H63  1  0.677100  0.959200  0.281800  1.0  0.0882
  H  H64  1  0.599400  0.908700  0.255100  1.0  0.0955
  H  H65  1  0.844000  0.826900  0.219500  1.0  0.1041
  H  H66  1  0.562800  0.939200  0.101000  1.0  0.1024
  H  H67  1  0.861500  0.064700  0.241400  1.0  0.0703
  H  H68  1  0.918900  0.012600  0.319000  1.0  0.119
  H  H69  1  0.871900  0.692900  0.268700  1.0  0.1182
  H  H70  1  0.854600  0.670300  0.335100  1.0  0.0742
  H  H71  1  0.539100  0.901800  0.160400  1.0  0.1271
  H  H72  1  0.411000  0.902700  0.144000  1.0  0.3962
  H  H73  1  0.265700  0.514200  0.390700  1.0  0.3286
  H  H74  1  0.267200  0.619600  0.184000  1.0  0.3717
  H  H75  1  0.337900  0.637500  0.154000  1.0  0.1073
  H  H76  1  0.500500  0.864300  0.277700  1.0  0.1031
  H  H77  1  0.506600  0.718900  0.327900  1.0  0.0913
  H  H78  1  0.483300  0.626700  0.373700  1.0  0.1046
  H  H79  1  0.323700  0.214500  0.393200  1.0  0.0973
  H  H80  1  0.242900  0.553600  0.299600  1.0  0.1126
  H  H81  1  0.282900  0.549300  0.282600  1.0  0.1116
  H  H82  1  0.302900  0.434800  0.239800  1.0  0.0982
  H  H83  1  0.127000  0.479500  0.077500  1.0  0.1009
  H  H84  1  0.177100  0.459200  0.281800  1.0  0.0882
  H  H85  1  0.099400  0.408700  0.255100  1.0  0.0955
  H  H86  1  0.344000  0.326900  0.219500  1.0  0.1041
  H  H87  1  0.062800  0.439200  0.101000  1.0  0.1024
  H  H88  1  0.361500  0.564700  0.241400  1.0  0.0703
  H  H89  1  0.418900  0.512600  0.319000  1.0  0.1213
  H  H90  1  0.371900  0.192900  0.268700  1.0  0.1182
  H  H91  1  0.354600  0.170300  0.335100  1.0  0.0742
  H  H92  1  0.039100  0.401800  0.160400  1.0  0.1271
  H  H93  1  0.911000  0.597300  0.644000  1.0  0.3959
  H  H94  1  0.765700  0.985800  0.890700  1.0  0.3276
  H  H95  1  0.767200  0.880400  0.684000  1.0  0.3713
  H  H96  1  0.837900  0.862500  0.654000  1.0  0.1075
  H  H97  1  0.000500  0.635700  0.777700  1.0  0.1039
  H  H98  1  0.006600  0.781100  0.827900  1.0  0.0911
  H  H99  1  0.983300  0.873300  0.873700  1.0  0.1044
  H  H100  1  0.823700  0.285500  0.893200  1.0  0.0976
  H  H101  1  0.742900  0.946400  0.799600  1.0  0.1144
  H  H102  1  0.782900  0.950700  0.782600  1.0  0.1118
  H  H103  1  0.802900  0.065200  0.739800  1.0  0.0988
  H  H104  1  0.627000  0.020500  0.577500  1.0  0.1011
  H  H105  1  0.677100  0.040800  0.781800  1.0  0.0882
  H  H106  1  0.599400  0.091300  0.755100  1.0  0.0956
  H  H107  1  0.844000  0.173100  0.719500  1.0  0.1041
  H  H108  1  0.562800  0.060800  0.601000  1.0  0.1025
  H  H109  1  0.861500  0.935300  0.741400  1.0  0.0704
  H  H110  1  0.918900  0.987400  0.819000  1.0  0.1185
  H  H111  1  0.871900  0.307100  0.768700  1.0  0.1181
  H  H112  1  0.854600  0.329700  0.835100  1.0  0.0745
  H  H113  1  0.539100  0.098200  0.660400  1.0  0.1271
  H  H114  1  0.411000  0.097300  0.644000  1.0  0.3959
  H  H115  1  0.265700  0.485800  0.890700  1.0  0.3276
  H  H116  1  0.267200  0.380400  0.684000  1.0  0.3713
  H  H117  1  0.337900  0.362500  0.654000  1.0  0.1075
  H  H118  1  0.500500  0.135700  0.777700  1.0  0.1039
  H  H119  1  0.506600  0.281100  0.827900  1.0  0.0911
  H  H120  1  0.483300  0.373300  0.873700  1.0  0.1044
  H  H121  1  0.323700  0.785500  0.893200  1.0  0.0976
  H  H122  1  0.242900  0.446400  0.799600  1.0  0.1144
  H  H123  1  0.282900  0.450700  0.782600  1.0  0.1118
  H  H124  1  0.302900  0.565200  0.739800  1.0  0.0988
  H  H125  1  0.127000  0.520500  0.577500  1.0  0.1011
  H  H126  1  0.177100  0.540800  0.781800  1.0  0.0882
  H  H127  1  0.099400  0.591300  0.755100  1.0  0.0956
  H  H128  1  0.344000  0.673100  0.719500  1.0  0.1041
  H  H129  1  0.062800  0.560800  0.601000  1.0  0.1025
  H  H130  1  0.361500  0.435300  0.741400  1.0  0.0704
  H  H131  1  0.418900  0.487400  0.819000  1.0  0.1212
  H  H132  1  0.371900  0.807100  0.768700  1.0  0.1181
  H  H133  1  0.354600  0.829700  0.835100  1.0  0.0745
  H  H134  1  0.039100  0.598200  0.660400  1.0  0.1271
  H  H135  1  0.089000  0.597300  0.856000  1.0  0.3952
  H  H136  1  0.234300  0.985800  0.609300  1.0  0.3289
  H  H137  1  0.232800  0.880400  0.816000  1.0  0.3725
  H  H138  1  0.162100  0.862500  0.846000  1.0  0.1071
  H  H139  1  0.999500  0.635700  0.722300  1.0  0.1043
  H  H140  1  0.993400  0.781100  0.672100  1.0  0.0929
  H  H141  1  0.016700  0.873300  0.626300  1.0  0.1044
  H  H142  1  0.176300  0.285500  0.606800  1.0  0.0979
  H  H143  1  0.257100  0.946400  0.700400  1.0  0.1138
  H  H144  1  0.217100  0.950700  0.717400  1.0  0.1142
  H  H145  1  0.197100  0.065200  0.760200  1.0  0.0987
  H  H146  1  0.373000  0.020500  0.922500  1.0  0.1018
  H  H147  1  0.322900  0.040800  0.718200  1.0  0.0866
  H  H148  1  0.400600  0.091300  0.744900  1.0  0.0954
  H  H149  1  0.156000  0.173100  0.780500  1.0  0.1044
  H  H150  1  0.437200  0.060800  0.899000  1.0  0.1035
  H  H151  1  0.138500  0.935300  0.758600  1.0  0.07
  H  H152  1  0.081100  0.987400  0.681000  1.0  0.1185
  H  H153  1  0.128100  0.307100  0.731300  1.0  0.1185
  H  H154  1  0.145400  0.329700  0.664900  1.0  0.075
  H  H155  1  0.460900  0.098200  0.839600  1.0  0.1274
  H  H156  1  0.589000  0.097300  0.856000  1.0  0.3952
  H  H157  1  0.734300  0.485800  0.609300  1.0  0.3289
  H  H158  1  0.732800  0.380400  0.816000  1.0  0.3725
  H  H159  1  0.662100  0.362500  0.846000  1.0  0.1071
  H  H160  1  0.499500  0.135700  0.722300  1.0  0.1043
  H  H161  1  0.493400  0.281100  0.672100  1.0  0.0929
  H  H162  1  0.516700  0.373300  0.626300  1.0  0.1044
  H  H163  1  0.676300  0.785500  0.606800  1.0  0.0979
  H  H164  1  0.757100  0.446400  0.700400  1.0  0.1138
  H  H165  1  0.717100  0.450700  0.717400  1.0  0.1142
  H  H166  1  0.697100  0.565200  0.760200  1.0  0.0987
  H  H167  1  0.873000  0.520500  0.922500  1.0  0.1018
  H  H168  1  0.822900  0.540800  0.718200  1.0  0.0866
  H  H169  1  0.900600  0.591300  0.744900  1.0  0.0954
  H  H170  1  0.656000  0.673100  0.780500  1.0  0.1044
  H  H171  1  0.937200  0.560800  0.899000  1.0  0.1035
  H  H172  1  0.638500  0.435300  0.758600  1.0  0.07
  H  H173  1  0.581100  0.487400  0.681000  1.0  0.1206
  H  H174  1  0.628100  0.807100  0.731300  1.0  0.1185
  H  H175  1  0.645400  0.829700  0.664900  1.0  0.075
  H  H176  1  0.960900  0.598200  0.839600  1.0  0.1274
  C  C177  1  0.127670  0.239500  0.357700  1.0  -0.1366
  C  C178  1  0.133800  0.172400  0.328700  1.0  -0.095
  C  C179  1  0.100000  0.154300  0.275100  1.0  -0.0107
  C  C180  1  0.056200  0.206400  0.247100  1.0  0.0099
  C  C181  1  0.047400  0.272000  0.275500  1.0  0.0284
  C  C182  1  0.081920  0.291700  0.327800  1.0  0.1957
  C  C183  1  0.023200  0.188500  0.190300  1.0  -0.1529
  C  C184  1  0.034700  0.129400  0.164000  1.0  -0.1
  C  C185  1  0.211100  0.829100  0.110120  1.0  -0.043
  C  C186  1  0.187400  0.768400  0.125600  1.0  -0.1113
  C  C187  1  0.179580  0.786000  0.169190  1.0  0.0139
  C  C188  1  0.198170  0.866500  0.199300  1.0  0.0284
  C  C189  1  0.228020  0.913200  0.141050  1.0  0.1647
  C  C190  1  0.224470  0.928300  0.186440  1.0  0.0296
  C  C191  1  0.244550  0.017100  0.219000  1.0  -0.2304
  C  C192  1  0.187400  0.881500  0.240500  1.0  -0.2144
  C  C193  1  0.295120  0.047900  0.413530  1.0  0.6006
  C  C194  1  0.271500  0.034800  0.314600  1.0  0.3186
  C  C195  1  0.351500  0.992000  0.386000  1.0  -0.0936
  C  C196  1  0.306770  0.028500  0.372800  1.0  -0.1031
  C  C197  1  0.284120  0.010300  0.277640  1.0  -0.0098
  C  C198  1  0.331030  0.976200  0.293300  1.0  0.0366
  C  C199  1  0.367280  0.972100  0.349700  1.0  -0.0037
  C  C200  1  0.345600  0.954000  0.255100  1.0  -0.1353
  C  C201  1  0.392500  0.925000  0.270900  1.0  -0.0983
  C  C202  1  0.162000  0.816100  0.252200  1.0  -0.1102
  C  C203  1  0.413900  0.943000  0.362300  1.0  -0.0215
  C  C204  1  0.219770  0.808700  0.065050  1.0  0.702
  C  C205  1  0.107500  0.090800  0.242800  1.0  -0.0701
  C  C206  1  0.077500  0.066000  0.195600  1.0  -0.1164
  C  C207  1  0.165390  0.260700  0.413100  1.0  0.7117
  C  C208  1  0.145200  0.735400  0.223300  1.0  -0.1296
  C  C209  1  0.155200  0.723900  0.184100  1.0  -0.0801
  C  C210  1  0.428800  0.920000  0.327700  1.0  -0.1191
  C  C211  1  0.627670  0.739500  0.357700  1.0  -0.1366
  C  C212  1  0.633800  0.672400  0.328700  1.0  -0.095
  C  C213  1  0.600000  0.654300  0.275100  1.0  -0.0107
  C  C214  1  0.556200  0.706400  0.247100  1.0  0.0099
  C  C215  1  0.547400  0.772000  0.275500  1.0  0.0284
  C  C216  1  0.581920  0.791700  0.327800  1.0  0.1957
  C  C217  1  0.523200  0.688500  0.190300  1.0  -0.1529
  C  C218  1  0.534700  0.629400  0.164000  1.0  -0.1
  C  C219  1  0.711100  0.329100  0.110120  1.0  -0.043
  C  C220  1  0.687400  0.268400  0.125600  1.0  -0.1113
  C  C221  1  0.679580  0.286000  0.169190  1.0  0.0139
  C  C222  1  0.698170  0.366500  0.199300  1.0  0.0284
  C  C223  1  0.728020  0.413200  0.141050  1.0  0.1647
  C  C224  1  0.724470  0.428300  0.186440  1.0  0.0296
  C  C225  1  0.744550  0.517100  0.219000  1.0  -0.2304
  C  C226  1  0.687400  0.381500  0.240500  1.0  -0.2144
  C  C227  1  0.795120  0.547900  0.413530  1.0  0.6006
  C  C228  1  0.771500  0.534800  0.314600  1.0  0.3186
  C  C229  1  0.851500  0.492000  0.386000  1.0  -0.0936
  C  C230  1  0.806770  0.528500  0.372800  1.0  -0.1031
  C  C231  1  0.784120  0.510300  0.277640  1.0  -0.0098
  C  C232  1  0.831030  0.476200  0.293300  1.0  0.0366
  C  C233  1  0.867280  0.472100  0.349700  1.0  -0.0037
  C  C234  1  0.845600  0.454000  0.255100  1.0  -0.1353
  C  C235  1  0.892500  0.425000  0.270900  1.0  -0.0983
  C  C236  1  0.662000  0.316100  0.252200  1.0  -0.1102
  C  C237  1  0.913900  0.443000  0.362300  1.0  -0.0215
  C  C238  1  0.719770  0.308700  0.065050  1.0  0.702
  C  C239  1  0.607500  0.590800  0.242800  1.0  -0.0701
  C  C240  1  0.577500  0.566000  0.195600  1.0  -0.1164
  C  C241  1  0.665390  0.760700  0.413100  1.0  0.7117
  C  C242  1  0.645200  0.235400  0.223300  1.0  -0.1296
  C  C243  1  0.655200  0.223900  0.184100  1.0  -0.0801
  C  C244  1  0.928800  0.420000  0.327700  1.0  -0.1191
  C  C245  1  0.872330  0.239500  0.142300  1.0  -0.1359
  C  C246  1  0.866200  0.172400  0.171300  1.0  -0.0953
  C  C247  1  0.900000  0.154300  0.224900  1.0  -0.0107
  C  C248  1  0.943800  0.206400  0.252900  1.0  0.0107
  C  C249  1  0.952600  0.272000  0.224500  1.0  0.0275
  C  C250  1  0.918080  0.291700  0.172200  1.0  0.1936
  C  C251  1  0.976800  0.188500  0.309700  1.0  -0.1531
  C  C252  1  0.965300  0.129400  0.336000  1.0  -0.1011
  C  C253  1  0.788900  0.829100  0.389880  1.0  -0.0421
  C  C254  1  0.812600  0.768400  0.374400  1.0  -0.1128
  C  C255  1  0.820420  0.786000  0.330810  1.0  0.0123
  C  C256  1  0.801830  0.866500  0.300700  1.0  0.0286
  C  C257  1  0.771980  0.913200  0.358950  1.0  0.1673
  C  C258  1  0.775530  0.928300  0.313560  1.0  0.0296
  C  C259  1  0.755450  0.017100  0.281000  1.0  -0.2321
  C  C260  1  0.812600  0.881500  0.259500  1.0  -0.2137
  C  C261  1  0.704880  0.047900  0.086470  1.0  0.6024
  C  C262  1  0.728500  0.034800  0.185400  1.0  0.3177
  C  C263  1  0.648500  0.992000  0.114000  1.0  -0.0897
  C  C264  1  0.693230  0.028500  0.127200  1.0  -0.1052
  C  C265  1  0.715880  0.010300  0.222360  1.0  -0.0107
  C  C266  1  0.668970  0.976200  0.206700  1.0  0.0365
  C  C267  1  0.632720  0.972100  0.150300  1.0  -0.0027
  C  C268  1  0.654400  0.954000  0.244900  1.0  -0.1374
  C  C269  1  0.607500  0.925000  0.229100  1.0  -0.0986
  C  C270  1  0.838000  0.816100  0.247800  1.0  -0.1064
  C  C271  1  0.586100  0.943000  0.137700  1.0  -0.022
  C  C272  1  0.780230  0.808700  0.434950  1.0  0.7003
  C  C273  1  0.892500  0.090800  0.257200  1.0  -0.0692
  C  C274  1  0.922500  0.066000  0.304400  1.0  -0.1141
  C  C275  1  0.834610  0.260700  0.086900  1.0  0.7123
  C  C276  1  0.854800  0.735400  0.276700  1.0  -0.128
  C  C277  1  0.844800  0.723900  0.315900  1.0  -0.078
  C  C278  1  0.571200  0.920000  0.172300  1.0  -0.121
  C  C279  1  0.372330  0.739500  0.142300  1.0  -0.1359
  C  C280  1  0.366200  0.672400  0.171300  1.0  -0.0953
  C  C281  1  0.400000  0.654300  0.224900  1.0  -0.0107
  C  C282  1  0.443800  0.706400  0.252900  1.0  0.0107
  C  C283  1  0.452600  0.772000  0.224500  1.0  0.0275
  C  C284  1  0.418080  0.791700  0.172200  1.0  0.1936
  C  C285  1  0.476800  0.688500  0.309700  1.0  -0.1531
  C  C286  1  0.465300  0.629400  0.336000  1.0  -0.1011
  C  C287  1  0.288900  0.329100  0.389880  1.0  -0.0421
  C  C288  1  0.312600  0.268400  0.374400  1.0  -0.1128
  C  C289  1  0.320420  0.286000  0.330810  1.0  0.0123
  C  C290  1  0.301830  0.366500  0.300700  1.0  0.0286
  C  C291  1  0.271980  0.413200  0.358950  1.0  0.1673
  C  C292  1  0.275530  0.428300  0.313560  1.0  0.0296
  C  C293  1  0.255450  0.517100  0.281000  1.0  -0.2321
  C  C294  1  0.312600  0.381500  0.259500  1.0  -0.2137
  C  C295  1  0.204880  0.547900  0.086470  1.0  0.6024
  C  C296  1  0.228500  0.534800  0.185400  1.0  0.3177
  C  C297  1  0.148500  0.492000  0.114000  1.0  -0.0897
  C  C298  1  0.193230  0.528500  0.127200  1.0  -0.1052
  C  C299  1  0.215880  0.510300  0.222360  1.0  -0.0107
  C  C300  1  0.168970  0.476200  0.206700  1.0  0.0365
  C  C301  1  0.132720  0.472100  0.150300  1.0  -0.0027
  C  C302  1  0.154400  0.454000  0.244900  1.0  -0.1374
  C  C303  1  0.107500  0.425000  0.229100  1.0  -0.0986
  C  C304  1  0.338000  0.316100  0.247800  1.0  -0.1064
  C  C305  1  0.086100  0.443000  0.137700  1.0  -0.022
  C  C306  1  0.280230  0.308700  0.434950  1.0  0.7003
  C  C307  1  0.392500  0.590800  0.257200  1.0  -0.0692
  C  C308  1  0.422500  0.566000  0.304400  1.0  -0.1141
  C  C309  1  0.334610  0.760700  0.086900  1.0  0.7123
  C  C310  1  0.354800  0.235400  0.276700  1.0  -0.128
  C  C311  1  0.344800  0.223900  0.315900  1.0  -0.078
  C  C312  1  0.071200  0.420000  0.172300  1.0  -0.121
  C  C313  1  0.872330  0.760500  0.642300  1.0  -0.1362
  C  C314  1  0.866200  0.827600  0.671300  1.0  -0.0954
  C  C315  1  0.900000  0.845700  0.724900  1.0  -0.0107
  C  C316  1  0.943800  0.793600  0.752900  1.0  0.0103
  C  C317  1  0.952600  0.728000  0.724500  1.0  0.0275
  C  C318  1  0.918080  0.708300  0.672200  1.0  0.1938
  C  C319  1  0.976800  0.811500  0.809700  1.0  -0.1536
  C  C320  1  0.965300  0.870600  0.836000  1.0  -0.1003
  C  C321  1  0.788900  0.170900  0.889880  1.0  -0.0432
  C  C322  1  0.812600  0.231600  0.874400  1.0  -0.1147
  C  C323  1  0.820420  0.214000  0.830810  1.0  0.0123
  C  C324  1  0.801830  0.133500  0.800700  1.0  0.0286
  C  C325  1  0.771980  0.086800  0.858950  1.0  0.1666
  C  C326  1  0.775530  0.071700  0.813560  1.0  0.0296
  C  C327  1  0.755450  0.982900  0.781000  1.0  -0.2314
  C  C328  1  0.812600  0.118500  0.759500  1.0  -0.2122
  C  C329  1  0.704880  0.952100  0.586470  1.0  0.6017
  C  C330  1  0.728500  0.965200  0.685400  1.0  0.3187
  C  C331  1  0.648500  0.008000  0.614000  1.0  -0.0902
  C  C332  1  0.693230  0.971500  0.627200  1.0  -0.1045
  C  C333  1  0.715880  0.989700  0.722360  1.0  -0.0105
  C  C334  1  0.668970  0.023800  0.706700  1.0  0.0377
  C  C335  1  0.632720  0.027900  0.650300  1.0  -0.0021
  C  C336  1  0.654400  0.046000  0.744900  1.0  -0.1376
  C  C337  1  0.607500  0.075000  0.729100  1.0  -0.098
  C  C338  1  0.838000  0.183900  0.747800  1.0  -0.1065
  C  C339  1  0.586100  0.057000  0.637700  1.0  -0.0221
  C  C340  1  0.780230  0.191300  0.934950  1.0  0.7026
  C  C341  1  0.892500  0.909200  0.757200  1.0  -0.069
  C  C342  1  0.922500  0.934000  0.804400  1.0  -0.1147
  C  C343  1  0.834610  0.739300  0.586900  1.0  0.7125
  C  C344  1  0.854800  0.264600  0.776700  1.0  -0.1279
  C  C345  1  0.844800  0.276100  0.815900  1.0  -0.0787
  C  C346  1  0.571200  0.080000  0.672300  1.0  -0.1212
  C  C347  1  0.372330  0.260500  0.642300  1.0  -0.1362
  C  C348  1  0.366200  0.327600  0.671300  1.0  -0.0954
  C  C349  1  0.400000  0.345700  0.724900  1.0  -0.0107
  C  C350  1  0.443800  0.293600  0.752900  1.0  0.0103
  C  C351  1  0.452600  0.228000  0.724500  1.0  0.0275
  C  C352  1  0.418080  0.208300  0.672200  1.0  0.1938
  C  C353  1  0.476800  0.311500  0.809700  1.0  -0.1536
  C  C354  1  0.465300  0.370600  0.836000  1.0  -0.1003
  C  C355  1  0.288900  0.670900  0.889880  1.0  -0.0432
  C  C356  1  0.312600  0.731600  0.874400  1.0  -0.1147
  C  C357  1  0.320420  0.714000  0.830810  1.0  0.0123
  C  C358  1  0.301830  0.633500  0.800700  1.0  0.0286
  C  C359  1  0.271980  0.586800  0.858950  1.0  0.1666
  C  C360  1  0.275530  0.571700  0.813560  1.0  0.0296
  C  C361  1  0.255450  0.482900  0.781000  1.0  -0.2314
  C  C362  1  0.312600  0.618500  0.759500  1.0  -0.2122
  C  C363  1  0.204880  0.452100  0.586470  1.0  0.6017
  C  C364  1  0.228500  0.465200  0.685400  1.0  0.3187
  C  C365  1  0.148500  0.508000  0.614000  1.0  -0.0902
  C  C366  1  0.193230  0.471500  0.627200  1.0  -0.1045
  C  C367  1  0.215880  0.489700  0.722360  1.0  -0.0105
  C  C368  1  0.168970  0.523800  0.706700  1.0  0.0377
  C  C369  1  0.132720  0.527900  0.650300  1.0  -0.0021
  C  C370  1  0.154400  0.546000  0.744900  1.0  -0.1376
  C  C371  1  0.107500  0.575000  0.729100  1.0  -0.098
  C  C372  1  0.338000  0.683900  0.747800  1.0  -0.1065
  C  C373  1  0.086100  0.557000  0.637700  1.0  -0.0221
  C  C374  1  0.280230  0.691300  0.934950  1.0  0.7026
  C  C375  1  0.392500  0.409200  0.757200  1.0  -0.069
  C  C376  1  0.422500  0.434000  0.804400  1.0  -0.1147
  C  C377  1  0.334610  0.239300  0.586900  1.0  0.7125
  C  C378  1  0.354800  0.764600  0.776700  1.0  -0.1279
  C  C379  1  0.344800  0.776100  0.815900  1.0  -0.0787
  C  C380  1  0.071200  0.580000  0.672300  1.0  -0.1212
  C  C381  1  0.127670  0.760500  0.857700  1.0  -0.1363
  C  C382  1  0.133800  0.827600  0.828700  1.0  -0.0953
  C  C383  1  0.100000  0.845700  0.775100  1.0  -0.0109
  C  C384  1  0.056200  0.793600  0.747100  1.0  0.0099
  C  C385  1  0.047400  0.728000  0.775500  1.0  0.0284
  C  C386  1  0.081920  0.708300  0.827800  1.0  0.1959
  C  C387  1  0.023200  0.811500  0.690300  1.0  -0.1529
  C  C388  1  0.034700  0.870600  0.664000  1.0  -0.1012
  C  C389  1  0.211100  0.170900  0.610120  1.0  -0.0447
  C  C390  1  0.187400  0.231600  0.625600  1.0  -0.1139
  C  C391  1  0.179580  0.214000  0.669190  1.0  0.0132
  C  C392  1  0.198170  0.133500  0.699300  1.0  0.0286
  C  C393  1  0.228020  0.086800  0.641050  1.0  0.1647
  C  C394  1  0.224470  0.071700  0.686440  1.0  0.0298
  C  C395  1  0.244550  0.982900  0.719000  1.0  -0.2326
  C  C396  1  0.187400  0.118500  0.740500  1.0  -0.2139
  C  C397  1  0.295120  0.952100  0.913530  1.0  0.6002
  C  C398  1  0.271500  0.965200  0.814600  1.0  0.319
  C  C399  1  0.351500  0.008000  0.886000  1.0  -0.0918
  C  C400  1  0.306770  0.971500  0.872800  1.0  -0.1021
  C  C401  1  0.284120  0.989700  0.777640  1.0  -0.0096
  C  C402  1  0.331030  0.023800  0.793300  1.0  0.0382
  C  C403  1  0.367280  0.027900  0.849700  1.0  -0.0037
  C  C404  1  0.345600  0.046000  0.755100  1.0  -0.1358
  C  C405  1  0.392500  0.075000  0.770900  1.0  -0.0978
  C  C406  1  0.162000  0.183900  0.752200  1.0  -0.1101
  C  C407  1  0.413900  0.057000  0.862300  1.0  -0.0212
  C  C408  1  0.219770  0.191300  0.565050  1.0  0.7001
  C  C409  1  0.107500  0.909200  0.742800  1.0  -0.0691
  C  C410  1  0.077500  0.934000  0.695600  1.0  -0.1177
  C  C411  1  0.165390  0.739300  0.913100  1.0  0.7118
  C  C412  1  0.145200  0.264600  0.723300  1.0  -0.1294
  C  C413  1  0.155200  0.276100  0.684100  1.0  -0.0808
  C  C414  1  0.428800  0.080000  0.827700  1.0  -0.1193
  C  C415  1  0.627670  0.260500  0.857700  1.0  -0.1363
  C  C416  1  0.633800  0.327600  0.828700  1.0  -0.0953
  C  C417  1  0.600000  0.345700  0.775100  1.0  -0.0109
  C  C418  1  0.556200  0.293600  0.747100  1.0  0.0099
  C  C419  1  0.547400  0.228000  0.775500  1.0  0.0284
  C  C420  1  0.581920  0.208300  0.827800  1.0  0.1959
  C  C421  1  0.523200  0.311500  0.690300  1.0  -0.1529
  C  C422  1  0.534700  0.370600  0.664000  1.0  -0.1012
  C  C423  1  0.711100  0.670900  0.610120  1.0  -0.0447
  C  C424  1  0.687400  0.731600  0.625600  1.0  -0.1139
  C  C425  1  0.679580  0.714000  0.669190  1.0  0.0132
  C  C426  1  0.698170  0.633500  0.699300  1.0  0.0286
  C  C427  1  0.728020  0.586800  0.641050  1.0  0.1647
  C  C428  1  0.724470  0.571700  0.686440  1.0  0.0298
  C  C429  1  0.744550  0.482900  0.719000  1.0  -0.2326
  C  C430  1  0.687400  0.618500  0.740500  1.0  -0.2139
  C  C431  1  0.795120  0.452100  0.913530  1.0  0.6002
  C  C432  1  0.771500  0.465200  0.814600  1.0  0.319
  C  C433  1  0.851500  0.508000  0.886000  1.0  -0.0918
  C  C434  1  0.806770  0.471500  0.872800  1.0  -0.1021
  C  C435  1  0.784120  0.489700  0.777640  1.0  -0.0096
  C  C436  1  0.831030  0.523800  0.793300  1.0  0.0382
  C  C437  1  0.867280  0.527900  0.849700  1.0  -0.0037
  C  C438  1  0.845600  0.546000  0.755100  1.0  -0.1358
  C  C439  1  0.892500  0.575000  0.770900  1.0  -0.0978
  C  C440  1  0.662000  0.683900  0.752200  1.0  -0.1101
  C  C441  1  0.913900  0.557000  0.862300  1.0  -0.0212
  C  C442  1  0.719770  0.691300  0.565050  1.0  0.7001
  C  C443  1  0.607500  0.409200  0.742800  1.0  -0.0691
  C  C444  1  0.577500  0.434000  0.695600  1.0  -0.1177
  C  C445  1  0.665390  0.239300  0.913100  1.0  0.7118
  C  C446  1  0.645200  0.764600  0.723300  1.0  -0.1294
  C  C447  1  0.655200  0.776100  0.684100  1.0  -0.0808
  C  C448  1  0.928800  0.580000  0.827700  1.0  -0.1193
  C  C449  1  0.000000  0.325600  0.250000  1.0  -0.1577
  C  C450  1  0.500000  0.825600  0.250000  1.0  -0.1578
  C  C451  1  0.000000  0.674400  0.750000  1.0  -0.1585
  C  C452  1  0.500000  0.174400  0.750000  1.0  -0.1585
  O  O453  1  0.074310  0.357100  0.355800  1.0  -0.5126
  O  O454  1  0.253070  0.974300  0.128190  1.0  -0.5288
  O  O455  1  0.228590  0.070400  0.301240  1.0  -0.5326
  O  O456  1  0.241170  0.867700  0.050910  1.0  -0.7209
  O  O457  1  0.203220  0.739800  0.040900  1.0  -0.6537
  O  O458  1  0.250820  0.072900  0.401100  1.0  -0.6552
  O  O459  1  0.325330  0.048500  0.464610  1.0  -0.6663
  O  O460  1  0.200660  0.208700  0.437460  1.0  -0.7804
  O  O461  1  0.161130  0.335300  0.434570  1.0  -0.6347
  O  O462  1  0.574310  0.857100  0.355800  1.0  -0.5126
  O  O463  1  0.753070  0.474300  0.128190  1.0  -0.5288
  O  O464  1  0.728590  0.570400  0.301240  1.0  -0.5326
  O  O465  1  0.741170  0.367700  0.050910  1.0  -0.7208
  O  O466  1  0.703220  0.239800  0.040900  1.0  -0.6537
  O  O467  1  0.750820  0.572900  0.401100  1.0  -0.6548
  O  O468  1  0.825330  0.548500  0.464610  1.0  -0.6663
  O  O469  1  0.700660  0.708700  0.437460  1.0  -0.7804
  O  O470  1  0.661130  0.835300  0.434570  1.0  -0.6347
  O  O471  1  0.925690  0.357100  0.144200  1.0  -0.5121
  O  O472  1  0.746930  0.974300  0.371810  1.0  -0.5262
  O  O473  1  0.771410  0.070400  0.198760  1.0  -0.5321
  O  O474  1  0.758830  0.867700  0.449090  1.0  -0.7201
  O  O475  1  0.796780  0.739800  0.459100  1.0  -0.6542
  O  O476  1  0.749180  0.072900  0.098900  1.0  -0.6571
  O  O477  1  0.674670  0.048500  0.035390  1.0  -0.6625
  O  O478  1  0.799340  0.208700  0.062540  1.0  -0.7812
  O  O479  1  0.838870  0.335300  0.065430  1.0  -0.6361
  O  O480  1  0.425690  0.857100  0.144200  1.0  -0.5121
  O  O481  1  0.246930  0.474300  0.371810  1.0  -0.5262
  O  O482  1  0.271410  0.570400  0.198760  1.0  -0.5321
  O  O483  1  0.258830  0.367700  0.449090  1.0  -0.7201
  O  O484  1  0.296780  0.239800  0.459100  1.0  -0.6543
  O  O485  1  0.249180  0.572900  0.098900  1.0  -0.6571
  O  O486  1  0.174670  0.548500  0.035390  1.0  -0.6625
  O  O487  1  0.299340  0.708700  0.062540  1.0  -0.7812
  O  O488  1  0.338870  0.835300  0.065430  1.0  -0.6361
  O  O489  1  0.925690  0.642900  0.644200  1.0  -0.5111
  O  O490  1  0.746930  0.025700  0.871810  1.0  -0.5287
  O  O491  1  0.771410  0.929600  0.698760  1.0  -0.5323
  O  O492  1  0.758830  0.132300  0.949090  1.0  -0.7195
  O  O493  1  0.796780  0.260200  0.959100  1.0  -0.6533
  O  O494  1  0.749180  0.927100  0.598900  1.0  -0.6577
  O  O495  1  0.674670  0.951500  0.535390  1.0  -0.6628
  O  O496  1  0.799340  0.791300  0.562540  1.0  -0.7807
  O  O497  1  0.838870  0.664700  0.565430  1.0  -0.6355
  O  O498  1  0.425690  0.142900  0.644200  1.0  -0.5111
  O  O499  1  0.246930  0.525700  0.871810  1.0  -0.5287
  O  O500  1  0.271410  0.429600  0.698760  1.0  -0.5323
  O  O501  1  0.258830  0.632300  0.949090  1.0  -0.7195
  O  O502  1  0.296780  0.760200  0.959100  1.0  -0.6533
  O  O503  1  0.249180  0.427100  0.598900  1.0  -0.6577
  O  O504  1  0.174670  0.451500  0.535390  1.0  -0.6628
  O  O505  1  0.299340  0.291300  0.562540  1.0  -0.7807
  O  O506  1  0.338870  0.164700  0.565430  1.0  -0.6355
  O  O507  1  0.074310  0.642900  0.855800  1.0  -0.5126
  O  O508  1  0.253070  0.025700  0.628190  1.0  -0.5271
  O  O509  1  0.228590  0.929600  0.801240  1.0  -0.5314
  O  O510  1  0.241170  0.132300  0.550910  1.0  -0.7196
  O  O511  1  0.203220  0.260200  0.540900  1.0  -0.6531
  O  O512  1  0.250820  0.927100  0.901100  1.0  -0.656
  O  O513  1  0.325330  0.951500  0.964610  1.0  -0.6638
  O  O514  1  0.200660  0.791300  0.937460  1.0  -0.7819
  O  O515  1  0.161130  0.664700  0.934570  1.0  -0.6345
  O  O516  1  0.574310  0.142900  0.855800  1.0  -0.5126
  O  O517  1  0.753070  0.525700  0.628190  1.0  -0.5271
  O  O518  1  0.728590  0.429600  0.801240  1.0  -0.5314
  O  O519  1  0.741170  0.632300  0.550910  1.0  -0.7196
  O  O520  1  0.703220  0.760200  0.540900  1.0  -0.6531
  O  O521  1  0.750820  0.427100  0.901100  1.0  -0.6555
  O  O522  1  0.825330  0.451500  0.964610  1.0  -0.6638
  O  O523  1  0.700660  0.291300  0.937460  1.0  -0.7819
  O  O524  1  0.661130  0.164700  0.934570  1.0  -0.6345
