# generated using pymatgen
data_KZnH15C15O7
_symmetry_space_group_name_H-M   'P 1'
_cell_length_a   15.43700000
_cell_length_b   15.98500000
_cell_length_c   16.47500000
_cell_angle_alpha   90.00000000
_cell_angle_beta   90.14500000
_cell_angle_gamma   90.00000000
_symmetry_Int_Tables_number   1
_chemical_formula_structural   KZnH15C15O7
_chemical_formula_sum   'K8 Zn8 H120 C120 O56'
_cell_volume   4065.36531286
_cell_formula_units_Z   8
loop_
 _symmetry_equiv_pos_site_id
 _symmetry_equiv_pos_as_xyz
  1  'x, y, z'
loop_
 _atom_site_type_symbol
 _atom_site_label
 _atom_site_symmetry_multiplicity
 _atom_site_fract_x
 _atom_site_fract_y
 _atom_site_fract_z
 _atom_site_occupancy
 _atom_site_charge
  K  K1  1  0.534220  0.627560  0.047380  1.0  0.9573
  K  K2  1  0.034220  0.127560  0.047380  1.0  0.9573
  K  K3  1  0.465780  0.627560  0.452620  1.0  0.9564
  K  K4  1  0.965780  0.127560  0.452620  1.0  0.9564
  K  K5  1  0.465780  0.372440  0.952620  1.0  0.9563
  K  K6  1  0.965780  0.872440  0.952620  1.0  0.9563
  K  K7  1  0.534220  0.372440  0.547380  1.0  0.9575
  K  K8  1  0.034220  0.872440  0.547380  1.0  0.9575
  Zn  Zn9  1  0.500000  0.468680  0.750000  1.0  1.097
  Zn  Zn10  1  0.000000  0.968680  0.750000  1.0  1.097
  Zn  Zn11  1  0.500000  0.531320  0.250000  1.0  1.0966
  Zn  Zn12  1  0.000000  0.031320  0.250000  1.0  1.0966
  Zn  Zn13  1  0.750000  0.750000  0.000000  1.0  1.1079
  Zn  Zn14  1  0.250000  0.750000  0.500000  1.0  1.1079
  Zn  Zn15  1  0.250000  0.250000  0.000000  1.0  1.1079
  Zn  Zn16  1  0.750000  0.250000  0.500000  1.0  1.1079
  H  H17  1  0.440300  0.718600  0.816100  1.0  0.124
  H  H18  1  0.517400  0.770400  0.852400  1.0  0.1299
  H  H19  1  0.432700  0.816000  0.823900  1.0  0.1276
  H  H20  1  0.490400  0.924900  0.019400  1.0  0.1057
  H  H21  1  0.486600  0.904600  0.926700  1.0  0.1211
  H  H22  1  0.499800  0.870100  0.129800  1.0  0.116
  H  H23  1  0.444700  0.817100  0.190900  1.0  0.1231
  H  H24  1  0.404000  0.895800  0.148700  1.0  0.1325
  H  H25  1  0.280100  0.559600  0.000800  1.0  0.1313
  H  H26  1  0.214400  0.616800  0.047300  1.0  0.1292
  H  H27  1  0.291900  0.575500  0.094100  1.0  0.121
  H  H28  1  0.285700  0.601700  0.892400  1.0  0.1031
  H  H29  1  0.326100  0.665400  0.830800  1.0  0.1132
  H  H30  1  0.319600  0.766100  0.204700  1.0  0.1043
  H  H31  1  0.264000  0.691000  0.172400  1.0  0.1105
  H  H32  1  0.940300  0.218600  0.816100  1.0  0.124
  H  H33  1  0.017400  0.270400  0.852400  1.0  0.1299
  H  H34  1  0.932700  0.316000  0.823900  1.0  0.1276
  H  H35  1  0.990400  0.424900  0.019400  1.0  0.1057
  H  H36  1  0.986600  0.404600  0.926700  1.0  0.1211
  H  H37  1  0.999800  0.370100  0.129800  1.0  0.116
  H  H38  1  0.944700  0.317100  0.190900  1.0  0.1231
  H  H39  1  0.904000  0.395800  0.148700  1.0  0.1325
  H  H40  1  0.780100  0.059600  0.000800  1.0  0.1313
  H  H41  1  0.714400  0.116800  0.047300  1.0  0.1292
  H  H42  1  0.791900  0.075500  0.094100  1.0  0.121
  H  H43  1  0.785700  0.101700  0.892400  1.0  0.1031
  H  H44  1  0.826100  0.165400  0.830800  1.0  0.1132
  H  H45  1  0.819600  0.266100  0.204700  1.0  0.1043
  H  H46  1  0.764000  0.191000  0.172400  1.0  0.1105
  H  H47  1  0.559700  0.718600  0.683900  1.0  0.125
  H  H48  1  0.482600  0.770400  0.647600  1.0  0.1277
  H  H49  1  0.567300  0.816000  0.676100  1.0  0.1275
  H  H50  1  0.509600  0.924900  0.480600  1.0  0.1055
  H  H51  1  0.513400  0.904600  0.573300  1.0  0.1206
  H  H52  1  0.500200  0.870100  0.370200  1.0  0.1174
  H  H53  1  0.555300  0.817100  0.309100  1.0  0.1223
  H  H54  1  0.596000  0.895800  0.351300  1.0  0.133
  H  H55  1  0.719900  0.559600  0.499200  1.0  0.1327
  H  H56  1  0.785600  0.616800  0.452700  1.0  0.1322
  H  H57  1  0.708100  0.575500  0.405900  1.0  0.1198
  H  H58  1  0.714300  0.601700  0.607600  1.0  0.1016
  H  H59  1  0.673900  0.665400  0.669200  1.0  0.1138
  H  H60  1  0.680400  0.766100  0.295300  1.0  0.1048
  H  H61  1  0.736000  0.691000  0.327600  1.0  0.1114
  H  H62  1  0.059700  0.218600  0.683900  1.0  0.125
  H  H63  1  0.982600  0.270400  0.647600  1.0  0.1277
  H  H64  1  0.067300  0.316000  0.676100  1.0  0.1275
  H  H65  1  0.009600  0.424900  0.480600  1.0  0.1055
  H  H66  1  0.013400  0.404600  0.573300  1.0  0.1206
  H  H67  1  0.000200  0.370100  0.370200  1.0  0.1174
  H  H68  1  0.055300  0.317100  0.309100  1.0  0.1223
  H  H69  1  0.096000  0.395800  0.351300  1.0  0.133
  H  H70  1  0.219900  0.059600  0.499200  1.0  0.1327
  H  H71  1  0.285600  0.116800  0.452700  1.0  0.1322
  H  H72  1  0.208100  0.075500  0.405900  1.0  0.1198
  H  H73  1  0.214300  0.101700  0.607600  1.0  0.1016
  H  H74  1  0.173900  0.165400  0.669200  1.0  0.1138
  H  H75  1  0.180400  0.266100  0.295300  1.0  0.1048
  H  H76  1  0.236000  0.191000  0.327600  1.0  0.1114
  H  H77  1  0.559700  0.281400  0.183900  1.0  0.1247
  H  H78  1  0.482600  0.229600  0.147600  1.0  0.1276
  H  H79  1  0.567300  0.184000  0.176100  1.0  0.1296
  H  H80  1  0.509600  0.075100  0.980600  1.0  0.1052
  H  H81  1  0.513400  0.095400  0.073300  1.0  0.1217
  H  H82  1  0.500200  0.129900  0.870200  1.0  0.118
  H  H83  1  0.555300  0.182900  0.809100  1.0  0.1225
  H  H84  1  0.596000  0.104200  0.851300  1.0  0.133
  H  H85  1  0.719900  0.440400  0.999200  1.0  0.1319
  H  H86  1  0.785600  0.383200  0.952700  1.0  0.1306
  H  H87  1  0.708100  0.424500  0.905900  1.0  0.1198
  H  H88  1  0.714300  0.398300  0.107600  1.0  0.1012
  H  H89  1  0.673900  0.334600  0.169200  1.0  0.1139
  H  H90  1  0.680400  0.233900  0.795300  1.0  0.1042
  H  H91  1  0.736000  0.309000  0.827600  1.0  0.1117
  H  H92  1  0.059700  0.781400  0.183900  1.0  0.1247
  H  H93  1  0.982600  0.729600  0.147600  1.0  0.1276
  H  H94  1  0.067300  0.684000  0.176100  1.0  0.1296
  H  H95  1  0.009600  0.575100  0.980600  1.0  0.1052
  H  H96  1  0.013400  0.595400  0.073300  1.0  0.1217
  H  H97  1  0.000200  0.629900  0.870200  1.0  0.118
  H  H98  1  0.055300  0.682900  0.809100  1.0  0.1225
  H  H99  1  0.096000  0.604200  0.851300  1.0  0.133
  H  H100  1  0.219900  0.940400  0.999200  1.0  0.1319
  H  H101  1  0.285600  0.883200  0.952700  1.0  0.1306
  H  H102  1  0.208100  0.924500  0.905900  1.0  0.1198
  H  H103  1  0.214300  0.898300  0.107600  1.0  0.1012
  H  H104  1  0.173900  0.834600  0.169200  1.0  0.1139
  H  H105  1  0.180400  0.733900  0.795300  1.0  0.1042
  H  H106  1  0.236000  0.809000  0.827600  1.0  0.1117
  H  H107  1  0.440300  0.281400  0.316100  1.0  0.1252
  H  H108  1  0.517400  0.229600  0.352400  1.0  0.1298
  H  H109  1  0.432700  0.184000  0.323900  1.0  0.1289
  H  H110  1  0.490400  0.075100  0.519400  1.0  0.106
  H  H111  1  0.486600  0.095400  0.426700  1.0  0.121
  H  H112  1  0.499800  0.129900  0.629800  1.0  0.116
  H  H113  1  0.444700  0.182900  0.690900  1.0  0.1232
  H  H114  1  0.404000  0.104200  0.648700  1.0  0.1338
  H  H115  1  0.280100  0.440400  0.500800  1.0  0.1316
  H  H116  1  0.214400  0.383200  0.547300  1.0  0.1282
  H  H117  1  0.291900  0.424500  0.594100  1.0  0.1199
  H  H118  1  0.285700  0.398300  0.392400  1.0  0.103
  H  H119  1  0.326100  0.334600  0.330800  1.0  0.1135
  H  H120  1  0.319600  0.233900  0.704700  1.0  0.1054
  H  H121  1  0.264000  0.309000  0.672400  1.0  0.11
  H  H122  1  0.940300  0.781400  0.316100  1.0  0.1252
  H  H123  1  0.017400  0.729600  0.352400  1.0  0.1298
  H  H124  1  0.932700  0.684000  0.323900  1.0  0.1289
  H  H125  1  0.990400  0.575100  0.519400  1.0  0.106
  H  H126  1  0.986600  0.595400  0.426700  1.0  0.121
  H  H127  1  0.999800  0.629900  0.629800  1.0  0.116
  H  H128  1  0.944700  0.682900  0.690900  1.0  0.1232
  H  H129  1  0.904000  0.604200  0.648700  1.0  0.1338
  H  H130  1  0.780100  0.940400  0.500800  1.0  0.1316
  H  H131  1  0.714400  0.883200  0.547300  1.0  0.1282
  H  H132  1  0.791900  0.924500  0.594100  1.0  0.1199
  H  H133  1  0.785700  0.898300  0.392400  1.0  0.103
  H  H134  1  0.826100  0.834600  0.330800  1.0  0.1135
  H  H135  1  0.819600  0.733900  0.704700  1.0  0.1054
  H  H136  1  0.764000  0.809000  0.672400  1.0  0.11
  C  C137  1  0.455500  0.766200  0.848600  1.0  -0.3872
  C  C138  1  0.417700  0.756300  0.932600  1.0  0.0662
  C  C139  1  0.441900  0.810400  0.996100  1.0  -0.0582
  C  C140  1  0.501500  0.881600  0.979400  1.0  -0.2866
  C  C141  1  0.597700  0.863100  0.980000  1.0  0.7597
  C  C142  1  0.442900  0.849500  0.141800  1.0  -0.3332
  C  C143  1  0.411800  0.795600  0.073300  1.0  0.056
  C  C144  1  0.354900  0.730100  0.089500  1.0  -0.0515
  C  C145  1  0.329300  0.675100  0.025500  1.0  0.0691
  C  C146  1  0.361600  0.689800  0.948400  1.0  -0.0776
  C  C147  1  0.273900  0.600000  0.043500  1.0  -0.3449
  C  C148  1  0.338200  0.631900  0.878600  1.0  -0.275
  C  C149  1  0.408900  0.569500  0.858800  1.0  0.731
  C  C150  1  0.379000  0.652900  0.222700  1.0  0.7638
  C  C151  1  0.322300  0.713400  0.175400  1.0  -0.2854
  C  C152  1  0.955500  0.266200  0.848600  1.0  -0.3872
  C  C153  1  0.917700  0.256300  0.932600  1.0  0.0662
  C  C154  1  0.941900  0.310400  0.996100  1.0  -0.0582
  C  C155  1  0.001500  0.381600  0.979400  1.0  -0.2866
  C  C156  1  0.097700  0.363100  0.980000  1.0  0.7597
  C  C157  1  0.942900  0.349500  0.141800  1.0  -0.3332
  C  C158  1  0.911800  0.295600  0.073300  1.0  0.056
  C  C159  1  0.854900  0.230100  0.089500  1.0  -0.0515
  C  C160  1  0.829300  0.175100  0.025500  1.0  0.0691
  C  C161  1  0.861600  0.189800  0.948400  1.0  -0.0776
  C  C162  1  0.773900  0.100000  0.043500  1.0  -0.3449
  C  C163  1  0.838200  0.131900  0.878600  1.0  -0.275
  C  C164  1  0.908900  0.069500  0.858800  1.0  0.731
  C  C165  1  0.879000  0.152900  0.222700  1.0  0.7638
  C  C166  1  0.822300  0.213400  0.175400  1.0  -0.2854
  C  C167  1  0.544500  0.766200  0.651400  1.0  -0.3846
  C  C168  1  0.582300  0.756300  0.567400  1.0  0.0682
  C  C169  1  0.558100  0.810400  0.503900  1.0  -0.0601
  C  C170  1  0.498500  0.881600  0.520600  1.0  -0.2844
  C  C171  1  0.402300  0.863100  0.520000  1.0  0.7628
  C  C172  1  0.557100  0.849500  0.358200  1.0  -0.3328
  C  C173  1  0.588200  0.795600  0.426700  1.0  0.0554
  C  C174  1  0.645100  0.730100  0.410500  1.0  -0.0536
  C  C175  1  0.670700  0.675100  0.474500  1.0  0.0673
  C  C176  1  0.638400  0.689800  0.551600  1.0  -0.0783
  C  C177  1  0.726100  0.600000  0.456500  1.0  -0.3444
  C  C178  1  0.661800  0.631900  0.621400  1.0  -0.2717
  C  C179  1  0.591100  0.569500  0.641200  1.0  0.7288
  C  C180  1  0.621000  0.652900  0.277300  1.0  0.7638
  C  C181  1  0.677700  0.713400  0.324600  1.0  -0.2842
  C  C182  1  0.044500  0.266200  0.651400  1.0  -0.3846
  C  C183  1  0.082300  0.256300  0.567400  1.0  0.0682
  C  C184  1  0.058100  0.310400  0.503900  1.0  -0.0601
  C  C185  1  0.998500  0.381600  0.520600  1.0  -0.2844
  C  C186  1  0.902300  0.363100  0.520000  1.0  0.7628
  C  C187  1  0.057100  0.349500  0.358200  1.0  -0.3328
  C  C188  1  0.088200  0.295600  0.426700  1.0  0.0554
  C  C189  1  0.145100  0.230100  0.410500  1.0  -0.0536
  C  C190  1  0.170700  0.175100  0.474500  1.0  0.0673
  C  C191  1  0.138400  0.189800  0.551600  1.0  -0.0783
  C  C192  1  0.226100  0.100000  0.456500  1.0  -0.3444
  C  C193  1  0.161800  0.131900  0.621400  1.0  -0.2717
  C  C194  1  0.091100  0.069500  0.641200  1.0  0.7288
  C  C195  1  0.121000  0.152900  0.277300  1.0  0.7638
  C  C196  1  0.177700  0.213400  0.324600  1.0  -0.2842
  C  C197  1  0.544500  0.233800  0.151400  1.0  -0.3844
  C  C198  1  0.582300  0.243700  0.067400  1.0  0.0684
  C  C199  1  0.558100  0.189600  0.003900  1.0  -0.0599
  C  C200  1  0.498500  0.118400  0.020600  1.0  -0.2852
  C  C201  1  0.402300  0.136900  0.020000  1.0  0.7628
  C  C202  1  0.557100  0.150500  0.858200  1.0  -0.3326
  C  C203  1  0.588200  0.204400  0.926700  1.0  0.0553
  C  C204  1  0.645100  0.269900  0.910500  1.0  -0.054
  C  C205  1  0.670700  0.324900  0.974500  1.0  0.0676
  C  C206  1  0.638400  0.310200  0.051600  1.0  -0.0782
  C  C207  1  0.726100  0.400000  0.956500  1.0  -0.3435
  C  C208  1  0.661800  0.368100  0.121400  1.0  -0.2729
  C  C209  1  0.591100  0.430500  0.141200  1.0  0.7296
  C  C210  1  0.621000  0.347100  0.777300  1.0  0.7637
  C  C211  1  0.677700  0.286600  0.824600  1.0  -0.2829
  C  C212  1  0.044500  0.733800  0.151400  1.0  -0.3844
  C  C213  1  0.082300  0.743700  0.067400  1.0  0.0684
  C  C214  1  0.058100  0.689600  0.003900  1.0  -0.0599
  C  C215  1  0.998500  0.618400  0.020600  1.0  -0.2852
  C  C216  1  0.902300  0.636900  0.020000  1.0  0.7628
  C  C217  1  0.057100  0.650500  0.858200  1.0  -0.3326
  C  C218  1  0.088200  0.704400  0.926700  1.0  0.0553
  C  C219  1  0.145100  0.769900  0.910500  1.0  -0.054
  C  C220  1  0.170700  0.824900  0.974500  1.0  0.0676
  C  C221  1  0.138400  0.810200  0.051600  1.0  -0.0782
  C  C222  1  0.226100  0.900000  0.956500  1.0  -0.3435
  C  C223  1  0.161800  0.868100  0.121400  1.0  -0.2729
  C  C224  1  0.091100  0.930500  0.141200  1.0  0.7296
  C  C225  1  0.121000  0.847100  0.777300  1.0  0.7637
  C  C226  1  0.177700  0.786600  0.824600  1.0  -0.2829
  C  C227  1  0.455500  0.233800  0.348600  1.0  -0.3862
  C  C228  1  0.417700  0.243700  0.432600  1.0  0.0664
  C  C229  1  0.441900  0.189600  0.496100  1.0  -0.0582
  C  C230  1  0.501500  0.118400  0.479400  1.0  -0.2862
  C  C231  1  0.597700  0.136900  0.480000  1.0  0.7596
  C  C232  1  0.442900  0.150500  0.641800  1.0  -0.3337
  C  C233  1  0.411800  0.204400  0.573300  1.0  0.0563
  C  C234  1  0.354900  0.269900  0.589500  1.0  -0.0521
  C  C235  1  0.329300  0.324900  0.525500  1.0  0.0688
  C  C236  1  0.361600  0.310200  0.448400  1.0  -0.0777
  C  C237  1  0.273900  0.400000  0.543500  1.0  -0.3444
  C  C238  1  0.338200  0.368100  0.378600  1.0  -0.2734
  C  C239  1  0.408900  0.430500  0.358800  1.0  0.7313
  C  C240  1  0.379000  0.347100  0.722700  1.0  0.7621
  C  C241  1  0.322300  0.286600  0.675400  1.0  -0.2865
  C  C242  1  0.955500  0.733800  0.348600  1.0  -0.3862
  C  C243  1  0.917700  0.743700  0.432600  1.0  0.0664
  C  C244  1  0.941900  0.689600  0.496100  1.0  -0.0582
  C  C245  1  0.001500  0.618400  0.479400  1.0  -0.2862
  C  C246  1  0.097700  0.636900  0.480000  1.0  0.7596
  C  C247  1  0.942900  0.650500  0.641800  1.0  -0.3337
  C  C248  1  0.911800  0.704400  0.573300  1.0  0.0563
  C  C249  1  0.854900  0.769900  0.589500  1.0  -0.0521
  C  C250  1  0.829300  0.824900  0.525500  1.0  0.0688
  C  C251  1  0.861600  0.810200  0.448400  1.0  -0.0777
  C  C252  1  0.773900  0.900000  0.543500  1.0  -0.3444
  C  C253  1  0.838200  0.868100  0.378600  1.0  -0.2734
  C  C254  1  0.908900  0.930500  0.358800  1.0  0.7313
  C  C255  1  0.879000  0.847100  0.722700  1.0  0.7621
  C  C256  1  0.822300  0.786600  0.675400  1.0  -0.2865
  O  O257  1  0.622400  0.791800  0.002000  1.0  -0.628
  O  O258  1  0.646100  0.921500  0.960200  1.0  -0.557
  O  O259  1  0.458400  0.544100  0.909700  1.0  -0.64
  O  O260  1  0.408800  0.546600  0.783700  1.0  -0.5988
  O  O261  1  0.431500  0.608700  0.182500  1.0  -0.648
  O  O262  1  0.797500  0.875700  0.009100  1.0  -0.5155
  O  O263  1  0.369700  0.648900  0.297200  1.0  -0.6177
  O  O264  1  0.122400  0.291800  0.002000  1.0  -0.628
  O  O265  1  0.146100  0.421500  0.960200  1.0  -0.557
  O  O266  1  0.958400  0.044100  0.909700  1.0  -0.64
  O  O267  1  0.908800  0.046600  0.783700  1.0  -0.5988
  O  O268  1  0.931500  0.108700  0.182500  1.0  -0.648
  O  O269  1  0.297500  0.375700  0.009100  1.0  -0.5155
  O  O270  1  0.869700  0.148900  0.297200  1.0  -0.6177
  O  O271  1  0.377600  0.791800  0.498000  1.0  -0.6285
  O  O272  1  0.353900  0.921500  0.539800  1.0  -0.5556
  O  O273  1  0.541600  0.544100  0.590300  1.0  -0.6408
  O  O274  1  0.591200  0.546600  0.716300  1.0  -0.5979
  O  O275  1  0.568500  0.608700  0.317500  1.0  -0.6489
  O  O276  1  0.202500  0.875700  0.490900  1.0  -0.5155
  O  O277  1  0.630300  0.648900  0.202800  1.0  -0.617
  O  O278  1  0.877600  0.291800  0.498000  1.0  -0.6285
  O  O279  1  0.853900  0.421500  0.539800  1.0  -0.5556
  O  O280  1  0.041600  0.044100  0.590300  1.0  -0.6408
  O  O281  1  0.091200  0.046600  0.716300  1.0  -0.5979
  O  O282  1  0.068500  0.108700  0.317500  1.0  -0.6489
  O  O283  1  0.702500  0.375700  0.490900  1.0  -0.5155
  O  O284  1  0.130300  0.148900  0.202800  1.0  -0.617
  O  O285  1  0.377600  0.208200  0.998000  1.0  -0.6278
  O  O286  1  0.353900  0.078500  0.039800  1.0  -0.5557
  O  O287  1  0.541600  0.455900  0.090300  1.0  -0.6383
  O  O288  1  0.591200  0.453400  0.216300  1.0  -0.5984
  O  O289  1  0.568500  0.391300  0.817500  1.0  -0.6489
  O  O290  1  0.202500  0.124300  0.990900  1.0  -0.5154
  O  O291  1  0.630300  0.351100  0.702800  1.0  -0.6171
  O  O292  1  0.877600  0.708200  0.998000  1.0  -0.6278
  O  O293  1  0.853900  0.578500  0.039800  1.0  -0.5557
  O  O294  1  0.041600  0.955900  0.090300  1.0  -0.6383
  O  O295  1  0.091200  0.953400  0.216300  1.0  -0.5984
  O  O296  1  0.068500  0.891300  0.817500  1.0  -0.6489
  O  O297  1  0.702500  0.624300  0.990900  1.0  -0.5154
  O  O298  1  0.130300  0.851100  0.702800  1.0  -0.6171
  O  O299  1  0.622400  0.208200  0.502000  1.0  -0.6257
  O  O300  1  0.646100  0.078500  0.460200  1.0  -0.5566
  O  O301  1  0.458400  0.455900  0.409700  1.0  -0.6407
  O  O302  1  0.408800  0.453400  0.283700  1.0  -0.5987
  O  O303  1  0.431500  0.391300  0.682500  1.0  -0.6482
  O  O304  1  0.797500  0.124300  0.509100  1.0  -0.5156
  O  O305  1  0.369700  0.351100  0.797200  1.0  -0.6181
  O  O306  1  0.122400  0.708200  0.502000  1.0  -0.6257
  O  O307  1  0.146100  0.578500  0.460200  1.0  -0.5566
  O  O308  1  0.958400  0.955900  0.409700  1.0  -0.6407
  O  O309  1  0.908800  0.953400  0.283700  1.0  -0.5987
  O  O310  1  0.931500  0.891300  0.682500  1.0  -0.6482
  O  O311  1  0.297500  0.624300  0.509100  1.0  -0.5156
  O  O312  1  0.869700  0.851100  0.797200  1.0  -0.6181
