# generated using pymatgen
data_InH16C16S2NO8
_symmetry_space_group_name_H-M   'P 1'
_cell_length_a   13.50650000
_cell_length_b   13.50650000
_cell_length_c   15.90760000
_cell_angle_alpha   90.00000000
_cell_angle_beta   90.00000000
_cell_angle_gamma   90.00000000
_symmetry_Int_Tables_number   1
_chemical_formula_structural   InH16C16S2NO8
_chemical_formula_sum   'In4 H64 C64 S8 N4 O32'
_cell_volume   2901.95255590
_cell_formula_units_Z   4
loop_
 _symmetry_equiv_pos_site_id
 _symmetry_equiv_pos_as_xyz
  1  'x, y, z'
loop_
 _atom_site_type_symbol
 _atom_site_label
 _atom_site_symmetry_multiplicity
 _atom_site_fract_x
 _atom_site_fract_y
 _atom_site_fract_z
 _atom_site_occupancy
 _atom_site_charge
  In  In1  1  0.973730  0.615240  0.504590  1.0  1.6099
  In  In2  1  0.970820  0.384140  0.999620  1.0  1.6117
  In  In3  1  0.356610  0.998060  0.252340  1.0  1.5973
  In  In4  1  0.588440  0.001430  0.753410  1.0  1.587
  H  H5  1  0.060690  0.417020  0.277430  1.0  0.116
  H  H6  1  0.148160  0.274370  0.200050  1.0  0.1031
  H  H7  1  0.885160  0.584000  0.771660  1.0  0.1122
  H  H8  1  0.801150  0.730810  0.697310  1.0  0.1073
  H  H9  1  0.553830  0.085640  0.024420  1.0  0.1182
  H  H10  1  0.695790  0.174280  0.946970  1.0  0.1179
  H  H11  1  0.388450  0.915020  0.529920  1.0  0.1188
  H  H12  1  0.246630  0.826330  0.452790  1.0  0.1086
  H  H13  1  0.895260  0.410350  0.732590  1.0  0.1054
  H  H14  1  0.813330  0.261340  0.805340  1.0  0.1122
  H  H15  1  0.053490  0.585980  0.224500  1.0  0.1169
  H  H16  1  0.141750  0.728000  0.301780  1.0  0.1128
  H  H17  1  0.379990  0.077130  0.978610  1.0  0.1116
  H  H18  1  0.231570  0.159640  0.051840  1.0  0.113
  H  H19  1  0.562940  0.922030  0.481660  1.0  0.118
  H  H20  1  0.711540  0.840330  0.555490  1.0  0.1129
  H  H21  1  0.554930  0.161400  0.493850  1.0  0.1003
  H  H22  1  0.526500  0.263990  0.560960  1.0  0.0911
  H  H23  1  0.423510  0.115630  0.591150  1.0  0.1028
  H  H24  1  0.374060  0.118040  0.486940  1.0  0.113
  H  H25  1  0.347950  0.218590  0.559310  1.0  0.0939
  H  H26  1  0.412870  0.856270  0.020420  1.0  0.0969
  H  H27  1  0.432500  0.756540  0.092440  1.0  0.0914
  H  H28  1  0.596450  0.872720  0.998750  1.0  0.1191
  H  H29  1  0.616480  0.776800  0.076790  1.0  0.0948
  H  H30  1  0.559300  0.891760  0.105230  1.0  0.1015
  H  H31  1  0.831270  0.560190  0.270150  1.0  0.0958
  H  H32  1  0.723840  0.538380  0.333270  1.0  0.0852
  H  H33  1  0.860550  0.414920  0.357020  1.0  0.1055
  H  H34  1  0.852430  0.376080  0.249830  1.0  0.1188
  H  H35  1  0.749370  0.355790  0.321050  1.0  0.0961
  H  H36  1  0.487560  0.667580  0.753640  1.0  0.1012
  H  H37  1  0.599290  0.601110  0.773400  1.0  0.0869
  H  H38  1  0.511470  0.651780  0.598810  1.0  0.1103
  H  H39  1  0.625700  0.584090  0.616240  1.0  0.0999
  H  H40  1  0.614770  0.711040  0.648760  1.0  0.1076
  H  H41  1  0.404140  0.409190  0.395500  1.0  0.0969
  H  H42  1  0.386620  0.376630  0.503420  1.0  0.0969
  H  H43  1  0.493960  0.526520  0.483850  1.0  0.1026
  H  H44  1  0.582090  0.454210  0.425250  1.0  0.113
  H  H45  1  0.561290  0.428790  0.535260  1.0  0.0891
  H  H46  1  0.524970  0.586480  0.927060  1.0  0.0911
  H  H47  1  0.562600  0.626530  0.028970  1.0  0.0913
  H  H48  1  0.352560  0.555210  0.979520  1.0  0.1142
  H  H49  1  0.391280  0.590820  0.084230  1.0  0.1049
  H  H50  1  0.445030  0.484140  0.034390  1.0  0.115
  H  H51  1  0.501860  0.362230  0.700070  1.0  0.0921
  H  H52  1  0.611480  0.435690  0.692720  1.0  0.0851
  H  H53  1  0.615190  0.454300  0.849300  1.0  0.0953
  H  H54  1  0.608290  0.325880  0.820360  1.0  0.104
  H  H55  1  0.499040  0.387780  0.857680  1.0  0.1158
  H  H56  1  0.575350  0.443050  0.155280  1.0  0.0973
  H  H57  1  0.602370  0.410440  0.261630  1.0  0.0964
  H  H58  1  0.538150  0.617900  0.198920  1.0  0.1124
  H  H59  1  0.560000  0.583870  0.307420  1.0  0.0921
  H  H60  1  0.460120  0.527870  0.249820  1.0  0.1147
  H  H61  1  0.429800  0.243430  0.393040  1.0  0.0961
  H  H62  1  0.392620  0.720270  0.937700  1.0  0.0948
  H  H63  1  0.707310  0.577000  0.174970  1.0  0.0977
  H  H64  1  0.438090  0.512680  0.668690  1.0  0.1069
  H  H65  1  0.742020  0.459370  0.158140  1.0  0.1007
  H  H66  1  0.546640  0.285310  0.398850  1.0  0.1072
  H  H67  1  0.427290  0.513600  0.773800  1.0  0.1022
  H  H68  1  0.509600  0.753200  0.915820  1.0  0.1035
  C  C69  1  0.206310  0.227110  0.321660  1.0  -0.1411
  C  C70  1  0.125690  0.360920  0.393800  1.0  -0.1863
  C  C71  1  0.088710  0.436420  0.453150  1.0  0.5764
  C  C72  1  0.263890  0.139850  0.294710  1.0  0.6469
  C  C73  1  0.106210  0.362280  0.308560  1.0  -0.0496
  C  C74  1  0.153090  0.286280  0.267200  1.0  -0.036
  C  C75  1  0.497950  0.218480  0.508260  1.0  0.0117
  C  C76  1  0.404670  0.164780  0.537900  1.0  -0.2755
  C  C77  1  0.735350  0.769610  0.818170  1.0  -0.1126
  C  C78  1  0.812490  0.632340  0.887360  1.0  -0.1845
  C  C79  1  0.848530  0.555530  0.945500  1.0  0.5715
  C  C80  1  0.679050  0.858130  0.793050  1.0  0.6497
  C  C81  1  0.837050  0.636190  0.803160  1.0  -0.032
  C  C82  1  0.792270  0.714470  0.763420  1.0  -0.0195
  C  C83  1  0.462660  0.793030  0.035340  1.0  0.0142
  C  C84  1  0.565240  0.835530  0.054880  1.0  -0.2803
  C  C85  1  0.742660  0.232730  0.068480  1.0  -0.1499
  C  C86  1  0.609640  0.151130  0.140740  1.0  -0.1787
  C  C87  1  0.535120  0.113200  0.200480  1.0  0.58
  C  C88  1  0.829690  0.290690  0.041660  1.0  0.6386
  C  C89  1  0.608210  0.131660  0.055490  1.0  -0.0209
  C  C90  1  0.683880  0.179020  0.014080  1.0  -0.0289
  C  C91  1  0.767580  0.509110  0.279620  1.0  0.0165
  C  C92  1  0.809520  0.407470  0.302940  1.0  -0.2817
  C  C93  1  0.205390  0.760800  0.573310  1.0  -0.0899
  C  C94  1  0.338270  0.842660  0.645160  1.0  -0.1759
  C  C95  1  0.411760  0.883230  0.704420  1.0  0.5774
  C  C96  1  0.117270  0.704590  0.546690  1.0  0.6308
  C  C97  1  0.336790  0.865560  0.560540  1.0  -0.0455
  C  C98  1  0.261190  0.818150  0.519310  1.0  -0.0425
  C  C99  1  0.536060  0.607700  0.729100  1.0  0.0006
  C  C100  1  0.574320  0.640060  0.642730  1.0  -0.265
  C  C101  1  0.738880  0.230140  0.686490  1.0  -0.1012
  C  C102  1  0.813960  0.369560  0.618990  1.0  -0.1063
  C  C103  1  0.845520  0.450500  0.563270  1.0  0.6004
  C  C104  1  0.681100  0.142750  0.712010  1.0  0.6454
  C  C105  1  0.844440  0.360500  0.701450  1.0  -0.0475
  C  C106  1  0.800690  0.281130  0.740330  1.0  -0.0254
  C  C107  1  0.442330  0.379090  0.451990  1.0  0.0142
  C  C108  1  0.525370  0.451150  0.475630  1.0  -0.2465
  C  C109  1  0.206690  0.769960  0.181250  1.0  -0.1198
  C  C110  1  0.125510  0.636700  0.109270  1.0  -0.1965
  C  C111  1  0.087820  0.561190  0.050390  1.0  0.5789
  C  C112  1  0.264410  0.856790  0.208580  1.0  0.6431
  C  C113  1  0.102280  0.638220  0.193800  1.0  -0.0595
  C  C114  1  0.149490  0.713890  0.235120  1.0  -0.0434
  C  C115  1  0.498700  0.624020  0.985090  1.0  0.0057
  C  C116  1  0.416500  0.560120  0.023230  1.0  -0.2644
  C  C117  1  0.204370  0.239670  0.934830  1.0  -0.0985
  C  C118  1  0.343400  0.163940  0.866910  1.0  -0.1921
  C  C119  1  0.422690  0.129650  0.810370  1.0  0.5691
  C  C120  1  0.115200  0.295080  0.959690  1.0  0.6427
  C  C121  1  0.332410  0.131000  0.948560  1.0  -0.0508
  C  C122  1  0.253400  0.175160  0.987730  1.0  -0.0429
  C  C123  1  0.541950  0.425540  0.729080  1.0  0.0126
  C  C124  1  0.567480  0.397160  0.819820  1.0  -0.2536
  C  C125  1  0.743730  0.765150  0.437180  1.0  -0.1321
  C  C126  1  0.604490  0.840380  0.368430  1.0  -0.1916
  C  C127  1  0.523870  0.872080  0.311920  1.0  0.5777
  C  C128  1  0.831840  0.708190  0.463070  1.0  0.648
  C  C129  1  0.612980  0.870950  0.450960  1.0  -0.045
  C  C130  1  0.692070  0.827110  0.490490  1.0  -0.0399
  C  C131  1  0.605370  0.472190  0.215540  1.0  0.0084
  C  C132  1  0.537170  0.555960  0.244830  1.0  -0.2658
  S  S133  1  0.199770  0.264320  0.424510  1.0  0.1458
  S  S134  1  0.735620  0.725920  0.919120  1.0  0.1167
  S  S135  1  0.705500  0.226130  0.171280  1.0  0.1313
  S  S136  1  0.245980  0.762890  0.675430  1.0  0.1206
  S  S137  1  0.733750  0.278740  0.587180  1.0  0.1213
  S  S138  1  0.204070  0.730020  0.078980  1.0  0.1315
  S  S139  1  0.255630  0.248650  0.836590  1.0  0.139
  S  S140  1  0.695480  0.759370  0.337640  1.0  0.1248
  N  N141  1  0.480320  0.279240  0.432560  1.0  -0.1356
  N  N142  1  0.464020  0.724420  0.963120  1.0  -0.1469
  N  N143  1  0.708000  0.506220  0.201840  1.0  -0.1462
  N  N144  1  0.478880  0.514680  0.724670  1.0  -0.1404
  O  O145  1  0.124320  0.441420  0.523480  1.0  -0.4871
  O  O146  1  0.013010  0.501200  0.428410  1.0  -0.6235
  O  O147  1  0.283080  0.119540  0.219210  1.0  -0.5671
  O  O148  1  0.299510  0.077590  0.345070  1.0  -0.59
  O  O149  1  0.809370  0.546240  0.014110  1.0  -0.5359
  O  O150  1  0.928100  0.495110  0.921970  1.0  -0.6133
  O  O151  1  0.665320  0.883720  0.717840  1.0  -0.5701
  O  O152  1  0.639370  0.916310  0.844810  1.0  -0.5899
  O  O153  1  0.531260  0.147770  0.271170  1.0  -0.5325
  O  O154  1  0.470280  0.037570  0.175920  1.0  -0.6169
  O  O155  1  0.852750  0.305830  0.966030  1.0  -0.584
  O  O156  1  0.889030  0.330600  0.092330  1.0  -0.5837
  O  O157  1  0.416260  0.850440  0.775750  1.0  -0.5274
  O  O158  1  0.474480  0.960050  0.678550  1.0  -0.6225
  O  O159  1  0.093540  0.690550  0.471050  1.0  -0.5659
  O  O160  1  0.057250  0.665940  0.597500  1.0  -0.5655
  O  O161  1  0.795870  0.470530  0.501590  1.0  -0.5025
  O  O162  1  0.932030  0.503340  0.581610  1.0  -0.6131
  O  O163  1  0.668890  0.117170  0.787410  1.0  -0.5879
  O  O164  1  0.638380  0.085970  0.660770  1.0  -0.5813
  O  O165  1  0.124640  0.554020  0.980640  1.0  -0.4802
  O  O166  1  0.009900  0.498960  0.074950  1.0  -0.6202
  O  O167  1  0.281050  0.877740  0.284390  1.0  -0.5817
  O  O168  1  0.302310  0.918080  0.158490  1.0  -0.5816
  O  O169  1  0.439400  0.175290  0.745820  1.0  -0.5106
  O  O170  1  0.477270  0.044750  0.830880  1.0  -0.6133
  O  O171  1  0.089600  0.308620  0.034900  1.0  -0.5627
  O  O172  1  0.056350  0.333750  0.907840  1.0  -0.5702
  O  O173  1  0.505220  0.822680  0.249800  1.0  -0.5066
  O  O174  1  0.469650  0.958070  0.329890  1.0  -0.6077
  O  O175  1  0.856350  0.694280  0.538520  1.0  -0.5843
  O  O176  1  0.890380  0.667710  0.411990  1.0  -0.5763
