# generated using pymatgen
data_InH4C12(SO4)2
_symmetry_space_group_name_H-M   'P 1'
_cell_length_a   13.56500000
_cell_length_b   13.56500000
_cell_length_c   15.50300000
_cell_angle_alpha   90.00000000
_cell_angle_beta   90.00000000
_cell_angle_gamma   90.00000000
_symmetry_Int_Tables_number   1
_chemical_formula_structural   InH4C12(SO4)2
_chemical_formula_sum   'In4 H16 C48 S8 O32'
_cell_volume   2852.69501517
_cell_formula_units_Z   4
loop_
 _symmetry_equiv_pos_site_id
 _symmetry_equiv_pos_as_xyz
  1  'x, y, z'
loop_
 _atom_site_type_symbol
 _atom_site_label
 _atom_site_symmetry_multiplicity
 _atom_site_fract_x
 _atom_site_fract_y
 _atom_site_fract_z
 _atom_site_occupancy
 _atom_site_charge
  In  In1  1  0.423660  0.000000  0.250000  1.0  1.5124
  In  In2  1  0.576340  0.000000  0.750000  1.0  1.5113
  In  In3  1  0.000000  0.423660  0.500000  1.0  1.5133
  In  In4  1  0.000000  0.576340  0.000000  1.0  1.5133
  H  H5  1  0.158100  0.238400  0.317800  1.0  0.1207
  H  H6  1  0.070300  0.383400  0.261500  1.0  0.1212
  H  H7  1  0.841900  0.761600  0.817800  1.0  0.1209
  H  H8  1  0.929700  0.616600  0.761500  1.0  0.121
  H  H9  1  0.761600  0.158100  0.567800  1.0  0.1208
  H  H10  1  0.616600  0.070300  0.511500  1.0  0.122
  H  H11  1  0.238400  0.841900  0.067800  1.0  0.1204
  H  H12  1  0.383400  0.929700  0.011500  1.0  0.1213
  H  H13  1  0.841900  0.238400  0.682200  1.0  0.1208
  H  H14  1  0.929700  0.383400  0.738500  1.0  0.1206
  H  H15  1  0.158100  0.761600  0.182200  1.0  0.1205
  H  H16  1  0.070300  0.616600  0.238500  1.0  0.1209
  H  H17  1  0.238400  0.158100  0.432200  1.0  0.1206
  H  H18  1  0.383400  0.070300  0.488500  1.0  0.1213
  H  H19  1  0.761600  0.841900  0.932200  1.0  0.1208
  H  H20  1  0.616600  0.929700  0.988500  1.0  0.1217
  C  C21  1  0.230400  0.225500  0.204400  1.0  -0.1762
  C  C22  1  0.166800  0.263500  0.262500  1.0  -0.036
  C  C23  1  0.114700  0.346200  0.229500  1.0  -0.0406
  C  C24  1  0.137100  0.364500  0.146600  1.0  -0.1405
  C  C25  1  0.298400  0.143900  0.216700  1.0  0.7086
  C  C26  1  0.093200  0.443000  0.090300  1.0  0.7175
  C  C27  1  0.769600  0.774500  0.704400  1.0  -0.1753
  C  C28  1  0.833200  0.736500  0.762500  1.0  -0.0374
  C  C29  1  0.885300  0.653800  0.729500  1.0  -0.0411
  C  C30  1  0.862900  0.635500  0.646600  1.0  -0.1408
  C  C31  1  0.701600  0.856100  0.716700  1.0  0.7082
  C  C32  1  0.906800  0.557000  0.590300  1.0  0.7167
  C  C33  1  0.774500  0.230400  0.454400  1.0  -0.1757
  C  C34  1  0.736500  0.166800  0.512500  1.0  -0.0381
  C  C35  1  0.653800  0.114700  0.479500  1.0  -0.041
  C  C36  1  0.635500  0.137100  0.396600  1.0  -0.1401
  C  C37  1  0.856100  0.298400  0.466700  1.0  0.7084
  C  C38  1  0.557000  0.093200  0.340300  1.0  0.7187
  C  C39  1  0.225500  0.769600  0.954400  1.0  -0.1766
  C  C40  1  0.263500  0.833200  0.012500  1.0  -0.0374
  C  C41  1  0.346200  0.885300  0.979500  1.0  -0.0408
  C  C42  1  0.364500  0.862900  0.896600  1.0  -0.1424
  C  C43  1  0.143900  0.701600  0.966700  1.0  0.7094
  C  C44  1  0.443000  0.906800  0.840300  1.0  0.7169
  C  C45  1  0.769600  0.225500  0.795600  1.0  -0.1763
  C  C46  1  0.833200  0.263500  0.737500  1.0  -0.0355
  C  C47  1  0.885300  0.346200  0.770500  1.0  -0.0414
  C  C48  1  0.862900  0.364500  0.853400  1.0  -0.1383
  C  C49  1  0.701600  0.143900  0.783300  1.0  0.7081
  C  C50  1  0.906800  0.443000  0.909700  1.0  0.7155
  C  C51  1  0.230400  0.774500  0.295600  1.0  -0.1762
  C  C52  1  0.166800  0.736500  0.237500  1.0  -0.0357
  C  C53  1  0.114700  0.653800  0.270500  1.0  -0.0405
  C  C54  1  0.137100  0.635500  0.353400  1.0  -0.1379
  C  C55  1  0.298400  0.856100  0.283300  1.0  0.7075
  C  C56  1  0.093200  0.557000  0.409700  1.0  0.7173
  C  C57  1  0.225500  0.230400  0.545600  1.0  -0.1765
  C  C58  1  0.263500  0.166800  0.487500  1.0  -0.0361
  C  C59  1  0.346200  0.114700  0.520500  1.0  -0.0414
  C  C60  1  0.364500  0.137100  0.603400  1.0  -0.1384
  C  C61  1  0.143900  0.298400  0.533300  1.0  0.7076
  C  C62  1  0.443000  0.093200  0.659700  1.0  0.7162
  C  C63  1  0.774500  0.769600  0.045600  1.0  -0.1764
  C  C64  1  0.736500  0.833200  0.987500  1.0  -0.0369
  C  C65  1  0.653800  0.885300  0.020500  1.0  -0.0404
  C  C66  1  0.635500  0.862900  0.103400  1.0  -0.1377
  C  C67  1  0.856100  0.701600  0.033300  1.0  0.7079
  C  C68  1  0.557000  0.906800  0.159700  1.0  0.7182
  S  S69  1  0.223290  0.284930  0.107620  1.0  0.1938
  S  S70  1  0.776710  0.715070  0.607620  1.0  0.1951
  S  S71  1  0.715070  0.223290  0.357620  1.0  0.1957
  S  S72  1  0.284930  0.776710  0.857620  1.0  0.198
  S  S73  1  0.776710  0.284930  0.892380  1.0  0.1968
  S  S74  1  0.223290  0.715070  0.392380  1.0  0.1962
  S  S75  1  0.284930  0.223290  0.642380  1.0  0.1994
  S  S76  1  0.715070  0.776710  0.142380  1.0  0.1981
  O  O77  1  0.307100  0.106300  0.290000  1.0  -0.5581
  O  O78  1  0.352000  0.113900  0.155600  1.0  -0.6049
  O  O79  1  0.026300  0.497800  0.122800  1.0  -0.5453
  O  O80  1  0.120900  0.452600  0.015300  1.0  -0.5127
  O  O81  1  0.692900  0.893700  0.790000  1.0  -0.558
  O  O82  1  0.648000  0.886100  0.655600  1.0  -0.6052
  O  O83  1  0.973700  0.502200  0.622800  1.0  -0.5455
  O  O84  1  0.879100  0.547400  0.515300  1.0  -0.5129
  O  O85  1  0.893700  0.307100  0.540000  1.0  -0.5557
  O  O86  1  0.886100  0.352000  0.405600  1.0  -0.6093
  O  O87  1  0.502200  0.026300  0.372800  1.0  -0.5466
  O  O88  1  0.547400  0.120900  0.265300  1.0  -0.514
  O  O89  1  0.106300  0.692900  0.040000  1.0  -0.5568
  O  O90  1  0.113900  0.648000  0.905600  1.0  -0.6079
  O  O91  1  0.497800  0.973700  0.872800  1.0  -0.5471
  O  O92  1  0.452600  0.879100  0.765300  1.0  -0.5145
  O  O93  1  0.692900  0.106300  0.710000  1.0  -0.5578
  O  O94  1  0.648000  0.113900  0.844400  1.0  -0.6104
  O  O95  1  0.973700  0.497800  0.877200  1.0  -0.5458
  O  O96  1  0.879100  0.452600  0.984700  1.0  -0.5129
  O  O97  1  0.307100  0.893700  0.210000  1.0  -0.5577
  O  O98  1  0.352000  0.886100  0.344400  1.0  -0.6102
  O  O99  1  0.026300  0.502200  0.377200  1.0  -0.5463
  O  O100  1  0.120900  0.547400  0.484700  1.0  -0.5148
  O  O101  1  0.106300  0.307100  0.460000  1.0  -0.5565
  O  O102  1  0.113900  0.352000  0.594400  1.0  -0.6132
  O  O103  1  0.497800  0.026300  0.627200  1.0  -0.5488
  O  O104  1  0.452600  0.120900  0.734700  1.0  -0.5158
  O  O105  1  0.893700  0.692900  0.960000  1.0  -0.5557
  O  O106  1  0.886100  0.648000  0.094400  1.0  -0.6139
  O  O107  1  0.502200  0.973700  0.127200  1.0  -0.5469
  O  O108  1  0.547400  0.879100  0.234700  1.0  -0.5149
