# generated using pymatgen
data_UH2C6SO4
_symmetry_space_group_name_H-M   'P 1'
_cell_length_a   12.73370000
_cell_length_b   12.56150000
_cell_length_c   17.87370000
_cell_angle_alpha   90.00000000
_cell_angle_beta   90.00000000
_cell_angle_gamma   90.00000000
_symmetry_Int_Tables_number   1
_chemical_formula_structural   UH2C6SO4
_chemical_formula_sum   'U8 H16 C48 S8 O32'
_cell_volume   2858.97646865
_cell_formula_units_Z   8
loop_
 _symmetry_equiv_pos_site_id
 _symmetry_equiv_pos_as_xyz
  1  'x, y, z'
loop_
 _atom_site_type_symbol
 _atom_site_label
 _atom_site_symmetry_multiplicity
 _atom_site_fract_x
 _atom_site_fract_y
 _atom_site_fract_z
 _atom_site_occupancy
 _atom_site_charge
  U  U1  1  0.082220  0.644260  0.380480  1.0  1.7316
  U  U2  1  0.417780  0.855740  0.880480  1.0  1.7311
  U  U3  1  0.917780  0.644260  0.119520  1.0  1.7358
  U  U4  1  0.582220  0.855740  0.619520  1.0  1.7346
  U  U5  1  0.917780  0.355740  0.619520  1.0  1.7347
  U  U6  1  0.582220  0.144260  0.119520  1.0  1.7354
  U  U7  1  0.082220  0.355740  0.880480  1.0  1.7309
  U  U8  1  0.417780  0.144260  0.380480  1.0  1.7321
  H  H9  1  0.151400  0.434000  0.688600  1.0  0.0738
  H  H10  1  0.259100  0.548400  0.771100  1.0  0.0968
  H  H11  1  0.348600  0.066000  0.188600  1.0  0.0744
  H  H12  1  0.240900  0.951600  0.271100  1.0  0.0966
  H  H13  1  0.848600  0.434000  0.811400  1.0  0.0743
  H  H14  1  0.740900  0.548400  0.728900  1.0  0.0976
  H  H15  1  0.651400  0.066000  0.311400  1.0  0.0742
  H  H16  1  0.759100  0.951600  0.228900  1.0  0.0974
  H  H17  1  0.848600  0.566000  0.311400  1.0  0.0741
  H  H18  1  0.740900  0.451600  0.228900  1.0  0.0976
  H  H19  1  0.651400  0.934000  0.811400  1.0  0.0735
  H  H20  1  0.759100  0.048400  0.728900  1.0  0.0975
  H  H21  1  0.151400  0.566000  0.188600  1.0  0.0734
  H  H22  1  0.259100  0.451600  0.271100  1.0  0.0963
  H  H23  1  0.348600  0.934000  0.688600  1.0  0.074
  H  H24  1  0.240900  0.048400  0.771100  1.0  0.097
  C  C25  1  0.131400  0.485100  0.534780  1.0  0.7302
  C  C26  1  0.195000  0.524500  0.598050  1.0  -0.2205
  C  C27  1  0.191200  0.493000  0.671320  1.0  -0.0866
  C  C28  1  0.253400  0.558100  0.718540  1.0  -0.108
  C  C29  1  0.304200  0.636300  0.679800  1.0  -0.1983
  C  C30  1  0.373000  0.720300  0.711310  1.0  0.7189
  C  C31  1  0.368600  0.014900  0.034780  1.0  0.7303
  C  C32  1  0.305000  0.975500  0.098050  1.0  -0.2218
  C  C33  1  0.308800  0.007000  0.171320  1.0  -0.0864
  C  C34  1  0.246600  0.941900  0.218540  1.0  -0.1085
  C  C35  1  0.195800  0.863700  0.179800  1.0  -0.1983
  C  C36  1  0.127000  0.779700  0.211310  1.0  0.718
  C  C37  1  0.868600  0.485100  0.965220  1.0  0.7307
  C  C38  1  0.805000  0.524500  0.901950  1.0  -0.2217
  C  C39  1  0.808800  0.493000  0.828680  1.0  -0.0864
  C  C40  1  0.746600  0.558100  0.781460  1.0  -0.1098
  C  C41  1  0.695800  0.636300  0.820200  1.0  -0.1986
  C  C42  1  0.627000  0.720300  0.788690  1.0  0.7189
  C  C43  1  0.631400  0.014900  0.465220  1.0  0.731
  C  C44  1  0.695000  0.975500  0.401950  1.0  -0.2205
  C  C45  1  0.691200  0.007000  0.328680  1.0  -0.0864
  C  C46  1  0.753400  0.941900  0.281460  1.0  -0.1102
  C  C47  1  0.804200  0.863700  0.320200  1.0  -0.1988
  C  C48  1  0.873000  0.779700  0.288690  1.0  0.7183
  C  C49  1  0.868600  0.514900  0.465220  1.0  0.7306
  C  C50  1  0.805000  0.475500  0.401950  1.0  -0.221
  C  C51  1  0.808800  0.507000  0.328680  1.0  -0.0864
  C  C52  1  0.746600  0.441900  0.281460  1.0  -0.1101
  C  C53  1  0.695800  0.363700  0.320200  1.0  -0.1985
  C  C54  1  0.627000  0.279700  0.288690  1.0  0.7181
  C  C55  1  0.631400  0.985100  0.965220  1.0  0.7311
  C  C56  1  0.695000  0.024500  0.901950  1.0  -0.2209
  C  C57  1  0.691200  0.993000  0.828680  1.0  -0.0867
  C  C58  1  0.753400  0.058100  0.781460  1.0  -0.1099
  C  C59  1  0.804200  0.136300  0.820200  1.0  -0.1989
  C  C60  1  0.873000  0.220300  0.788690  1.0  0.719
  C  C61  1  0.131400  0.514900  0.034780  1.0  0.7303
  C  C62  1  0.195000  0.475500  0.098050  1.0  -0.2215
  C  C63  1  0.191200  0.507000  0.171320  1.0  -0.0864
  C  C64  1  0.253400  0.441900  0.218540  1.0  -0.1084
  C  C65  1  0.304200  0.363700  0.179800  1.0  -0.1985
  C  C66  1  0.373000  0.279700  0.211310  1.0  0.7182
  C  C67  1  0.368600  0.985100  0.534780  1.0  0.7302
  C  C68  1  0.305000  0.024500  0.598050  1.0  -0.2212
  C  C69  1  0.308800  0.993000  0.671320  1.0  -0.0865
  C  C70  1  0.246600  0.058100  0.718540  1.0  -0.1081
  C  C71  1  0.195800  0.136300  0.679800  1.0  -0.1981
  C  C72  1  0.127000  0.220300  0.711310  1.0  0.7187
  S  S73  1  0.277280  0.632380  0.585330  1.0  0.1388
  S  S74  1  0.222720  0.867620  0.085330  1.0  0.1415
  S  S75  1  0.722720  0.632380  0.914670  1.0  0.1405
  S  S76  1  0.777280  0.867620  0.414670  1.0  0.1403
  S  S77  1  0.722720  0.367620  0.414670  1.0  0.1403
  S  S78  1  0.777280  0.132380  0.914670  1.0  0.1399
  S  S79  1  0.277280  0.367620  0.085330  1.0  0.141
  S  S80  1  0.222720  0.132380  0.585330  1.0  0.1399
  O  O81  1  0.149180  0.524220  0.471240  1.0  -0.7434
  O  O82  1  0.063220  0.413630  0.546530  1.0  -0.7192
  O  O83  1  0.430900  0.769450  0.666040  1.0  -0.6629
  O  O84  1  0.367100  0.736240  0.780570  1.0  -0.7523
  O  O85  1  0.350820  0.975780  0.971240  1.0  -0.7456
  O  O86  1  0.436780  0.086370  0.046530  1.0  -0.7183
  O  O87  1  0.069100  0.730550  0.166040  1.0  -0.663
  O  O88  1  0.132900  0.763760  0.280570  1.0  -0.7528
  O  O89  1  0.850820  0.524220  0.028760  1.0  -0.7433
  O  O90  1  0.936780  0.413630  0.953470  1.0  -0.7203
  O  O91  1  0.569100  0.769450  0.833960  1.0  -0.6637
  O  O92  1  0.632900  0.736240  0.719430  1.0  -0.7535
  O  O93  1  0.649180  0.975780  0.528760  1.0  -0.7418
  O  O94  1  0.563220  0.086370  0.453470  1.0  -0.7192
  O  O95  1  0.930900  0.730550  0.333960  1.0  -0.663
  O  O96  1  0.867100  0.763760  0.219430  1.0  -0.7539
  O  O97  1  0.850820  0.475780  0.528760  1.0  -0.7424
  O  O98  1  0.936780  0.586370  0.453470  1.0  -0.7191
  O  O99  1  0.569100  0.230550  0.333960  1.0  -0.6635
  O  O100  1  0.632900  0.263760  0.219430  1.0  -0.7543
  O  O101  1  0.649180  0.024220  0.028760  1.0  -0.7393
  O  O102  1  0.563220  0.913630  0.953470  1.0  -0.7202
  O  O103  1  0.930900  0.269450  0.833960  1.0  -0.663
  O  O104  1  0.867100  0.236240  0.719430  1.0  -0.7538
  O  O105  1  0.149180  0.475780  0.971240  1.0  -0.7429
  O  O106  1  0.063220  0.586370  0.046530  1.0  -0.7187
  O  O107  1  0.430900  0.230550  0.166040  1.0  -0.6628
  O  O108  1  0.367100  0.263760  0.280570  1.0  -0.7526
  O  O109  1  0.350820  0.024220  0.471240  1.0  -0.7439
  O  O110  1  0.436780  0.913630  0.546530  1.0  -0.7191
  O  O111  1  0.069100  0.269450  0.666040  1.0  -0.6633
  O  O112  1  0.132900  0.236240  0.780570  1.0  -0.7529
