# generated using pymatgen
data_U2NiH12C12(NO6)2
_symmetry_space_group_name_H-M   'P 1'
_cell_length_a   14.03160000
_cell_length_b   15.25640000
_cell_length_c   17.78170000
_cell_angle_alpha   90.00000000
_cell_angle_beta   102.40500000
_cell_angle_gamma   90.00000000
_symmetry_Int_Tables_number   1
_chemical_formula_structural   U2NiH12C12(NO6)2
_chemical_formula_sum   'U8 Ni4 H48 C48 N8 O48'
_cell_volume   3717.68909782
_cell_formula_units_Z   4
loop_
 _symmetry_equiv_pos_site_id
 _symmetry_equiv_pos_as_xyz
  1  'x, y, z'
loop_
 _atom_site_type_symbol
 _atom_site_label
 _atom_site_symmetry_multiplicity
 _atom_site_fract_x
 _atom_site_fract_y
 _atom_site_fract_z
 _atom_site_occupancy
 _atom_site_charge
  U  U1  1  0.869780  0.166000  0.613740  1.0  1.7209
  U  U2  1  0.614800  0.853780  0.890710  1.0  1.6949
  U  U3  1  0.130220  0.666000  0.886260  1.0  1.7192
  U  U4  1  0.385200  0.353780  0.609290  1.0  1.6916
  U  U5  1  0.130220  0.834000  0.386260  1.0  1.7267
  U  U6  1  0.385200  0.146220  0.109290  1.0  1.6922
  U  U7  1  0.869780  0.334000  0.113740  1.0  1.7108
  U  U8  1  0.614800  0.646220  0.390710  1.0  1.695
  Ni  Ni9  1  0.000000  0.000000  0.000000  1.0  0.7301
  Ni  Ni10  1  0.000000  0.500000  0.500000  1.0  0.7301
  Ni  Ni11  1  0.500000  0.000000  0.500000  1.0  0.7361
  Ni  Ni12  1  0.500000  0.500000  0.000000  1.0  0.7361
  H  H13  1  0.056800  0.069300  0.857200  1.0  0.1
  H  H14  1  0.981800  0.135800  0.882600  1.0  0.1019
  H  H15  1  0.796300  0.004300  0.829700  1.0  0.0861
  H  H16  1  0.823800  0.089300  0.883000  1.0  0.0839
  H  H17  1  0.980000  0.932900  0.800700  1.0  0.0826
  H  H18  1  0.895300  0.890100  0.836300  1.0  0.0866
  H  H19  1  0.676200  0.919600  0.619300  1.0  0.0845
  H  H20  1  0.702300  0.005400  0.671700  1.0  0.0893
  H  H21  1  0.518500  0.872600  0.622100  1.0  0.1065
  H  H22  1  0.441100  0.939800  0.642700  1.0  0.1043
  H  H23  1  0.603300  0.116400  0.669000  1.0  0.0875
  H  H24  1  0.506500  0.079300  0.691600  1.0  0.0765
  H  H25  1  0.943200  0.569300  0.642800  1.0  0.1037
  H  H26  1  0.018200  0.635800  0.617400  1.0  0.1034
  H  H27  1  0.203700  0.504300  0.670300  1.0  0.0848
  H  H28  1  0.176200  0.589300  0.617000  1.0  0.0839
  H  H29  1  0.020000  0.432900  0.699300  1.0  0.0853
  H  H30  1  0.104700  0.390100  0.663700  1.0  0.0869
  H  H31  1  0.323800  0.419600  0.880700  1.0  0.0842
  H  H32  1  0.297700  0.505400  0.828300  1.0  0.0898
  H  H33  1  0.481500  0.372600  0.877900  1.0  0.1074
  H  H34  1  0.558900  0.439800  0.857300  1.0  0.0996
  H  H35  1  0.396700  0.616400  0.831000  1.0  0.0879
  H  H36  1  0.493500  0.579300  0.808400  1.0  0.0776
  H  H37  1  0.943200  0.930700  0.142800  1.0  0.103
  H  H38  1  0.018200  0.864200  0.117400  1.0  0.0994
  H  H39  1  0.203700  0.995700  0.170300  1.0  0.0842
  H  H40  1  0.176200  0.910700  0.117000  1.0  0.0804
  H  H41  1  0.020000  0.067100  0.199300  1.0  0.0848
  H  H42  1  0.104700  0.109900  0.163700  1.0  0.0866
  H  H43  1  0.323800  0.080400  0.380700  1.0  0.0851
  H  H44  1  0.297700  0.994600  0.328300  1.0  0.0899
  H  H45  1  0.481500  0.127400  0.377900  1.0  0.1078
  H  H46  1  0.558900  0.060200  0.357300  1.0  0.0997
  H  H47  1  0.396700  0.883600  0.331000  1.0  0.0878
  H  H48  1  0.493500  0.920700  0.308400  1.0  0.0779
  H  H49  1  0.056800  0.430700  0.357200  1.0  0.0996
  H  H50  1  0.981800  0.364200  0.382600  1.0  0.0997
  H  H51  1  0.796300  0.495700  0.329700  1.0  0.0859
  H  H52  1  0.823800  0.410700  0.383000  1.0  0.0802
  H  H53  1  0.980000  0.567100  0.300700  1.0  0.0824
  H  H54  1  0.895300  0.609900  0.336300  1.0  0.0876
  H  H55  1  0.676200  0.580400  0.119300  1.0  0.0854
  H  H56  1  0.702300  0.494600  0.171700  1.0  0.0896
  H  H57  1  0.518500  0.627400  0.122100  1.0  0.11
  H  H58  1  0.441100  0.560200  0.142700  1.0  0.1041
  H  H59  1  0.603300  0.383600  0.169000  1.0  0.087
  H  H60  1  0.506500  0.420700  0.191600  1.0  0.0774
  C  C61  1  0.986600  0.083200  0.851000  1.0  -0.1768
  C  C62  1  0.946600  0.106600  0.767400  1.0  0.6862
  C  C63  1  0.835300  0.025500  0.879500  1.0  -0.2359
  C  C64  1  0.802400  0.978400  0.945700  1.0  0.7026
  C  C65  1  0.957500  0.923000  0.849200  1.0  -0.2291
  C  C66  1  0.032800  0.868300  0.903300  1.0  0.7049
  C  C67  1  0.664000  0.983300  0.622000  1.0  -0.2467
  C  C68  1  0.695900  0.029800  0.555800  1.0  0.6945
  C  C69  1  0.511700  0.926700  0.651200  1.0  -0.1704
  C  C70  1  0.548300  0.907200  0.736000  1.0  0.6783
  C  C71  1  0.540200  0.087100  0.648500  1.0  -0.203
  C  C72  1  0.478500  0.144900  0.587700  1.0  0.6855
  C  C73  1  0.013400  0.583200  0.649000  1.0  -0.1754
  C  C74  1  0.053400  0.606600  0.732600  1.0  0.6857
  C  C75  1  0.164700  0.525500  0.620500  1.0  -0.2368
  C  C76  1  0.197600  0.478400  0.554300  1.0  0.6976
  C  C77  1  0.042500  0.423000  0.650800  1.0  -0.2304
  C  C78  1  0.967200  0.368300  0.596700  1.0  0.7038
  C  C79  1  0.336000  0.483300  0.878000  1.0  -0.2446
  C  C80  1  0.304100  0.529800  0.944200  1.0  0.697
  C  C81  1  0.488300  0.426700  0.848800  1.0  -0.1717
  C  C82  1  0.451700  0.407200  0.764000  1.0  0.6811
  C  C83  1  0.459800  0.587100  0.851500  1.0  -0.1994
  C  C84  1  0.521500  0.644900  0.912300  1.0  0.6828
  C  C85  1  0.013400  0.916800  0.149000  1.0  -0.1736
  C  C86  1  0.053400  0.893400  0.232600  1.0  0.6839
  C  C87  1  0.164700  0.974500  0.120500  1.0  -0.2376
  C  C88  1  0.197600  0.021600  0.054300  1.0  0.6969
  C  C89  1  0.042500  0.077000  0.150800  1.0  -0.2353
  C  C90  1  0.967200  0.131700  0.096700  1.0  0.7069
  C  C91  1  0.336000  0.016700  0.378000  1.0  -0.2443
  C  C92  1  0.304100  0.970200  0.444200  1.0  0.6982
  C  C93  1  0.488300  0.073300  0.348800  1.0  -0.1712
  C  C94  1  0.451700  0.092800  0.264000  1.0  0.6802
  C  C95  1  0.459800  0.912900  0.351500  1.0  -0.199
  C  C96  1  0.521500  0.855100  0.412300  1.0  0.6823
  C  C97  1  0.986600  0.416800  0.351000  1.0  -0.1758
  C  C98  1  0.946600  0.393400  0.267400  1.0  0.6852
  C  C99  1  0.835300  0.474500  0.379500  1.0  -0.2364
  C  C100  1  0.802400  0.521600  0.445700  1.0  0.7021
  C  C101  1  0.957500  0.577000  0.349200  1.0  -0.2281
  C  C102  1  0.032800  0.631700  0.403300  1.0  0.704
  C  C103  1  0.664000  0.516700  0.122000  1.0  -0.246
  C  C104  1  0.695900  0.470200  0.055800  1.0  0.6957
  C  C105  1  0.511700  0.573300  0.151200  1.0  -0.1715
  C  C106  1  0.548300  0.592800  0.236000  1.0  0.6801
  C  C107  1  0.540200  0.412900  0.148500  1.0  -0.1978
  C  C108  1  0.478500  0.355100  0.087700  1.0  0.6818
  N  N109  1  0.939600  0.009500  0.882720  1.0  -0.0944
  N  N110  1  0.558900  0.998900  0.617550  1.0  -0.081
  N  N111  1  0.060400  0.509500  0.617280  1.0  -0.0945
  N  N112  1  0.441100  0.498900  0.882450  1.0  -0.0801
  N  N113  1  0.060400  0.990500  0.117280  1.0  -0.0947
  N  N114  1  0.441100  0.001100  0.382450  1.0  -0.0799
  N  N115  1  0.939600  0.490500  0.382720  1.0  -0.0946
  N  N116  1  0.558900  0.501100  0.117550  1.0  -0.0808
  O  O117  1  0.891700  0.055100  0.721640  1.0  -0.6751
  O  O118  1  0.970800  0.180300  0.744900  1.0  -0.6409
  O  O119  1  0.711300  0.972600  0.939930  1.0  -0.7224
  O  O120  1  0.865300  0.949000  0.000200  1.0  -0.6141
  O  O121  1  0.070400  0.808300  0.870700  1.0  -0.7627
  O  O122  1  0.051900  0.883800  0.973420  1.0  -0.5853
  O  O123  1  0.787500  0.041000  0.562690  1.0  -0.7307
  O  O124  1  0.634400  0.052700  0.498500  1.0  -0.6042
  O  O125  1  0.610500  0.955300  0.778980  1.0  -0.6285
  O  O126  1  0.514300  0.839400  0.761320  1.0  -0.6113
  O  O127  1  0.460100  0.219400  0.611100  1.0  -0.7827
  O  O128  1  0.448700  0.119200  0.520260  1.0  -0.5958
  O  O129  1  0.108300  0.555100  0.778360  1.0  -0.6745
  O  O130  1  0.029200  0.680300  0.755100  1.0  -0.6395
  O  O131  1  0.288700  0.472600  0.560070  1.0  -0.7252
  O  O132  1  0.134700  0.449000  0.499800  1.0  -0.6138
  O  O133  1  0.929600  0.308300  0.629300  1.0  -0.7602
  O  O134  1  0.948100  0.383800  0.526580  1.0  -0.5858
  O  O135  1  0.212500  0.541000  0.937310  1.0  -0.7318
  O  O136  1  0.365600  0.552700  0.001500  1.0  -0.6031
  O  O137  1  0.389500  0.455300  0.721020  1.0  -0.6286
  O  O138  1  0.485700  0.339400  0.738680  1.0  -0.6141
  O  O139  1  0.539900  0.719400  0.888900  1.0  -0.7818
  O  O140  1  0.551300  0.619200  0.979740  1.0  -0.595
  O  O141  1  0.108300  0.944900  0.278360  1.0  -0.6746
  O  O142  1  0.029200  0.819700  0.255100  1.0  -0.6371
  O  O143  1  0.288700  0.027400  0.060070  1.0  -0.7253
  O  O144  1  0.134700  0.051000  0.999800  1.0  -0.6133
  O  O145  1  0.929600  0.191700  0.129300  1.0  -0.761
  O  O146  1  0.948100  0.116200  0.026580  1.0  -0.5848
  O  O147  1  0.212500  0.959000  0.437310  1.0  -0.7317
  O  O148  1  0.365600  0.947300  0.501500  1.0  -0.6031
  O  O149  1  0.389500  0.044700  0.221020  1.0  -0.6288
  O  O150  1  0.485700  0.160600  0.238680  1.0  -0.6124
  O  O151  1  0.539900  0.780600  0.388900  1.0  -0.781
  O  O152  1  0.551300  0.880800  0.479740  1.0  -0.5944
  O  O153  1  0.891700  0.444900  0.221640  1.0  -0.674
  O  O154  1  0.970800  0.319700  0.244900  1.0  -0.6386
  O  O155  1  0.711300  0.527400  0.439930  1.0  -0.7225
  O  O156  1  0.865300  0.551000  0.500200  1.0  -0.6137
  O  O157  1  0.070400  0.691700  0.370700  1.0  -0.762
  O  O158  1  0.051900  0.616200  0.473420  1.0  -0.5834
  O  O159  1  0.787500  0.459000  0.062690  1.0  -0.7306
  O  O160  1  0.634400  0.447300  0.998500  1.0  -0.6042
  O  O161  1  0.610500  0.544700  0.278980  1.0  -0.6281
  O  O162  1  0.514300  0.660600  0.261320  1.0  -0.6157
  O  O163  1  0.460100  0.280600  0.111100  1.0  -0.7812
  O  O164  1  0.448700  0.380800  0.020260  1.0  -0.5951
