# generated using pymatgen
data_UH2C6SO4
_symmetry_space_group_name_H-M   'P 1'
_cell_length_a   9.77990000
_cell_length_b   11.33810000
_cell_length_c   12.60080000
_cell_angle_alpha   90.00000000
_cell_angle_beta   90.00000000
_cell_angle_gamma   90.00000000
_symmetry_Int_Tables_number   1
_chemical_formula_structural   UH2C6SO4
_chemical_formula_sum   'U4 H8 C24 S4 O16'
_cell_volume   1397.24580918
_cell_formula_units_Z   4
loop_
 _symmetry_equiv_pos_site_id
 _symmetry_equiv_pos_as_xyz
  1  'x, y, z'
loop_
 _atom_site_type_symbol
 _atom_site_label
 _atom_site_symmetry_multiplicity
 _atom_site_fract_x
 _atom_site_fract_y
 _atom_site_fract_z
 _atom_site_occupancy
 _atom_site_charge
  U  U1  1  0.926680  0.323860  0.456500  1.0  1.6187
  U  U2  1  0.573320  0.676140  0.956500  1.0  1.6231
  U  U3  1  0.073320  0.823860  0.043500  1.0  1.6196
  U  U4  1  0.426680  0.176140  0.543500  1.0  1.624
  H  H5  1  0.325900  0.477000  0.474600  1.0  0.0926
  H  H6  1  0.190300  0.579900  0.337000  1.0  0.1117
  H  H7  1  0.174100  0.523000  0.974600  1.0  0.0939
  H  H8  1  0.309700  0.420100  0.837000  1.0  0.1112
  H  H9  1  0.674100  0.977000  0.025400  1.0  0.0924
  H  H10  1  0.809700  0.079900  0.163000  1.0  0.1121
  H  H11  1  0.825900  0.023000  0.525400  1.0  0.0926
  H  H12  1  0.690300  0.920100  0.663000  1.0  0.1123
  C  C13  1  0.592100  0.397200  0.430100  1.0  0.7224
  C  C14  1  0.485800  0.464000  0.370300  1.0  -0.2138
  C  C15  1  0.358700  0.493900  0.405300  1.0  -0.0872
  C  C16  1  0.281400  0.552800  0.327000  1.0  -0.0604
  C  C17  1  0.354200  0.566300  0.234500  1.0  -0.2082
  C  C18  1  0.303900  0.622000  0.135200  1.0  0.6576
  C  C19  1  0.907900  0.602800  0.930100  1.0  0.7239
  C  C20  1  0.014200  0.536000  0.870300  1.0  -0.2136
  C  C21  1  0.141300  0.506100  0.905300  1.0  -0.0867
  C  C22  1  0.218600  0.447200  0.827000  1.0  -0.0592
  C  C23  1  0.145800  0.433700  0.734500  1.0  -0.2073
  C  C24  1  0.196100  0.378000  0.635200  1.0  0.657
  C  C25  1  0.407900  0.897200  0.069900  1.0  0.7235
  C  C26  1  0.514200  0.964000  0.129700  1.0  -0.2142
  C  C27  1  0.641300  0.993900  0.094700  1.0  -0.0874
  C  C28  1  0.718600  0.052800  0.173000  1.0  -0.0593
  C  C29  1  0.645800  0.066300  0.265500  1.0  -0.2076
  C  C30  1  0.696100  0.122000  0.364800  1.0  0.6576
  C  C31  1  0.092100  0.102800  0.569900  1.0  0.7231
  C  C32  1  0.985800  0.036000  0.629700  1.0  -0.2141
  C  C33  1  0.858700  0.006100  0.594700  1.0  -0.0871
  C  C34  1  0.781400  0.947200  0.673000  1.0  -0.0604
  C  C35  1  0.854200  0.933700  0.765500  1.0  -0.2077
  C  C36  1  0.803900  0.878000  0.864800  1.0  0.6446
  S  S37  1  0.515140  0.507070  0.242190  1.0  0.1672
  S  S38  1  0.984860  0.492930  0.742190  1.0  0.1701
  S  S39  1  0.484860  0.007070  0.257810  1.0  0.1693
  S  S40  1  0.015140  0.992930  0.757810  1.0  0.1662
  O  O41  1  0.710300  0.394000  0.389300  1.0  -0.7058
  O  O42  1  0.558300  0.349100  0.516300  1.0  -0.6889
  O  O43  1  0.188000  0.668200  0.138700  1.0  -0.6784
  O  O44  1  0.379400  0.617400  0.054300  1.0  -0.733
  O  O45  1  0.789700  0.606000  0.889300  1.0  -0.7046
  O  O46  1  0.941700  0.650900  0.016300  1.0  -0.6885
  O  O47  1  0.312000  0.331800  0.638700  1.0  -0.677
  O  O48  1  0.120600  0.382600  0.554300  1.0  -0.7318
  O  O49  1  0.289700  0.894000  0.110700  1.0  -0.7044
  O  O50  1  0.441700  0.849100  0.983700  1.0  -0.6878
  O  O51  1  0.812000  0.168200  0.361300  1.0  -0.6773
  O  O52  1  0.620600  0.117400  0.445700  1.0  -0.7316
  O  O53  1  0.210300  0.106000  0.610700  1.0  -0.7043
  O  O54  1  0.058300  0.150900  0.483700  1.0  -0.6874
  O  O55  1  0.688000  0.831800  0.861300  1.0  -0.6786
  O  O56  1  0.879400  0.882600  0.945700  1.0  -0.7329
