# generated using pymatgen
data_ZnH8C12(IN2)2
_symmetry_space_group_name_H-M   'P 1'
_cell_length_a   13.81640000
_cell_length_b   27.99870000
_cell_length_c   44.15890000
_cell_angle_alpha   90.00000000
_cell_angle_beta   90.00000000
_cell_angle_gamma   90.00000000
_symmetry_Int_Tables_number   1
_chemical_formula_structural   ZnH8C12(IN2)2
_chemical_formula_sum   'Zn24 H192 C288 I48 N96'
_cell_volume   17082.48357475
_cell_formula_units_Z   24
loop_
 _symmetry_equiv_pos_site_id
 _symmetry_equiv_pos_as_xyz
  1  'x, y, z'
loop_
 _atom_site_type_symbol
 _atom_site_label
 _atom_site_symmetry_multiplicity
 _atom_site_fract_x
 _atom_site_fract_y
 _atom_site_fract_z
 _atom_site_occupancy
 _atom_site_charge
  Zn  Zn1  1  0.138880  0.547940  0.910650  1.0  0.8652
  Zn  Zn2  1  0.188730  0.738510  0.178950  1.0  0.8706
  Zn  Zn3  1  0.381490  0.524510  0.086590  1.0  0.834
  Zn  Zn4  1  0.861120  0.952060  0.410650  1.0  0.8636
  Zn  Zn5  1  0.811270  0.761490  0.678950  1.0  0.8689
  Zn  Zn6  1  0.618510  0.975490  0.586590  1.0  0.8352
  Zn  Zn7  1  0.638880  0.452060  0.589350  1.0  0.8636
  Zn  Zn8  1  0.688730  0.261490  0.321050  1.0  0.8703
  Zn  Zn9  1  0.881490  0.475490  0.413410  1.0  0.8352
  Zn  Zn10  1  0.361120  0.047940  0.089350  1.0  0.8653
  Zn  Zn11  1  0.311270  0.238510  0.821050  1.0  0.8686
  Zn  Zn12  1  0.118510  0.024510  0.913410  1.0  0.8354
  Zn  Zn13  1  0.861120  0.452060  0.089350  1.0  0.8627
  Zn  Zn14  1  0.811270  0.261490  0.821050  1.0  0.8688
  Zn  Zn15  1  0.618510  0.475490  0.913410  1.0  0.8357
  Zn  Zn16  1  0.138880  0.047940  0.589350  1.0  0.8653
  Zn  Zn17  1  0.188730  0.238510  0.321050  1.0  0.8703
  Zn  Zn18  1  0.381490  0.024510  0.413410  1.0  0.8343
  Zn  Zn19  1  0.361120  0.547940  0.410650  1.0  0.8651
  Zn  Zn20  1  0.311270  0.738510  0.678950  1.0  0.8688
  Zn  Zn21  1  0.118510  0.524510  0.586590  1.0  0.835
  Zn  Zn22  1  0.638880  0.952060  0.910650  1.0  0.8641
  Zn  Zn23  1  0.688730  0.761490  0.178950  1.0  0.8704
  Zn  Zn24  1  0.881490  0.975490  0.086590  1.0  0.8348
  H  H25  1  0.219200  0.686500  0.121800  1.0  0.086
  H  H26  1  0.134100  0.647500  0.083900  1.0  0.1189
  H  H27  1  0.980700  0.709900  0.167700  1.0  0.0827
  H  H28  1  0.888000  0.669400  0.131500  1.0  0.1198
  H  H29  1  0.540000  0.575400  0.120000  1.0  0.084
  H  H30  1  0.699400  0.599800  0.113400  1.0  0.1178
  H  H31  1  0.519700  0.536300  0.034500  1.0  0.1019
  H  H32  1  0.676800  0.563100  0.025100  1.0  0.1126
  H  H33  1  0.952100  0.527600  0.941900  1.0  0.0829
  H  H34  1  0.873200  0.548300  0.986600  1.0  0.1136
  H  H35  1  0.201500  0.573200  0.974600  1.0  0.0891
  H  H36  1  0.129200  0.594200  0.020000  1.0  0.1264
  H  H37  1  0.120500  0.653200  0.930000  1.0  0.0889
  H  H38  1  0.088900  0.726900  0.908500  1.0  0.1221
  H  H39  1  0.057500  0.586400  0.853900  1.0  0.0911
  H  H40  1  0.029500  0.657900  0.829500  1.0  0.123
  H  H41  1  0.932700  0.704300  0.721700  1.0  0.0956
  H  H42  1  0.997700  0.710400  0.770500  1.0  0.1183
  H  H43  1  0.858100  0.839800  0.722100  1.0  0.0842
  H  H44  1  0.926500  0.851600  0.770100  1.0  0.1201
  H  H45  1  0.054000  0.987400  0.853500  1.0  0.0902
  H  H46  1  0.024000  0.916200  0.828400  1.0  0.1205
  H  H47  1  0.109800  0.919300  0.929300  1.0  0.0856
  H  H48  1  0.086200  0.846200  0.906200  1.0  0.1188
  H  H49  1  0.780800  0.813500  0.621800  1.0  0.0865
  H  H50  1  0.865900  0.852500  0.583900  1.0  0.1188
  H  H51  1  0.019300  0.790100  0.667700  1.0  0.0832
  H  H52  1  0.112000  0.830600  0.631500  1.0  0.1192
  H  H53  1  0.460000  0.924600  0.620000  1.0  0.084
  H  H54  1  0.300600  0.900200  0.613400  1.0  0.1176
  H  H55  1  0.480300  0.963700  0.534500  1.0  0.1015
  H  H56  1  0.323200  0.936900  0.525100  1.0  0.1127
  H  H57  1  0.047900  0.972400  0.441900  1.0  0.0825
  H  H58  1  0.126800  0.951700  0.486600  1.0  0.1138
  H  H59  1  0.798500  0.926800  0.474600  1.0  0.0894
  H  H60  1  0.870800  0.905800  0.520000  1.0  0.1268
  H  H61  1  0.879500  0.846800  0.430000  1.0  0.0895
  H  H62  1  0.911100  0.773100  0.408500  1.0  0.1221
  H  H63  1  0.942500  0.913600  0.353900  1.0  0.0904
  H  H64  1  0.970500  0.842100  0.329500  1.0  0.123
  H  H65  1  0.067300  0.795700  0.221700  1.0  0.0948
  H  H66  1  0.002300  0.789600  0.270500  1.0  0.1188
  H  H67  1  0.141900  0.660200  0.222100  1.0  0.0842
  H  H68  1  0.073500  0.648400  0.270100  1.0  0.1196
  H  H69  1  0.946000  0.512600  0.353500  1.0  0.0896
  H  H70  1  0.976000  0.583800  0.328400  1.0  0.1207
  H  H71  1  0.890200  0.580700  0.429300  1.0  0.0855
  H  H72  1  0.913800  0.653800  0.406200  1.0  0.1186
  H  H73  1  0.719200  0.313500  0.378200  1.0  0.0866
  H  H74  1  0.634100  0.352500  0.416100  1.0  0.1192
  H  H75  1  0.480700  0.290100  0.332300  1.0  0.0839
  H  H76  1  0.388000  0.330600  0.368500  1.0  0.1197
  H  H77  1  0.040000  0.424600  0.380000  1.0  0.0836
  H  H78  1  0.199400  0.400200  0.386600  1.0  0.118
  H  H79  1  0.019700  0.463700  0.465500  1.0  0.1019
  H  H80  1  0.176800  0.436900  0.474900  1.0  0.1128
  H  H81  1  0.452100  0.472400  0.558100  1.0  0.0833
  H  H82  1  0.373200  0.451700  0.513400  1.0  0.1129
  H  H83  1  0.701500  0.426800  0.525400  1.0  0.0893
  H  H84  1  0.629200  0.405800  0.480000  1.0  0.1267
  H  H85  1  0.620500  0.346800  0.570000  1.0  0.0895
  H  H86  1  0.588900  0.273100  0.591500  1.0  0.1218
  H  H87  1  0.557500  0.413600  0.646100  1.0  0.0913
  H  H88  1  0.529500  0.342100  0.670500  1.0  0.1228
  H  H89  1  0.432700  0.295700  0.778300  1.0  0.0948
  H  H90  1  0.497700  0.289600  0.729500  1.0  0.1184
  H  H91  1  0.358100  0.160200  0.777900  1.0  0.0845
  H  H92  1  0.426500  0.148400  0.729900  1.0  0.1198
  H  H93  1  0.554000  0.012600  0.646500  1.0  0.0907
  H  H94  1  0.524000  0.083800  0.671600  1.0  0.1207
  H  H95  1  0.609800  0.080700  0.570700  1.0  0.0846
  H  H96  1  0.586200  0.153800  0.593800  1.0  0.1186
  H  H97  1  0.280800  0.186500  0.878200  1.0  0.0867
  H  H98  1  0.365900  0.147500  0.916100  1.0  0.1192
  H  H99  1  0.519300  0.209900  0.832300  1.0  0.0834
  H  H100  1  0.612000  0.169400  0.868500  1.0  0.1191
  H  H101  1  0.960000  0.075400  0.880000  1.0  0.0837
  H  H102  1  0.800600  0.099800  0.886600  1.0  0.1183
  H  H103  1  0.980300  0.036300  0.965500  1.0  0.1022
  H  H104  1  0.823200  0.063100  0.974900  1.0  0.1127
  H  H105  1  0.547900  0.027600  0.058100  1.0  0.083
  H  H106  1  0.626800  0.048300  0.013400  1.0  0.1135
  H  H107  1  0.298500  0.073200  0.025400  1.0  0.0892
  H  H108  1  0.370800  0.094200  0.980000  1.0  0.1269
  H  H109  1  0.379500  0.153200  0.070000  1.0  0.089
  H  H110  1  0.411100  0.226900  0.091500  1.0  0.1218
  H  H111  1  0.442500  0.086400  0.146100  1.0  0.0917
  H  H112  1  0.470500  0.157900  0.170500  1.0  0.1227
  H  H113  1  0.567300  0.204300  0.278300  1.0  0.0956
  H  H114  1  0.502300  0.210400  0.229500  1.0  0.1184
  H  H115  1  0.641900  0.339800  0.277900  1.0  0.0839
  H  H116  1  0.573500  0.351600  0.229900  1.0  0.1203
  H  H117  1  0.446000  0.487400  0.146500  1.0  0.0908
  H  H118  1  0.476000  0.416200  0.171600  1.0  0.1207
  H  H119  1  0.390200  0.419300  0.070700  1.0  0.0848
  H  H120  1  0.413800  0.346200  0.093800  1.0  0.1185
  H  H121  1  0.780800  0.313500  0.878200  1.0  0.0869
  H  H122  1  0.865900  0.352500  0.916100  1.0  0.1193
  H  H123  1  0.019300  0.290100  0.832300  1.0  0.0837
  H  H124  1  0.112000  0.330600  0.868500  1.0  0.1189
  H  H125  1  0.460000  0.424600  0.880000  1.0  0.0837
  H  H126  1  0.300600  0.400200  0.886600  1.0  0.118
  H  H127  1  0.480300  0.463700  0.965500  1.0  0.1017
  H  H128  1  0.323200  0.436900  0.974900  1.0  0.1129
  H  H129  1  0.047900  0.472400  0.058100  1.0  0.0825
  H  H130  1  0.126800  0.451700  0.013400  1.0  0.1137
  H  H131  1  0.798500  0.426800  0.025400  1.0  0.0897
  H  H132  1  0.870800  0.405800  0.980000  1.0  0.1267
  H  H133  1  0.879500  0.346800  0.070000  1.0  0.0895
  H  H134  1  0.911100  0.273100  0.091500  1.0  0.122
  H  H135  1  0.942500  0.413600  0.146100  1.0  0.0913
  H  H136  1  0.970500  0.342100  0.170500  1.0  0.1229
  H  H137  1  0.067300  0.295700  0.278300  1.0  0.0947
  H  H138  1  0.002300  0.289600  0.229500  1.0  0.1189
  H  H139  1  0.141900  0.160200  0.277900  1.0  0.0844
  H  H140  1  0.073500  0.148400  0.229900  1.0  0.1198
  H  H141  1  0.946000  0.012600  0.146500  1.0  0.0905
  H  H142  1  0.976000  0.083800  0.171600  1.0  0.1209
  H  H143  1  0.890200  0.080700  0.070700  1.0  0.0846
  H  H144  1  0.913800  0.153800  0.093800  1.0  0.1186
  H  H145  1  0.219200  0.186500  0.378200  1.0  0.0862
  H  H146  1  0.134100  0.147500  0.416100  1.0  0.1191
  H  H147  1  0.980700  0.209900  0.332300  1.0  0.0834
  H  H148  1  0.888000  0.169400  0.368500  1.0  0.12
  H  H149  1  0.540000  0.075400  0.380000  1.0  0.0836
  H  H150  1  0.699400  0.099800  0.386600  1.0  0.118
  H  H151  1  0.519700  0.036300  0.465500  1.0  0.1022
  H  H152  1  0.676800  0.063100  0.474900  1.0  0.1125
  H  H153  1  0.952100  0.027600  0.558100  1.0  0.0836
  H  H154  1  0.873200  0.048300  0.513400  1.0  0.1131
  H  H155  1  0.201500  0.073200  0.525400  1.0  0.089
  H  H156  1  0.129200  0.094200  0.480000  1.0  0.127
  H  H157  1  0.120500  0.153200  0.570000  1.0  0.0889
  H  H158  1  0.088900  0.226900  0.591500  1.0  0.1216
  H  H159  1  0.057500  0.086400  0.646100  1.0  0.0916
  H  H160  1  0.029500  0.157900  0.670500  1.0  0.1227
  H  H161  1  0.932700  0.204300  0.778300  1.0  0.0956
  H  H162  1  0.997700  0.210400  0.729500  1.0  0.1182
  H  H163  1  0.858100  0.339800  0.777900  1.0  0.0841
  H  H164  1  0.926500  0.351600  0.729900  1.0  0.1203
  H  H165  1  0.054000  0.487400  0.646500  1.0  0.0907
  H  H166  1  0.024000  0.416200  0.671600  1.0  0.1205
  H  H167  1  0.109800  0.419300  0.570700  1.0  0.085
  H  H168  1  0.086200  0.346200  0.593800  1.0  0.1184
  H  H169  1  0.280800  0.686500  0.621800  1.0  0.0864
  H  H170  1  0.365900  0.647500  0.583900  1.0  0.1187
  H  H171  1  0.519300  0.709900  0.667700  1.0  0.0825
  H  H172  1  0.612000  0.669400  0.631500  1.0  0.1191
  H  H173  1  0.960000  0.575400  0.620000  1.0  0.0839
  H  H174  1  0.800600  0.599800  0.613400  1.0  0.1179
  H  H175  1  0.980300  0.536300  0.534500  1.0  0.1021
  H  H176  1  0.823200  0.563100  0.525100  1.0  0.1127
  H  H177  1  0.547900  0.527600  0.441900  1.0  0.083
  H  H178  1  0.626800  0.548300  0.486600  1.0  0.1138
  H  H179  1  0.298500  0.573200  0.474600  1.0  0.0891
  H  H180  1  0.370800  0.594200  0.520000  1.0  0.1265
  H  H181  1  0.379500  0.653200  0.430000  1.0  0.0892
  H  H182  1  0.411100  0.726900  0.408500  1.0  0.122
  H  H183  1  0.442500  0.586400  0.353900  1.0  0.091
  H  H184  1  0.470500  0.657900  0.329500  1.0  0.123
  H  H185  1  0.567300  0.704300  0.221700  1.0  0.0956
  H  H186  1  0.502300  0.710400  0.270500  1.0  0.1183
  H  H187  1  0.641900  0.839800  0.222100  1.0  0.084
  H  H188  1  0.573500  0.851600  0.270100  1.0  0.12
  H  H189  1  0.446000  0.987400  0.353500  1.0  0.09
  H  H190  1  0.476000  0.916200  0.328400  1.0  0.1206
  H  H191  1  0.390200  0.919300  0.429300  1.0  0.0856
  H  H192  1  0.413800  0.846200  0.406200  1.0  0.119
  H  H193  1  0.719200  0.813500  0.121800  1.0  0.0863
  H  H194  1  0.634100  0.852500  0.083900  1.0  0.119
  H  H195  1  0.480700  0.790100  0.167700  1.0  0.0837
  H  H196  1  0.388000  0.830600  0.131500  1.0  0.1197
  H  H197  1  0.040000  0.924600  0.120000  1.0  0.0842
  H  H198  1  0.199400  0.900200  0.113400  1.0  0.1177
  H  H199  1  0.019700  0.963700  0.034500  1.0  0.1013
  H  H200  1  0.176800  0.936900  0.025100  1.0  0.1129
  H  H201  1  0.452100  0.972400  0.941900  1.0  0.0827
  H  H202  1  0.373200  0.951700  0.986600  1.0  0.1135
  H  H203  1  0.701500  0.926800  0.974600  1.0  0.0892
  H  H204  1  0.629200  0.905800  0.020000  1.0  0.1265
  H  H205  1  0.620500  0.846800  0.930000  1.0  0.0892
  H  H206  1  0.588900  0.773100  0.908500  1.0  0.122
  H  H207  1  0.557500  0.913600  0.853900  1.0  0.0904
  H  H208  1  0.529500  0.842100  0.829500  1.0  0.1228
  H  H209  1  0.432700  0.795700  0.721700  1.0  0.0949
  H  H210  1  0.497700  0.789600  0.770500  1.0  0.1185
  H  H211  1  0.358100  0.660200  0.722100  1.0  0.0841
  H  H212  1  0.426500  0.648400  0.770100  1.0  0.1196
  H  H213  1  0.554000  0.512600  0.853500  1.0  0.0899
  H  H214  1  0.524000  0.583800  0.828400  1.0  0.1206
  H  H215  1  0.609800  0.580700  0.929300  1.0  0.0855
  H  H216  1  0.586200  0.653800  0.906200  1.0  0.1187
  C  C217  1  0.151000  0.683500  0.123670  1.0  0.139
  C  C218  1  0.100700  0.659900  0.101010  1.0  -0.1313
  C  C219  1  0.012000  0.696800  0.150450  1.0  0.1434
  C  C220  1  0.955800  0.672900  0.128860  1.0  -0.1331
  C  C221  1  0.001300  0.654600  0.103560  1.0  -0.1269
  C  C222  1  0.946800  0.629100  0.080000  1.0  0.3977
  C  C223  1  0.568700  0.572400  0.100560  1.0  0.1489
  C  C224  1  0.663600  0.587200  0.096870  1.0  -0.1435
  C  C225  1  0.556300  0.550000  0.050520  1.0  0.139
  C  C226  1  0.650300  0.565100  0.044890  1.0  -0.1024
  C  C227  1  0.704700  0.583200  0.068570  1.0  -0.1171
  C  C228  1  0.808500  0.596000  0.063510  1.0  0.3917
  C  C229  1  0.987700  0.542400  0.957680  1.0  0.1348
  C  C230  1  0.940500  0.554300  0.984340  1.0  -0.0908
  C  C231  1  0.133600  0.569000  0.976830  1.0  0.1366
  C  C232  1  0.091300  0.581500  0.004010  1.0  -0.1627
  C  C233  1  0.992400  0.574900  0.007450  1.0  -0.0969
  C  C234  1  0.942400  0.590400  0.035490  1.0  0.3964
  C  C235  1  0.101900  0.654500  0.909290  1.0  0.1342
  C  C236  1  0.084100  0.698600  0.896690  1.0  -0.1498
  C  C237  1  0.065900  0.615300  0.864830  1.0  0.1227
  C  C238  1  0.048400  0.657600  0.850150  1.0  -0.1017
  C  C239  1  0.058800  0.700500  0.866310  1.0  -0.1213
  C  C240  1  0.042900  0.746600  0.850290  1.0  0.3862
  C  C241  1  0.930300  0.734100  0.731960  1.0  0.1325
  C  C242  1  0.969800  0.737500  0.760930  1.0  -0.1203
  C  C243  1  0.887400  0.813500  0.732080  1.0  0.1393
  C  C244  1  0.927000  0.820900  0.760910  1.0  -0.1592
  C  C245  1  0.967400  0.781500  0.775600  1.0  -0.1288
  C  C246  1  0.002600  0.785100  0.807430  1.0  0.3346
  C  C247  1  0.060200  0.958200  0.864250  1.0  0.1464
  C  C248  1  0.043100  0.916000  0.849030  1.0  -0.1249
  C  C249  1  0.093400  0.918500  0.908460  1.0  0.1333
  C  C250  1  0.079000  0.874800  0.894860  1.0  -0.1266
  C  C251  1  0.054300  0.872900  0.864740  1.0  -0.0778
  C  C252  1  0.040700  0.826300  0.849180  1.0  0.3769
  C  C253  1  0.849000  0.816500  0.623670  1.0  0.1397
  C  C254  1  0.899300  0.840100  0.601010  1.0  -0.1309
  C  C255  1  0.988000  0.803200  0.650450  1.0  0.1449
  C  C256  1  0.044200  0.827100  0.628860  1.0  -0.1314
  C  C257  1  0.998700  0.845400  0.603560  1.0  -0.1265
  C  C258  1  0.053200  0.870900  0.580000  1.0  0.397
  C  C259  1  0.431300  0.927600  0.600560  1.0  0.1491
  C  C260  1  0.336400  0.912800  0.596870  1.0  -0.1431
  C  C261  1  0.443700  0.950000  0.550520  1.0  0.1384
  C  C262  1  0.349700  0.934900  0.544890  1.0  -0.1024
  C  C263  1  0.295300  0.916800  0.568570  1.0  -0.1172
  C  C264  1  0.191500  0.904000  0.563510  1.0  0.3915
  C  C265  1  0.012300  0.957600  0.457680  1.0  0.135
  C  C266  1  0.059500  0.945700  0.484340  1.0  -0.089
  C  C267  1  0.866400  0.931000  0.476830  1.0  0.1369
  C  C268  1  0.908700  0.918500  0.504010  1.0  -0.164
  C  C269  1  0.007600  0.925100  0.507450  1.0  -0.0967
  C  C270  1  0.057600  0.909600  0.535490  1.0  0.3969
  C  C271  1  0.898100  0.845500  0.409290  1.0  0.1339
  C  C272  1  0.915900  0.801400  0.396690  1.0  -0.1492
  C  C273  1  0.934100  0.884700  0.364830  1.0  0.1229
  C  C274  1  0.951600  0.842400  0.350150  1.0  -0.102
  C  C275  1  0.941200  0.799500  0.366310  1.0  -0.1216
  C  C276  1  0.957100  0.753400  0.350290  1.0  0.3861
  C  C277  1  0.069700  0.765900  0.231960  1.0  0.1326
  C  C278  1  0.030200  0.762500  0.260930  1.0  -0.12
  C  C279  1  0.112600  0.686500  0.232080  1.0  0.1373
  C  C280  1  0.073000  0.679100  0.260910  1.0  -0.1605
  C  C281  1  0.032600  0.718500  0.275600  1.0  -0.1292
  C  C282  1  0.997400  0.714900  0.307430  1.0  0.3345
  C  C283  1  0.939800  0.541800  0.364250  1.0  0.1446
  C  C284  1  0.956900  0.584000  0.349030  1.0  -0.1245
  C  C285  1  0.906600  0.581500  0.408460  1.0  0.1329
  C  C286  1  0.921000  0.625200  0.394860  1.0  -0.1272
  C  C287  1  0.945700  0.627100  0.364740  1.0  -0.0783
  C  C288  1  0.959300  0.673700  0.349180  1.0  0.3768
  C  C289  1  0.651000  0.316500  0.376330  1.0  0.1397
  C  C290  1  0.600700  0.340100  0.398990  1.0  -0.1321
  C  C291  1  0.512000  0.303200  0.349550  1.0  0.144
  C  C292  1  0.455800  0.327100  0.371140  1.0  -0.1329
  C  C293  1  0.501300  0.345400  0.396440  1.0  -0.1268
  C  C294  1  0.446800  0.370900  0.420000  1.0  0.3969
  C  C295  1  0.068700  0.427600  0.399440  1.0  0.1501
  C  C296  1  0.163600  0.412800  0.403130  1.0  -0.1433
  C  C297  1  0.056300  0.450000  0.449480  1.0  0.1386
  C  C298  1  0.150300  0.434900  0.455110  1.0  -0.1017
  C  C299  1  0.204700  0.416800  0.431430  1.0  -0.1174
  C  C300  1  0.308500  0.404000  0.436490  1.0  0.3912
  C  C301  1  0.487700  0.457600  0.542320  1.0  0.1348
  C  C302  1  0.440500  0.445700  0.515660  1.0  -0.0904
  C  C303  1  0.633600  0.431000  0.523170  1.0  0.1364
  C  C304  1  0.591300  0.418500  0.495990  1.0  -0.1638
  C  C305  1  0.492400  0.425100  0.492550  1.0  -0.0966
  C  C306  1  0.442400  0.409600  0.464510  1.0  0.3968
  C  C307  1  0.601900  0.345500  0.590710  1.0  0.1333
  C  C308  1  0.584100  0.301400  0.603310  1.0  -0.1512
  C  C309  1  0.565900  0.384700  0.635170  1.0  0.124
  C  C310  1  0.548400  0.342400  0.649850  1.0  -0.1031
  C  C311  1  0.558800  0.299500  0.633690  1.0  -0.1217
  C  C312  1  0.542900  0.253400  0.649710  1.0  0.3864
  C  C313  1  0.430300  0.265900  0.768040  1.0  0.1322
  C  C314  1  0.469800  0.262500  0.739070  1.0  -0.1195
  C  C315  1  0.387400  0.186500  0.767920  1.0  0.1393
  C  C316  1  0.427000  0.179100  0.739090  1.0  -0.1593
  C  C317  1  0.467400  0.218500  0.724400  1.0  -0.1288
  C  C318  1  0.502600  0.214900  0.692570  1.0  0.3341
  C  C319  1  0.560200  0.041800  0.635750  1.0  0.1446
  C  C320  1  0.543100  0.084000  0.650970  1.0  -0.127
  C  C321  1  0.593400  0.081500  0.591540  1.0  0.1336
  C  C322  1  0.579000  0.125200  0.605140  1.0  -0.1276
  C  C323  1  0.554300  0.127100  0.635260  1.0  -0.0782
  C  C324  1  0.540700  0.173700  0.650820  1.0  0.3775
  C  C325  1  0.349000  0.183500  0.876330  1.0  0.1394
  C  C326  1  0.399300  0.159900  0.898990  1.0  -0.1323
  C  C327  1  0.488000  0.196800  0.849550  1.0  0.1443
  C  C328  1  0.544200  0.172900  0.871140  1.0  -0.1314
  C  C329  1  0.498700  0.154600  0.896440  1.0  -0.127
  C  C330  1  0.553200  0.129100  0.920000  1.0  0.397
  C  C331  1  0.931300  0.072400  0.899440  1.0  0.149
  C  C332  1  0.836400  0.087200  0.903130  1.0  -0.1437
  C  C333  1  0.943700  0.050000  0.949480  1.0  0.1403
  C  C334  1  0.849700  0.065100  0.955110  1.0  -0.1027
  C  C335  1  0.795300  0.083200  0.931430  1.0  -0.1161
  C  C336  1  0.691500  0.096000  0.936490  1.0  0.3914
  C  C337  1  0.512300  0.042400  0.042320  1.0  0.1348
  C  C338  1  0.559500  0.054300  0.015660  1.0  -0.0894
  C  C339  1  0.366400  0.069000  0.023170  1.0  0.1368
  C  C340  1  0.408700  0.081500  0.995990  1.0  -0.1645
  C  C341  1  0.507600  0.074900  0.992550  1.0  -0.097
  C  C342  1  0.557600  0.090400  0.964510  1.0  0.397
  C  C343  1  0.398100  0.154500  0.090710  1.0  0.1332
  C  C344  1  0.415900  0.198600  0.103310  1.0  -0.1504
  C  C345  1  0.434100  0.115300  0.135170  1.0  0.1224
  C  C346  1  0.451600  0.157600  0.149850  1.0  -0.1016
  C  C347  1  0.441200  0.200500  0.133690  1.0  -0.121
  C  C348  1  0.457100  0.246600  0.149710  1.0  0.3861
  C  C349  1  0.569700  0.234100  0.268040  1.0  0.1319
  C  C350  1  0.530200  0.237500  0.239070  1.0  -0.1201
  C  C351  1  0.612600  0.313500  0.267920  1.0  0.1389
  C  C352  1  0.573000  0.320900  0.239090  1.0  -0.1592
  C  C353  1  0.532600  0.281500  0.224400  1.0  -0.1291
  C  C354  1  0.497400  0.285100  0.192570  1.0  0.3346
  C  C355  1  0.439800  0.458200  0.135750  1.0  0.1447
  C  C356  1  0.456900  0.416000  0.150970  1.0  -0.1266
  C  C357  1  0.406600  0.418500  0.091540  1.0  0.1341
  C  C358  1  0.421000  0.374800  0.105140  1.0  -0.1271
  C  C359  1  0.445700  0.372900  0.135260  1.0  -0.0773
  C  C360  1  0.459300  0.326300  0.150820  1.0  0.3765
  C  C361  1  0.849000  0.316500  0.876330  1.0  0.1402
  C  C362  1  0.899300  0.340100  0.898990  1.0  -0.1321
  C  C363  1  0.988000  0.303200  0.849550  1.0  0.1442
  C  C364  1  0.044200  0.327100  0.871140  1.0  -0.1317
  C  C365  1  0.998700  0.345400  0.896440  1.0  -0.1267
  C  C366  1  0.053200  0.370900  0.920000  1.0  0.3967
  C  C367  1  0.431300  0.427600  0.899440  1.0  0.1488
  C  C368  1  0.336400  0.412800  0.903130  1.0  -0.1439
  C  C369  1  0.443700  0.450000  0.949480  1.0  0.1399
  C  C370  1  0.349700  0.434900  0.955110  1.0  -0.1023
  C  C371  1  0.295300  0.416800  0.931430  1.0  -0.1174
  C  C372  1  0.191500  0.404000  0.936490  1.0  0.3914
  C  C373  1  0.012300  0.457600  0.042320  1.0  0.1347
  C  C374  1  0.059500  0.445700  0.015660  1.0  -0.0891
  C  C375  1  0.866400  0.431000  0.023170  1.0  0.1368
  C  C376  1  0.908700  0.418500  0.995990  1.0  -0.1647
  C  C377  1  0.007600  0.425100  0.992550  1.0  -0.0965
  C  C378  1  0.057600  0.409600  0.964510  1.0  0.397
  C  C379  1  0.898100  0.345500  0.090710  1.0  0.1337
  C  C380  1  0.915900  0.301400  0.103310  1.0  -0.1496
  C  C381  1  0.934100  0.384700  0.135170  1.0  0.1231
  C  C382  1  0.951600  0.342400  0.149850  1.0  -0.1018
  C  C383  1  0.941200  0.299500  0.133690  1.0  -0.1213
  C  C384  1  0.957100  0.253400  0.149710  1.0  0.3863
  C  C385  1  0.069700  0.265900  0.268040  1.0  0.1321
  C  C386  1  0.030200  0.262500  0.239070  1.0  -0.1196
  C  C387  1  0.112600  0.186500  0.267920  1.0  0.1386
  C  C388  1  0.073000  0.179100  0.239090  1.0  -0.1602
  C  C389  1  0.032600  0.218500  0.224400  1.0  -0.1293
  C  C390  1  0.997400  0.214900  0.192570  1.0  0.3343
  C  C391  1  0.939800  0.041800  0.135750  1.0  0.1445
  C  C392  1  0.956900  0.084000  0.150970  1.0  -0.1265
  C  C393  1  0.906600  0.081500  0.091540  1.0  0.134
  C  C394  1  0.921000  0.125200  0.105140  1.0  -0.127
  C  C395  1  0.945700  0.127100  0.135260  1.0  -0.0782
  C  C396  1  0.959300  0.173700  0.150820  1.0  0.3769
  C  C397  1  0.151000  0.183500  0.376330  1.0  0.1393
  C  C398  1  0.100700  0.159900  0.398990  1.0  -0.1323
  C  C399  1  0.012000  0.196800  0.349550  1.0  0.144
  C  C400  1  0.955800  0.172900  0.371140  1.0  -0.1327
  C  C401  1  0.001300  0.154600  0.396440  1.0  -0.1269
  C  C402  1  0.946800  0.129100  0.420000  1.0  0.3973
  C  C403  1  0.568700  0.072400  0.399440  1.0  0.1504
  C  C404  1  0.663600  0.087200  0.403130  1.0  -0.1434
  C  C405  1  0.556300  0.050000  0.449480  1.0  0.139
  C  C406  1  0.650300  0.065100  0.455110  1.0  -0.1018
  C  C407  1  0.704700  0.083200  0.431430  1.0  -0.1173
  C  C408  1  0.808500  0.096000  0.436490  1.0  0.3914
  C  C409  1  0.987700  0.042400  0.542320  1.0  0.1346
  C  C410  1  0.940500  0.054300  0.515660  1.0  -0.0912
  C  C411  1  0.133600  0.069000  0.523170  1.0  0.1363
  C  C412  1  0.091300  0.081500  0.495990  1.0  -0.1628
  C  C413  1  0.992400  0.074900  0.492550  1.0  -0.0971
  C  C414  1  0.942400  0.090400  0.464510  1.0  0.3967
  C  C415  1  0.101900  0.154500  0.590710  1.0  0.133
  C  C416  1  0.084100  0.198600  0.603310  1.0  -0.1511
  C  C417  1  0.065900  0.115300  0.635170  1.0  0.1237
  C  C418  1  0.048400  0.157600  0.649850  1.0  -0.1025
  C  C419  1  0.058800  0.200500  0.633690  1.0  -0.1215
  C  C420  1  0.042900  0.246600  0.649710  1.0  0.3862
  C  C421  1  0.930300  0.234100  0.768040  1.0  0.1322
  C  C422  1  0.969800  0.237500  0.739070  1.0  -0.1203
  C  C423  1  0.887400  0.313500  0.767920  1.0  0.1391
  C  C424  1  0.927000  0.320900  0.739090  1.0  -0.1593
  C  C425  1  0.967400  0.281500  0.724400  1.0  -0.1288
  C  C426  1  0.002600  0.285100  0.692570  1.0  0.3344
  C  C427  1  0.060200  0.458200  0.635750  1.0  0.1457
  C  C428  1  0.043100  0.416000  0.650970  1.0  -0.127
  C  C429  1  0.093400  0.418500  0.591540  1.0  0.134
  C  C430  1  0.079000  0.374800  0.605140  1.0  -0.1281
  C  C431  1  0.054300  0.372900  0.635260  1.0  -0.0774
  C  C432  1  0.040700  0.326300  0.650820  1.0  0.377
  C  C433  1  0.349000  0.683500  0.623670  1.0  0.1392
  C  C434  1  0.399300  0.659900  0.601010  1.0  -0.1313
  C  C435  1  0.488000  0.696800  0.650450  1.0  0.144
  C  C436  1  0.544200  0.672900  0.628860  1.0  -0.1316
  C  C437  1  0.498700  0.654600  0.603560  1.0  -0.127
  C  C438  1  0.553200  0.629100  0.580000  1.0  0.3974
  C  C439  1  0.931300  0.572400  0.600560  1.0  0.1489
  C  C440  1  0.836400  0.587200  0.596870  1.0  -0.1434
  C  C441  1  0.943700  0.550000  0.550520  1.0  0.1385
  C  C442  1  0.849700  0.565100  0.544890  1.0  -0.1034
  C  C443  1  0.795300  0.583200  0.568570  1.0  -0.116
  C  C444  1  0.691500  0.596000  0.563510  1.0  0.3917
  C  C445  1  0.512300  0.542400  0.457680  1.0  0.1348
  C  C446  1  0.559500  0.554300  0.484340  1.0  -0.0886
  C  C447  1  0.366400  0.569000  0.476830  1.0  0.137
  C  C448  1  0.408700  0.581500  0.504010  1.0  -0.1644
  C  C449  1  0.507600  0.574900  0.507450  1.0  -0.097
  C  C450  1  0.557600  0.590400  0.535490  1.0  0.3967
  C  C451  1  0.398100  0.654500  0.409290  1.0  0.1334
  C  C452  1  0.415900  0.698600  0.396690  1.0  -0.1498
  C  C453  1  0.434100  0.615300  0.364830  1.0  0.1217
  C  C454  1  0.451600  0.657600  0.350150  1.0  -0.1025
  C  C455  1  0.441200  0.700500  0.366310  1.0  -0.1208
  C  C456  1  0.457100  0.746600  0.350290  1.0  0.3861
  C  C457  1  0.569700  0.734100  0.231960  1.0  0.1321
  C  C458  1  0.530200  0.737500  0.260930  1.0  -0.1201
  C  C459  1  0.612600  0.813500  0.232080  1.0  0.139
  C  C460  1  0.573000  0.820900  0.260910  1.0  -0.159
  C  C461  1  0.532600  0.781500  0.275600  1.0  -0.129
  C  C462  1  0.497400  0.785100  0.307430  1.0  0.3348
  C  C463  1  0.439800  0.958200  0.364250  1.0  0.146
  C  C464  1  0.456900  0.916000  0.349030  1.0  -0.1253
  C  C465  1  0.406600  0.918500  0.408460  1.0  0.1326
  C  C466  1  0.421000  0.874800  0.394860  1.0  -0.127
  C  C467  1  0.445700  0.872900  0.364740  1.0  -0.0777
  C  C468  1  0.459300  0.826300  0.349180  1.0  0.3764
  C  C469  1  0.651000  0.816500  0.123670  1.0  0.1392
  C  C470  1  0.600700  0.840100  0.101010  1.0  -0.1309
  C  C471  1  0.512000  0.803200  0.150450  1.0  0.1444
  C  C472  1  0.455800  0.827100  0.128860  1.0  -0.1329
  C  C473  1  0.501300  0.845400  0.103560  1.0  -0.1267
  C  C474  1  0.446800  0.870900  0.080000  1.0  0.3972
  C  C475  1  0.068700  0.927600  0.100560  1.0  0.1492
  C  C476  1  0.163600  0.912800  0.096870  1.0  -0.1428
  C  C477  1  0.056300  0.950000  0.050520  1.0  0.1385
  C  C478  1  0.150300  0.934900  0.044890  1.0  -0.1015
  C  C479  1  0.204700  0.916800  0.068570  1.0  -0.1172
  C  C480  1  0.308500  0.904000  0.063510  1.0  0.3913
  C  C481  1  0.487700  0.957600  0.957680  1.0  0.1355
  C  C482  1  0.440500  0.945700  0.984340  1.0  -0.0908
  C  C483  1  0.633600  0.931000  0.976830  1.0  0.1366
  C  C484  1  0.591300  0.918500  0.004010  1.0  -0.1628
  C  C485  1  0.492400  0.925100  0.007450  1.0  -0.0967
  C  C486  1  0.442400  0.909600  0.035490  1.0  0.3967
  C  C487  1  0.601900  0.845500  0.909290  1.0  0.1346
  C  C488  1  0.584100  0.801400  0.896690  1.0  -0.1502
  C  C489  1  0.565900  0.884700  0.864830  1.0  0.1234
  C  C490  1  0.548400  0.842400  0.850150  1.0  -0.1017
  C  C491  1  0.558800  0.799500  0.866310  1.0  -0.1219
  C  C492  1  0.542900  0.753400  0.850290  1.0  0.3862
  C  C493  1  0.430300  0.765900  0.731960  1.0  0.1328
  C  C494  1  0.469800  0.762500  0.760930  1.0  -0.1197
  C  C495  1  0.387400  0.686500  0.732080  1.0  0.1383
  C  C496  1  0.427000  0.679100  0.760910  1.0  -0.16
  C  C497  1  0.467400  0.718500  0.775600  1.0  -0.1288
  C  C498  1  0.502600  0.714900  0.807430  1.0  0.3343
  C  C499  1  0.560200  0.541800  0.864250  1.0  0.1446
  C  C500  1  0.543100  0.584000  0.849030  1.0  -0.1246
  C  C501  1  0.593400  0.581500  0.908460  1.0  0.1332
  C  C502  1  0.579000  0.625200  0.894860  1.0  -0.1263
  C  C503  1  0.554300  0.627100  0.864740  1.0  -0.0784
  C  C504  1  0.540700  0.673700  0.849180  1.0  0.3774
  I  I505  1  0.323020  0.553870  0.914260  1.0  -0.4044
  I  I506  1  0.054500  0.483700  0.880300  1.0  -0.347
  I  I507  1  0.186450  0.827360  0.165980  1.0  -0.2954
  I  I508  1  0.351090  0.696460  0.184730  1.0  -0.3474
  I  I509  1  0.298570  0.573580  0.126870  1.0  -0.328
  I  I510  1  0.304830  0.508220  0.034720  1.0  -0.4107
  I  I511  1  0.676980  0.946130  0.414260  1.0  -0.4042
  I  I512  1  0.945500  0.016300  0.380300  1.0  -0.3465
  I  I513  1  0.813550  0.672640  0.665980  1.0  -0.2953
  I  I514  1  0.648910  0.803540  0.684730  1.0  -0.3462
  I  I515  1  0.701430  0.926420  0.626870  1.0  -0.329
  I  I516  1  0.695170  0.991780  0.534720  1.0  -0.4092
  I  I517  1  0.823020  0.446130  0.585740  1.0  -0.4045
  I  I518  1  0.554500  0.516300  0.619700  1.0  -0.3466
  I  I519  1  0.686450  0.172640  0.334020  1.0  -0.2955
  I  I520  1  0.851090  0.303540  0.315270  1.0  -0.3468
  I  I521  1  0.798570  0.426420  0.373130  1.0  -0.3305
  I  I522  1  0.804830  0.491780  0.465280  1.0  -0.4106
  I  I523  1  0.176980  0.053870  0.085740  1.0  -0.404
  I  I524  1  0.445500  0.983700  0.119700  1.0  -0.347
  I  I525  1  0.313550  0.327360  0.834020  1.0  -0.2954
  I  I526  1  0.148910  0.196460  0.815270  1.0  -0.3467
  I  I527  1  0.201430  0.073580  0.873130  1.0  -0.3308
  I  I528  1  0.195170  0.008220  0.965280  1.0  -0.4093
  I  I529  1  0.676980  0.446130  0.085740  1.0  -0.4041
  I  I530  1  0.945500  0.516300  0.119700  1.0  -0.3465
  I  I531  1  0.813550  0.172640  0.834020  1.0  -0.2954
  I  I532  1  0.648910  0.303540  0.815270  1.0  -0.3462
  I  I533  1  0.701430  0.426420  0.873130  1.0  -0.3292
  I  I534  1  0.695170  0.491780  0.965280  1.0  -0.4092
  I  I535  1  0.323020  0.053870  0.585740  1.0  -0.4045
  I  I536  1  0.054500  0.983700  0.619700  1.0  -0.347
  I  I537  1  0.186450  0.327360  0.334020  1.0  -0.2955
  I  I538  1  0.351090  0.196460  0.315270  1.0  -0.3473
  I  I539  1  0.298570  0.073580  0.373130  1.0  -0.3281
  I  I540  1  0.304830  0.008220  0.465280  1.0  -0.4106
  I  I541  1  0.176980  0.553870  0.414260  1.0  -0.4039
  I  I542  1  0.445500  0.483700  0.380300  1.0  -0.3476
  I  I543  1  0.313550  0.827360  0.665980  1.0  -0.2954
  I  I544  1  0.148910  0.696460  0.684730  1.0  -0.3469
  I  I545  1  0.201430  0.573580  0.626870  1.0  -0.3309
  I  I546  1  0.195170  0.508220  0.534720  1.0  -0.4093
  I  I547  1  0.823020  0.946130  0.914260  1.0  -0.4045
  I  I548  1  0.554500  0.016300  0.880300  1.0  -0.3458
  I  I549  1  0.686450  0.672640  0.165980  1.0  -0.2954
  I  I550  1  0.851090  0.803540  0.184730  1.0  -0.3468
  I  I551  1  0.798570  0.926420  0.126870  1.0  -0.3302
  I  I552  1  0.804830  0.991780  0.034720  1.0  -0.4106
  N  N553  1  0.108200  0.702100  0.147860  1.0  -0.305
  N  N554  1  0.515700  0.554090  0.078200  1.0  -0.3142
  N  N555  1  0.083000  0.551350  0.953510  1.0  -0.3191
  N  N556  1  0.851400  0.622200  0.084930  1.0  -0.4735
  N  N557  1  0.849000  0.579600  0.038560  1.0  -0.4467
  N  N558  1  0.995300  0.614580  0.055800  1.0  -0.3608
  N  N559  1  0.094700  0.612830  0.893940  1.0  -0.3513
  N  N560  1  0.888900  0.771500  0.718080  1.0  -0.3117
  N  N561  1  0.085200  0.959770  0.893420  1.0  -0.3103
  N  N562  1  0.016600  0.743200  0.821330  1.0  -0.5753
  N  N563  1  0.013400  0.827650  0.819900  1.0  -0.4381
  N  N564  1  0.056300  0.787090  0.865200  1.0  -0.443
  N  N565  1  0.891800  0.797900  0.647860  1.0  -0.3047
  N  N566  1  0.484300  0.945910  0.578200  1.0  -0.3138
  N  N567  1  0.917000  0.948650  0.453510  1.0  -0.3185
  N  N568  1  0.148600  0.877800  0.584930  1.0  -0.4721
  N  N569  1  0.151000  0.920400  0.538560  1.0  -0.4471
  N  N570  1  0.004700  0.885420  0.555800  1.0  -0.3594
  N  N571  1  0.905300  0.887170  0.393940  1.0  -0.353
  N  N572  1  0.111100  0.728500  0.218080  1.0  -0.3123
  N  N573  1  0.914800  0.540230  0.393420  1.0  -0.3097
  N  N574  1  0.983400  0.756800  0.321330  1.0  -0.575
  N  N575  1  0.986600  0.672350  0.319900  1.0  -0.4381
  N  N576  1  0.943700  0.712910  0.365200  1.0  -0.4434
  N  N577  1  0.608200  0.297900  0.352140  1.0  -0.3039
  N  N578  1  0.015700  0.445910  0.421800  1.0  -0.3144
  N  N579  1  0.583000  0.448650  0.546490  1.0  -0.3152
  N  N580  1  0.351400  0.377800  0.415070  1.0  -0.4729
  N  N581  1  0.349000  0.420400  0.461440  1.0  -0.448
  N  N582  1  0.495300  0.385420  0.444200  1.0  -0.362
  N  N583  1  0.594700  0.387170  0.606060  1.0  -0.353
  N  N584  1  0.388900  0.228500  0.781920  1.0  -0.3121
  N  N585  1  0.585200  0.040230  0.606580  1.0  -0.3098
  N  N586  1  0.516600  0.256800  0.678670  1.0  -0.5757
  N  N587  1  0.513400  0.172350  0.680100  1.0  -0.4375
  N  N588  1  0.556300  0.212910  0.634800  1.0  -0.4431
  N  N589  1  0.391800  0.202100  0.852140  1.0  -0.3047
  N  N590  1  0.984300  0.054090  0.921800  1.0  -0.314
  N  N591  1  0.417000  0.051350  0.046490  1.0  -0.3153
  N  N592  1  0.648600  0.122200  0.915070  1.0  -0.4716
  N  N593  1  0.651000  0.079600  0.961440  1.0  -0.4477
  N  N594  1  0.504700  0.114580  0.944200  1.0  -0.359
  N  N595  1  0.405300  0.112830  0.106060  1.0  -0.3515
  N  N596  1  0.611100  0.271500  0.281920  1.0  -0.3126
  N  N597  1  0.414800  0.459770  0.106580  1.0  -0.3095
  N  N598  1  0.483400  0.243200  0.178670  1.0  -0.5744
  N  N599  1  0.486600  0.327650  0.180100  1.0  -0.439
  N  N600  1  0.443700  0.287090  0.134800  1.0  -0.4436
  N  N601  1  0.891800  0.297900  0.852140  1.0  -0.3049
  N  N602  1  0.484300  0.445910  0.921800  1.0  -0.3138
  N  N603  1  0.917000  0.448650  0.046490  1.0  -0.3162
  N  N604  1  0.148600  0.377800  0.915070  1.0  -0.4718
  N  N605  1  0.151000  0.420400  0.961440  1.0  -0.4477
  N  N606  1  0.004700  0.385420  0.944200  1.0  -0.3598
  N  N607  1  0.905300  0.387170  0.106060  1.0  -0.3527
  N  N608  1  0.111100  0.228500  0.281920  1.0  -0.3126
  N  N609  1  0.914800  0.040230  0.106580  1.0  -0.3102
  N  N610  1  0.983400  0.256800  0.178670  1.0  -0.5755
  N  N611  1  0.986600  0.172350  0.180100  1.0  -0.4371
  N  N612  1  0.943700  0.212910  0.134800  1.0  -0.4438
  N  N613  1  0.108200  0.202100  0.352140  1.0  -0.3044
  N  N614  1  0.515700  0.054090  0.421800  1.0  -0.3142
  N  N615  1  0.083000  0.051350  0.546490  1.0  -0.3146
  N  N616  1  0.851400  0.122200  0.415070  1.0  -0.4719
  N  N617  1  0.849000  0.079600  0.461440  1.0  -0.4479
  N  N618  1  0.995300  0.114580  0.444200  1.0  -0.3616
  N  N619  1  0.094700  0.112830  0.606060  1.0  -0.351
  N  N620  1  0.888900  0.271500  0.781920  1.0  -0.3121
  N  N621  1  0.085200  0.459770  0.606580  1.0  -0.31
  N  N622  1  0.016600  0.243200  0.678670  1.0  -0.5747
  N  N623  1  0.013400  0.327650  0.680100  1.0  -0.4384
  N  N624  1  0.056300  0.287090  0.634800  1.0  -0.443
  N  N625  1  0.391800  0.702100  0.647860  1.0  -0.3057
  N  N626  1  0.984300  0.554090  0.578200  1.0  -0.3138
  N  N627  1  0.417000  0.551350  0.453510  1.0  -0.3191
  N  N628  1  0.648600  0.622200  0.584930  1.0  -0.473
  N  N629  1  0.651000  0.579600  0.538560  1.0  -0.4468
  N  N630  1  0.504700  0.614580  0.555800  1.0  -0.3583
  N  N631  1  0.405300  0.612830  0.393940  1.0  -0.3515
  N  N632  1  0.611100  0.771500  0.218080  1.0  -0.3123
  N  N633  1  0.414800  0.959770  0.393420  1.0  -0.3104
  N  N634  1  0.483400  0.743200  0.321330  1.0  -0.5747
  N  N635  1  0.486600  0.827650  0.319900  1.0  -0.4385
  N  N636  1  0.443700  0.787090  0.365200  1.0  -0.4433
  N  N637  1  0.608200  0.797900  0.147860  1.0  -0.3036
  N  N638  1  0.015700  0.945910  0.078200  1.0  -0.3144
  N  N639  1  0.583000  0.948650  0.953510  1.0  -0.3184
  N  N640  1  0.351400  0.877800  0.084930  1.0  -0.4733
  N  N641  1  0.349000  0.920400  0.038560  1.0  -0.4473
  N  N642  1  0.495300  0.885420  0.055800  1.0  -0.3618
  N  N643  1  0.594700  0.887170  0.893940  1.0  -0.3536
  N  N644  1  0.388900  0.728500  0.718080  1.0  -0.3114
  N  N645  1  0.585200  0.540230  0.893420  1.0  -0.3093
  N  N646  1  0.516600  0.756800  0.821330  1.0  -0.5753
  N  N647  1  0.513400  0.672350  0.819900  1.0  -0.4384
  N  N648  1  0.556300  0.712910  0.865200  1.0  -0.4431
