# generated using pymatgen
data_InH4C12(SO4)2
_symmetry_space_group_name_H-M   'P 1'
_cell_length_a   13.51000000
_cell_length_b   13.51000000
_cell_length_c   16.06840000
_cell_angle_alpha   90.00000000
_cell_angle_beta   90.00000000
_cell_angle_gamma   90.00000000
_symmetry_Int_Tables_number   1
_chemical_formula_structural   InH4C12(SO4)2
_chemical_formula_sum   'In4 H16 C48 S8 O32'
_cell_volume   2932.80597484
_cell_formula_units_Z   4
loop_
 _symmetry_equiv_pos_site_id
 _symmetry_equiv_pos_as_xyz
  1  'x, y, z'
loop_
 _atom_site_type_symbol
 _atom_site_label
 _atom_site_symmetry_multiplicity
 _atom_site_fract_x
 _atom_site_fract_y
 _atom_site_fract_z
 _atom_site_occupancy
 _atom_site_charge
  In  In1  1  0.581690  0.000000  0.250000  1.0  1.5064
  In  In2  1  0.418310  0.000000  0.750000  1.0  1.5059
  In  In3  1  0.000000  0.581690  0.500000  1.0  1.5087
  In  In4  1  0.000000  0.418310  0.000000  1.0  1.5084
  H  H5  1  0.394800  0.072100  0.993300  1.0  0.1289
  H  H6  1  0.249400  0.151900  0.933600  1.0  0.1277
  H  H7  1  0.605200  0.927900  0.493300  1.0  0.1287
  H  H8  1  0.750600  0.848100  0.433600  1.0  0.1277
  H  H9  1  0.927900  0.394800  0.243300  1.0  0.1283
  H  H10  1  0.848100  0.249400  0.183600  1.0  0.1281
  H  H11  1  0.072100  0.605200  0.743300  1.0  0.1283
  H  H12  1  0.151900  0.750600  0.683600  1.0  0.1276
  H  H13  1  0.605200  0.072100  0.006700  1.0  0.1286
  H  H14  1  0.750600  0.151900  0.066400  1.0  0.1279
  H  H15  1  0.394800  0.927900  0.506700  1.0  0.1288
  H  H16  1  0.249400  0.848100  0.566400  1.0  0.1275
  H  H17  1  0.072100  0.394800  0.756700  1.0  0.1284
  H  H18  1  0.151900  0.249400  0.816400  1.0  0.1276
  H  H19  1  0.927900  0.605200  0.256700  1.0  0.1285
  H  H20  1  0.848100  0.750600  0.316400  1.0  0.1282
  C  C21  1  0.368100  0.137100  0.105000  1.0  -0.1716
  C  C22  1  0.354000  0.114900  0.022900  1.0  -0.041
  C  C23  1  0.272200  0.162500  0.987500  1.0  -0.0675
  C  C24  1  0.230100  0.227500  0.043600  1.0  -0.1022
  C  C25  1  0.447500  0.093700  0.160500  1.0  0.7079
  C  C26  1  0.146800  0.294100  0.028800  1.0  0.6855
  C  C27  1  0.631900  0.862900  0.605000  1.0  -0.1709
  C  C28  1  0.646000  0.885100  0.522900  1.0  -0.041
  C  C29  1  0.727800  0.837500  0.487500  1.0  -0.0676
  C  C30  1  0.769900  0.772500  0.543600  1.0  -0.1025
  C  C31  1  0.552500  0.906300  0.660500  1.0  0.7098
  C  C32  1  0.853200  0.705900  0.528800  1.0  0.6856
  C  C33  1  0.862900  0.368100  0.355000  1.0  -0.1724
  C  C34  1  0.885100  0.354000  0.272900  1.0  -0.0416
  C  C35  1  0.837500  0.272200  0.237500  1.0  -0.0661
  C  C36  1  0.772500  0.230100  0.293600  1.0  -0.1015
  C  C37  1  0.906300  0.447500  0.410500  1.0  0.7078
  C  C38  1  0.705900  0.146800  0.278800  1.0  0.6864
  C  C39  1  0.137100  0.631900  0.855000  1.0  -0.1713
  C  C40  1  0.114900  0.646000  0.772900  1.0  -0.0416
  C  C41  1  0.162500  0.727800  0.737500  1.0  -0.0662
  C  C42  1  0.227500  0.769900  0.793600  1.0  -0.1014
  C  C43  1  0.093700  0.552500  0.910500  1.0  0.7092
  C  C44  1  0.294100  0.853200  0.778800  1.0  0.6866
  C  C45  1  0.631900  0.137100  0.895000  1.0  -0.1758
  C  C46  1  0.646000  0.114900  0.977100  1.0  -0.0408
  C  C47  1  0.727800  0.162500  0.012500  1.0  -0.068
  C  C48  1  0.769900  0.227500  0.956400  1.0  -0.1031
  C  C49  1  0.552500  0.093700  0.839500  1.0  0.7096
  C  C50  1  0.853200  0.294100  0.971200  1.0  0.6841
  C  C51  1  0.368100  0.862900  0.395000  1.0  -0.1774
  C  C52  1  0.354000  0.885100  0.477100  1.0  -0.0412
  C  C53  1  0.272200  0.837500  0.512500  1.0  -0.0684
  C  C54  1  0.230100  0.772500  0.456400  1.0  -0.1036
  C  C55  1  0.447500  0.906300  0.339500  1.0  0.7084
  C  C56  1  0.146800  0.705900  0.471200  1.0  0.6836
  C  C57  1  0.137100  0.368100  0.645000  1.0  -0.1769
  C  C58  1  0.114900  0.354000  0.727100  1.0  -0.0415
  C  C59  1  0.162500  0.272200  0.762500  1.0  -0.0667
  C  C60  1  0.227500  0.230100  0.706400  1.0  -0.1026
  C  C61  1  0.093700  0.447500  0.589500  1.0  0.7084
  C  C62  1  0.294100  0.146800  0.721200  1.0  0.6854
  C  C63  1  0.862900  0.631900  0.145000  1.0  -0.1766
  C  C64  1  0.885100  0.646000  0.227100  1.0  -0.0417
  C  C65  1  0.837500  0.727800  0.262500  1.0  -0.0671
  C  C66  1  0.772500  0.769900  0.206400  1.0  -0.1018
  C  C67  1  0.906300  0.552500  0.089500  1.0  0.7091
  C  C68  1  0.705900  0.853200  0.221200  1.0  0.6847
  S  S69  1  0.286200  0.221800  0.139370  1.0  0.1782
  S  S70  1  0.713800  0.778200  0.639370  1.0  0.1773
  S  S71  1  0.778200  0.286200  0.389370  1.0  0.1763
  S  S72  1  0.221800  0.713800  0.889370  1.0  0.1766
  S  S73  1  0.713800  0.221800  0.860630  1.0  0.1766
  S  S74  1  0.286200  0.778200  0.360630  1.0  0.1782
  S  S75  1  0.221800  0.286200  0.610630  1.0  0.1758
  S  S76  1  0.778200  0.713800  0.110630  1.0  0.1771
  O  O77  1  0.455500  0.123900  0.233000  1.0  -0.542
  O  O78  1  0.502000  0.026000  0.132400  1.0  -0.5478
  O  O79  1  0.107300  0.300800  0.958200  1.0  -0.5438
  O  O80  1  0.114600  0.347200  0.088300  1.0  -0.5674
  O  O81  1  0.544500  0.876100  0.733000  1.0  -0.5401
  O  O82  1  0.498000  0.974000  0.632400  1.0  -0.5467
  O  O83  1  0.892700  0.699200  0.458200  1.0  -0.5434
  O  O84  1  0.885400  0.652800  0.588300  1.0  -0.5686
  O  O85  1  0.876100  0.455500  0.483000  1.0  -0.5394
  O  O86  1  0.974000  0.502000  0.382400  1.0  -0.5469
  O  O87  1  0.699200  0.107300  0.208200  1.0  -0.5449
  O  O88  1  0.652800  0.114600  0.338300  1.0  -0.5637
  O  O89  1  0.123900  0.544500  0.983000  1.0  -0.541
  O  O90  1  0.026000  0.498000  0.882400  1.0  -0.5465
  O  O91  1  0.300800  0.892700  0.708200  1.0  -0.545
  O  O92  1  0.347200  0.885400  0.838300  1.0  -0.5625
  O  O93  1  0.544500  0.123900  0.767000  1.0  -0.5414
  O  O94  1  0.498000  0.026000  0.867600  1.0  -0.5478
  O  O95  1  0.892700  0.300800  0.041800  1.0  -0.5428
  O  O96  1  0.885400  0.347200  0.911700  1.0  -0.5652
  O  O97  1  0.455500  0.876100  0.267000  1.0  -0.5421
  O  O98  1  0.502000  0.974000  0.367600  1.0  -0.5468
  O  O99  1  0.107300  0.699200  0.541800  1.0  -0.5437
  O  O100  1  0.114600  0.652800  0.411700  1.0  -0.5642
  O  O101  1  0.123900  0.455500  0.517000  1.0  -0.5405
  O  O102  1  0.026000  0.502000  0.617600  1.0  -0.546
  O  O103  1  0.300800  0.107300  0.791800  1.0  -0.5448
  O  O104  1  0.347200  0.114600  0.661700  1.0  -0.5601
  O  O105  1  0.876100  0.544500  0.017000  1.0  -0.5413
  O  O106  1  0.974000  0.498000  0.117600  1.0  -0.548
  O  O107  1  0.699200  0.892700  0.291800  1.0  -0.5445
  O  O108  1  0.652800  0.885400  0.161700  1.0  -0.5602
