# generated using pymatgen
data_InH4C12(SO4)2
_symmetry_space_group_name_H-M   'P 1'
_cell_length_a   13.55900000
_cell_length_b   13.55900000
_cell_length_c   15.67820000
_cell_angle_alpha   90.00000000
_cell_angle_beta   90.00000000
_cell_angle_gamma   90.00000000
_symmetry_Int_Tables_number   1
_chemical_formula_structural   InH4C12(SO4)2
_chemical_formula_sum   'In4 H16 C48 S8 O32'
_cell_volume   2882.38189841
_cell_formula_units_Z   4
loop_
 _symmetry_equiv_pos_site_id
 _symmetry_equiv_pos_as_xyz
  1  'x, y, z'
loop_
 _atom_site_type_symbol
 _atom_site_label
 _atom_site_symmetry_multiplicity
 _atom_site_fract_x
 _atom_site_fract_y
 _atom_site_fract_z
 _atom_site_occupancy
 _atom_site_charge
  In  In1  1  0.500000  0.077010  0.000000  1.0  1.5126
  In  In2  1  0.500000  0.922990  0.500000  1.0  1.5126
  In  In3  1  0.922990  0.500000  0.750000  1.0  1.5097
  In  In4  1  0.077010  0.500000  0.250000  1.0  1.5086
  H  H5  1  0.428500  0.887500  0.260100  1.0  0.1383
  H  H6  1  0.342600  0.742700  0.317600  1.0  0.132
  H  H7  1  0.571500  0.112500  0.760100  1.0  0.1386
  H  H8  1  0.657400  0.257300  0.817600  1.0  0.1315
  H  H9  1  0.112500  0.428500  0.010100  1.0  0.1389
  H  H10  1  0.257300  0.342600  0.067600  1.0  0.132
  H  H11  1  0.887500  0.571500  0.510100  1.0  0.1391
  H  H12  1  0.742700  0.657400  0.567600  1.0  0.1321
  H  H13  1  0.571500  0.887500  0.739900  1.0  0.1388
  H  H14  1  0.657400  0.742700  0.682400  1.0  0.1317
  H  H15  1  0.428500  0.112500  0.239900  1.0  0.1386
  H  H16  1  0.342600  0.257300  0.182400  1.0  0.1323
  H  H17  1  0.887500  0.428500  0.989900  1.0  0.1388
  H  H18  1  0.742700  0.342600  0.932400  1.0  0.132
  H  H19  1  0.112500  0.571500  0.489900  1.0  0.1392
  H  H20  1  0.257300  0.657400  0.432400  1.0  0.1325
  C  C21  1  0.384800  0.849100  0.228600  1.0  -0.0247
  C  C22  1  0.270100  0.727600  0.203800  1.0  -0.1719
  C  C23  1  0.363500  0.866000  0.145900  1.0  -0.1802
  C  C24  1  0.334000  0.766900  0.262600  1.0  -0.0483
  C  C25  1  0.406900  0.942900  0.091200  1.0  0.6913
  C  C26  1  0.200400  0.645000  0.217700  1.0  0.702
  C  C27  1  0.615200  0.150900  0.728600  1.0  -0.0239
  C  C28  1  0.729900  0.272400  0.703800  1.0  -0.172
  C  C29  1  0.636500  0.134000  0.645900  1.0  -0.18
  C  C30  1  0.666000  0.233100  0.762600  1.0  -0.0486
  C  C31  1  0.593100  0.057100  0.591200  1.0  0.693
  C  C32  1  0.799600  0.355000  0.717700  1.0  0.7016
  C  C33  1  0.150900  0.384800  0.978600  1.0  -0.024
  C  C34  1  0.272400  0.270100  0.953800  1.0  -0.1729
  C  C35  1  0.134000  0.363500  0.895900  1.0  -0.1805
  C  C36  1  0.233100  0.334000  0.012600  1.0  -0.0502
  C  C37  1  0.057100  0.406900  0.841200  1.0  0.6949
  C  C38  1  0.355000  0.200400  0.967700  1.0  0.7015
  C  C39  1  0.849100  0.615200  0.478600  1.0  -0.0238
  C  C40  1  0.727600  0.729900  0.453800  1.0  -0.1715
  C  C41  1  0.866000  0.636500  0.395900  1.0  -0.1795
  C  C42  1  0.766900  0.666000  0.512600  1.0  -0.0491
  C  C43  1  0.942900  0.593100  0.341200  1.0  0.693
  C  C44  1  0.645000  0.799600  0.467700  1.0  0.6999
  C  C45  1  0.615200  0.849100  0.771400  1.0  -0.024
  C  C46  1  0.729900  0.727600  0.796200  1.0  -0.1705
  C  C47  1  0.636500  0.866000  0.854100  1.0  -0.1763
  C  C48  1  0.666000  0.766900  0.737400  1.0  -0.0477
  C  C49  1  0.593100  0.942900  0.908800  1.0  0.693
  C  C50  1  0.799600  0.645000  0.782300  1.0  0.7006
  C  C51  1  0.384800  0.150900  0.271400  1.0  -0.0251
  C  C52  1  0.270100  0.272400  0.296200  1.0  -0.1707
  C  C53  1  0.363500  0.134000  0.354100  1.0  -0.1762
  C  C54  1  0.334000  0.233100  0.237400  1.0  -0.0485
  C  C55  1  0.406900  0.057100  0.408800  1.0  0.6925
  C  C56  1  0.200400  0.355000  0.282300  1.0  0.7003
  C  C57  1  0.849100  0.384800  0.021400  1.0  -0.0237
  C  C58  1  0.727600  0.270100  0.046200  1.0  -0.1709
  C  C59  1  0.866000  0.363500  0.104100  1.0  -0.1761
  C  C60  1  0.766900  0.334000  0.987400  1.0  -0.0491
  C  C61  1  0.942900  0.406900  0.158800  1.0  0.6933
  C  C62  1  0.645000  0.200400  0.032300  1.0  0.6986
  C  C63  1  0.150900  0.615200  0.521400  1.0  -0.0246
  C  C64  1  0.272400  0.729900  0.546200  1.0  -0.1713
  C  C65  1  0.134000  0.636500  0.604100  1.0  -0.1754
  C  C66  1  0.233100  0.666000  0.487400  1.0  -0.0498
  C  C67  1  0.057100  0.593100  0.658800  1.0  0.6953
  C  C68  1  0.355000  0.799600  0.532300  1.0  0.6996
  S  S69  1  0.277080  0.785040  0.108280  1.0  0.1986
  S  S70  1  0.722920  0.214960  0.608280  1.0  0.1964
  S  S71  1  0.214960  0.277080  0.858280  1.0  0.2008
  S  S72  1  0.785040  0.722920  0.358280  1.0  0.1993
  S  S73  1  0.722920  0.785040  0.891720  1.0  0.1979
  S  S74  1  0.277080  0.214960  0.391720  1.0  0.1985
  S  S75  1  0.785040  0.277080  0.141720  1.0  0.2013
  S  S76  1  0.214960  0.722920  0.641720  1.0  0.2006
  O  O77  1  0.379100  0.952700  0.016000  1.0  -0.5279
  O  O78  1  0.473300  0.997900  0.121900  1.0  -0.5486
  O  O79  1  0.148000  0.615600  0.157500  1.0  -0.5665
  O  O80  1  0.194300  0.606000  0.290800  1.0  -0.5487
  O  O81  1  0.620900  0.047300  0.516000  1.0  -0.5281
  O  O82  1  0.526700  0.002100  0.621900  1.0  -0.5484
  O  O83  1  0.852000  0.384400  0.657500  1.0  -0.5664
  O  O84  1  0.805700  0.394000  0.790800  1.0  -0.5489
  O  O85  1  0.047300  0.379100  0.766000  1.0  -0.5287
  O  O86  1  0.002100  0.473300  0.871900  1.0  -0.5487
  O  O87  1  0.384400  0.148000  0.907500  1.0  -0.5702
  O  O88  1  0.394000  0.194300  0.040800  1.0  -0.5478
  O  O89  1  0.952700  0.620900  0.266000  1.0  -0.5301
  O  O90  1  0.997900  0.526700  0.371900  1.0  -0.5489
  O  O91  1  0.615600  0.852000  0.407500  1.0  -0.5696
  O  O92  1  0.606000  0.805700  0.540800  1.0  -0.5476
  O  O93  1  0.620900  0.952700  0.984000  1.0  -0.5305
  O  O94  1  0.526700  0.997900  0.878100  1.0  -0.5479
  O  O95  1  0.852000  0.615600  0.842500  1.0  -0.5706
  O  O96  1  0.805700  0.606000  0.709200  1.0  -0.5488
  O  O97  1  0.379100  0.047300  0.484000  1.0  -0.5306
  O  O98  1  0.473300  0.002100  0.378100  1.0  -0.5484
  O  O99  1  0.148000  0.384400  0.342500  1.0  -0.57
  O  O100  1  0.194300  0.394000  0.209200  1.0  -0.5481
  O  O101  1  0.952700  0.379100  0.234000  1.0  -0.532
  O  O102  1  0.997900  0.473300  0.128100  1.0  -0.5486
  O  O103  1  0.615600  0.148000  0.092500  1.0  -0.5745
  O  O104  1  0.606000  0.194300  0.959200  1.0  -0.5471
  O  O105  1  0.047300  0.620900  0.734000  1.0  -0.5305
  O  O106  1  0.002100  0.526700  0.628100  1.0  -0.5488
  O  O107  1  0.384400  0.852000  0.592500  1.0  -0.5741
  O  O108  1  0.394000  0.805700  0.459200  1.0  -0.5471
