# generated using pymatgen
data_InH4C12(SO4)2
_symmetry_space_group_name_H-M   'P 1'
_cell_length_a   13.57700000
_cell_length_b   13.57700000
_cell_length_c   15.53940000
_cell_angle_alpha   90.00000000
_cell_angle_beta   90.00000000
_cell_angle_gamma   90.00000000
_symmetry_Int_Tables_number   1
_chemical_formula_structural   InH4C12(SO4)2
_chemical_formula_sum   'In4 H16 C48 S8 O32'
_cell_volume   2864.45419570
_cell_formula_units_Z   4
loop_
 _symmetry_equiv_pos_site_id
 _symmetry_equiv_pos_as_xyz
  1  'x, y, z'
loop_
 _atom_site_type_symbol
 _atom_site_label
 _atom_site_symmetry_multiplicity
 _atom_site_fract_x
 _atom_site_fract_y
 _atom_site_fract_z
 _atom_site_occupancy
 _atom_site_charge
  In  In1  1  0.423850  0.000000  0.250000  1.0  1.4976
  In  In2  1  0.576150  0.000000  0.750000  1.0  1.4965
  In  In3  1  0.000000  0.423850  0.500000  1.0  1.5008
  In  In4  1  0.000000  0.576150  0.000000  1.0  1.5008
  H  H5  1  0.155400  0.236800  0.317500  1.0  0.126
  H  H6  1  0.071500  0.383600  0.261500  1.0  0.1259
  H  H7  1  0.844600  0.763200  0.817500  1.0  0.1258
  H  H8  1  0.928500  0.616400  0.761500  1.0  0.1261
  H  H9  1  0.763200  0.155400  0.567500  1.0  0.126
  H  H10  1  0.616400  0.071500  0.511500  1.0  0.1264
  H  H11  1  0.236800  0.844600  0.067500  1.0  0.1256
  H  H12  1  0.383600  0.928500  0.011500  1.0  0.1256
  H  H13  1  0.844600  0.236800  0.682500  1.0  0.1259
  H  H14  1  0.928500  0.383600  0.738500  1.0  0.1257
  H  H15  1  0.155400  0.763200  0.182500  1.0  0.1258
  H  H16  1  0.071500  0.616400  0.238500  1.0  0.126
  H  H17  1  0.236800  0.155400  0.432500  1.0  0.1259
  H  H18  1  0.383600  0.071500  0.488500  1.0  0.1262
  H  H19  1  0.763200  0.844600  0.932500  1.0  0.1261
  H  H20  1  0.616400  0.928500  0.988500  1.0  0.1263
  C  C21  1  0.230000  0.224900  0.203600  1.0  -0.1754
  C  C22  1  0.165200  0.262500  0.262700  1.0  -0.0558
  C  C23  1  0.115000  0.345700  0.229300  1.0  -0.0335
  C  C24  1  0.136600  0.364400  0.146400  1.0  -0.1407
  C  C25  1  0.299800  0.143200  0.216700  1.0  0.7211
  C  C26  1  0.092500  0.442900  0.091300  1.0  0.7105
  C  C27  1  0.770000  0.775100  0.703600  1.0  -0.1738
  C  C28  1  0.834800  0.737500  0.762700  1.0  -0.0566
  C  C29  1  0.885000  0.654300  0.729300  1.0  -0.0336
  C  C30  1  0.863400  0.635600  0.646400  1.0  -0.1411
  C  C31  1  0.700200  0.856800  0.716700  1.0  0.7206
  C  C32  1  0.907500  0.557100  0.591300  1.0  0.7105
  C  C33  1  0.775100  0.230000  0.453600  1.0  -0.1746
  C  C34  1  0.737500  0.165200  0.512700  1.0  -0.0565
  C  C35  1  0.654300  0.115000  0.479300  1.0  -0.0334
  C  C36  1  0.635600  0.136600  0.396400  1.0  -0.1404
  C  C37  1  0.856800  0.299800  0.466700  1.0  0.7212
  C  C38  1  0.557100  0.092500  0.341300  1.0  0.7123
  C  C39  1  0.224900  0.770000  0.953600  1.0  -0.1754
  C  C40  1  0.262500  0.834800  0.012700  1.0  -0.0565
  C  C41  1  0.345700  0.885000  0.979300  1.0  -0.0337
  C  C42  1  0.364400  0.863400  0.896400  1.0  -0.1423
  C  C43  1  0.143200  0.700200  0.966700  1.0  0.722
  C  C44  1  0.442900  0.907500  0.841300  1.0  0.7105
  C  C45  1  0.770000  0.224900  0.796400  1.0  -0.1729
  C  C46  1  0.834800  0.262500  0.737300  1.0  -0.0549
  C  C47  1  0.885000  0.345700  0.770700  1.0  -0.0345
  C  C48  1  0.863400  0.364400  0.853600  1.0  -0.1387
  C  C49  1  0.700200  0.143200  0.783300  1.0  0.7194
  C  C50  1  0.907500  0.442900  0.908700  1.0  0.7091
  C  C51  1  0.230000  0.775100  0.296400  1.0  -0.1736
  C  C52  1  0.165200  0.737500  0.237300  1.0  -0.0559
  C  C53  1  0.115000  0.654300  0.270700  1.0  -0.0335
  C  C54  1  0.136600  0.635600  0.353600  1.0  -0.1384
  C  C55  1  0.299800  0.856800  0.283300  1.0  0.7189
  C  C56  1  0.092500  0.557100  0.408700  1.0  0.7108
  C  C57  1  0.224900  0.230000  0.546400  1.0  -0.1738
  C  C58  1  0.262500  0.165200  0.487300  1.0  -0.0555
  C  C59  1  0.345700  0.115000  0.520700  1.0  -0.0341
  C  C60  1  0.364400  0.136600  0.603600  1.0  -0.1388
  C  C61  1  0.143200  0.299800  0.533300  1.0  0.7187
  C  C62  1  0.442900  0.092500  0.658700  1.0  0.7104
  C  C63  1  0.775100  0.770000  0.046400  1.0  -0.1734
  C  C64  1  0.737500  0.834800  0.987300  1.0  -0.0558
  C  C65  1  0.654300  0.885000  0.020700  1.0  -0.0338
  C  C66  1  0.635600  0.863400  0.103600  1.0  -0.1383
  C  C67  1  0.856800  0.700200  0.033300  1.0  0.72
  C  C68  1  0.557100  0.907500  0.158700  1.0  0.7115
  S  S69  1  0.223300  0.284960  0.107540  1.0  0.1861
  S  S70  1  0.776700  0.715040  0.607540  1.0  0.1874
  S  S71  1  0.715040  0.223300  0.357540  1.0  0.1876
  S  S72  1  0.284960  0.776700  0.857540  1.0  0.1906
  S  S73  1  0.776700  0.284960  0.892460  1.0  0.1882
  S  S74  1  0.223300  0.715040  0.392460  1.0  0.1872
  S  S75  1  0.284960  0.223300  0.642460  1.0  0.1912
  S  S76  1  0.715040  0.776700  0.142460  1.0  0.1899
  O  O77  1  0.306700  0.105200  0.290300  1.0  -0.5557
  O  O78  1  0.352900  0.114900  0.156000  1.0  -0.5697
  O  O79  1  0.026200  0.497000  0.123300  1.0  -0.551
  O  O80  1  0.120700  0.453100  0.015500  1.0  -0.5351
  O  O81  1  0.693300  0.894800  0.790300  1.0  -0.5558
  O  O82  1  0.647100  0.885100  0.656000  1.0  -0.5678
  O  O83  1  0.973800  0.503000  0.623300  1.0  -0.5523
  O  O84  1  0.879300  0.546900  0.515500  1.0  -0.5367
  O  O85  1  0.894800  0.306700  0.540300  1.0  -0.5535
  O  O86  1  0.885100  0.352900  0.406000  1.0  -0.5725
  O  O87  1  0.503000  0.026200  0.373300  1.0  -0.5525
  O  O88  1  0.546900  0.120700  0.265500  1.0  -0.5374
  O  O89  1  0.105200  0.693300  0.040300  1.0  -0.5548
  O  O90  1  0.114900  0.647100  0.906000  1.0  -0.5715
  O  O91  1  0.497000  0.973800  0.873300  1.0  -0.5522
  O  O92  1  0.453100  0.879300  0.765500  1.0  -0.5376
  O  O93  1  0.693300  0.105200  0.709700  1.0  -0.5552
  O  O94  1  0.647100  0.114900  0.844000  1.0  -0.5734
  O  O95  1  0.973800  0.497000  0.876700  1.0  -0.5526
  O  O96  1  0.879300  0.453100  0.984500  1.0  -0.5368
  O  O97  1  0.306700  0.894800  0.209700  1.0  -0.5552
  O  O98  1  0.352900  0.885100  0.344000  1.0  -0.5746
  O  O99  1  0.026200  0.503000  0.376700  1.0  -0.5518
  O  O100  1  0.120700  0.546900  0.484500  1.0  -0.5375
  O  O101  1  0.105200  0.306700  0.459700  1.0  -0.5541
  O  O102  1  0.114900  0.352900  0.594000  1.0  -0.5768
  O  O103  1  0.497000  0.026200  0.626700  1.0  -0.5533
  O  O104  1  0.453100  0.120700  0.734500  1.0  -0.5392
  O  O105  1  0.894800  0.693300  0.959700  1.0  -0.5533
  O  O106  1  0.885100  0.647100  0.094000  1.0  -0.5776
  O  O107  1  0.503000  0.973800  0.126700  1.0  -0.5523
  O  O108  1  0.546900  0.879300  0.234500  1.0  -0.5378
