# generated using pymatgen
data_GaC6N4O
_symmetry_space_group_name_H-M   'P 1'
_cell_length_a   14.82810000
_cell_length_b   6.48720000
_cell_length_c   11.35030000
_cell_angle_alpha   90.00000000
_cell_angle_beta   90.00000000
_cell_angle_gamma   90.00000000
_symmetry_Int_Tables_number   1
_chemical_formula_structural   GaC6N4O
_chemical_formula_sum   'Ga4 C24 N16 O4'
_cell_volume   1091.81770899
_cell_formula_units_Z   4
loop_
 _symmetry_equiv_pos_site_id
 _symmetry_equiv_pos_as_xyz
  1  'x, y, z'
loop_
 _atom_site_type_symbol
 _atom_site_label
 _atom_site_symmetry_multiplicity
 _atom_site_fract_x
 _atom_site_fract_y
 _atom_site_fract_z
 _atom_site_occupancy
 _atom_site_charge
  Ga  Ga1  1  0.500000  0.500000  0.500000  1.0  1.5905
  Ga  Ga2  1  0.000000  0.000000  0.000000  1.0  1.5905
  Ga  Ga3  1  0.500000  0.000000  0.500000  1.0  1.5905
  Ga  Ga4  1  0.000000  0.500000  0.000000  1.0  1.5905
  C  C5  1  0.665000  0.586400  0.665700  1.0  0.0398
  C  C6  1  0.165000  0.086400  0.165700  1.0  0.0398
  C  C7  1  0.335000  0.913600  0.665700  1.0  0.039
  C  C8  1  0.835000  0.413600  0.165700  1.0  0.039
  C  C9  1  0.335000  0.086400  0.334300  1.0  0.0394
  C  C10  1  0.835000  0.586400  0.834300  1.0  0.0394
  C  C11  1  0.665000  0.413600  0.334300  1.0  0.0396
  C  C12  1  0.165000  0.913600  0.834300  1.0  0.0396
  C  C13  1  0.335000  0.413600  0.334300  1.0  0.0389
  C  C14  1  0.835000  0.913600  0.834300  1.0  0.0389
  C  C15  1  0.665000  0.086400  0.334300  1.0  0.0395
  C  C16  1  0.165000  0.586400  0.834300  1.0  0.0395
  C  C17  1  0.665000  0.913600  0.665700  1.0  0.0399
  C  C18  1  0.165000  0.413600  0.165700  1.0  0.0399
  C  C19  1  0.335000  0.586400  0.665700  1.0  0.0396
  C  C20  1  0.835000  0.086400  0.165700  1.0  0.0396
  C  C21  1  0.711710  0.750000  0.711200  1.0  0.0558
  C  C22  1  0.211710  0.250000  0.211200  1.0  0.0558
  C  C23  1  0.288290  0.750000  0.711200  1.0  0.0561
  C  C24  1  0.788290  0.250000  0.211200  1.0  0.0561
  C  C25  1  0.288290  0.250000  0.288800  1.0  0.0558
  C  C26  1  0.788290  0.750000  0.788800  1.0  0.0558
  C  C27  1  0.711710  0.250000  0.288800  1.0  0.0554
  C  C28  1  0.211710  0.750000  0.788800  1.0  0.0554
  N  N29  1  0.598800  0.641200  0.596000  1.0  -0.2917
  N  N30  1  0.098800  0.141200  0.096000  1.0  -0.2917
  N  N31  1  0.401200  0.858800  0.596000  1.0  -0.2928
  N  N32  1  0.901200  0.358800  0.096000  1.0  -0.2928
  N  N33  1  0.401200  0.141200  0.404000  1.0  -0.2907
  N  N34  1  0.901200  0.641200  0.904000  1.0  -0.2907
  N  N35  1  0.598800  0.358800  0.404000  1.0  -0.2935
  N  N36  1  0.098800  0.858800  0.904000  1.0  -0.2935
  N  N37  1  0.401200  0.358800  0.404000  1.0  -0.2929
  N  N38  1  0.901200  0.858800  0.904000  1.0  -0.2929
  N  N39  1  0.598800  0.141200  0.404000  1.0  -0.2916
  N  N40  1  0.098800  0.641200  0.904000  1.0  -0.2916
  N  N41  1  0.598800  0.858800  0.596000  1.0  -0.2934
  N  N42  1  0.098800  0.358800  0.096000  1.0  -0.2934
  N  N43  1  0.401200  0.641200  0.596000  1.0  -0.2908
  N  N44  1  0.901200  0.141200  0.096000  1.0  -0.2908
  O  O45  1  0.500000  0.250000  0.587200  1.0  -0.6888
  O  O46  1  0.000000  0.750000  0.087200  1.0  -0.6888
  O  O47  1  0.500000  0.750000  0.412800  1.0  -0.6938
  O  O48  1  0.000000  0.250000  0.912800  1.0  -0.6938
