# generated using pymatgen
data_Pr2H15C24(NO4)3
_symmetry_space_group_name_H-M   'P 1'
_cell_length_a   10.49510000
_cell_length_b   11.33960000
_cell_length_c   12.79540000
_cell_angle_alpha   100.73000000
_cell_angle_beta   110.14200000
_cell_angle_gamma   99.73200000
_symmetry_Int_Tables_number   1
_chemical_formula_structural   Pr2H15C24(NO4)3
_chemical_formula_sum   'Pr2 H15 C24 N3 O12'
_cell_volume   1359.04652469
_cell_formula_units_Z   1
loop_
 _symmetry_equiv_pos_site_id
 _symmetry_equiv_pos_as_xyz
  1  'x, y, z'
loop_
 _atom_site_type_symbol
 _atom_site_label
 _atom_site_symmetry_multiplicity
 _atom_site_fract_x
 _atom_site_fract_y
 _atom_site_fract_z
 _atom_site_occupancy
 _atom_site_charge
  Pr  Pr1  1  0.611010  0.573280  0.636610  1.0  2.195
  Pr  Pr2  1  0.400600  0.444960  0.342630  1.0  2.1232
  H  H3  1  0.909660  0.645000  0.595620  1.0  0.1244
  H  H4  1  0.538050  0.889040  0.340980  1.0  0.1238
  H  H5  1  0.100460  0.801610  0.964130  1.0  0.124
  H  H6  1  0.362670  0.813980  0.632980  1.0  0.275
  H  H7  1  0.417850  0.962180  0.734300  1.0  0.2916
  H  H8  1  0.639470  0.884360  0.876840  1.0  0.2962
  H  H9  1  0.678490  0.031570  0.975030  1.0  0.2331
  H  H10  1  0.090730  0.355300  0.377940  1.0  0.113
  H  H11  1  0.482850  0.146660  0.674870  1.0  0.1289
  H  H12  1  0.914940  0.147870  0.098260  1.0  0.1346
  H  H13  1  0.273360  0.664090  0.753520  1.0  0.2772
  H  H14  1  0.143870  0.749350  0.731860  1.0  0.2886
  H  H15  1  0.837190  0.336720  0.313290  1.0  0.1248
  H  H16  1  0.575840  0.114350  0.370400  1.0  0.1209
  H  H17  1  0.262280  0.991180  0.109720  1.0  0.1248
  C  C18  1  0.696140  0.479760  0.410530  1.0  0.6361
  C  C19  1  0.852480  0.490250  0.449670  1.0  -0.0577
  C  C20  1  0.907540  0.408870  0.389800  1.0  -0.0952
  C  C21  1  0.948710  0.581230  0.548370  1.0  -0.1654
  C  C22  1  0.491270  0.756080  0.486190  1.0  0.7264
  C  C23  1  0.483410  0.885990  0.488640  1.0  -0.1555
  C  C24  1  0.467920  0.961190  0.583800  1.0  0.2522
  C  C25  1  0.522710  0.943400  0.412730  1.0  -0.0687
  C  C26  1  0.811320  0.742780  0.846870  1.0  0.6818
  C  C27  1  0.909090  0.858040  0.947120  1.0  -0.1769
  C  C28  1  0.860340  0.960470  0.988620  1.0  0.3168
  C  C29  1  0.056730  0.874660  0.993830  1.0  -0.0672
  C  C30  1  0.308790  0.524680  0.560900  1.0  0.6194
  C  C31  1  0.151310  0.510820  0.526350  1.0  -0.1924
  C  C32  1  0.094870  0.590330  0.589380  1.0  0.2141
  C  C33  1  0.053790  0.419430  0.427080  1.0  -0.0681
  C  C34  1  0.537940  0.277980  0.532760  1.0  0.6795
  C  C35  1  0.538480  0.147250  0.528450  1.0  -0.0041
  C  C36  1  0.548500  0.072410  0.431810  1.0  -0.1237
  C  C37  1  0.498410  0.090730  0.603970  1.0  -0.1796
  C  C38  1  0.205890  0.211350  0.201870  1.0  0.6266
  C  C39  1  0.103520  0.087420  0.118000  1.0  -0.0575
  C  C40  1  0.150810  0.984860  0.078190  1.0  -0.1218
  C  C41  1  0.956370  0.071720  0.071290  1.0  -0.1237
  N  N42  1  0.416480  0.907000  0.658630  1.0  -0.6763
  N  N43  1  0.714000  0.957360  0.943720  1.0  -0.68
  N  N44  1  0.181740  0.678500  0.697680  1.0  -0.6858
  O  O45  1  0.629130  0.551980  0.460920  1.0  -0.8104
  O  O46  1  0.608140  0.409850  0.322340  1.0  -0.593
  O  O47  1  0.565760  0.743860  0.584570  1.0  -0.642
  O  O48  1  0.429010  0.665460  0.391310  1.0  -0.7413
  O  O49  1  0.835280  0.703080  0.757920  1.0  -0.6725
  O  O50  1  0.691150  0.680870  0.834900  1.0  -0.6899
  O  O51  1  0.377920  0.449140  0.516680  1.0  -0.805
  O  O52  1  0.397040  0.605050  0.640000  1.0  -0.607
  O  O53  1  0.457790  0.292720  0.435870  1.0  -0.6033
  O  O54  1  0.610680  0.367090  0.627010  1.0  -0.7006
  O  O55  1  0.177360  0.316410  0.211860  1.0  -0.6741
  O  O56  1  0.332500  0.225030  0.268790  1.0  -0.6129
