# generated using pymatgen
data_TbH2C12(NO2)3
_symmetry_space_group_name_H-M   'P 1'
_cell_length_a   10.53900000
_cell_length_b   11.21800000
_cell_length_c   12.84200000
_cell_angle_alpha   101.47200000
_cell_angle_beta   110.50000000
_cell_angle_gamma   99.25700000
_symmetry_Int_Tables_number   1
_chemical_formula_structural   TbH2C12(NO2)3
_chemical_formula_sum   'Tb2 H4 C24 N6 O12'
_cell_volume   1349.04634049
_cell_formula_units_Z   2
loop_
 _symmetry_equiv_pos_site_id
 _symmetry_equiv_pos_as_xyz
  1  'x, y, z'
loop_
 _atom_site_type_symbol
 _atom_site_label
 _atom_site_symmetry_multiplicity
 _atom_site_fract_x
 _atom_site_fract_y
 _atom_site_fract_z
 _atom_site_occupancy
 _atom_site_charge
  Tb  Tb1  1  0.393790  0.950090  0.824390  1.0  2.2561
  Tb  Tb2  1  0.606210  0.049910  0.175610  1.0  2.2577
  H  H3  1  0.911300  0.072800  0.134600  1.0  0.1341
  H  H4  1  0.495600  0.635300  0.160300  1.0  0.1379
  H  H5  1  0.088700  0.927200  0.865400  1.0  0.1339
  H  H6  1  0.504400  0.364700  0.839700  1.0  0.1358
  C  C7  1  0.701900  0.974100  0.933600  1.0  0.7118
  C  C8  1  0.855600  0.985800  0.966600  1.0  -0.15
  C  C9  1  0.907500  0.941500  0.883900  1.0  0.2901
  C  C10  1  0.946900  0.043400  0.080400  1.0  -0.0547
  C  C11  1  0.470300  0.754500  0.999200  1.0  0.7533
  C  C12  1  0.482300  0.621700  0.998300  1.0  -0.1169
  C  C13  1  0.486800  0.540000  0.900000  1.0  0.0464
  C  C14  1  0.496800  0.581000  0.095800  1.0  0.0582
  C  C15  1  0.199700  0.729500  0.664500  1.0  0.674
  C  C16  1  0.097600  0.609800  0.580100  1.0  -0.1623
  C  C17  1  0.135100  0.530800  0.503700  1.0  0.1584
  C  C18  1  0.961100  0.578800  0.576100  1.0  0.0999
  C  C19  1  0.298100  0.025900  0.066400  1.0  0.7123
  C  C20  1  0.144400  0.014200  0.033400  1.0  -0.1502
  C  C21  1  0.092500  0.058500  0.116100  1.0  0.2932
  C  C22  1  0.053100  0.956600  0.919600  1.0  -0.0534
  C  C23  1  0.529700  0.245500  0.000800  1.0  0.7527
  C  C24  1  0.517700  0.378300  0.001700  1.0  -0.1138
  C  C25  1  0.513200  0.460000  0.100000  1.0  0.0471
  C  C26  1  0.503200  0.419000  0.904200  1.0  0.0573
  C  C27  1  0.800300  0.270500  0.335500  1.0  0.6742
  C  C28  1  0.902400  0.390200  0.419900  1.0  -0.1613
  C  C29  1  0.864900  0.469200  0.496300  1.0  0.1606
  C  C30  1  0.038900  0.421200  0.423900  1.0  0.1017
  N  N31  1  0.827700  0.885100  0.772900  1.0  -0.2765
  N  N32  1  0.276000  0.532000  0.515800  1.0  -0.2513
  N  N33  1  0.903000  0.658000  0.638000  1.0  -0.2358
  N  N34  1  0.172300  0.114900  0.227100  1.0  -0.2786
  N  N35  1  0.724000  0.468000  0.484200  1.0  -0.2442
  N  N36  1  0.097000  0.342000  0.362000  1.0  -0.2365
  O  O37  1  0.656000  0.003100  0.011800  1.0  -0.8245
  O  O38  1  0.619700  0.937600  0.827600  1.0  -0.6071
  O  O39  1  0.431200  0.779700  0.903000  1.0  -0.6909
  O  O40  1  0.500400  0.169200  0.903700  1.0  -0.7056
  O  O41  1  0.168000  0.793300  0.736300  1.0  -0.6222
  O  O42  1  0.317500  0.763100  0.658300  1.0  -0.6316
  O  O43  1  0.344000  0.996900  0.988200  1.0  -0.824
  O  O44  1  0.380300  0.062400  0.172400  1.0  -0.6052
  O  O45  1  0.568800  0.220300  0.097000  1.0  -0.69
  O  O46  1  0.499600  0.830800  0.096300  1.0  -0.7051
  O  O47  1  0.832000  0.206700  0.263700  1.0  -0.6235
  O  O48  1  0.682500  0.236900  0.341700  1.0  -0.6314
