# generated using pymatgen
data_DyH2C12(NO2)3
_symmetry_space_group_name_H-M   'P 1'
_cell_length_a   10.50590000
_cell_length_b   11.14760000
_cell_length_c   12.79310000
_cell_angle_alpha   100.95500000
_cell_angle_beta   110.45000000
_cell_angle_gamma   99.93900000
_symmetry_Int_Tables_number   1
_chemical_formula_structural   DyH2C12(NO2)3
_chemical_formula_sum   'Dy2 H4 C24 N6 O12'
_cell_volume   1330.93496351
_cell_formula_units_Z   2
loop_
 _symmetry_equiv_pos_site_id
 _symmetry_equiv_pos_as_xyz
  1  'x, y, z'
loop_
 _atom_site_type_symbol
 _atom_site_label
 _atom_site_symmetry_multiplicity
 _atom_site_fract_x
 _atom_site_fract_y
 _atom_site_fract_z
 _atom_site_occupancy
 _atom_site_charge
  Dy  Dy1  1  0.393280  0.950910  0.824150  1.0  2.2627
  Dy  Dy2  1  0.606720  0.049090  0.175850  1.0  2.2585
  H  H3  1  0.085600  0.924100  0.863900  1.0  0.1302
  H  H4  1  0.495500  0.633800  0.159600  1.0  0.1343
  H  H5  1  0.914400  0.075900  0.136100  1.0  0.1301
  H  H6  1  0.504500  0.366200  0.840400  1.0  0.1339
  C  C7  1  0.298100  0.022800  0.065100  1.0  0.7256
  C  C8  1  0.144300  0.012600  0.032600  1.0  -0.1714
  C  C9  1  0.093200  0.057700  0.115800  1.0  0.2851
  C  C10  1  0.051100  0.954900  0.918500  1.0  -0.0586
  C  C11  1  0.471100  0.754500  0.998000  1.0  0.744
  C  C12  1  0.483900  0.621600  0.998000  1.0  -0.119
  C  C13  1  0.486000  0.540700  0.900500  1.0  0.039
  C  C14  1  0.497400  0.580000  0.095300  1.0  0.0232
  C  C15  1  0.200700  0.729400  0.665000  1.0  0.6745
  C  C16  1  0.097600  0.610200  0.580400  1.0  -0.1523
  C  C17  1  0.136300  0.531300  0.504800  1.0  0.1501
  C  C18  1  0.961400  0.579100  0.575400  1.0  0.1334
  C  C19  1  0.701900  0.977200  0.934900  1.0  0.7258
  C  C20  1  0.855700  0.987400  0.967400  1.0  -0.1716
  C  C21  1  0.906800  0.942300  0.884200  1.0  0.2858
  C  C22  1  0.948900  0.045100  0.081500  1.0  -0.0593
  C  C23  1  0.528900  0.245500  0.002000  1.0  0.7446
  C  C24  1  0.516100  0.378400  0.002000  1.0  -0.1172
  C  C25  1  0.514000  0.459300  0.099500  1.0  0.0389
  C  C26  1  0.502600  0.420000  0.904700  1.0  0.0245
  C  C27  1  0.799300  0.270600  0.335000  1.0  0.6755
  C  C28  1  0.902400  0.389800  0.419600  1.0  -0.1519
  C  C29  1  0.863700  0.468700  0.495200  1.0  0.1507
  C  C30  1  0.038600  0.420900  0.424600  1.0  0.135
  N  N31  1  0.175800  0.116300  0.224800  1.0  -0.2852
  N  N32  1  0.279000  0.534000  0.521600  1.0  -0.2454
  N  N33  1  0.905000  0.653000  0.643000  1.0  -0.2494
  N  N34  1  0.824200  0.883700  0.775200  1.0  -0.2835
  N  N35  1  0.721000  0.466000  0.478400  1.0  -0.2387
  N  N36  1  0.095000  0.347000  0.357000  1.0  -0.2502
  O  O37  1  0.341800  0.994400  0.985700  1.0  -0.8019
  O  O38  1  0.380900  0.058400  0.169900  1.0  -0.6018
  O  O39  1  0.432600  0.780300  0.903400  1.0  -0.6667
  O  O40  1  0.500800  0.830700  0.096100  1.0  -0.7011
  O  O41  1  0.167700  0.793000  0.737900  1.0  -0.6174
  O  O42  1  0.318300  0.765000  0.659500  1.0  -0.6369
  O  O43  1  0.658200  0.005600  0.014300  1.0  -0.8034
  O  O44  1  0.619100  0.941600  0.830100  1.0  -0.5998
  O  O45  1  0.567400  0.219700  0.096600  1.0  -0.666
  O  O46  1  0.499200  0.169300  0.903900  1.0  -0.7015
  O  O47  1  0.832300  0.207000  0.262100  1.0  -0.6181
  O  O48  1  0.681700  0.235000  0.340500  1.0  -0.6372
