# generated using pymatgen
data_CuH2(C3O2)2
_symmetry_space_group_name_H-M   'P 1'
_cell_length_a   18.60000000
_cell_length_b   18.60000000
_cell_length_c   18.60000000
_cell_angle_alpha   60.00000000
_cell_angle_beta   60.00000000
_cell_angle_gamma   60.00000000
_symmetry_Int_Tables_number   1
_chemical_formula_structural   CuH2(C3O2)2
_chemical_formula_sum   'Cu12 H24 C72 O48'
_cell_volume   4550.13031356
_cell_formula_units_Z   12
loop_
 _symmetry_equiv_pos_site_id
 _symmetry_equiv_pos_as_xyz
  1  'x, y, z'
loop_
 _atom_site_type_symbol
 _atom_site_label
 _atom_site_symmetry_multiplicity
 _atom_site_fract_x
 _atom_site_fract_y
 _atom_site_fract_z
 _atom_site_occupancy
 _atom_site_charge
  Cu  Cu1  1  0.500000  0.070280  0.929720  1.0  0.9294
  Cu  Cu2  1  0.070280  0.500000  0.500000  1.0  0.9083
  Cu  Cu3  1  0.929720  0.500000  0.500000  1.0  0.9095
  Cu  Cu4  1  0.500000  0.929720  0.070280  1.0  0.9635
  Cu  Cu5  1  0.500000  0.929720  0.500000  1.0  0.9154
  Cu  Cu6  1  0.070280  0.500000  0.929720  1.0  0.9076
  Cu  Cu7  1  0.929720  0.500000  0.070280  1.0  0.9158
  Cu  Cu8  1  0.500000  0.070280  0.500000  1.0  0.9066
  Cu  Cu9  1  0.500000  0.500000  0.070280  1.0  0.9149
  Cu  Cu10  1  0.070280  0.929720  0.500000  1.0  0.9153
  Cu  Cu11  1  0.929720  0.070280  0.500000  1.0  0.9072
  Cu  Cu12  1  0.500000  0.500000  0.929720  1.0  0.9073
  H  H13  1  0.227100  0.010700  0.227100  1.0  0.1221
  H  H14  1  0.010700  0.227100  0.535100  1.0  0.1176
  H  H15  1  0.227100  0.535100  0.227100  1.0  0.119
  H  H16  1  0.535100  0.227100  0.010700  1.0  0.1175
  H  H17  1  0.227100  0.227100  0.535100  1.0  0.1174
  H  H18  1  0.010700  0.535100  0.227100  1.0  0.1191
  H  H19  1  0.227100  0.227100  0.010700  1.0  0.1143
  H  H20  1  0.535100  0.010700  0.227100  1.0  0.1187
  H  H21  1  0.227100  0.535100  0.010700  1.0  0.1174
  H  H22  1  0.010700  0.227100  0.227100  1.0  0.1183
  H  H23  1  0.227100  0.010700  0.535100  1.0  0.1199
  H  H24  1  0.535100  0.227100  0.227100  1.0  0.1185
  H  H25  1  0.989300  0.772900  0.772900  1.0  0.1183
  H  H26  1  0.772900  0.989300  0.464900  1.0  0.1191
  H  H27  1  0.464900  0.772900  0.772900  1.0  0.1183
  H  H28  1  0.772900  0.464900  0.989300  1.0  0.1182
  H  H29  1  0.772900  0.772900  0.464900  1.0  0.1188
  H  H30  1  0.464900  0.989300  0.772900  1.0  0.1188
  H  H31  1  0.772900  0.772900  0.989300  1.0  0.1164
  H  H32  1  0.989300  0.464900  0.772900  1.0  0.1172
  H  H33  1  0.464900  0.772900  0.989300  1.0  0.117
  H  H34  1  0.772900  0.989300  0.772900  1.0  0.1189
  H  H35  1  0.989300  0.772900  0.464900  1.0  0.119
  H  H36  1  0.772900  0.464900  0.772900  1.0  0.117
  C  C37  1  0.336940  0.068100  0.068100  1.0  0.0501
  C  C38  1  0.242200  0.111800  0.111800  1.0  -0.0097
  C  C39  1  0.068100  0.336940  0.526860  1.0  0.6862
  C  C40  1  0.111800  0.242200  0.534200  1.0  -0.1648
  C  C41  1  0.068100  0.526860  0.336940  1.0  0.6857
  C  C42  1  0.111800  0.534200  0.242200  1.0  -0.1655
  C  C43  1  0.526860  0.068100  0.068100  1.0  0.707
  C  C44  1  0.534200  0.111800  0.111800  1.0  -0.1664
  C  C45  1  0.336940  0.068100  0.526860  1.0  0.6854
  C  C46  1  0.242200  0.111800  0.534200  1.0  -0.1648
  C  C47  1  0.068100  0.526860  0.068100  1.0  0.6855
  C  C48  1  0.111800  0.534200  0.111800  1.0  -0.1654
  C  C49  1  0.068100  0.336940  0.068100  1.0  0.6863
  C  C50  1  0.111800  0.242200  0.111800  1.0  -0.1656
  C  C51  1  0.526860  0.068100  0.336940  1.0  0.6868
  C  C52  1  0.534200  0.111800  0.242200  1.0  -0.1656
  C  C53  1  0.336940  0.526860  0.068100  1.0  0.685
  C  C54  1  0.242200  0.534200  0.111800  1.0  -0.1647
  C  C55  1  0.068100  0.068100  0.336940  1.0  0.6863
  C  C56  1  0.111800  0.111800  0.242200  1.0  -0.1631
  C  C57  1  0.068100  0.068100  0.526860  1.0  0.685
  C  C58  1  0.111800  0.111800  0.534200  1.0  -0.1652
  C  C59  1  0.526860  0.336940  0.068100  1.0  0.6865
  C  C60  1  0.534200  0.242200  0.111800  1.0  -0.1651
  C  C61  1  0.931900  0.663060  0.931900  1.0  0.6857
  C  C62  1  0.888200  0.757800  0.888200  1.0  -0.1653
  C  C63  1  0.663060  0.931900  0.473140  1.0  0.6855
  C  C64  1  0.757800  0.888200  0.465800  1.0  -0.1653
  C  C65  1  0.473140  0.931900  0.663060  1.0  0.6865
  C  C66  1  0.465800  0.888200  0.757800  1.0  -0.1655
  C  C67  1  0.931900  0.473140  0.931900  1.0  0.6862
  C  C68  1  0.888200  0.465800  0.888200  1.0  -0.1651
  C  C69  1  0.931900  0.663060  0.473140  1.0  0.6855
  C  C70  1  0.888200  0.757800  0.465800  1.0  -0.1653
  C  C71  1  0.473140  0.931900  0.931900  1.0  0.7065
  C  C72  1  0.465800  0.888200  0.888200  1.0  -0.1667
  C  C73  1  0.663060  0.931900  0.931900  1.0  0.6853
  C  C74  1  0.757800  0.888200  0.888200  1.0  -0.1658
  C  C75  1  0.931900  0.473140  0.663060  1.0  0.6862
  C  C76  1  0.888200  0.465800  0.757800  1.0  -0.1651
  C  C77  1  0.473140  0.663060  0.931900  1.0  0.686
  C  C78  1  0.465800  0.757800  0.888200  1.0  -0.1653
  C  C79  1  0.931900  0.931900  0.663060  1.0  0.6853
  C  C80  1  0.888200  0.888200  0.757800  1.0  -0.165
  C  C81  1  0.931900  0.931900  0.473140  1.0  0.6853
  C  C82  1  0.888200  0.888200  0.465800  1.0  -0.1649
  C  C83  1  0.663060  0.473140  0.931900  1.0  0.6858
  C  C84  1  0.757800  0.465800  0.888200  1.0  -0.1653
  C  C85  1  0.198400  0.068600  0.198400  1.0  -0.015
  C  C86  1  0.068600  0.198400  0.534600  1.0  0.0368
  C  C87  1  0.198400  0.534600  0.198400  1.0  0.0374
  C  C88  1  0.534600  0.198400  0.068600  1.0  0.0365
  C  C89  1  0.198400  0.198400  0.534600  1.0  0.0375
  C  C90  1  0.068600  0.534600  0.198400  1.0  0.034
  C  C91  1  0.198400  0.198400  0.068600  1.0  0.0372
  C  C92  1  0.534600  0.068600  0.198400  1.0  0.0375
  C  C93  1  0.198400  0.534600  0.068600  1.0  0.0369
  C  C94  1  0.068600  0.198400  0.198400  1.0  0.0349
  C  C95  1  0.198400  0.068600  0.534600  1.0  0.0383
  C  C96  1  0.534600  0.198400  0.198400  1.0  0.0374
  C  C97  1  0.931400  0.801600  0.801600  1.0  0.0375
  C  C98  1  0.801600  0.931400  0.465400  1.0  0.0378
  C  C99  1  0.465400  0.801600  0.801600  1.0  0.0368
  C  C100  1  0.801600  0.465400  0.931400  1.0  0.0363
  C  C101  1  0.801600  0.801600  0.465400  1.0  0.0362
  C  C102  1  0.465400  0.931400  0.801600  1.0  0.0374
  C  C103  1  0.801600  0.801600  0.931400  1.0  0.0373
  C  C104  1  0.931400  0.465400  0.801600  1.0  0.037
  C  C105  1  0.465400  0.801600  0.931400  1.0  0.0367
  C  C106  1  0.801600  0.931400  0.801600  1.0  0.0377
  C  C107  1  0.931400  0.801600  0.465400  1.0  0.0376
  C  C108  1  0.801600  0.465400  0.801600  1.0  0.0363
  O  O109  1  0.373970  0.112770  0.991990  1.0  -0.5581
  O  O110  1  0.112770  0.373970  0.521270  1.0  -0.5627
  O  O111  1  0.991990  0.521270  0.373970  1.0  -0.5629
  O  O112  1  0.521270  0.991990  0.112770  1.0  -0.5639
  O  O113  1  0.373970  0.991990  0.521270  1.0  -0.5632
  O  O114  1  0.112770  0.521270  0.991990  1.0  -0.5624
  O  O115  1  0.991990  0.373970  0.112770  1.0  -0.5626
  O  O116  1  0.521270  0.112770  0.373970  1.0  -0.5636
  O  O117  1  0.373970  0.521270  0.112770  1.0  -0.562
  O  O118  1  0.112770  0.991990  0.373970  1.0  -0.5619
  O  O119  1  0.991990  0.112770  0.521270  1.0  -0.5638
  O  O120  1  0.521270  0.373970  0.991990  1.0  -0.5624
  O  O121  1  0.887230  0.626030  0.008010  1.0  -0.561
  O  O122  1  0.626030  0.887230  0.478730  1.0  -0.5623
  O  O123  1  0.478730  0.008010  0.626030  1.0  -0.5625
  O  O124  1  0.008010  0.478730  0.887230  1.0  -0.5629
  O  O125  1  0.008010  0.626030  0.478730  1.0  -0.5633
  O  O126  1  0.478730  0.887230  0.008010  1.0  -0.5676
  O  O127  1  0.626030  0.008010  0.887230  1.0  -0.5632
  O  O128  1  0.887230  0.478730  0.626030  1.0  -0.5623
  O  O129  1  0.478730  0.626030  0.887230  1.0  -0.5623
  O  O130  1  0.008010  0.887230  0.626030  1.0  -0.5634
  O  O131  1  0.887230  0.008010  0.478730  1.0  -0.5634
  O  O132  1  0.626030  0.478730  0.008010  1.0  -0.5632
  O  O133  1  0.626030  0.887230  0.008010  1.0  -0.5455
  O  O134  1  0.887230  0.626030  0.478730  1.0  -0.5632
  O  O135  1  0.008010  0.478730  0.626030  1.0  -0.563
  O  O136  1  0.478730  0.008010  0.887230  1.0  -0.567
  O  O137  1  0.626030  0.008010  0.478730  1.0  -0.5627
  O  O138  1  0.887230  0.478730  0.008010  1.0  -0.5632
  O  O139  1  0.008010  0.626030  0.887230  1.0  -0.5629
  O  O140  1  0.478730  0.887230  0.626030  1.0  -0.5631
  O  O141  1  0.626030  0.478730  0.887230  1.0  -0.5627
  O  O142  1  0.887230  0.008010  0.626030  1.0  -0.5636
  O  O143  1  0.008010  0.887230  0.478730  1.0  -0.5641
  O  O144  1  0.478730  0.626030  0.008010  1.0  -0.5601
  O  O145  1  0.112770  0.373970  0.991990  1.0  -0.5629
  O  O146  1  0.373970  0.112770  0.521270  1.0  -0.5624
  O  O147  1  0.521270  0.991990  0.373970  1.0  -0.5605
  O  O148  1  0.991990  0.521270  0.112770  1.0  -0.5629
  O  O149  1  0.991990  0.373970  0.521270  1.0  -0.5631
  O  O150  1  0.521270  0.112770  0.991990  1.0  -0.5671
  O  O151  1  0.112770  0.521270  0.373970  1.0  -0.5634
  O  O152  1  0.521270  0.373970  0.112770  1.0  -0.5624
  O  O153  1  0.991990  0.112770  0.373970  1.0  -0.5632
  O  O154  1  0.112770  0.991990  0.521270  1.0  -0.5635
  O  O155  1  0.373970  0.521270  0.991990  1.0  -0.562
  O  O156  1  0.500000  0.811800  0.188200  1.0  -0.2855
