# generated using pymatgen
data_CuH2(C3O2)2
_symmetry_space_group_name_H-M   'P 1'
_cell_length_a   18.61030000
_cell_length_b   18.61030000
_cell_length_c   18.61030000
_cell_angle_alpha   60.00000000
_cell_angle_beta   60.00000000
_cell_angle_gamma   60.00000000
_symmetry_Int_Tables_number   1
_chemical_formula_structural   CuH2(C3O2)2
_chemical_formula_sum   'Cu12 H24 C72 O48'
_cell_volume   4557.69358773
_cell_formula_units_Z   12
loop_
 _symmetry_equiv_pos_site_id
 _symmetry_equiv_pos_as_xyz
  1  'x, y, z'
loop_
 _atom_site_type_symbol
 _atom_site_label
 _atom_site_symmetry_multiplicity
 _atom_site_fract_x
 _atom_site_fract_y
 _atom_site_fract_z
 _atom_site_occupancy
 _atom_site_charge
  Cu  Cu1  1  0.500000  0.070400  0.929600  1.0  0.9026
  Cu  Cu2  1  0.070400  0.500000  0.500000  1.0  0.9015
  Cu  Cu3  1  0.929600  0.500000  0.500000  1.0  0.9028
  Cu  Cu4  1  0.500000  0.929600  0.070400  1.0  0.9023
  Cu  Cu5  1  0.500000  0.929600  0.500000  1.0  0.902
  Cu  Cu6  1  0.070400  0.500000  0.929600  1.0  0.9019
  Cu  Cu7  1  0.929600  0.500000  0.070400  1.0  0.9026
  Cu  Cu8  1  0.500000  0.070400  0.500000  1.0  0.9018
  Cu  Cu9  1  0.500000  0.500000  0.070400  1.0  0.9003
  Cu  Cu10  1  0.070400  0.929600  0.500000  1.0  0.9015
  Cu  Cu11  1  0.929600  0.070400  0.500000  1.0  0.9024
  Cu  Cu12  1  0.500000  0.500000  0.929600  1.0  0.9009
  H  H13  1  0.465800  0.989400  0.772400  1.0  0.1173
  H  H14  1  0.989400  0.465800  0.772400  1.0  0.1159
  H  H15  1  0.772400  0.772400  0.465800  1.0  0.1154
  H  H16  1  0.772400  0.772400  0.989400  1.0  0.116
  H  H17  1  0.465800  0.772400  0.772400  1.0  0.1159
  H  H18  1  0.989400  0.772400  0.772400  1.0  0.1159
  H  H19  1  0.772400  0.465800  0.989400  1.0  0.1161
  H  H20  1  0.772400  0.989400  0.465800  1.0  0.1172
  H  H21  1  0.465800  0.772400  0.989400  1.0  0.1163
  H  H22  1  0.989400  0.772400  0.465800  1.0  0.116
  H  H23  1  0.772400  0.989400  0.772400  1.0  0.1174
  H  H24  1  0.772400  0.465800  0.772400  1.0  0.1159
  H  H25  1  0.010600  0.534200  0.227600  1.0  0.1155
  H  H26  1  0.534200  0.010600  0.227600  1.0  0.1173
  H  H27  1  0.227600  0.227600  0.534200  1.0  0.1158
  H  H28  1  0.227600  0.227600  0.010600  1.0  0.1158
  H  H29  1  0.227600  0.534200  0.227600  1.0  0.116
  H  H30  1  0.227600  0.010600  0.227600  1.0  0.1175
  H  H31  1  0.534200  0.227600  0.010600  1.0  0.1162
  H  H32  1  0.010600  0.227600  0.534200  1.0  0.1163
  H  H33  1  0.227600  0.534200  0.010600  1.0  0.116
  H  H34  1  0.227600  0.010600  0.534200  1.0  0.1175
  H  H35  1  0.010600  0.227600  0.227600  1.0  0.1159
  H  H36  1  0.534200  0.227600  0.227600  1.0  0.1163
  C  C37  1  0.465500  0.931900  0.801300  1.0  0.0418
  C  C38  1  0.931900  0.465500  0.801300  1.0  0.04
  C  C39  1  0.801300  0.801300  0.465500  1.0  0.0402
  C  C40  1  0.801300  0.801300  0.931900  1.0  0.0413
  C  C41  1  0.465500  0.801300  0.801300  1.0  0.0398
  C  C42  1  0.931900  0.801300  0.801300  1.0  0.0409
  C  C43  1  0.801300  0.465500  0.931900  1.0  0.04
  C  C44  1  0.801300  0.931900  0.465500  1.0  0.0409
  C  C45  1  0.465500  0.801300  0.931900  1.0  0.0402
  C  C46  1  0.931900  0.801300  0.465500  1.0  0.0411
  C  C47  1  0.801300  0.931900  0.801300  1.0  0.0406
  C  C48  1  0.801300  0.465500  0.801300  1.0  0.0395
  C  C49  1  0.068100  0.534500  0.198700  1.0  0.0365
  C  C50  1  0.534500  0.068100  0.198700  1.0  0.0411
  C  C51  1  0.198700  0.198700  0.534500  1.0  0.0419
  C  C52  1  0.198700  0.198700  0.068100  1.0  0.0411
  C  C53  1  0.198700  0.534500  0.198700  1.0  0.0411
  C  C54  1  0.198700  0.068100  0.198700  1.0  0.0419
  C  C55  1  0.534500  0.198700  0.068100  1.0  0.0401
  C  C56  1  0.068100  0.198700  0.534500  1.0  0.0403
  C  C57  1  0.198700  0.534500  0.068100  1.0  0.0401
  C  C58  1  0.198700  0.068100  0.534500  1.0  0.0419
  C  C59  1  0.068100  0.198700  0.198700  1.0  0.0403
  C  C60  1  0.534500  0.198700  0.198700  1.0  0.0414
  C  C61  1  0.473400  0.931400  0.931400  1.0  0.7022
  C  C62  1  0.465300  0.888500  0.888500  1.0  -0.1718
  C  C63  1  0.931400  0.473400  0.663800  1.0  0.7008
  C  C64  1  0.888500  0.465300  0.757700  1.0  -0.1716
  C  C65  1  0.931400  0.663800  0.473400  1.0  0.7003
  C  C66  1  0.888500  0.757700  0.465300  1.0  -0.1719
  C  C67  1  0.663800  0.931400  0.931400  1.0  0.7005
  C  C68  1  0.757700  0.888500  0.888500  1.0  -0.1716
  C  C69  1  0.473400  0.931400  0.663800  1.0  0.7016
  C  C70  1  0.465300  0.888500  0.757700  1.0  -0.1719
  C  C71  1  0.931400  0.663800  0.931400  1.0  0.7003
  C  C72  1  0.888500  0.757700  0.888500  1.0  -0.1718
  C  C73  1  0.931400  0.473400  0.931400  1.0  0.7013
  C  C74  1  0.888500  0.465300  0.888500  1.0  -0.1715
  C  C75  1  0.663800  0.931400  0.473400  1.0  0.7006
  C  C76  1  0.757700  0.888500  0.465300  1.0  -0.1716
  C  C77  1  0.473400  0.663800  0.931400  1.0  0.701
  C  C78  1  0.465300  0.757700  0.888500  1.0  -0.1716
  C  C79  1  0.931400  0.931400  0.473400  1.0  0.7001
  C  C80  1  0.888500  0.888500  0.465300  1.0  -0.1716
  C  C81  1  0.931400  0.931400  0.663800  1.0  0.6998
  C  C82  1  0.888500  0.888500  0.757700  1.0  -0.1716
  C  C83  1  0.663800  0.473400  0.931400  1.0  0.7005
  C  C84  1  0.757700  0.465300  0.888500  1.0  -0.1713
  C  C85  1  0.068600  0.526600  0.068600  1.0  0.701
  C  C86  1  0.111500  0.534700  0.111500  1.0  -0.1718
  C  C87  1  0.526600  0.068600  0.336200  1.0  0.7022
  C  C88  1  0.534700  0.111500  0.242300  1.0  -0.1721
  C  C89  1  0.336200  0.068600  0.526600  1.0  0.7
  C  C90  1  0.242300  0.111500  0.534700  1.0  -0.1714
  C  C91  1  0.068600  0.336200  0.068600  1.0  0.7012
  C  C92  1  0.111500  0.242300  0.111500  1.0  -0.1713
  C  C93  1  0.068600  0.526600  0.336200  1.0  0.7016
  C  C94  1  0.111500  0.534700  0.242300  1.0  -0.172
  C  C95  1  0.336200  0.068600  0.068600  1.0  0.7
  C  C96  1  0.242300  0.111500  0.111500  1.0  -0.1715
  C  C97  1  0.526600  0.068600  0.068600  1.0  0.7016
  C  C98  1  0.534700  0.111500  0.111500  1.0  -0.1719
  C  C99  1  0.068600  0.336200  0.526600  1.0  0.7012
  C  C100  1  0.111500  0.242300  0.534700  1.0  -0.1712
  C  C101  1  0.336200  0.526600  0.068600  1.0  0.6999
  C  C102  1  0.242300  0.534700  0.111500  1.0  -0.1711
  C  C103  1  0.068600  0.068600  0.526600  1.0  0.7
  C  C104  1  0.111500  0.111500  0.534700  1.0  -0.1717
  C  C105  1  0.068600  0.068600  0.336200  1.0  0.7005
  C  C106  1  0.111500  0.111500  0.242300  1.0  -0.1716
  C  C107  1  0.526600  0.336200  0.068600  1.0  0.7015
  C  C108  1  0.534700  0.242300  0.111500  1.0  -0.1711
  O  O109  1  0.479400  0.007600  0.887000  1.0  -0.5682
  O  O110  1  0.007600  0.479400  0.626000  1.0  -0.5686
  O  O111  1  0.887000  0.626000  0.479400  1.0  -0.5684
  O  O112  1  0.626000  0.887000  0.007600  1.0  -0.5679
  O  O113  1  0.479400  0.887000  0.626000  1.0  -0.569
  O  O114  1  0.007600  0.626000  0.887000  1.0  -0.5686
  O  O115  1  0.887000  0.479400  0.007600  1.0  -0.5679
  O  O116  1  0.626000  0.007600  0.479400  1.0  -0.5687
  O  O117  1  0.479400  0.626000  0.007600  1.0  -0.568
  O  O118  1  0.007600  0.887000  0.479400  1.0  -0.5692
  O  O119  1  0.887000  0.007600  0.626000  1.0  -0.5691
  O  O120  1  0.626000  0.479400  0.887000  1.0  -0.5691
  O  O121  1  0.992400  0.520600  0.113000  1.0  -0.569
  O  O122  1  0.520600  0.992400  0.374000  1.0  -0.5682
  O  O123  1  0.374000  0.113000  0.520600  1.0  -0.5678
  O  O124  1  0.113000  0.374000  0.992400  1.0  -0.5686
  O  O125  1  0.113000  0.520600  0.374000  1.0  -0.5683
  O  O126  1  0.374000  0.992400  0.113000  1.0  -0.5689
  O  O127  1  0.520600  0.113000  0.992400  1.0  -0.5687
  O  O128  1  0.992400  0.374000  0.520600  1.0  -0.5687
  O  O129  1  0.374000  0.520600  0.992400  1.0  -0.5681
  O  O130  1  0.113000  0.992400  0.520600  1.0  -0.569
  O  O131  1  0.992400  0.113000  0.374000  1.0  -0.5689
  O  O132  1  0.520600  0.374000  0.113000  1.0  -0.5682
  O  O133  1  0.520600  0.992400  0.113000  1.0  -0.568
  O  O134  1  0.992400  0.520600  0.374000  1.0  -0.5687
  O  O135  1  0.113000  0.374000  0.520600  1.0  -0.5683
  O  O136  1  0.374000  0.113000  0.992400  1.0  -0.568
  O  O137  1  0.520600  0.113000  0.374000  1.0  -0.5688
  O  O138  1  0.992400  0.374000  0.113000  1.0  -0.5682
  O  O139  1  0.113000  0.520600  0.992400  1.0  -0.5682
  O  O140  1  0.374000  0.992400  0.520600  1.0  -0.5692
  O  O141  1  0.520600  0.374000  0.992400  1.0  -0.5687
  O  O142  1  0.992400  0.113000  0.520600  1.0  -0.569
  O  O143  1  0.113000  0.992400  0.374000  1.0  -0.5692
  O  O144  1  0.374000  0.520600  0.113000  1.0  -0.5678
  O  O145  1  0.007600  0.479400  0.887000  1.0  -0.5687
  O  O146  1  0.479400  0.007600  0.626000  1.0  -0.5681
  O  O147  1  0.626000  0.887000  0.479400  1.0  -0.568
  O  O148  1  0.887000  0.626000  0.007600  1.0  -0.5684
  O  O149  1  0.887000  0.479400  0.626000  1.0  -0.5682
  O  O150  1  0.626000  0.007600  0.887000  1.0  -0.5688
  O  O151  1  0.479400  0.887000  0.007600  1.0  -0.5687
  O  O152  1  0.007600  0.626000  0.479400  1.0  -0.5683
  O  O153  1  0.626000  0.479400  0.007600  1.0  -0.5687
  O  O154  1  0.887000  0.007600  0.479400  1.0  -0.5688
  O  O155  1  0.007600  0.887000  0.626000  1.0  -0.569
  O  O156  1  0.479400  0.626000  0.887000  1.0  -0.5683
