# generated using pymatgen
data_CuH2(C3O2)2
_symmetry_space_group_name_H-M   'P 1'
_cell_length_a   18.62150000
_cell_length_b   18.62150000
_cell_length_c   18.62150000
_cell_angle_alpha   60.00000000
_cell_angle_beta   60.00000000
_cell_angle_gamma   60.00000000
_symmetry_Int_Tables_number   1
_chemical_formula_structural   CuH2(C3O2)2
_chemical_formula_sum   'Cu12 H24 C72 O48'
_cell_volume   4565.92723708
_cell_formula_units_Z   12
loop_
 _symmetry_equiv_pos_site_id
 _symmetry_equiv_pos_as_xyz
  1  'x, y, z'
loop_
 _atom_site_type_symbol
 _atom_site_label
 _atom_site_symmetry_multiplicity
 _atom_site_fract_x
 _atom_site_fract_y
 _atom_site_fract_z
 _atom_site_occupancy
 _atom_site_charge
  Cu  Cu1  1  0.500000  0.929850  0.500000  1.0  0.8802
  Cu  Cu2  1  0.929850  0.500000  0.070150  1.0  0.8815
  Cu  Cu3  1  0.500000  0.070150  0.500000  1.0  0.8802
  Cu  Cu4  1  0.070150  0.500000  0.929850  1.0  0.8814
  Cu  Cu5  1  0.500000  0.500000  0.070150  1.0  0.879
  Cu  Cu6  1  0.929850  0.070150  0.500000  1.0  0.8806
  Cu  Cu7  1  0.500000  0.500000  0.929850  1.0  0.8794
  Cu  Cu8  1  0.070150  0.929850  0.500000  1.0  0.88
  Cu  Cu9  1  0.500000  0.070150  0.929850  1.0  0.8807
  Cu  Cu10  1  0.929850  0.500000  0.500000  1.0  0.8814
  Cu  Cu11  1  0.500000  0.929850  0.070150  1.0  0.8807
  Cu  Cu12  1  0.070150  0.500000  0.500000  1.0  0.8812
  H  H13  1  0.466700  0.772300  0.772300  1.0  0.1168
  H  H14  1  0.772300  0.466700  0.988700  1.0  0.117
  H  H15  1  0.772300  0.988700  0.466700  1.0  0.1182
  H  H16  1  0.988700  0.772300  0.772300  1.0  0.1172
  H  H17  1  0.466700  0.772300  0.988700  1.0  0.1171
  H  H18  1  0.772300  0.988700  0.772300  1.0  0.1182
  H  H19  1  0.772300  0.466700  0.772300  1.0  0.1168
  H  H20  1  0.988700  0.772300  0.466700  1.0  0.1172
  H  H21  1  0.466700  0.988700  0.772300  1.0  0.1179
  H  H22  1  0.772300  0.772300  0.466700  1.0  0.1167
  H  H23  1  0.772300  0.772300  0.988700  1.0  0.1171
  H  H24  1  0.988700  0.466700  0.772300  1.0  0.1174
  H  H25  1  0.227700  0.533300  0.227700  1.0  0.117
  H  H26  1  0.533300  0.227700  0.011300  1.0  0.117
  H  H27  1  0.011300  0.227700  0.533300  1.0  0.1173
  H  H28  1  0.227700  0.011300  0.227700  1.0  0.1183
  H  H29  1  0.227700  0.533300  0.011300  1.0  0.117
  H  H30  1  0.011300  0.227700  0.227700  1.0  0.1171
  H  H31  1  0.533300  0.227700  0.227700  1.0  0.1171
  H  H32  1  0.227700  0.011300  0.533300  1.0  0.1184
  H  H33  1  0.011300  0.533300  0.227700  1.0  0.1172
  H  H34  1  0.227700  0.227700  0.533300  1.0  0.1168
  H  H35  1  0.227700  0.227700  0.011300  1.0  0.1168
  H  H36  1  0.533300  0.011300  0.227700  1.0  0.1184
  C  C37  1  0.474860  0.930900  0.663340  1.0  0.6973
  C  C38  1  0.467480  0.887300  0.757920  1.0  -0.161
  C  C39  1  0.930900  0.474860  0.930900  1.0  0.6973
  C  C40  1  0.887300  0.467480  0.887300  1.0  -0.1604
  C  C41  1  0.663340  0.930900  0.474860  1.0  0.6961
  C  C42  1  0.757920  0.887300  0.467480  1.0  -0.1608
  C  C43  1  0.930900  0.663340  0.930900  1.0  0.6963
  C  C44  1  0.887300  0.757920  0.887300  1.0  -0.1609
  C  C45  1  0.474860  0.663340  0.930900  1.0  0.6968
  C  C46  1  0.467480  0.757920  0.887300  1.0  -0.1606
  C  C47  1  0.930900  0.930900  0.663340  1.0  0.696
  C  C48  1  0.887300  0.887300  0.757920  1.0  -0.1606
  C  C49  1  0.663340  0.474860  0.930900  1.0  0.6964
  C  C50  1  0.757920  0.467480  0.887300  1.0  -0.1603
  C  C51  1  0.930900  0.930900  0.474860  1.0  0.6965
  C  C52  1  0.887300  0.887300  0.467480  1.0  -0.1606
  C  C53  1  0.474860  0.930900  0.930900  1.0  0.698
  C  C54  1  0.467480  0.887300  0.887300  1.0  -0.1611
  C  C55  1  0.930900  0.663340  0.474860  1.0  0.6961
  C  C56  1  0.887300  0.757920  0.467480  1.0  -0.1608
  C  C57  1  0.663340  0.930900  0.930900  1.0  0.6962
  C  C58  1  0.757920  0.887300  0.887300  1.0  -0.1611
  C  C59  1  0.930900  0.474860  0.663340  1.0  0.6967
  C  C60  1  0.887300  0.467480  0.757920  1.0  -0.1605
  C  C61  1  0.069100  0.525140  0.336660  1.0  0.6971
  C  C62  1  0.112700  0.532520  0.242080  1.0  -0.1608
  C  C63  1  0.525140  0.069100  0.069100  1.0  0.6972
  C  C64  1  0.532520  0.112700  0.112700  1.0  -0.1612
  C  C65  1  0.069100  0.336660  0.525140  1.0  0.6971
  C  C66  1  0.112700  0.242080  0.532520  1.0  -0.1605
  C  C67  1  0.336660  0.069100  0.069100  1.0  0.6957
  C  C68  1  0.242080  0.112700  0.112700  1.0  -0.1606
  C  C69  1  0.336660  0.525140  0.069100  1.0  0.6959
  C  C70  1  0.242080  0.532520  0.112700  1.0  -0.1599
  C  C71  1  0.069100  0.069100  0.336660  1.0  0.6959
  C  C72  1  0.112700  0.112700  0.242080  1.0  -0.1607
  C  C73  1  0.525140  0.336660  0.069100  1.0  0.6976
  C  C74  1  0.532520  0.242080  0.112700  1.0  -0.1608
  C  C75  1  0.069100  0.069100  0.525140  1.0  0.6953
  C  C76  1  0.112700  0.112700  0.532520  1.0  -0.1608
  C  C77  1  0.069100  0.525140  0.069100  1.0  0.6964
  C  C78  1  0.112700  0.532520  0.112700  1.0  -0.1606
  C  C79  1  0.336660  0.069100  0.525140  1.0  0.6959
  C  C80  1  0.242080  0.112700  0.532520  1.0  -0.1608
  C  C81  1  0.069100  0.336660  0.069100  1.0  0.6968
  C  C82  1  0.112700  0.242080  0.112700  1.0  -0.1603
  C  C83  1  0.525140  0.069100  0.336660  1.0  0.6979
  C  C84  1  0.532520  0.112700  0.242080  1.0  -0.1612
  C  C85  1  0.467140  0.801000  0.801000  1.0  0.032
  C  C86  1  0.801000  0.467140  0.930860  1.0  0.0325
  C  C87  1  0.801000  0.930860  0.467140  1.0  0.0343
  C  C88  1  0.930860  0.801000  0.801000  1.0  0.0336
  C  C89  1  0.467140  0.801000  0.930860  1.0  0.0324
  C  C90  1  0.801000  0.930860  0.801000  1.0  0.0344
  C  C91  1  0.801000  0.467140  0.801000  1.0  0.032
  C  C92  1  0.930860  0.801000  0.467140  1.0  0.0338
  C  C93  1  0.467140  0.930860  0.801000  1.0  0.0346
  C  C94  1  0.801000  0.801000  0.467140  1.0  0.0327
  C  C95  1  0.801000  0.801000  0.930860  1.0  0.0338
  C  C96  1  0.930860  0.467140  0.801000  1.0  0.0327
  C  C97  1  0.199000  0.532860  0.199000  1.0  0.0334
  C  C98  1  0.532860  0.199000  0.069140  1.0  0.0324
  C  C99  1  0.069140  0.199000  0.532860  1.0  0.0332
  C  C100  1  0.199000  0.069140  0.199000  1.0  0.0347
  C  C101  1  0.199000  0.532860  0.069140  1.0  0.0321
  C  C102  1  0.069140  0.199000  0.199000  1.0  0.0332
  C  C103  1  0.532860  0.199000  0.199000  1.0  0.0336
  C  C104  1  0.199000  0.069140  0.532860  1.0  0.0347
  C  C105  1  0.069140  0.532860  0.199000  1.0  0.0314
  C  C106  1  0.199000  0.199000  0.532860  1.0  0.0337
  C  C107  1  0.199000  0.199000  0.069140  1.0  0.0331
  C  C108  1  0.532860  0.069140  0.199000  1.0  0.0341
  O  O109  1  0.479130  0.887210  0.626410  1.0  -0.5638
  O  O110  1  0.887210  0.479130  0.007250  1.0  -0.5626
  O  O111  1  0.626410  0.007250  0.479130  1.0  -0.5634
  O  O112  1  0.007250  0.626410  0.887210  1.0  -0.5633
  O  O113  1  0.479130  0.626410  0.007250  1.0  -0.563
  O  O114  1  0.887210  0.007250  0.626410  1.0  -0.5636
  O  O115  1  0.626410  0.479130  0.887210  1.0  -0.5635
  O  O116  1  0.007250  0.887210  0.479130  1.0  -0.564
  O  O117  1  0.479130  0.007250  0.887210  1.0  -0.5633
  O  O118  1  0.887210  0.626410  0.479130  1.0  -0.5634
  O  O119  1  0.626410  0.887210  0.007250  1.0  -0.5638
  O  O120  1  0.007250  0.479130  0.626410  1.0  -0.5638
  O  O121  1  0.112790  0.520870  0.373590  1.0  -0.5632
  O  O122  1  0.520870  0.112790  0.992750  1.0  -0.5627
  O  O123  1  0.992750  0.373590  0.520870  1.0  -0.5632
  O  O124  1  0.373590  0.992750  0.112790  1.0  -0.5636
  O  O125  1  0.373590  0.520870  0.992750  1.0  -0.5626
  O  O126  1  0.992750  0.112790  0.373590  1.0  -0.5637
  O  O127  1  0.520870  0.373590  0.112790  1.0  -0.5629
  O  O128  1  0.112790  0.992750  0.520870  1.0  -0.5643
  O  O129  1  0.992750  0.520870  0.112790  1.0  -0.5637
  O  O130  1  0.373590  0.112790  0.520870  1.0  -0.5635
  O  O131  1  0.112790  0.373590  0.992750  1.0  -0.5635
  O  O132  1  0.520870  0.992750  0.373590  1.0  -0.5633
  O  O133  1  0.520870  0.112790  0.373590  1.0  -0.5634
  O  O134  1  0.112790  0.520870  0.992750  1.0  -0.5628
  O  O135  1  0.373590  0.992750  0.520870  1.0  -0.5638
  O  O136  1  0.992750  0.373590  0.112790  1.0  -0.5628
  O  O137  1  0.520870  0.373590  0.992750  1.0  -0.563
  O  O138  1  0.112790  0.992750  0.373590  1.0  -0.5641
  O  O139  1  0.373590  0.520870  0.112790  1.0  -0.5629
  O  O140  1  0.992750  0.112790  0.520870  1.0  -0.5641
  O  O141  1  0.520870  0.992750  0.112790  1.0  -0.5631
  O  O142  1  0.112790  0.373590  0.520870  1.0  -0.5636
  O  O143  1  0.373590  0.112790  0.992750  1.0  -0.5633
  O  O144  1  0.992750  0.520870  0.373590  1.0  -0.5634
  O  O145  1  0.887210  0.479130  0.626410  1.0  -0.5628
  O  O146  1  0.479130  0.887210  0.007250  1.0  -0.5635
  O  O147  1  0.007250  0.626410  0.479130  1.0  -0.5632
  O  O148  1  0.626410  0.007250  0.887210  1.0  -0.5632
  O  O149  1  0.626410  0.479130  0.007250  1.0  -0.5636
  O  O150  1  0.007250  0.887210  0.626410  1.0  -0.564
  O  O151  1  0.479130  0.626410  0.887210  1.0  -0.5626
  O  O152  1  0.887210  0.007250  0.479130  1.0  -0.5638
  O  O153  1  0.007250  0.479130  0.887210  1.0  -0.5637
  O  O154  1  0.626410  0.887210  0.479130  1.0  -0.5633
  O  O155  1  0.887210  0.626410  0.007250  1.0  -0.5637
  O  O156  1  0.479130  0.007250  0.626410  1.0  -0.5634
