# generated using pymatgen
data_CuH2(C3O2)2
_symmetry_space_group_name_H-M   'P 1'
_cell_length_a   18.61380000
_cell_length_b   18.61380000
_cell_length_c   18.61380000
_cell_angle_alpha   60.00000000
_cell_angle_beta   60.00000000
_cell_angle_gamma   60.00000000
_symmetry_Int_Tables_number   1
_chemical_formula_structural   CuH2(C3O2)2
_chemical_formula_sum   'Cu12 H24 C72 O48'
_cell_volume   4560.26553893
_cell_formula_units_Z   12
loop_
 _symmetry_equiv_pos_site_id
 _symmetry_equiv_pos_as_xyz
  1  'x, y, z'
loop_
 _atom_site_type_symbol
 _atom_site_label
 _atom_site_symmetry_multiplicity
 _atom_site_fract_x
 _atom_site_fract_y
 _atom_site_fract_z
 _atom_site_occupancy
 _atom_site_charge
  Cu  Cu1  1  0.429840  0.000000  0.570160  1.0  0.9044
  Cu  Cu2  1  0.000000  0.429840  0.000000  1.0  0.9039
  Cu  Cu3  1  0.570160  0.000000  0.429840  1.0  0.9039
  Cu  Cu4  1  0.000000  0.570160  0.000000  1.0  0.9037
  Cu  Cu5  1  0.429840  0.570160  0.000000  1.0  0.904
  Cu  Cu6  1  0.000000  0.000000  0.570160  1.0  0.9021
  Cu  Cu7  1  0.570160  0.429840  0.000000  1.0  0.9035
  Cu  Cu8  1  0.000000  0.000000  0.429840  1.0  0.9028
  Cu  Cu9  1  0.429840  0.000000  0.000000  1.0  0.9045
  Cu  Cu10  1  0.000000  0.570160  0.429840  1.0  0.9043
  Cu  Cu11  1  0.570160  0.000000  0.000000  1.0  0.9036
  Cu  Cu12  1  0.000000  0.429840  0.570160  1.0  0.9042
  H  H13  1  0.728100  0.031700  0.512100  1.0  0.1155
  H  H14  1  0.031700  0.728100  0.728100  1.0  0.1154
  H  H15  1  0.512100  0.728100  0.728100  1.0  0.1151
  H  H16  1  0.728100  0.512100  0.031700  1.0  0.1165
  H  H17  1  0.728100  0.512100  0.728100  1.0  0.1163
  H  H18  1  0.031700  0.728100  0.512100  1.0  0.1155
  H  H19  1  0.512100  0.728100  0.031700  1.0  0.1153
  H  H20  1  0.728100  0.031700  0.728100  1.0  0.1153
  H  H21  1  0.728100  0.728100  0.031700  1.0  0.1152
  H  H22  1  0.031700  0.512100  0.728100  1.0  0.1164
  H  H23  1  0.512100  0.031700  0.728100  1.0  0.1151
  H  H24  1  0.728100  0.728100  0.512100  1.0  0.1152
  H  H25  1  0.968300  0.271900  0.487900  1.0  0.1153
  H  H26  1  0.271900  0.968300  0.271900  1.0  0.1152
  H  H27  1  0.271900  0.487900  0.271900  1.0  0.1163
  H  H28  1  0.487900  0.271900  0.968300  1.0  0.1153
  H  H29  1  0.487900  0.271900  0.271900  1.0  0.1152
  H  H30  1  0.271900  0.968300  0.487900  1.0  0.1151
  H  H31  1  0.271900  0.487900  0.968300  1.0  0.1163
  H  H32  1  0.968300  0.271900  0.271900  1.0  0.1153
  H  H33  1  0.271900  0.271900  0.968300  1.0  0.1149
  H  H34  1  0.487900  0.968300  0.271900  1.0  0.1152
  H  H35  1  0.968300  0.487900  0.271900  1.0  0.1161
  H  H36  1  0.271900  0.271900  0.487900  1.0  0.1152
  C  C37  1  0.569100  0.025280  0.569100  1.0  0.6943
  C  C38  1  0.612700  0.032280  0.612700  1.0  -0.1679
  C  C39  1  0.025280  0.569100  0.836520  1.0  0.6952
  C  C40  1  0.032280  0.612700  0.742320  1.0  -0.1687
  C  C41  1  0.569100  0.836520  0.569100  1.0  0.6946
  C  C42  1  0.612700  0.742320  0.612700  1.0  -0.1677
  C  C43  1  0.836520  0.569100  0.025280  1.0  0.6932
  C  C44  1  0.742320  0.612700  0.032280  1.0  -0.1682
  C  C45  1  0.569100  0.569100  0.836520  1.0  0.6937
  C  C46  1  0.612700  0.612700  0.742320  1.0  -0.1684
  C  C47  1  0.025280  0.836520  0.569100  1.0  0.695
  C  C48  1  0.032280  0.742320  0.612700  1.0  -0.1681
  C  C49  1  0.569100  0.569100  0.025280  1.0  0.6932
  C  C50  1  0.612700  0.612700  0.032280  1.0  -0.1684
  C  C51  1  0.836520  0.025280  0.569100  1.0  0.6931
  C  C52  1  0.742320  0.032280  0.612700  1.0  -0.1678
  C  C53  1  0.569100  0.836520  0.025280  1.0  0.6948
  C  C54  1  0.612700  0.742320  0.032280  1.0  -0.1681
  C  C55  1  0.025280  0.569100  0.569100  1.0  0.6946
  C  C56  1  0.032280  0.612700  0.612700  1.0  -0.1683
  C  C57  1  0.569100  0.025280  0.836520  1.0  0.6949
  C  C58  1  0.612700  0.032280  0.742320  1.0  -0.1685
  C  C59  1  0.836520  0.569100  0.569100  1.0  0.6932
  C  C60  1  0.742320  0.612700  0.612700  1.0  -0.1679
  C  C61  1  0.974720  0.430900  0.430900  1.0  0.6954
  C  C62  1  0.967720  0.387300  0.387300  1.0  -0.1689
  C  C63  1  0.430900  0.974720  0.163480  1.0  0.6943
  C  C64  1  0.387300  0.967720  0.257680  1.0  -0.1675
  C  C65  1  0.163480  0.430900  0.430900  1.0  0.6938
  C  C66  1  0.257680  0.387300  0.387300  1.0  -0.1688
  C  C67  1  0.430900  0.163480  0.974720  1.0  0.6939
  C  C68  1  0.387300  0.257680  0.967720  1.0  -0.1683
  C  C69  1  0.430900  0.430900  0.163480  1.0  0.6935
  C  C70  1  0.387300  0.387300  0.257680  1.0  -0.168
  C  C71  1  0.163480  0.974720  0.430900  1.0  0.6938
  C  C72  1  0.257680  0.967720  0.387300  1.0  -0.168
  C  C73  1  0.430900  0.430900  0.974720  1.0  0.6939
  C  C74  1  0.387300  0.387300  0.967720  1.0  -0.1681
  C  C75  1  0.974720  0.163480  0.430900  1.0  0.6948
  C  C76  1  0.967720  0.257680  0.387300  1.0  -0.1684
  C  C77  1  0.163480  0.430900  0.974720  1.0  0.6938
  C  C78  1  0.257680  0.387300  0.967720  1.0  -0.1685
  C  C79  1  0.430900  0.974720  0.430900  1.0  0.6947
  C  C80  1  0.387300  0.967720  0.387300  1.0  -0.1678
  C  C81  1  0.974720  0.430900  0.163480  1.0  0.6948
  C  C82  1  0.967720  0.387300  0.257680  1.0  -0.1683
  C  C83  1  0.430900  0.163480  0.430900  1.0  0.694
  C  C84  1  0.387300  0.257680  0.387300  1.0  -0.1685
  C  C85  1  0.699200  0.032060  0.569540  1.0  0.0358
  C  C86  1  0.032060  0.699200  0.699200  1.0  0.0368
  C  C87  1  0.569540  0.699200  0.699200  1.0  0.0353
  C  C88  1  0.699200  0.569540  0.032060  1.0  0.0377
  C  C89  1  0.699200  0.569540  0.699200  1.0  0.0375
  C  C90  1  0.032060  0.699200  0.569540  1.0  0.0359
  C  C91  1  0.569540  0.699200  0.032060  1.0  0.0355
  C  C92  1  0.699200  0.032060  0.699200  1.0  0.037
  C  C93  1  0.699200  0.699200  0.032060  1.0  0.037
  C  C94  1  0.032060  0.569540  0.699200  1.0  0.0369
  C  C95  1  0.569540  0.032060  0.699200  1.0  0.034
  C  C96  1  0.699200  0.699200  0.569540  1.0  0.0364
  C  C97  1  0.967940  0.300800  0.430460  1.0  0.0363
  C  C98  1  0.300800  0.967940  0.300800  1.0  0.0353
  C  C99  1  0.300800  0.430460  0.300800  1.0  0.0374
  C  C100  1  0.430460  0.300800  0.967940  1.0  0.0368
  C  C101  1  0.430460  0.300800  0.300800  1.0  0.0367
  C  C102  1  0.300800  0.967940  0.430460  1.0  0.0358
  C  C103  1  0.300800  0.430460  0.967940  1.0  0.0371
  C  C104  1  0.967940  0.300800  0.300800  1.0  0.0359
  C  C105  1  0.300800  0.300800  0.967940  1.0  0.0356
  C  C106  1  0.430460  0.967940  0.300800  1.0  0.0357
  C  C107  1  0.967940  0.430460  0.300800  1.0  0.0382
  C  C108  1  0.300800  0.300800  0.430460  1.0  0.0368
  O  O109  1  0.492460  0.021180  0.612440  1.0  -0.5654
  O  O110  1  0.021180  0.492460  0.873920  1.0  -0.5647
  O  O111  1  0.612440  0.873920  0.492460  1.0  -0.5648
  O  O112  1  0.873920  0.612440  0.021180  1.0  -0.5649
  O  O113  1  0.492460  0.612440  0.873920  1.0  -0.5651
  O  O114  1  0.021180  0.873920  0.612440  1.0  -0.5647
  O  O115  1  0.612440  0.492460  0.021180  1.0  -0.5655
  O  O116  1  0.873920  0.021180  0.492460  1.0  -0.5639
  O  O117  1  0.492460  0.873920  0.021180  1.0  -0.5647
  O  O118  1  0.021180  0.612440  0.492460  1.0  -0.5643
  O  O119  1  0.612440  0.021180  0.873920  1.0  -0.5646
  O  O120  1  0.873920  0.492460  0.612440  1.0  -0.5653
  O  O121  1  0.978820  0.507540  0.387560  1.0  -0.5644
  O  O122  1  0.507540  0.978820  0.126080  1.0  -0.5654
  O  O123  1  0.126080  0.387560  0.507540  1.0  -0.5649
  O  O124  1  0.387560  0.126080  0.978820  1.0  -0.5648
  O  O125  1  0.387560  0.507540  0.126080  1.0  -0.5651
  O  O126  1  0.126080  0.978820  0.387560  1.0  -0.5651
  O  O127  1  0.507540  0.387560  0.978820  1.0  -0.5655
  O  O128  1  0.978820  0.126080  0.507540  1.0  -0.5648
  O  O129  1  0.126080  0.507540  0.978820  1.0  -0.5651
  O  O130  1  0.387560  0.978820  0.507540  1.0  -0.5644
  O  O131  1  0.978820  0.387560  0.126080  1.0  -0.5652
  O  O132  1  0.507540  0.126080  0.387560  1.0  -0.5646
  O  O133  1  0.507540  0.978820  0.387560  1.0  -0.5651
  O  O134  1  0.978820  0.507540  0.126080  1.0  -0.565
  O  O135  1  0.387560  0.126080  0.507540  1.0  -0.5653
  O  O136  1  0.126080  0.387560  0.978820  1.0  -0.5648
  O  O137  1  0.507540  0.387560  0.126080  1.0  -0.5653
  O  O138  1  0.978820  0.126080  0.387560  1.0  -0.5646
  O  O139  1  0.387560  0.507540  0.978820  1.0  -0.5652
  O  O140  1  0.126080  0.978820  0.507540  1.0  -0.5649
  O  O141  1  0.507540  0.126080  0.978820  1.0  -0.5647
  O  O142  1  0.978820  0.387560  0.507540  1.0  -0.5648
  O  O143  1  0.387560  0.978820  0.126080  1.0  -0.5645
  O  O144  1  0.126080  0.507540  0.387560  1.0  -0.5646
  O  O145  1  0.021180  0.492460  0.612440  1.0  -0.565
  O  O146  1  0.492460  0.021180  0.873920  1.0  -0.5646
  O  O147  1  0.873920  0.612440  0.492460  1.0  -0.5646
  O  O148  1  0.612440  0.873920  0.021180  1.0  -0.5649
  O  O149  1  0.612440  0.492460  0.873920  1.0  -0.5654
  O  O150  1  0.873920  0.021180  0.612440  1.0  -0.5645
  O  O151  1  0.492460  0.612440  0.021180  1.0  -0.5653
  O  O152  1  0.021180  0.873920  0.492460  1.0  -0.5646
  O  O153  1  0.873920  0.492460  0.021180  1.0  -0.5654
  O  O154  1  0.612440  0.021180  0.492460  1.0  -0.5642
  O  O155  1  0.021180  0.612440  0.873920  1.0  -0.5649
  O  O156  1  0.492460  0.873920  0.612440  1.0  -0.5646
