# generated using pymatgen
data_Zn2H25C39(NO3)3
_symmetry_space_group_name_H-M   'P 1'
_cell_length_a   15.14310000
_cell_length_b   15.23220000
_cell_length_c   16.05970000
_cell_angle_alpha   98.48400000
_cell_angle_beta   102.68200000
_cell_angle_gamma   104.20600000
_symmetry_Int_Tables_number   1
_chemical_formula_structural   Zn2H25C39(NO3)3
_chemical_formula_sum   'Zn4 H50 C78 N6 O18'
_cell_volume   3423.11725065
_cell_formula_units_Z   2
loop_
 _symmetry_equiv_pos_site_id
 _symmetry_equiv_pos_as_xyz
  1  'x, y, z'
loop_
 _atom_site_type_symbol
 _atom_site_label
 _atom_site_symmetry_multiplicity
 _atom_site_fract_x
 _atom_site_fract_y
 _atom_site_fract_z
 _atom_site_occupancy
 _atom_site_charge
  Zn  Zn1  1  0.388530  0.829020  0.397470  1.0  0.9167
  Zn  Zn2  1  0.333480  0.785120  0.203770  1.0  0.9364
  Zn  Zn3  1  0.611470  0.170980  0.602530  1.0  0.9176
  Zn  Zn4  1  0.666520  0.214880  0.796230  1.0  0.9374
  H  H5  1  0.381100  0.118600  0.437800  1.0  0.1019
  H  H6  1  0.370800  0.267800  0.432600  1.0  0.1074
  H  H7  1  0.366900  0.221400  0.177300  1.0  0.1164
  H  H8  1  0.369900  0.070200  0.181700  1.0  0.1047
  H  H9  1  0.033400  0.790000  0.152900  1.0  0.1091
  H  H10  1  0.889900  0.809700  0.164200  1.0  0.1272
  H  H11  1  0.968300  0.824900  0.422900  1.0  0.1227
  H  H12  1  0.111700  0.807200  0.412700  1.0  0.1121
  H  H13  1  0.292800  0.483000  0.165700  1.0  0.108
  H  H14  1  0.299300  0.332500  0.170100  1.0  0.1163
  H  H15  1  0.426000  0.413200  0.430200  1.0  0.1129
  H  H16  1  0.418000  0.563400  0.425500  1.0  0.1005
  H  H17  1  0.608200  0.809300  0.182300  1.0  0.1047
  H  H18  1  0.756200  0.800500  0.171600  1.0  0.1203
  H  H19  1  0.848200  0.857000  0.432900  1.0  0.1205
  H  H20  1  0.701900  0.871300  0.442900  1.0  0.1102
  H  H21  1  0.377700  0.707000  0.526400  1.0  0.0939
  H  H22  1  0.369100  0.713800  0.670100  1.0  0.114
  H  H23  1  0.397400  0.987000  0.693900  1.0  0.1151
  H  H24  1  0.399300  0.972100  0.549400  1.0  0.0856
  H  H25  1  0.450500  0.894600  0.113400  1.0  0.0913
  H  H26  1  0.459900  0.907500  0.973000  1.0  0.12
  H  H27  1  0.236400  0.679500  0.878000  1.0  0.1282
  H  H28  1  0.228900  0.677300  0.019600  1.0  0.082
  H  H29  1  0.322200  0.742100  0.784100  1.0  0.223
  H  H30  1  0.618900  0.881400  0.562200  1.0  0.1006
  H  H31  1  0.629200  0.732200  0.567400  1.0  0.1072
  H  H32  1  0.633100  0.778600  0.822700  1.0  0.117
  H  H33  1  0.630100  0.929800  0.818300  1.0  0.1046
  H  H34  1  0.966600  0.210000  0.847100  1.0  0.1095
  H  H35  1  0.110100  0.190300  0.835800  1.0  0.1267
  H  H36  1  0.031700  0.175100  0.577100  1.0  0.1222
  H  H37  1  0.888300  0.192800  0.587300  1.0  0.1119
  H  H38  1  0.707200  0.517000  0.834300  1.0  0.1078
  H  H39  1  0.700700  0.667500  0.829900  1.0  0.117
  H  H40  1  0.574000  0.586800  0.569800  1.0  0.1124
  H  H41  1  0.582000  0.436600  0.574500  1.0  0.1008
  H  H42  1  0.391800  0.190700  0.817700  1.0  0.1044
  H  H43  1  0.243800  0.199500  0.828400  1.0  0.1192
  H  H44  1  0.151800  0.143000  0.567100  1.0  0.1207
  H  H45  1  0.298100  0.128700  0.557100  1.0  0.1108
  H  H46  1  0.622300  0.293000  0.473600  1.0  0.0929
  H  H47  1  0.630900  0.286200  0.329900  1.0  0.1135
  H  H48  1  0.602600  0.013000  0.306100  1.0  0.1146
  H  H49  1  0.600700  0.027900  0.450600  1.0  0.086
  H  H50  1  0.549500  0.105400  0.886600  1.0  0.0922
  H  H51  1  0.540100  0.092500  0.027000  1.0  0.1197
  H  H52  1  0.763600  0.320500  0.122000  1.0  0.1287
  H  H53  1  0.771100  0.322700  0.980400  1.0  0.0826
  H  H54  1  0.677800  0.257900  0.215900  1.0  0.2229
  C  C55  1  0.376100  0.981000  0.312100  1.0  0.6625
  C  C56  1  0.373900  0.078600  0.310000  1.0  -0.133
  C  C57  1  0.376000  0.138600  0.384100  1.0  -0.0301
  C  C58  1  0.370700  0.228000  0.381200  1.0  -0.143
  C  C59  1  0.365400  0.260300  0.303600  1.0  0.0477
  C  C60  1  0.367500  0.200400  0.230200  1.0  -0.1397
  C  C61  1  0.370400  0.110400  0.233100  1.0  -0.032
  C  C62  1  0.183400  0.788500  0.275700  1.0  0.747
  C  C63  1  0.088100  0.796400  0.281200  1.0  -0.1261
  C  C64  1  0.020700  0.797300  0.208500  1.0  -0.0722
  C  C65  1  0.934800  0.808600  0.215400  1.0  -0.1271
  C  C66  1  0.912000  0.818400  0.294100  1.0  0.0331
  C  C67  1  0.981100  0.817800  0.367300  1.0  -0.1249
  C  C68  1  0.066300  0.807200  0.361400  1.0  -0.0784
  C  C69  1  0.347600  0.635100  0.293200  1.0  0.6993
  C  C70  1  0.349900  0.537100  0.295600  1.0  -0.1177
  C  C71  1  0.317900  0.468500  0.219900  1.0  -0.0538
  C  C72  1  0.322200  0.378700  0.222500  1.0  -0.1359
  C  C73  1  0.359300  0.355600  0.300800  1.0  0.0573
  C  C74  1  0.397100  0.426600  0.376700  1.0  -0.1357
  C  C75  1  0.392300  0.516100  0.373900  1.0  -0.0473
  C  C76  1  0.539400  0.831800  0.318400  1.0  0.6882
  C  C77  1  0.638900  0.836400  0.313400  1.0  -0.0998
  C  C78  1  0.657000  0.818500  0.234000  1.0  -0.0604
  C  C79  1  0.745600  0.813700  0.227700  1.0  -0.1426
  C  C80  1  0.818300  0.827700  0.301100  1.0  0.0385
  C  C81  1  0.799500  0.847600  0.380900  1.0  -0.1295
  C  C82  1  0.711800  0.854200  0.387100  1.0  -0.0792
  C  C83  1  0.380300  0.764400  0.560800  1.0  0.1604
  C  C84  1  0.376500  0.768200  0.646900  1.0  -0.1885
  C  C85  1  0.383600  0.851500  0.697700  1.0  -1e-04
  C  C86  1  0.392400  0.928300  0.660400  1.0  -0.1658
  C  C87  1  0.393700  0.918900  0.574500  1.0  0.177
  C  C88  1  0.389500  0.869300  0.795100  1.0  0.5133
  C  C89  1  0.405800  0.851100  0.064800  1.0  0.1649
  C  C90  1  0.412200  0.858700  0.981500  1.0  -0.2098
  C  C91  1  0.347500  0.793500  0.909900  1.0  0.2698
  C  C92  1  0.280600  0.725500  0.925100  1.0  -0.2329
  C  C93  1  0.277600  0.724200  0.009900  1.0  0.146
  C  C94  1  0.623900  0.019000  0.687900  1.0  0.6624
  C  C95  1  0.626100  0.921400  0.690000  1.0  -0.1337
  C  C96  1  0.624000  0.861400  0.615900  1.0  -0.033
  C  C97  1  0.629300  0.772000  0.618800  1.0  -0.141
  C  C98  1  0.634600  0.739700  0.696400  1.0  0.0479
  C  C99  1  0.632500  0.799600  0.769800  1.0  -0.1408
  C  C100  1  0.629600  0.889600  0.766900  1.0  -0.0309
  C  C101  1  0.816600  0.211500  0.724300  1.0  0.7461
  C  C102  1  0.911900  0.203600  0.718800  1.0  -0.1265
  C  C103  1  0.979300  0.202700  0.791500  1.0  -0.0755
  C  C104  1  0.065200  0.191400  0.784600  1.0  -0.1288
  C  C105  1  0.088000  0.181600  0.705900  1.0  0.033
  C  C106  1  0.018900  0.182200  0.632700  1.0  -0.1253
  C  C107  1  0.933700  0.192800  0.638600  1.0  -0.0796
  C  C108  1  0.652400  0.364900  0.706800  1.0  0.7006
  C  C109  1  0.650100  0.462900  0.704400  1.0  -0.1181
  C  C110  1  0.682100  0.531500  0.780100  1.0  -0.0538
  C  C111  1  0.677800  0.621300  0.777500  1.0  -0.1358
  C  C112  1  0.640700  0.644400  0.699200  1.0  0.0568
  C  C113  1  0.602900  0.573400  0.623300  1.0  -0.1354
  C  C114  1  0.607700  0.483900  0.626100  1.0  -0.0492
  C  C115  1  0.460600  0.168200  0.681600  1.0  0.6894
  C  C116  1  0.361100  0.163600  0.686600  1.0  -0.0989
  C  C117  1  0.343000  0.181500  0.766000  1.0  -0.0603
  C  C118  1  0.254400  0.186300  0.772300  1.0  -0.1409
  C  C119  1  0.181700  0.172300  0.698900  1.0  0.0366
  C  C120  1  0.200500  0.152400  0.619100  1.0  -0.1295
  C  C121  1  0.288200  0.145800  0.612900  1.0  -0.0793
  C  C122  1  0.619700  0.235600  0.439200  1.0  0.1639
  C  C123  1  0.623500  0.231800  0.353100  1.0  -0.1889
  C  C124  1  0.616400  0.148500  0.302300  1.0  -0.0015
  C  C125  1  0.607600  0.071700  0.339600  1.0  -0.1672
  C  C126  1  0.606300  0.081100  0.425500  1.0  0.1794
  C  C127  1  0.610500  0.130700  0.204900  1.0  0.5137
  C  C128  1  0.594200  0.148900  0.935200  1.0  0.1631
  C  C129  1  0.587800  0.141300  0.018500  1.0  -0.2105
  C  C130  1  0.652500  0.206500  0.090100  1.0  0.2704
  C  C131  1  0.719400  0.274500  0.074900  1.0  -0.2299
  C  C132  1  0.722400  0.275800  0.990100  1.0  0.1453
  N  N133  1  0.387500  0.838100  0.524800  1.0  -0.2988
  N  N134  1  0.349300  0.794400  0.823000  1.0  -0.4082
  N  N135  1  0.338500  0.784400  0.078900  1.0  -0.3014
  N  N136  1  0.612500  0.161900  0.475200  1.0  -0.2987
  N  N137  1  0.650700  0.205600  0.177000  1.0  -0.4074
  N  N138  1  0.661500  0.215600  0.921100  1.0  -0.2993
  O  O139  1  0.361700  0.927300  0.240000  1.0  -0.6015
  O  O140  1  0.390400  0.959800  0.385800  1.0  -0.5756
  O  O141  1  0.242600  0.794400  0.346100  1.0  -0.618
  O  O142  1  0.197500  0.776600  0.201000  1.0  -0.5886
  O  O143  1  0.317000  0.652900  0.219800  1.0  -0.5939
  O  O144  1  0.377600  0.691700  0.365700  1.0  -0.6125
  O  O145  1  0.526400  0.854100  0.392900  1.0  -0.5646
  O  O146  1  0.476700  0.805200  0.247500  1.0  -0.5991
  O  O147  1  0.425200  0.949000  0.841900  1.0  -0.5396
  O  O148  1  0.638300  0.072700  0.760000  1.0  -0.6003
  O  O149  1  0.609600  0.040200  0.614200  1.0  -0.5765
  O  O150  1  0.757400  0.205600  0.653900  1.0  -0.6146
  O  O151  1  0.802500  0.223400  0.799000  1.0  -0.5888
  O  O152  1  0.683000  0.347100  0.780200  1.0  -0.5932
  O  O153  1  0.622400  0.308300  0.634300  1.0  -0.6124
  O  O154  1  0.473600  0.145900  0.607100  1.0  -0.566
  O  O155  1  0.523300  0.194800  0.752500  1.0  -0.5982
  O  O156  1  0.574800  0.051000  0.158100  1.0  -0.5386
