# generated using pymatgen
data_ZnH18C25N4O5
_symmetry_space_group_name_H-M   'P 1'
_cell_length_a   14.17000000
_cell_length_b   16.38100000
_cell_length_c   19.41500000
_cell_angle_alpha   104.25000000
_cell_angle_beta   90.00000000
_cell_angle_gamma   90.00000000
_symmetry_Int_Tables_number   1
_chemical_formula_structural   ZnH18C25N4O5
_chemical_formula_sum   'Zn4 H72 C100 N16 O20'
_cell_volume   4367.92237048
_cell_formula_units_Z   4
loop_
 _symmetry_equiv_pos_site_id
 _symmetry_equiv_pos_as_xyz
  1  'x, y, z'
loop_
 _atom_site_type_symbol
 _atom_site_label
 _atom_site_symmetry_multiplicity
 _atom_site_fract_x
 _atom_site_fract_y
 _atom_site_fract_z
 _atom_site_occupancy
 _atom_site_charge
  Zn  Zn1  1  0.568370  0.768950  0.678390  1.0  0.902
  Zn  Zn2  1  0.931630  0.268950  0.178390  1.0  0.9023
  Zn  Zn3  1  0.431630  0.231050  0.321610  1.0  0.9025
  Zn  Zn4  1  0.068370  0.731050  0.821610  1.0  0.9015
  H  H5  1  0.814600  0.987800  0.344900  1.0  0.113
  H  H6  1  0.413000  0.489800  0.612900  1.0  0.1334
  H  H7  1  0.943800  0.472400  0.067200  1.0  0.0885
  H  H8  1  0.336700  0.430300  0.509500  1.0  0.2593
  H  H9  1  0.685400  0.487800  0.844900  1.0  0.1129
  H  H10  1  0.450900  0.927800  0.736100  1.0  0.0887
  H  H11  1  0.592500  0.070800  0.500500  1.0  0.1312
  H  H12  1  0.834800  0.672100  0.969700  1.0  0.1105
  H  H13  1  0.642100  0.576900  0.773800  1.0  0.1159
  H  H14  1  0.828900  0.940900  0.437600  1.0  0.1106
  H  H15  1  0.087000  0.989800  0.112900  1.0  0.132
  H  H16  1  0.907500  0.570800  0.000500  1.0  0.1312
  H  H17  1  0.163300  0.930300  0.009500  1.0  0.2586
  H  H18  1  0.154600  0.253900  0.371800  1.0  0.1211
  H  H19  1  0.708600  0.347300  0.007200  1.0  0.1166
  H  H20  1  0.459200  0.712300  0.785600  1.0  0.0815
  H  H21  1  0.857900  0.076900  0.273800  1.0  0.1161
  H  H22  1  0.040800  0.212300  0.285600  1.0  0.0815
  H  H23  1  0.705800  0.262000  0.398000  1.0  0.1072
  H  H24  1  0.159800  0.481100  0.323600  1.0  0.1336
  H  H25  1  0.665200  0.172100  0.469700  1.0  0.1109
  H  H26  1  0.253000  0.355000  0.432800  1.0  0.26
  H  H27  1  0.794200  0.762000  0.898000  1.0  0.1074
  H  H28  1  0.102300  0.115000  0.957700  1.0  0.12
  H  H29  1  0.016800  0.221600  0.027800  1.0  0.0896
  H  H30  1  0.345400  0.753900  0.871800  1.0  0.121
  H  H31  1  0.000100  0.100400  0.178800  1.0  0.082
  H  H32  1  0.049100  0.427800  0.236100  1.0  0.0892
  H  H33  1  0.483200  0.721600  0.527800  1.0  0.0894
  H  H34  1  0.340200  0.981100  0.823600  1.0  0.1337
  H  H35  1  0.247000  0.855000  0.932800  1.0  0.2615
  H  H36  1  0.556200  0.972400  0.567200  1.0  0.0882
  H  H37  1  0.791400  0.847300  0.507200  1.0  0.1169
  H  H38  1  0.671100  0.440900  0.937600  1.0  0.1103
  H  H39  1  0.499900  0.600400  0.678800  1.0  0.0821
  H  H40  1  0.397700  0.615000  0.457700  1.0  0.1198
  H  H41  1  0.516800  0.278400  0.472200  1.0  0.089
  H  H42  1  0.840200  0.518900  0.676400  1.0  0.1332
  H  H43  1  0.443800  0.027600  0.432800  1.0  0.0884
  H  H44  1  0.999900  0.899600  0.821200  1.0  0.0817
  H  H45  1  0.654600  0.246100  0.128200  1.0  0.1215
  H  H46  1  0.291400  0.652700  0.992800  1.0  0.1173
  H  H47  1  0.836700  0.069700  0.990500  1.0  0.259
  H  H48  1  0.540800  0.287700  0.214400  1.0  0.0815
  H  H49  1  0.208600  0.152700  0.492800  1.0  0.1169
  H  H50  1  0.587000  0.510200  0.387100  1.0  0.1335
  H  H51  1  0.294200  0.738000  0.602000  1.0  0.1067
  H  H52  1  0.165200  0.327900  0.030300  1.0  0.1095
  H  H53  1  0.983200  0.778400  0.972200  1.0  0.0891
  H  H54  1  0.602300  0.385000  0.542300  1.0  0.1202
  H  H55  1  0.328900  0.559100  0.062400  1.0  0.1113
  H  H56  1  0.171100  0.059100  0.562400  1.0  0.1108
  H  H57  1  0.959200  0.787700  0.714400  1.0  0.0815
  H  H58  1  0.549100  0.072200  0.263900  1.0  0.0854
  H  H59  1  0.314600  0.512200  0.155100  1.0  0.1119
  H  H60  1  0.334800  0.827900  0.530300  1.0  0.1092
  H  H61  1  0.357900  0.423100  0.226200  1.0  0.1158
  H  H62  1  0.950900  0.572200  0.763900  1.0  0.0857
  H  H63  1  0.913000  0.010200  0.887100  1.0  0.133
  H  H64  1  0.845400  0.746100  0.628200  1.0  0.1219
  H  H65  1  0.663300  0.569700  0.490500  1.0  0.2594
  H  H66  1  0.142100  0.923100  0.726200  1.0  0.116
  H  H67  1  0.659800  0.018900  0.176400  1.0  0.1326
  H  H68  1  0.753000  0.145000  0.067200  1.0  0.2598
  H  H69  1  0.407500  0.929200  0.499500  1.0  0.1318
  H  H70  1  0.056200  0.527600  0.932800  1.0  0.0882
  H  H71  1  0.747000  0.645000  0.567200  1.0  0.2628
  H  H72  1  0.092500  0.429200  0.999500  1.0  0.1315
  H  H73  1  0.185400  0.012200  0.655100  1.0  0.1123
  H  H74  1  0.500100  0.399600  0.321200  1.0  0.0821
  H  H75  1  0.205800  0.238000  0.102000  1.0  0.1064
  H  H76  1  0.897700  0.885000  0.042300  1.0  0.1201
  C  C77  1  0.681700  0.737800  0.785700  1.0  0.6498
  C  C78  1  0.110400  0.041100  0.028500  1.0  0.2676
  C  C79  1  0.074700  0.037500  0.094600  1.0  -0.28
  C  C80  1  0.680600  0.597500  0.814400  1.0  -0.0879
  C  C81  1  0.783500  0.514300  0.962300  1.0  0.0444
  C  C82  1  0.366200  0.791600  0.844800  1.0  -0.2546
  C  C83  1  0.749400  0.393200  0.006800  1.0  -0.0812
  C  C84  1  0.819400  0.097500  0.314400  1.0  -0.0875
  C  C85  1  0.750600  0.893200  0.506800  1.0  -0.08
  C  C86  1  0.172300  0.372600  0.356400  1.0  0.2551
  C  C87  1  0.727500  0.449300  0.964900  1.0  -0.1236
  C  C88  1  0.083700  0.111200  0.003800  1.0  -0.2199
  C  C89  1  0.829000  0.404800  0.046800  1.0  -0.1355
  C  C90  1  0.730200  0.206300  0.387700  1.0  -0.0609
  C  C91  1  0.416300  0.611200  0.503800  1.0  -0.219
  C  C92  1  0.434400  0.767700  0.793700  1.0  0.1621
  C  C93  1  0.794200  0.044800  0.357500  1.0  -0.1518
  C  C94  1  0.217000  0.971200  0.930900  1.0  0.3844
  C  C95  1  0.853600  0.343100  0.090000  1.0  0.6746
  C  C96  1  0.614100  0.966800  0.541900  1.0  -0.0081
  C  C97  1  0.758900  0.572100  0.917200  1.0  0.0191
  C  C98  1  0.772500  0.949300  0.464900  1.0  -0.1243
  C  C99  1  0.021700  0.103400  0.133100  1.0  0.167
  C  C100  1  0.646400  0.843100  0.590000  1.0  0.6751
  C  C101  1  0.137800  0.424800  0.316500  1.0  -0.2332
  C  C102  1  0.711300  0.678600  0.830700  1.0  -0.1187
  C  C103  1  0.425300  0.537500  0.594600  1.0  -0.2771
  C  C104  1  0.634100  0.025500  0.501100  1.0  -0.192
  C  C105  1  0.818300  0.237800  0.285700  1.0  0.6493
  C  C106  1  0.069700  0.392700  0.265400  1.0  0.1823
  C  C107  1  0.133800  0.291600  0.344800  1.0  -0.2523
  C  C108  1  0.327700  0.872600  0.856400  1.0  0.2543
  C  C109  1  0.283000  0.471200  0.430900  1.0  0.3854
  C  C110  1  0.468700  0.673800  0.545400  1.0  0.1623
  C  C111  1  0.769800  0.706300  0.887700  1.0  -0.0628
  C  C112  1  0.031300  0.173800  0.045400  1.0  0.1613
  C  C113  1  0.706300  0.152600  0.430500  1.0  -0.1261
  C  C114  1  0.705800  0.544800  0.857500  1.0  -0.1517
  C  C115  1  0.865900  0.525500  0.001100  1.0  -0.193
  C  C116  1  0.389600  0.541100  0.528500  1.0  0.2661
  C  C117  1  0.430300  0.892700  0.765400  1.0  0.1846
  C  C118  1  0.716500  0.014300  0.462300  1.0  0.044
  C  C119  1  0.788700  0.178600  0.330700  1.0  -0.119
  C  C120  1  0.671000  0.904800  0.546800  1.0  -0.1358
  C  C121  1  0.362200  0.924800  0.816500  1.0  -0.2333
  C  C122  1  0.885900  0.466800  0.041900  1.0  -0.0087
  C  C123  1  0.478300  0.603400  0.633100  1.0  0.1671
  C  C124  1  0.065600  0.267700  0.293700  1.0  0.1629
  C  C125  1  0.741100  0.072100  0.417200  1.0  0.0184
  C  C126  1  0.793700  0.652600  0.930500  1.0  -0.1276
  C  C127  1  0.968700  0.826200  0.954600  1.0  0.1631
  C  C128  1  0.288700  0.321400  0.169300  1.0  -0.1185
  C  C129  1  0.827700  0.627400  0.643600  1.0  0.2542
  C  C130  1  0.521700  0.396600  0.366900  1.0  0.1663
  C  C131  1  0.294200  0.455200  0.142500  1.0  -0.1522
  C  C132  1  0.978300  0.896600  0.866900  1.0  0.1668
  C  C133  1  0.171000  0.595200  0.953200  1.0  -0.1345
  C  C134  1  0.241100  0.427900  0.082800  1.0  0.0177
  C  C135  1  0.610400  0.458900  0.471500  1.0  0.2685
  C  C136  1  0.565600  0.232300  0.206300  1.0  0.1653
  C  C137  1  0.205800  0.955200  0.642500  1.0  -0.1516
  C  C138  1  0.385900  0.033200  0.458100  1.0  -0.0088
  C  C139  1  0.269800  0.793700  0.612300  1.0  -0.0652
  C  C140  1  0.283500  0.985700  0.537700  1.0  0.0438
  C  C141  1  0.134100  0.474500  0.998900  1.0  -0.1921
  C  C142  1  0.934400  0.732300  0.706300  1.0  0.1617
  C  C143  1  0.211300  0.821400  0.669300  1.0  -0.1189
  C  C144  1  0.574700  0.462500  0.405400  1.0  -0.2783
  C  C145  1  0.783000  0.028800  0.069100  1.0  0.3836
  C  C146  1  0.181700  0.762200  0.714300  1.0  0.6495
  C  C147  1  0.230200  0.293700  0.112300  1.0  -0.0626
  C  C148  1  0.889600  0.958900  0.971500  1.0  0.2664
  C  C149  1  0.250600  0.606800  0.993200  1.0  -0.0828
  C  C150  1  0.866200  0.708400  0.655200  1.0  -0.2544
  C  C151  1  0.258900  0.927900  0.582800  1.0  0.0182
  C  C152  1  0.925300  0.962500  0.905400  1.0  -0.2721
  C  C153  1  0.227500  0.050700  0.535100  1.0  -0.1245
  C  C154  1  0.249400  0.106800  0.493200  1.0  -0.0829
  C  C155  1  0.329000  0.095200  0.453200  1.0  -0.1344
  C  C156  1  0.930300  0.607300  0.734600  1.0  0.1832
  C  C157  1  0.637800  0.075200  0.183500  1.0  -0.235
  C  C158  1  0.319400  0.402500  0.185600  1.0  -0.088
  C  C159  1  0.114100  0.533200  0.958100  1.0  -0.0038
  C  C160  1  0.206300  0.347400  0.069500  1.0  -0.131
  C  C161  1  0.272500  0.550700  0.035100  1.0  -0.1245
  C  C162  1  0.916300  0.888800  0.996200  1.0  -0.2191
  C  C163  1  0.318300  0.262200  0.214300  1.0  0.6498
  C  C164  1  0.583700  0.388800  0.496200  1.0  -0.2191
  C  C165  1  0.531300  0.326200  0.454600  1.0  0.1625
  C  C166  1  0.365900  0.974500  0.498900  1.0  -0.1917
  C  C167  1  0.293700  0.847400  0.569500  1.0  -0.1279
  C  C168  1  0.672300  0.127400  0.143600  1.0  0.2535
  C  C169  1  0.216500  0.485700  0.037700  1.0  0.0436
  C  C170  1  0.353600  0.156900  0.410000  1.0  0.6755
  C  C171  1  0.569700  0.107300  0.234600  1.0  0.1829
  C  C172  1  0.862200  0.575200  0.683500  1.0  -0.2343
  C  C173  1  0.146400  0.656900  0.910000  1.0  0.6753
  C  C174  1  0.717000  0.528800  0.569100  1.0  0.383
  C  C175  1  0.633800  0.208400  0.155200  1.0  -0.2517
  C  C176  1  0.180600  0.902500  0.685600  1.0  -0.0884
  N  N177  1  0.998700  0.171700  0.110200  1.0  -0.3338
  N  N178  1  0.032100  0.317800  0.254900  1.0  -0.3031
  N  N179  1  0.162900  0.975400  0.992500  1.0  -0.3643
  N  N180  1  0.467900  0.817800  0.754900  1.0  -0.3028
  N  N181  1  0.238200  0.393500  0.410100  1.0  -0.2789
  N  N182  1  0.337100  0.475400  0.492500  1.0  -0.3656
  N  N183  1  0.261800  0.893500  0.910100  1.0  -0.2804
  N  N184  1  0.501300  0.671700  0.610200  1.0  -0.333
  N  N185  1  0.761800  0.606500  0.589900  1.0  -0.2785
  N  N186  1  0.498700  0.328300  0.389800  1.0  -0.3335
  N  N187  1  0.001300  0.828300  0.889800  1.0  -0.3318
  N  N188  1  0.967900  0.682200  0.745100  1.0  -0.3019
  N  N189  1  0.532100  0.182200  0.245100  1.0  -0.3035
  N  N190  1  0.662900  0.524600  0.507500  1.0  -0.3657
  N  N191  1  0.738200  0.106500  0.089900  1.0  -0.2789
  N  N192  1  0.837100  0.024600  0.007500  1.0  -0.3664
  O  O193  1  0.690500  0.775100  0.582300  1.0  -0.6275
  O  O194  1  0.922000  0.363300  0.134000  1.0  -0.5899
  O  O195  1  0.275500  0.528000  0.402900  1.0  -0.4647
  O  O196  1  0.638500  0.700400  0.727100  1.0  -0.5932
  O  O197  1  0.861500  0.200400  0.227100  1.0  -0.5935
  O  O198  1  0.578000  0.863300  0.634000  1.0  -0.5905
  O  O199  1  0.698600  0.812600  0.805300  1.0  -0.5009
  O  O200  1  0.801400  0.312600  0.305300  1.0  -0.5007
  O  O201  1  0.809500  0.275100  0.082300  1.0  -0.6285
  O  O202  1  0.224500  0.028000  0.902900  1.0  -0.4637
  O  O203  1  0.422000  0.136700  0.366000  1.0  -0.5902
  O  O204  1  0.361500  0.299600  0.272900  1.0  -0.5928
  O  O205  1  0.138500  0.799600  0.772900  1.0  -0.5927
  O  O206  1  0.775500  0.972000  0.097100  1.0  -0.465
  O  O207  1  0.078000  0.636700  0.866000  1.0  -0.5902
  O  O208  1  0.190500  0.724900  0.917700  1.0  -0.6267
  O  O209  1  0.301400  0.187400  0.194700  1.0  -0.5009
  O  O210  1  0.309500  0.224900  0.417700  1.0  -0.6275
  O  O211  1  0.198600  0.687400  0.694700  1.0  -0.5017
  O  O212  1  0.724500  0.472000  0.597100  1.0  -0.4652
