# generated using pymatgen
data_ZnH13C20N2O5
_symmetry_space_group_name_H-M   'P 1'
_cell_length_a   19.72200000
_cell_length_b   28.05880000
_cell_length_c   28.08350000
_cell_angle_alpha   90.00000000
_cell_angle_beta   94.42300000
_cell_angle_gamma   90.00000000
_symmetry_Int_Tables_number   1
_chemical_formula_structural   ZnH13C20N2O5
_chemical_formula_sum   'Zn16 H208 C320 N32 O80'
_cell_volume   15494.44294421
_cell_formula_units_Z   16
loop_
 _symmetry_equiv_pos_site_id
 _symmetry_equiv_pos_as_xyz
  1  'x, y, z'
loop_
 _atom_site_type_symbol
 _atom_site_label
 _atom_site_symmetry_multiplicity
 _atom_site_fract_x
 _atom_site_fract_y
 _atom_site_fract_z
 _atom_site_occupancy
 _atom_site_charge
  Zn  Zn1  1  0.390040  0.253580  0.661310  1.0  0.9412
  Zn  Zn2  1  0.390040  0.246420  0.161310  1.0  0.9411
  Zn  Zn3  1  0.893370  0.747420  0.653090  1.0  0.9428
  Zn  Zn4  1  0.884770  0.748170  0.048340  1.0  0.9316
  Zn  Zn5  1  0.391890  0.250650  0.557080  1.0  0.9253
  Zn  Zn6  1  0.391890  0.249350  0.057080  1.0  0.9255
  Zn  Zn7  1  0.893370  0.752580  0.153090  1.0  0.9429
  Zn  Zn8  1  0.884770  0.751830  0.548340  1.0  0.9316
  Zn  Zn9  1  0.609960  0.746420  0.338690  1.0  0.9407
  Zn  Zn10  1  0.608110  0.749350  0.442920  1.0  0.9249
  Zn  Zn11  1  0.115230  0.248170  0.451660  1.0  0.931
  Zn  Zn12  1  0.106630  0.252580  0.346910  1.0  0.9419
  Zn  Zn13  1  0.106630  0.247420  0.846910  1.0  0.9419
  Zn  Zn14  1  0.115230  0.251830  0.951660  1.0  0.9313
  Zn  Zn15  1  0.608110  0.750650  0.942920  1.0  0.9246
  Zn  Zn16  1  0.609960  0.753580  0.838690  1.0  0.9409
  H  H17  1  0.233600  0.141400  0.171600  1.0  0.113
  H  H18  1  0.289800  0.253000  0.736700  1.0  0.0784
  H  H19  1  0.769500  0.612700  0.032400  1.0  0.1103
  H  H20  1  0.637800  0.086300  0.564100  1.0  0.1189
  H  H21  1  0.313200  0.104900  0.538400  1.0  0.0953
  H  H22  1  0.128200  0.013200  0.130700  1.0  0.3208
  H  H23  1  0.110900  0.568300  0.051900  1.0  0.1503
  H  H24  1  0.206400  0.164600  0.029600  1.0  0.1015
  H  H25  1  0.182600  0.520200  0.071700  1.0  0.3104
  H  H26  1  0.798300  0.785400  0.463300  1.0  0.094
  H  H27  1  0.707300  0.541700  0.039100  1.0  0.1093
  H  H28  1  0.972800  0.716500  0.474000  1.0  0.0951
  H  H29  1  0.142300  0.901800  0.688800  1.0  0.102
  H  H30  1  0.073600  0.664100  0.180800  1.0  0.1121
  H  H31  1  0.155900  0.420300  0.665000  1.0  0.1223
  H  H32  1  0.975800  0.786400  0.892600  1.0  0.1296
  H  H33  1  0.527200  0.033400  0.039800  1.0  0.1186
  H  H34  1  0.504800  0.385400  0.682400  1.0  0.1062
  H  H35  1  0.026900  0.965500  0.033600  1.0  0.1233
  H  H36  1  0.932300  0.687300  0.317300  1.0  0.1183
  H  H37  1  0.707300  0.958300  0.539100  1.0  0.109
  H  H38  1  0.125700  0.396500  0.522100  1.0  0.128
  H  H39  1  0.474600  0.288300  0.481000  1.0  0.0829
  H  H40  1  0.072000  0.551800  0.675300  1.0  0.1325
  H  H41  1  0.306300  0.290500  0.891300  1.0  0.1122
  H  H42  1  0.527400  0.359100  0.192600  1.0  0.1025
  H  H43  1  0.618200  0.604600  0.519700  1.0  0.1151
  H  H44  1  0.110900  0.931700  0.551900  1.0  0.1524
  H  H45  1  0.981000  0.885600  0.030800  1.0  0.1098
  H  H46  1  0.610500  0.521800  0.639600  1.0  0.3082
  H  H47  1  0.651600  0.013100  0.581500  1.0  0.2204
  H  H48  1  0.203100  0.444700  0.169500  1.0  0.1152
  H  H49  1  0.927200  0.812300  0.734600  1.0  0.0884
  H  H50  1  0.699800  0.664200  0.522700  1.0  0.1082
  H  H51  1  0.799800  0.787500  0.380200  1.0  0.1151
  H  H52  1  0.779400  0.627800  0.175300  1.0  0.1082
  H  H53  1  0.125700  0.103500  0.022100  1.0  0.1282
  H  H54  1  0.309000  0.288800  0.973200  1.0  0.0785
  H  H55  1  0.637800  0.413700  0.064100  1.0  0.1192
  H  H56  1  0.262600  0.469600  0.037700  1.0  0.1221
  H  H57  1  0.306300  0.209500  0.391300  1.0  0.1126
  H  H58  1  0.734700  0.645200  0.665200  1.0  0.1178
  H  H59  1  0.653700  0.915200  0.161500  1.0  0.1178
  H  H60  1  0.128200  0.486800  0.630700  1.0  0.3204
  H  H61  1  0.203100  0.055300  0.669500  1.0  0.1171
  H  H62  1  0.618200  0.895400  0.019700  1.0  0.1151
  H  H63  1  0.610500  0.978200  0.139600  1.0  0.3073
  H  H64  1  0.142300  0.598200  0.188800  1.0  0.1016
  H  H65  1  0.026900  0.534500  0.533600  1.0  0.1234
  H  H66  1  0.489600  0.247300  0.246000  1.0  0.094
  H  H67  1  0.571500  0.155600  0.556300  1.0  0.1132
  H  H68  1  0.493800  0.251600  0.828600  1.0  0.1314
  H  H69  1  0.309000  0.211200  0.473200  1.0  0.0789
  H  H70  1  0.927200  0.687700  0.234600  1.0  0.0884
  H  H71  1  0.981000  0.614400  0.530800  1.0  0.1057
  H  H72  1  0.932300  0.812700  0.817300  1.0  0.1184
  H  H73  1  0.288000  0.249500  0.319200  1.0  0.1262
  H  H74  1  0.571500  0.344400  0.056300  1.0  0.1133
  H  H75  1  0.651600  0.486900  0.081500  1.0  0.2202
  H  H76  1  0.975800  0.713600  0.392600  1.0  0.1292
  H  H77  1  0.842700  0.684600  0.811900  1.0  0.1266
  H  H78  1  0.255800  0.368900  0.169600  1.0  0.1113
  H  H79  1  0.769500  0.887300  0.532400  1.0  0.1103
  H  H80  1  0.779400  0.872200  0.675300  1.0  0.1077
  H  H81  1  0.474600  0.211700  0.981000  1.0  0.0829
  H  H82  1  0.699800  0.835800  0.022700  1.0  0.1081
  H  H83  1  0.073600  0.835900  0.680800  1.0  0.1121
  H  H84  1  0.206400  0.335400  0.529600  1.0  0.1016
  H  H85  1  0.477500  0.289100  0.399300  1.0  0.1344
  H  H86  1  0.007700  0.619400  0.671700  1.0  0.0999
  H  H87  1  0.033600  0.864900  0.542000  1.0  0.1101
  H  H88  1  0.482800  0.389000  0.539000  1.0  0.1079
  H  H89  1  0.799800  0.712500  0.880200  1.0  0.1141
  H  H90  1  0.033600  0.635100  0.042000  1.0  0.11
  H  H91  1  0.798300  0.714600  0.963300  1.0  0.0944
  H  H92  1  0.527200  0.466600  0.539800  1.0  0.1185
  H  H93  1  0.844800  0.686100  0.730000  1.0  0.0847
  H  H94  1  0.289800  0.247000  0.236700  1.0  0.0781
  H  H95  1  0.313200  0.395100  0.038400  1.0  0.0953
  H  H96  1  0.233600  0.358600  0.671600  1.0  0.1131
  H  H97  1  0.972800  0.783500  0.974000  1.0  0.0952
  H  H98  1  0.477500  0.210900  0.899300  1.0  0.1343
  H  H99  1  0.072000  0.948200  0.175300  1.0  0.1326
  H  H100  1  0.844800  0.813900  0.230000  1.0  0.0852
  H  H101  1  0.007700  0.880600  0.171700  1.0  0.1001
  H  H102  1  0.504800  0.114600  0.182400  1.0  0.1061
  H  H103  1  0.594000  0.075700  0.702100  1.0  0.126
  H  H104  1  0.155900  0.079700  0.165000  1.0  0.1224
  H  H105  1  0.842700  0.815400  0.311900  1.0  0.1266
  H  H106  1  0.653700  0.584800  0.661500  1.0  0.1179
  H  H107  1  0.734700  0.854800  0.165200  1.0  0.1181
  H  H108  1  0.493800  0.248400  0.328600  1.0  0.1316
  H  H109  1  0.262600  0.030400  0.537700  1.0  0.1219
  H  H110  1  0.489600  0.252700  0.746000  1.0  0.0941
  H  H111  1  0.594000  0.424300  0.202100  1.0  0.1259
  H  H112  1  0.722000  0.944200  0.682000  1.0  0.1292
  H  H113  1  0.255800  0.131100  0.669600  1.0  0.1113
  H  H114  1  0.288000  0.250500  0.819200  1.0  0.1262
  H  H115  1  0.182600  0.979800  0.571700  1.0  0.3105
  H  H116  1  0.482800  0.111000  0.039000  1.0  0.1072
  H  H117  1  0.553600  0.460200  0.683900  1.0  0.1322
  H  H118  1  0.527400  0.140900  0.692600  1.0  0.1028
  H  H119  1  0.553600  0.039800  0.183900  1.0  0.132
  H  H120  1  0.722000  0.555800  0.182000  1.0  0.1292
  H  H121  1  0.871800  0.513200  0.369300  1.0  0.3219
  H  H122  1  0.525400  0.788300  0.019000  1.0  0.0831
  H  H123  1  0.201700  0.285400  0.036700  1.0  0.0944
  H  H124  1  0.027200  0.283500  0.526000  1.0  0.0951
  H  H125  1  0.067700  0.187300  0.182700  1.0  0.1184
  H  H126  1  0.346300  0.084800  0.838500  1.0  0.1167
  H  H127  1  0.067700  0.312700  0.682700  1.0  0.1187
  H  H128  1  0.265300  0.354800  0.334800  1.0  0.1178
  H  H129  1  0.793600  0.835400  0.970400  1.0  0.1022
  H  H130  1  0.691000  0.711200  0.026800  1.0  0.0779
  H  H131  1  0.157300  0.184600  0.688100  1.0  0.1262
  H  H132  1  0.157300  0.315400  0.188100  1.0  0.1263
  H  H133  1  0.844100  0.579700  0.335000  1.0  0.122
  H  H134  1  0.230500  0.387300  0.967600  1.0  0.1109
  H  H135  1  0.712000  0.749500  0.180800  1.0  0.1267
  H  H136  1  0.155200  0.186100  0.770000  1.0  0.0835
  H  H137  1  0.928000  0.051800  0.824700  1.0  0.1324
  H  H138  1  0.737400  0.530400  0.962300  1.0  0.1223
  H  H139  1  0.889100  0.431700  0.948100  1.0  0.1522
  H  H140  1  0.517200  0.611000  0.461000  1.0  0.1061
  H  H141  1  0.155200  0.313900  0.270000  1.0  0.0835
  H  H142  1  0.522500  0.710900  0.600700  1.0  0.135
  H  H143  1  0.693700  0.790500  0.608700  1.0  0.1126
  H  H144  1  0.201700  0.214600  0.536700  1.0  0.0944
  H  H145  1  0.389500  0.478200  0.360400  1.0  0.3072
  H  H146  1  0.406000  0.575700  0.797900  1.0  0.126
  H  H147  1  0.744200  0.631100  0.830400  1.0  0.1111
  H  H148  1  0.220600  0.372200  0.824700  1.0  0.1079
  H  H149  1  0.817400  0.020200  0.428300  1.0  0.3086
  H  H150  1  0.220600  0.127800  0.324700  1.0  0.108
  H  H151  1  0.446400  0.960200  0.816100  1.0  0.1324
  H  H152  1  0.024200  0.286400  0.607400  1.0  0.1296
  H  H153  1  0.973100  0.034500  0.966400  1.0  0.1239
  H  H154  1  0.874300  0.603500  0.477900  1.0  0.1285
  H  H155  1  0.019000  0.385600  0.469200  1.0  0.1064
  H  H156  1  0.506200  0.748400  0.171400  1.0  0.1331
  H  H157  1  0.926400  0.164100  0.319200  1.0  0.1119
  H  H158  1  0.292700  0.458300  0.960900  1.0  0.1095
  H  H159  1  0.300200  0.164200  0.977300  1.0  0.1074
  H  H160  1  0.510400  0.752700  0.754000  1.0  0.0938
  H  H161  1  0.737400  0.969600  0.462300  1.0  0.1219
  H  H162  1  0.019000  0.114400  0.969200  1.0  0.1092
  H  H163  1  0.506200  0.751600  0.671400  1.0  0.1331
  H  H164  1  0.710200  0.747000  0.263300  1.0  0.0773
  H  H165  1  0.362200  0.913700  0.435900  1.0  0.1193
  H  H166  1  0.389500  0.021800  0.860400  1.0  0.3072
  H  H167  1  0.346300  0.415200  0.338500  1.0  0.1167
  H  H168  1  0.766400  0.858600  0.828400  1.0  0.1136
  H  H169  1  0.844100  0.920300  0.835000  1.0  0.1219
  H  H170  1  0.406000  0.924300  0.297900  1.0  0.1253
  H  H171  1  0.072800  0.312300  0.765400  1.0  0.0885
  H  H172  1  0.796900  0.944700  0.330500  1.0  0.1184
  H  H173  1  0.874300  0.896500  0.977900  1.0  0.1282
  H  H174  1  0.691000  0.788800  0.526800  1.0  0.0779
  H  H175  1  0.857700  0.098200  0.311200  1.0  0.1023
  H  H176  1  0.472800  0.533400  0.460200  1.0  0.1194
  H  H177  1  0.928000  0.448200  0.324700  1.0  0.1326
  H  H178  1  0.292700  0.041700  0.460900  1.0  0.1084
  H  H179  1  0.348400  0.986900  0.418500  1.0  0.2195
  H  H180  1  0.472600  0.640900  0.807400  1.0  0.1032
  H  H181  1  0.495200  0.885400  0.817600  1.0  0.1064
  H  H182  1  0.428500  0.655600  0.943700  1.0  0.1131
  H  H183  1  0.966400  0.364900  0.958000  1.0  0.1106
  H  H184  1  0.796900  0.555300  0.830500  1.0  0.1163
  H  H185  1  0.230500  0.112700  0.467600  1.0  0.1109
  H  H186  1  0.517200  0.889000  0.961000  1.0  0.1078
  H  H187  1  0.381800  0.104600  0.980300  1.0  0.1158
  H  H188  1  0.300200  0.335800  0.477300  1.0  0.1077
  H  H189  1  0.072800  0.187700  0.265400  1.0  0.0886
  H  H190  1  0.525400  0.711700  0.519000  1.0  0.083
  H  H191  1  0.973100  0.465500  0.466400  1.0  0.1237
  H  H192  1  0.472600  0.859100  0.307400  1.0  0.1033
  H  H193  1  0.966400  0.135100  0.458000  1.0  0.1107
  H  H194  1  0.510400  0.747300  0.254000  1.0  0.0939
  H  H195  1  0.857700  0.401800  0.811200  1.0  0.1023
  H  H196  1  0.278000  0.444200  0.818000  1.0  0.1281
  H  H197  1  0.793600  0.664600  0.470400  1.0  0.1021
  H  H198  1  0.200200  0.287500  0.119800  1.0  0.115
  H  H199  1  0.686800  0.895100  0.461600  1.0  0.0957
  H  H200  1  0.686800  0.604900  0.961600  1.0  0.0956
  H  H201  1  0.027200  0.216500  0.026000  1.0  0.0949
  H  H202  1  0.712000  0.750500  0.680800  1.0  0.1267
  H  H203  1  0.024200  0.213600  0.107400  1.0  0.1298
  H  H204  1  0.871800  0.986800  0.869300  1.0  0.3225
  H  H205  1  0.744200  0.868900  0.330400  1.0  0.1114
  H  H206  1  0.428500  0.844400  0.443700  1.0  0.1135
  H  H207  1  0.926400  0.335900  0.819200  1.0  0.1118
  H  H208  1  0.710200  0.753000  0.763300  1.0  0.0771
  H  H209  1  0.817400  0.479800  0.928300  1.0  0.3078
  H  H210  1  0.381800  0.395400  0.480300  1.0  0.1156
  H  H211  1  0.522500  0.789100  0.100700  1.0  0.1348
  H  H212  1  0.992300  0.119400  0.828300  1.0  0.1004
  H  H213  1  0.693700  0.709500  0.108700  1.0  0.1133
  H  H214  1  0.348400  0.513100  0.918500  1.0  0.22
  H  H215  1  0.472800  0.966600  0.960200  1.0  0.119
  H  H216  1  0.362200  0.586300  0.935900  1.0  0.1192
  H  H217  1  0.992300  0.380600  0.328300  1.0  0.1008
  H  H218  1  0.446400  0.539800  0.316100  1.0  0.1326
  H  H219  1  0.495200  0.614600  0.317600  1.0  0.1064
  H  H220  1  0.766400  0.641400  0.328400  1.0  0.1137
  H  H221  1  0.200200  0.212500  0.619800  1.0  0.1152
  H  H222  1  0.889100  0.068300  0.448100  1.0  0.154
  H  H223  1  0.278000  0.055800  0.318000  1.0  0.1278
  H  H224  1  0.265300  0.145200  0.834800  1.0  0.1181
  C  C225  1  0.049900  0.937800  0.145800  1.0  -0.1364
  C  C226  1  0.889000  0.751500  0.377190  1.0  0.0926
  C  C227  1  0.343900  0.227100  0.457870  1.0  0.187
  C  C228  1  0.783500  0.695960  0.595960  1.0  0.6824
  C  C229  1  0.621800  0.075100  0.634600  1.0  -0.0449
  C  C230  1  0.049900  0.562200  0.645800  1.0  -0.1365
  C  C231  1  0.643000  0.611900  0.549100  1.0  -0.1261
  C  C232  1  0.213000  0.133000  0.141100  1.0  -0.0354
  C  C233  1  0.727000  0.840490  0.093700  1.0  -0.1322
  C  C234  1  0.330100  0.251200  0.804890  1.0  -0.2034
  C  C235  1  0.863600  0.712200  0.748100  1.0  0.1697
  C  C236  1  0.711000  0.541600  0.110100  1.0  0.1819
  C  C237  1  0.392000  0.249000  0.385920  1.0  0.0927
  C  C238  1  0.392000  0.251000  0.885920  1.0  0.0931
  C  C239  1  0.510300  0.098500  0.153200  1.0  -0.0493
  C  C240  1  0.992200  0.805300  0.607400  1.0  0.7236
  C  C241  1  0.835500  0.728200  0.948560  1.0  0.1362
  C  C242  1  0.912000  0.785000  0.750600  1.0  0.163
  C  C243  1  0.991200  0.876000  0.100900  1.0  -0.1438
  C  C244  1  0.260300  0.449300  0.064600  1.0  -0.1801
  C  C245  1  0.196600  0.353200  0.557000  1.0  -0.0318
  C  C246  1  0.166500  0.403300  0.637300  1.0  -0.1378
  C  C247  1  0.225400  0.065700  0.642500  1.0  -0.1311
  C  C248  1  0.078500  0.644400  0.153800  1.0  -0.1195
  C  C249  1  0.055300  0.628000  0.072500  1.0  -0.0615
  C  C250  1  0.668100  0.471000  0.145000  1.0  0.5513
  C  C251  1  0.524300  0.449600  0.568900  1.0  -0.1454
  C  C252  1  0.539100  0.054200  0.154300  1.0  -0.1261
  C  C253  1  0.779700  0.627600  0.103300  1.0  -0.1631
  C  C254  1  0.668100  0.029000  0.645000  1.0  0.5519
  C  C255  1  0.957400  0.828300  0.102200  1.0  0.7082
  C  C256  1  0.101500  0.912600  0.578500  1.0  -0.1615
  C  C257  1  0.583100  0.548000  0.584000  1.0  0.3292
  C  C258  1  0.615500  0.098200  0.590400  1.0  -0.1253
  C  C259  1  0.731500  0.567500  0.151400  1.0  -0.1486
  C  C260  1  0.448100  0.247600  0.261100  1.0  0.1674
  C  C261  1  0.390800  0.249100  0.332690  1.0  0.0732
  C  C262  1  0.691100  0.852400  0.051000  1.0  -0.0428
  C  C263  1  0.440100  0.228200  0.962200  1.0  0.1754
  C  C264  1  0.390800  0.250900  0.832690  1.0  0.0728
  C  C265  1  0.323500  0.173080  0.603520  1.0  0.6908
  C  C266  1  0.630700  0.586600  0.590500  1.0  0.0325
  C  C267  1  0.440100  0.271800  0.462200  1.0  0.1759
  C  C268  1  0.759200  0.601600  0.062900  1.0  -0.0605
  C  C269  1  0.442300  0.272700  0.413640  1.0  -0.2222
  C  C270  1  0.996400  0.600400  0.560400  1.0  -0.0817
  C  C271  1  0.510300  0.401500  0.653200  1.0  -0.0479
  C  C272  1  0.289400  0.125200  0.603600  1.0  -0.1362
  C  C273  1  0.052000  0.964500  0.104900  1.0  0.1624
  C  C274  1  0.230400  0.157600  0.100800  1.0  -0.1509
  C  C275  1  0.442300  0.227300  0.913640  1.0  -0.2229
  C  C276  1  0.341800  0.274100  0.909100  1.0  -0.1874
  C  C277  1  0.765600  0.610200  0.147400  1.0  -0.0082
  C  C278  1  0.817900  0.826860  0.598800  1.0  0.6934
  C  C279  1  0.052000  0.535500  0.604900  1.0  0.1627
  C  C280  1  0.227300  0.036700  0.602300  1.0  0.1752
  C  C281  1  0.524300  0.050400  0.068900  1.0  -0.1403
  C  C282  1  0.331800  0.252400  0.755720  1.0  0.1641
  C  C283  1  0.055300  0.872000  0.572500  1.0  -0.061
  C  C284  1  0.130800  0.922600  0.622700  1.0  0.0287
  C  C285  1  0.542900  0.344800  0.123700  1.0  -0.1424
  C  C286  1  0.290600  0.405100  0.065400  1.0  -0.0177
  C  C287  1  0.711000  0.958400  0.610100  1.0  0.1823
  C  C288  1  0.015600  0.896600  0.142800  1.0  -0.0561
  C  C289  1  0.889000  0.748500  0.877190  1.0  0.0928
  C  C290  1  0.765600  0.889800  0.647400  1.0  -0.0076
  C  C291  1  0.939600  0.770400  0.906200  1.0  -0.2062
  C  C292  1  0.589200  0.091500  0.672200  1.0  -0.0835
  C  C293  1  0.712100  0.863600  0.135400  1.0  -0.1042
  C  C294  1  0.542900  0.155200  0.623700  1.0  -0.1425
  C  C295  1  0.630700  0.913400  0.090500  1.0  0.033
  C  C296  1  0.148400  0.110400  0.052300  1.0  -0.0814
  C  C297  1  0.589200  0.408500  0.172200  1.0  -0.0857
  C  C298  1  0.171100  0.965900  0.631200  1.0  0.3044
  C  C299  1  0.134100  0.415600  0.592100  1.0  0.0286
  C  C300  1  0.323500  0.326920  0.103520  1.0  0.6876
  C  C301  1  0.664000  0.600400  0.632900  1.0  -0.1227
  C  C302  1  0.731500  0.932500  0.651400  1.0  -0.1484
  C  C303  1  0.043500  0.655600  0.110900  1.0  -0.1034
  C  C304  1  0.996400  0.899600  0.060400  1.0  -0.086
  C  C305  1  0.451100  0.248400  0.310300  1.0  -0.193
  C  C306  1  0.575900  0.138900  0.585800  1.0  -0.0172
  C  C307  1  0.260300  0.050700  0.564600  1.0  -0.1812
  C  C308  1  0.550800  0.130000  0.666300  1.0  -0.0362
  C  C309  1  0.817900  0.673140  0.098800  1.0  0.692
  C  C310  1  0.120200  0.605200  0.158300  1.0  -0.0592
  C  C311  1  0.575900  0.361100  0.085800  1.0  -0.0164
  C  C312  1  0.991200  0.624000  0.600900  1.0  -0.158
  C  C313  1  0.225400  0.434300  0.142500  1.0  -0.1319
  C  C314  1  0.148400  0.389600  0.552300  1.0  -0.0815
  C  C315  1  0.835900  0.727400  0.899040  1.0  -0.1475
  C  C316  1  0.621800  0.424900  0.134600  1.0  -0.0458
  C  C317  1  0.086500  0.455200  0.584400  1.0  0.1619
  C  C318  1  0.448100  0.252400  0.761100  1.0  0.1729
  C  C319  1  0.171100  0.534100  0.131200  1.0  0.2987
  C  C320  1  0.284400  0.194440  0.105260  1.0  0.6745
  C  C321  1  0.284400  0.305560  0.605260  1.0  0.6731
  C  C322  1  0.489100  0.379700  0.610600  1.0  -0.1235
  C  C323  1  0.496600  0.096200  0.068600  1.0  -0.0436
  C  C324  1  0.213000  0.367000  0.641100  1.0  -0.0351
  C  C325  1  0.130800  0.577400  0.122700  1.0  0.0289
  C  C326  1  0.257000  0.389300  0.142600  1.0  -0.0213
  C  C327  1  0.290600  0.094900  0.565400  1.0  -0.0189
  C  C328  1  0.451100  0.251600  0.810300  1.0  -0.1927
  C  C329  1  0.957400  0.671700  0.602200  1.0  0.7078
  C  C330  1  0.889100  0.749000  0.824120  1.0  0.1179
  C  C331  1  0.863600  0.787800  0.248100  1.0  0.1704
  C  C332  1  0.494300  0.303300  0.119500  1.0  0.725
  C  C333  1  0.939600  0.729600  0.406200  1.0  -0.2072
  C  C334  1  0.937000  0.731100  0.454600  1.0  0.1703
  C  C335  1  0.889100  0.751000  0.324120  1.0  0.1177
  C  C336  1  0.457600  0.331100  0.609600  1.0  0.7014
  C  C337  1  0.547200  0.030200  0.111600  1.0  0.171
  C  C338  1  0.043500  0.844400  0.610900  1.0  -0.103
  C  C339  1  0.783500  0.804040  0.095960  1.0  0.683
  C  C340  1  0.912000  0.715000  0.250600  1.0  0.1618
  C  C341  1  0.835900  0.772600  0.399040  1.0  -0.1468
  C  C342  1  0.913700  0.785900  0.800300  1.0  -0.1707
  C  C343  1  0.494300  0.196700  0.619500  1.0  0.7247
  C  C344  1  0.691100  0.647600  0.551000  1.0  -0.043
  C  C345  1  0.664000  0.899600  0.132900  1.0  -0.12
  C  C346  1  0.457600  0.168900  0.109600  1.0  0.7009
  C  C347  1  0.547200  0.469800  0.611600  1.0  0.1713
  C  C348  1  0.550800  0.370000  0.166300  1.0  -0.036
  C  C349  1  0.343900  0.272900  0.957870  1.0  0.1872
  C  C350  1  0.166500  0.096700  0.137300  1.0  -0.1392
  C  C351  1  0.257000  0.110700  0.642600  1.0  -0.0223
  C  C352  1  0.937000  0.768900  0.954600  1.0  0.171
  C  C353  1  0.913700  0.714100  0.300300  1.0  -0.1699
  C  C354  1  0.331800  0.247600  0.255720  1.0  0.1646
  C  C355  1  0.489100  0.120300  0.110600  1.0  -0.1238
  C  C356  1  0.759200  0.898400  0.562900  1.0  -0.0631
  C  C357  1  0.196600  0.146800  0.057000  1.0  -0.0347
  C  C358  1  0.723100  0.941300  0.567100  1.0  -0.1214
  C  C359  1  0.078500  0.855600  0.653800  1.0  -0.1188
  C  C360  1  0.330100  0.248800  0.304890  1.0  -0.203
  C  C361  1  0.015600  0.603400  0.642800  1.0  -0.0565
  C  C362  1  0.643000  0.888100  0.049100  1.0  -0.1244
  C  C363  1  0.992200  0.694700  0.107400  1.0  0.7213
  C  C364  1  0.615500  0.401800  0.090400  1.0  -0.1253
  C  C365  1  0.341800  0.225900  0.409100  1.0  -0.1884
  C  C366  1  0.583100  0.952000  0.084000  1.0  0.3289
  C  C367  1  0.025800  0.947000  0.061900  1.0  -0.1449
  C  C368  1  0.835500  0.771800  0.448560  1.0  0.1358
  C  C369  1  0.539100  0.445800  0.654300  1.0  -0.1237
  C  C370  1  0.727000  0.659510  0.593700  1.0  -0.1325
  C  C371  1  0.230400  0.342400  0.600800  1.0  -0.1507
  C  C372  1  0.086500  0.044800  0.084400  1.0  0.1615
  C  C373  1  0.496600  0.403800  0.568600  1.0  -0.0453
  C  C374  1  0.025800  0.553000  0.561900  1.0  -0.1447
  C  C375  1  0.134100  0.084400  0.092100  1.0  0.0281
  C  C376  1  0.227300  0.463300  0.102300  1.0  0.175
  C  C377  1  0.120200  0.894800  0.658300  1.0  -0.0592
  C  C378  1  0.712100  0.636400  0.635400  1.0  -0.1044
  C  C379  1  0.779700  0.872400  0.603300  1.0  -0.1628
  C  C380  1  0.101500  0.587400  0.078500  1.0  -0.1613
  C  C381  1  0.723100  0.558700  0.067100  1.0  -0.1213
  C  C382  1  0.862100  0.711100  0.796900  1.0  -0.2184
  C  C383  1  0.862100  0.788900  0.296900  1.0  -0.2205
  C  C384  1  0.289400  0.374800  0.103600  1.0  -0.1364
  C  C385  1  0.111000  0.251500  0.122810  1.0  0.0923
  C  C386  1  0.715600  0.805560  0.894740  1.0  0.6728
  C  C387  1  0.220300  0.127600  0.396700  1.0  -0.1633
  C  C388  1  0.739700  0.550700  0.935400  1.0  -0.1817
  C  C389  1  0.164500  0.228200  0.551440  1.0  0.1347
  C  C390  1  0.003600  0.100400  0.939600  1.0  -0.0851
  C  C391  1  0.669900  0.748800  0.195110  1.0  -0.2054
  C  C392  1  0.273000  0.340490  0.406300  1.0  -0.1325
  C  C393  1  0.457100  0.844800  0.376300  1.0  -0.1421
  C  C394  1  0.974200  0.053000  0.938100  1.0  -0.1459
  C  C395  1  0.357000  0.111900  0.950900  1.0  -0.1258
  C  C396  1  0.268500  0.432500  0.848600  1.0  -0.1448
  C  C397  1  0.710600  0.625200  0.896400  1.0  -0.1356
  C  C398  1  0.658200  0.774100  0.590900  1.0  -0.1894
  C  C399  1  0.003600  0.399600  0.439600  1.0  -0.0822
  C  C400  1  0.276900  0.441300  0.932900  1.0  -0.1207
  C  C401  1  0.656100  0.772900  0.542130  1.0  0.1875
  C  C402  1  0.739700  0.949300  0.435400  1.0  -0.1778
  C  C403  1  0.557700  0.727300  0.586360  1.0  -0.2224
  C  C404  1  0.042600  0.171700  0.897800  1.0  0.7069
  C  C405  1  0.769600  0.842400  0.899200  1.0  -0.1526
  C  C406  1  0.273000  0.159510  0.906300  1.0  -0.1326
  C  C407  1  0.656100  0.727100  0.042130  1.0  0.1856
  C  C408  1  0.503400  0.596200  0.431400  1.0  -0.0449
  C  C409  1  0.378200  0.924900  0.365400  1.0  -0.0465
  C  C410  1  0.803400  0.646800  0.443000  1.0  -0.0333
  C  C411  1  0.182100  0.173140  0.401200  1.0  0.6925
  C  C412  1  0.548900  0.748400  0.189700  1.0  -0.1938
  C  C413  1  0.475700  0.550400  0.431100  1.0  -0.1474
  C  C414  1  0.956500  0.344400  0.889100  1.0  -0.1023
  C  C415  1  0.137900  0.288900  0.203100  1.0  -0.2199
  C  C416  1  0.489700  0.598500  0.346800  1.0  -0.0498
  C  C417  1  0.460900  0.945800  0.845700  1.0  -0.1272
  C  C418  1  0.608000  0.751000  0.614080  1.0  0.0931
  C  C419  1  0.088000  0.215000  0.249400  1.0  0.1636
  C  C420  1  0.851600  0.889600  0.947700  1.0  -0.0846
  C  C421  1  0.164500  0.271800  0.051440  1.0  0.1357
  C  C422  1  0.063000  0.231100  0.045400  1.0  0.1721
  C  C423  1  0.008800  0.376000  0.399100  1.0  -0.1572
  C  C424  1  0.449200  0.870000  0.333700  1.0  -0.0378
  C  C425  1  0.865900  0.915600  0.907900  1.0  0.0275
  C  C426  1  0.110900  0.251000  0.175880  1.0  0.1188
  C  C427  1  0.137900  0.211100  0.703100  1.0  -0.2197
  C  C428  1  0.308900  0.147600  0.949000  1.0  -0.0413
  C  C429  1  0.879800  0.394800  0.841700  1.0  -0.0636
  C  C430  1  0.803400  0.853200  0.943000  1.0  -0.0336
  C  C431  1  0.984400  0.396600  0.357200  1.0  -0.0586
  C  C432  1  0.452800  0.530200  0.388400  1.0  0.1703
  C  C433  1  0.709400  0.594900  0.934600  1.0  -0.0172
  C  C434  1  0.869200  0.422600  0.877300  1.0  0.0294
  C  C435  1  0.220300  0.372400  0.896700  1.0  -0.1635
  C  C436  1  0.457100  0.655200  0.876300  1.0  -0.143
  C  C437  1  0.921500  0.355600  0.846200  1.0  -0.1198
  C  C438  1  0.559900  0.771800  0.037800  1.0  0.1756
  C  C439  1  0.424100  0.861100  0.414200  1.0  -0.0207
  C  C440  1  0.772700  0.536700  0.897700  1.0  0.1753
  C  C441  1  0.060400  0.270400  0.593800  1.0  -0.2059
  C  C442  1  0.336000  0.399600  0.367100  1.0  -0.1211
  C  C443  1  0.503400  0.903800  0.931400  1.0  -0.0429
  C  C444  1  0.240800  0.101600  0.437100  1.0  -0.064
  C  C445  1  0.913500  0.544800  0.415600  1.0  0.1633
  C  C446  1  0.164100  0.272600  0.100960  1.0  -0.1488
  C  C447  1  0.974200  0.447000  0.438100  1.0  -0.1455
  C  C448  1  0.676500  0.673080  0.896480  1.0  0.69
  C  C449  1  0.898500  0.087400  0.421500  1.0  -0.1617
  C  C450  1  0.289000  0.458400  0.889900  1.0  0.1829
  C  C451  1  0.609200  0.750900  0.667310  1.0  0.0738
  C  C452  1  0.007800  0.305300  0.892600  1.0  0.7225
  C  C453  1  0.769600  0.657600  0.399200  1.0  -0.1523
  C  C454  1  0.715600  0.694440  0.394740  1.0  0.6733
  C  C455  1  0.913500  0.955200  0.915600  1.0  0.1611
  C  C456  1  0.369300  0.086600  0.909500  1.0  0.0319
  C  C457  1  0.944700  0.372000  0.927500  1.0  -0.0597
  C  C458  1  0.743000  0.610700  0.857400  1.0  -0.0217
  C  C459  1  0.410800  0.591500  0.827800  1.0  -0.0833
  C  C460  1  0.088000  0.285000  0.749400  1.0  0.1634
  C  C461  1  0.542400  0.668900  0.390400  1.0  0.7016
  C  C462  1  0.289000  0.041600  0.389900  1.0  0.1824
  C  C463  1  0.898500  0.412600  0.921500  1.0  -0.1614
  C  C464  1  0.557700  0.772700  0.086360  1.0  -0.2217
  C  C465  1  0.772700  0.963300  0.397700  1.0  0.175
  C  C466  1  0.216500  0.195960  0.904040  1.0  0.6799
  C  C467  1  0.475700  0.949600  0.931100  1.0  -0.1416
  C  C468  1  0.384500  0.598200  0.909600  1.0  -0.1293
  C  C469  1  0.828900  0.034100  0.368800  1.0  0.3009
  C  C470  1  0.331900  0.529000  0.855000  1.0  0.5522
  C  C471  1  0.424100  0.638900  0.914200  1.0  -0.0216
  C  C472  1  0.384500  0.901800  0.409600  1.0  -0.1296
  C  C473  1  0.086300  0.285900  0.699700  1.0  -0.1709
  C  C474  1  0.416900  0.048000  0.916000  1.0  0.329
  C  C475  1  0.551900  0.747600  0.238900  1.0  0.1702
  C  C476  1  0.110900  0.249000  0.675880  1.0  0.1191
  C  C477  1  0.460900  0.554200  0.345700  1.0  -0.127
  C  C478  1  0.984400  0.103400  0.857200  1.0  -0.0585
  C  C479  1  0.234400  0.389800  0.852600  1.0  -0.0073
  C  C480  1  0.336000  0.100400  0.867100  1.0  -0.1196
  C  C481  1  0.452800  0.969800  0.888400  1.0  0.1708
  C  C482  1  0.111000  0.248500  0.622810  1.0  0.0927
  C  C483  1  0.944700  0.128000  0.427500  1.0  -0.06
  C  C484  1  0.234400  0.110200  0.352600  1.0  -0.0065
  C  C485  1  0.086300  0.214100  0.199700  1.0  -0.1703
  C  C486  1  0.008800  0.124000  0.899100  1.0  -0.1457
  C  C487  1  0.869200  0.077400  0.377300  1.0  0.0294
  C  C488  1  0.268500  0.067500  0.348600  1.0  -0.145
  C  C489  1  0.774600  0.934300  0.357500  1.0  -0.1305
  C  C490  1  0.851600  0.610400  0.447700  1.0  -0.0841
  C  C491  1  0.787000  0.867000  0.858900  1.0  -0.0359
  C  C492  1  0.287900  0.136400  0.864600  1.0  -0.1039
  C  C493  1  0.136400  0.212200  0.751900  1.0  0.1706
  C  C494  1  0.608000  0.749000  0.114080  1.0  0.0931
  C  C495  1  0.950100  0.062200  0.854200  1.0  -0.137
  C  C496  1  0.276900  0.058700  0.432900  1.0  -0.1206
  C  C497  1  0.164100  0.227400  0.600960  1.0  -0.1506
  C  C498  1  0.505700  0.803300  0.380500  1.0  0.7232
  C  C499  1  0.828900  0.465900  0.868800  1.0  0.2955
  C  C500  1  0.551900  0.752400  0.738900  1.0  0.1698
  C  C501  1  0.060400  0.229600  0.093800  1.0  -0.2063
  C  C502  1  0.416900  0.452000  0.416000  1.0  0.3285
  C  C503  1  0.709400  0.905100  0.434600  1.0  -0.0163
  C  C504  1  0.042600  0.328300  0.397800  1.0  0.7073
  C  C505  1  0.956500  0.155600  0.389100  1.0  -0.1032
  C  C506  1  0.774600  0.565700  0.857500  1.0  -0.13
  C  C507  1  0.505700  0.696700  0.880500  1.0  0.7247
  C  C508  1  0.948000  0.035500  0.895100  1.0  0.162
  C  C509  1  0.182100  0.326860  0.901200  1.0  0.6935
  C  C510  1  0.676500  0.826920  0.396480  1.0  0.6873
  C  C511  1  0.609200  0.749100  0.167310  1.0  0.0744
  C  C512  1  0.240800  0.398400  0.937100  1.0  -0.0603
  C  C513  1  0.743000  0.889300  0.357400  1.0  -0.0168
  C  C514  1  0.658200  0.725900  0.090900  1.0  -0.1909
  C  C515  1  0.833500  0.596700  0.362700  1.0  -0.136
  C  C516  1  0.542400  0.831100  0.890400  1.0  0.7015
  C  C517  1  0.510900  0.620300  0.389400  1.0  -0.1237
  C  C518  1  0.410800  0.908500  0.327800  1.0  -0.0868
  C  C519  1  0.948000  0.464500  0.395100  1.0  0.162
  C  C520  1  0.308900  0.352400  0.449000  1.0  -0.0442
  C  C521  1  0.063000  0.268900  0.545400  1.0  0.1714
  C  C522  1  0.668200  0.752400  0.744280  1.0  0.1653
  C  C523  1  0.833500  0.903300  0.862700  1.0  -0.1377
  C  C524  1  0.787000  0.633000  0.358900  1.0  -0.0345
  C  C525  1  0.510900  0.879700  0.889400  1.0  -0.1237
  C  C526  1  0.007800  0.194700  0.392600  1.0  0.7222
  C  C527  1  0.331900  0.971000  0.355000  1.0  0.5512
  C  C528  1  0.879800  0.105200  0.341700  1.0  -0.0637
  C  C529  1  0.710600  0.874800  0.396400  1.0  -0.1361
  C  C530  1  0.559900  0.728200  0.537800  1.0  0.1787
  C  C531  1  0.378200  0.575100  0.865400  1.0  -0.0457
  C  C532  1  0.668200  0.747600  0.244280  1.0  0.165
  C  C533  1  0.136400  0.287800  0.251900  1.0  0.1698
  C  C534  1  0.489700  0.901500  0.846800  1.0  -0.045
  C  C535  1  0.950100  0.437800  0.354200  1.0  -0.1378
  C  C536  1  0.449200  0.630000  0.833700  1.0  -0.0379
  C  C537  1  0.548900  0.751600  0.689700  1.0  -0.1941
  C  C538  1  0.921500  0.144400  0.346200  1.0  -0.1199
  C  C539  1  0.669900  0.751200  0.695110  1.0  -0.2057
  C  C540  1  0.287900  0.363600  0.364600  1.0  -0.1047
  C  C541  1  0.216500  0.304040  0.404040  1.0  0.6803
  C  C542  1  0.357000  0.388100  0.450900  1.0  -0.1251
  C  C543  1  0.865900  0.584400  0.407900  1.0  0.0272
  C  C544  1  0.369300  0.413400  0.409500  1.0  0.0324
  N  N545  1  0.672300  0.003700  0.608700  1.0  -0.3579
  N  N546  1  0.392300  0.249250  0.484840  1.0  -0.3099
  N  N547  1  0.584200  0.516500  0.613400  1.0  -0.2932
  N  N548  1  0.584200  0.983500  0.113400  1.0  -0.2934
  N  N549  1  0.094600  0.488100  0.608200  1.0  -0.3661
  N  N550  1  0.389600  0.252910  0.733620  1.0  -0.3246
  N  N551  1  0.094600  0.011900  0.108200  1.0  -0.367
  N  N552  1  0.191200  0.991000  0.600800  1.0  -0.3754
  N  N553  1  0.890300  0.748230  0.724820  1.0  -0.3018
  N  N554  1  0.392300  0.250750  0.984840  1.0  -0.3106
  N  N555  1  0.191200  0.509000  0.100800  1.0  -0.3761
  N  N556  1  0.886800  0.752000  0.475860  1.0  -0.3163
  N  N557  1  0.389600  0.247090  0.233620  1.0  -0.3232
  N  N558  1  0.672300  0.496300  0.108700  1.0  -0.3585
  N  N559  1  0.886800  0.748000  0.975860  1.0  -0.3159
  N  N560  1  0.890300  0.751770  0.224820  1.0  -0.3024
  N  N561  1  0.905400  0.511900  0.391800  1.0  -0.3677
  N  N562  1  0.808800  0.491000  0.899200  1.0  -0.3768
  N  N563  1  0.327700  0.503700  0.891300  1.0  -0.3585
  N  N564  1  0.415800  0.016500  0.886600  1.0  -0.2927
  N  N565  1  0.607700  0.750750  0.515160  1.0  -0.3138
  N  N566  1  0.905400  0.988100  0.891800  1.0  -0.3689
  N  N567  1  0.109700  0.251770  0.275180  1.0  -0.3031
  N  N568  1  0.808800  0.009000  0.399200  1.0  -0.3774
  N  N569  1  0.327700  0.996300  0.391300  1.0  -0.3595
  N  N570  1  0.113200  0.248000  0.524140  1.0  -0.3186
  N  N571  1  0.610400  0.747090  0.266380  1.0  -0.325
  N  N572  1  0.607700  0.749250  0.015160  1.0  -0.3134
  N  N573  1  0.109700  0.248230  0.775180  1.0  -0.3032
  N  N574  1  0.610400  0.752910  0.766380  1.0  -0.3217
  N  N575  1  0.415800  0.483500  0.386600  1.0  -0.2941
  N  N576  1  0.113200  0.252000  0.024140  1.0  -0.3194
  O  O577  1  0.191000  0.523500  0.181200  1.0  -0.5269
  O  O578  1  0.967400  0.706420  0.066890  1.0  -0.6195
  O  O579  1  0.036600  0.046600  0.049800  1.0  -0.5112
  O  O580  1  0.976800  0.787530  0.645520  1.0  -0.5863
  O  O581  1  0.693200  0.020900  0.685900  1.0  -0.4506
  O  O582  1  0.826900  0.688670  0.058100  1.0  -0.5765
  O  O583  1  0.305000  0.288540  0.567380  1.0  -0.5911
  O  O584  1  0.947200  0.688110  0.641930  1.0  -0.6008
  O  O585  1  0.470700  0.210640  0.656870  1.0  -0.5863
  O  O586  1  0.331300  0.304760  0.142990  1.0  -0.6044
  O  O587  1  0.826900  0.811330  0.558100  1.0  -0.5768
  O  O588  1  0.331300  0.195240  0.642990  1.0  -0.6037
  O  O589  1  0.478200  0.213160  0.578730  1.0  -0.6021
  O  O590  1  0.305000  0.211460  0.067380  1.0  -0.5909
  O  O591  1  0.941700  0.807860  0.063180  1.0  -0.6237
  O  O592  1  0.801600  0.710980  0.557020  1.0  -0.5741
  O  O593  1  0.340700  0.311640  0.064810  1.0  -0.5787
  O  O594  1  0.443200  0.187740  0.069500  1.0  -0.59
  O  O595  1  0.443200  0.312260  0.569500  1.0  -0.5906
  O  O596  1  0.529300  0.949400  0.047100  1.0  -0.5419
  O  O597  1  0.306800  0.294800  0.646560  1.0  -0.5763
  O  O598  1  0.967400  0.793580  0.566890  1.0  -0.6201
  O  O599  1  0.808400  0.791500  0.136240  1.0  -0.5857
  O  O600  1  0.036600  0.453400  0.549800  1.0  -0.5115
  O  O601  1  0.801600  0.789020  0.057020  1.0  -0.5739
  O  O602  1  0.340700  0.188360  0.564810  1.0  -0.5782
  O  O603  1  0.529300  0.550600  0.547100  1.0  -0.5408
  O  O604  1  0.838000  0.692990  0.137200  1.0  -0.5953
  O  O605  1  0.808400  0.708500  0.636240  1.0  -0.5853
  O  O606  1  0.191000  0.976500  0.681200  1.0  -0.5261
  O  O607  1  0.941700  0.692140  0.563180  1.0  -0.6234
  O  O608  1  0.478200  0.286840  0.078730  1.0  -0.6022
  O  O609  1  0.447500  0.312040  0.649340  1.0  -0.6083
  O  O610  1  0.306800  0.205200  0.146560  1.0  -0.5762
  O  O611  1  0.947200  0.811890  0.141930  1.0  -0.6011
  O  O612  1  0.693200  0.479100  0.185900  1.0  -0.4509
  O  O613  1  0.470700  0.289360  0.156870  1.0  -0.5857
  O  O614  1  0.838000  0.807010  0.637200  1.0  -0.5951
  O  O615  1  0.447500  0.187960  0.149340  1.0  -0.6078
  O  O616  1  0.976800  0.712470  0.145520  1.0  -0.587
  O  O617  1  0.023200  0.212470  0.354480  1.0  -0.5865
  O  O618  1  0.521800  0.786840  0.421270  1.0  -0.6037
  O  O619  1  0.529300  0.789360  0.343130  1.0  -0.5864
  O  O620  1  0.162000  0.307010  0.862800  1.0  -0.594
  O  O621  1  0.023200  0.287530  0.854480  1.0  -0.587
  O  O622  1  0.052800  0.188110  0.858070  1.0  -0.6027
  O  O623  1  0.173100  0.311330  0.941900  1.0  -0.5756
  O  O624  1  0.306800  0.979100  0.314100  1.0  -0.4505
  O  O625  1  0.668700  0.804760  0.357010  1.0  -0.6033
  O  O626  1  0.306800  0.520900  0.814100  1.0  -0.4502
  O  O627  1  0.963400  0.953400  0.950200  1.0  -0.5121
  O  O628  1  0.809000  0.476500  0.818800  1.0  -0.5309
  O  O629  1  0.556800  0.812260  0.930500  1.0  -0.5902
  O  O630  1  0.032600  0.293580  0.933110  1.0  -0.6188
  O  O631  1  0.695000  0.711460  0.432620  1.0  -0.5903
  O  O632  1  0.052800  0.311890  0.358070  1.0  -0.603
  O  O633  1  0.668700  0.695240  0.857010  1.0  -0.604
  O  O634  1  0.963400  0.546600  0.450200  1.0  -0.5123
  O  O635  1  0.173100  0.188670  0.441900  1.0  -0.5757
  O  O636  1  0.693200  0.705200  0.353440  1.0  -0.576
  O  O637  1  0.695000  0.788540  0.932620  1.0  -0.5902
  O  O638  1  0.552500  0.812040  0.850660  1.0  -0.6089
  O  O639  1  0.659300  0.811640  0.435190  1.0  -0.5784
  O  O640  1  0.552500  0.687960  0.350660  1.0  -0.6072
  O  O641  1  0.529300  0.710640  0.843130  1.0  -0.5869
  O  O642  1  0.556800  0.687740  0.430500  1.0  -0.5896
  O  O643  1  0.162000  0.192990  0.362800  1.0  -0.5949
  O  O644  1  0.521800  0.713160  0.921270  1.0  -0.6039
  O  O645  1  0.058300  0.192140  0.936820  1.0  -0.6229
  O  O646  1  0.693200  0.794800  0.853440  1.0  -0.5763
  O  O647  1  0.191600  0.208500  0.863760  1.0  -0.5864
  O  O648  1  0.032600  0.206420  0.433110  1.0  -0.6181
  O  O649  1  0.058300  0.307860  0.436820  1.0  -0.6229
  O  O650  1  0.198400  0.289020  0.442980  1.0  -0.5737
  O  O651  1  0.470700  0.449400  0.452900  1.0  -0.5437
  O  O652  1  0.191600  0.291500  0.363760  1.0  -0.5855
  O  O653  1  0.659300  0.688360  0.935190  1.0  -0.5782
  O  O654  1  0.470700  0.050600  0.952900  1.0  -0.5433
  O  O655  1  0.809000  0.023500  0.318800  1.0  -0.5293
  O  O656  1  0.198400  0.210980  0.942980  1.0  -0.5737
