# generated using pymatgen
data_KTb(CO2)4
_symmetry_space_group_name_H-M   'P 1'
_cell_length_a   8.91510000
_cell_length_b   9.31480000
_cell_length_c   9.31480000
_cell_angle_alpha   76.76160000
_cell_angle_beta   61.40970000
_cell_angle_gamma   61.40980000
_symmetry_Int_Tables_number   1
_chemical_formula_structural   KTb(CO2)4
_chemical_formula_sum   'K2 Tb2 C8 O16'
_cell_volume   596.38408918
_cell_formula_units_Z   2
loop_
 _symmetry_equiv_pos_site_id
 _symmetry_equiv_pos_as_xyz
  1  'x, y, z'
loop_
 _atom_site_type_symbol
 _atom_site_label
 _atom_site_symmetry_multiplicity
 _atom_site_fract_x
 _atom_site_fract_y
 _atom_site_fract_z
 _atom_site_occupancy
 _atom_site_charge
  K  K1  1  0.375000  0.250000  0.250000  1.0  0.9738
  K  K2  1  0.625000  0.750000  0.750000  1.0  0.9811
  Tb  Tb3  1  0.875000  0.250000  0.250000  1.0  2.1371
  Tb  Tb4  1  0.125000  0.750000  0.750000  1.0  2.1378
  C  C5  1  0.443100  0.472000  0.481400  1.0  0.5044
  C  C6  1  0.896500  0.028000  0.018600  1.0  0.5065
  C  C7  1  0.924500  0.518600  0.972000  1.0  0.505
  C  C8  1  0.915100  0.981400  0.528000  1.0  0.5061
  C  C9  1  0.556900  0.528000  0.518600  1.0  0.5056
  C  C10  1  0.103500  0.972000  0.981400  1.0  0.5064
  C  C11  1  0.075500  0.481400  0.028000  1.0  0.5055
  C  C12  1  0.084900  0.018600  0.472000  1.0  0.5066
  O  O13  1  0.536700  0.359300  0.378700  1.0  -0.659
  O  O14  1  0.824400  0.441300  0.043100  1.0  -0.6237
  O  O15  1  0.774700  0.140700  0.121300  1.0  -0.6589
  O  O16  1  0.808800  0.058700  0.456900  1.0  -0.6259
  O  O17  1  0.915400  0.621300  0.859300  1.0  -0.661
  O  O18  1  0.867500  0.956900  0.941300  1.0  -0.6257
  O  O19  1  0.896000  0.878700  0.640700  1.0  -0.6603
  O  O20  1  0.265700  0.543100  0.558700  1.0  -0.6233
  O  O21  1  0.463300  0.640700  0.621300  1.0  -0.6586
  O  O22  1  0.175600  0.558700  0.956900  1.0  -0.6238
  O  O23  1  0.225300  0.859300  0.878700  1.0  -0.6588
  O  O24  1  0.191200  0.941300  0.543100  1.0  -0.6261
  O  O25  1  0.084600  0.378700  0.140700  1.0  -0.662
  O  O26  1  0.132500  0.043100  0.058700  1.0  -0.6253
  O  O27  1  0.104000  0.121300  0.359300  1.0  -0.6595
  O  O28  1  0.734300  0.456900  0.441300  1.0  -0.6241
