# generated using pymatgen
data_Tb(C2O)8
_symmetry_space_group_name_H-M   'P 1'
_cell_length_a   17.16250000
_cell_length_b   15.83560000
_cell_length_c   15.67120000
_cell_angle_alpha   90.00000000
_cell_angle_beta   90.00000000
_cell_angle_gamma   90.00000000
_symmetry_Int_Tables_number   1
_chemical_formula_structural   Tb(C2O)8
_chemical_formula_sum   'Tb8 C128 O64'
_cell_volume   4259.09499413
_cell_formula_units_Z   8
loop_
 _symmetry_equiv_pos_site_id
 _symmetry_equiv_pos_as_xyz
  1  'x, y, z'
loop_
 _atom_site_type_symbol
 _atom_site_label
 _atom_site_symmetry_multiplicity
 _atom_site_fract_x
 _atom_site_fract_y
 _atom_site_fract_z
 _atom_site_occupancy
 _atom_site_charge
  Tb  Tb1  1  0.596140  0.953910  0.957060  1.0  2.2122
  Tb  Tb2  1  0.903860  0.546090  0.957060  1.0  2.2128
  Tb  Tb3  1  0.403860  0.453910  0.542940  1.0  2.2131
  Tb  Tb4  1  0.096140  0.046090  0.542940  1.0  2.2127
  Tb  Tb5  1  0.403860  0.046090  0.042940  1.0  2.2131
  Tb  Tb6  1  0.096140  0.453910  0.042940  1.0  2.2124
  Tb  Tb7  1  0.596140  0.546090  0.457060  1.0  2.2125
  Tb  Tb8  1  0.903860  0.953910  0.457060  1.0  2.2127
  C  C9  1  0.745700  0.933600  0.894100  1.0  0.6397
  C  C10  1  0.828800  0.927800  0.862900  1.0  -0.0154
  C  C11  1  0.886400  0.894100  0.917500  1.0  0.056
  C  C12  1  0.847800  0.952600  0.781400  1.0  0.0476
  C  C13  1  0.963200  0.890200  0.889400  1.0  -0.1133
  C  C14  1  0.923800  0.950100  0.754500  1.0  -0.0478
  C  C15  1  0.024500  0.849600  0.945700  1.0  -0.0597
  C  C16  1  0.982500  0.919800  0.809900  1.0  0.0386
  C  C17  1  0.949500  0.973700  0.665400  1.0  0.7329
  C  C18  1  0.088300  0.897900  0.972000  1.0  0.0272
  C  C19  1  0.021800  0.765400  0.964000  1.0  -0.0349
  C  C20  1  0.146700  0.860600  0.020600  1.0  0.0926
  C  C21  1  0.084000  0.725500  0.009200  1.0  -0.0675
  C  C22  1  0.950300  0.711800  0.944300  1.0  0.697
  C  C23  1  0.143500  0.774900  0.037400  1.0  0.0735
  C  C24  1  0.088500  0.632500  0.023600  1.0  0.6765
  C  C25  1  0.754300  0.566400  0.894100  1.0  0.6419
  C  C26  1  0.671200  0.572200  0.862900  1.0  -0.0163
  C  C27  1  0.613600  0.605900  0.917500  1.0  0.0569
  C  C28  1  0.652200  0.547400  0.781400  1.0  0.0447
  C  C29  1  0.536800  0.609800  0.889400  1.0  -0.1125
  C  C30  1  0.576200  0.549900  0.754500  1.0  -0.0473
  C  C31  1  0.475500  0.650400  0.945700  1.0  -0.0615
  C  C32  1  0.517500  0.580200  0.809900  1.0  0.0395
  C  C33  1  0.550500  0.526300  0.665400  1.0  0.7341
  C  C34  1  0.411700  0.602100  0.972000  1.0  0.0284
  C  C35  1  0.478200  0.734600  0.964000  1.0  -0.0347
  C  C36  1  0.353300  0.639400  0.020600  1.0  0.0935
  C  C37  1  0.416000  0.774500  0.009200  1.0  -0.0683
  C  C38  1  0.549700  0.788200  0.944300  1.0  0.6966
  C  C39  1  0.356500  0.725100  0.037400  1.0  0.0752
  C  C40  1  0.411500  0.867500  0.023600  1.0  0.675
  C  C41  1  0.254300  0.433600  0.605900  1.0  0.6409
  C  C42  1  0.171200  0.427800  0.637100  1.0  -0.0162
  C  C43  1  0.113600  0.394100  0.582500  1.0  0.0574
  C  C44  1  0.152200  0.452600  0.718600  1.0  0.0471
  C  C45  1  0.036800  0.390200  0.610600  1.0  -0.113
  C  C46  1  0.076200  0.450100  0.745500  1.0  -0.0473
  C  C47  1  0.975500  0.349600  0.554300  1.0  -0.0605
  C  C48  1  0.017500  0.419800  0.690100  1.0  0.0392
  C  C49  1  0.050500  0.473700  0.834600  1.0  0.7337
  C  C50  1  0.911700  0.397900  0.528000  1.0  0.0261
  C  C51  1  0.978200  0.265400  0.536000  1.0  -0.0344
  C  C52  1  0.853300  0.360600  0.479400  1.0  0.0952
  C  C53  1  0.916000  0.225500  0.490800  1.0  -0.0675
  C  C54  1  0.049700  0.211800  0.555700  1.0  0.6972
  C  C55  1  0.856500  0.274900  0.462600  1.0  0.0768
  C  C56  1  0.911500  0.132500  0.476400  1.0  0.676
  C  C57  1  0.245700  0.066400  0.605900  1.0  0.6396
  C  C58  1  0.328800  0.072200  0.637100  1.0  -0.0153
  C  C59  1  0.386400  0.105900  0.582500  1.0  0.0588
  C  C60  1  0.347800  0.047400  0.718600  1.0  0.0491
  C  C61  1  0.463200  0.109800  0.610600  1.0  -0.114
  C  C62  1  0.423800  0.049900  0.745500  1.0  -0.0476
  C  C63  1  0.524500  0.150400  0.554300  1.0  -0.0613
  C  C64  1  0.482500  0.080200  0.690100  1.0  0.0384
  C  C65  1  0.449500  0.026300  0.834600  1.0  0.7333
  C  C66  1  0.588300  0.102100  0.528000  1.0  0.0286
  C  C67  1  0.521800  0.234600  0.536000  1.0  -0.0352
  C  C68  1  0.646700  0.139400  0.479400  1.0  0.0942
  C  C69  1  0.584000  0.274500  0.490800  1.0  -0.0665
  C  C70  1  0.450300  0.288200  0.555700  1.0  0.6962
  C  C71  1  0.643500  0.225100  0.462600  1.0  0.0754
  C  C72  1  0.588500  0.367500  0.476400  1.0  0.6778
  C  C73  1  0.254300  0.066400  0.105900  1.0  0.6413
  C  C74  1  0.171200  0.072200  0.137100  1.0  -0.0162
  C  C75  1  0.113600  0.105900  0.082500  1.0  0.058
  C  C76  1  0.152200  0.047400  0.218600  1.0  0.0473
  C  C77  1  0.036800  0.109800  0.110600  1.0  -0.1129
  C  C78  1  0.076200  0.049900  0.245500  1.0  -0.0472
  C  C79  1  0.975500  0.150400  0.054300  1.0  -0.0619
  C  C80  1  0.017500  0.080200  0.190100  1.0  0.0396
  C  C81  1  0.050500  0.026300  0.334600  1.0  0.7336
  C  C82  1  0.911700  0.102100  0.028000  1.0  0.0281
  C  C83  1  0.978200  0.234600  0.036000  1.0  -0.0347
  C  C84  1  0.853300  0.139400  0.979400  1.0  0.0944
  C  C85  1  0.916000  0.274500  0.990800  1.0  -0.0669
  C  C86  1  0.049700  0.288200  0.055700  1.0  0.6969
  C  C87  1  0.856500  0.225100  0.962600  1.0  0.0776
  C  C88  1  0.911500  0.367500  0.976400  1.0  0.6747
  C  C89  1  0.245700  0.433600  0.105900  1.0  0.6392
  C  C90  1  0.328800  0.427800  0.137100  1.0  -0.0153
  C  C91  1  0.386400  0.394100  0.082500  1.0  0.0578
  C  C92  1  0.347800  0.452600  0.218600  1.0  0.0496
  C  C93  1  0.463200  0.390200  0.110600  1.0  -0.1137
  C  C94  1  0.423800  0.450100  0.245500  1.0  -0.0479
  C  C95  1  0.524500  0.349600  0.054300  1.0  -0.0597
  C  C96  1  0.482500  0.419800  0.190100  1.0  0.0387
  C  C97  1  0.449500  0.473700  0.334600  1.0  0.7332
  C  C98  1  0.588300  0.397900  0.028000  1.0  0.0266
  C  C99  1  0.521800  0.265400  0.036000  1.0  -0.0349
  C  C100  1  0.646700  0.360600  0.979400  1.0  0.0943
  C  C101  1  0.584000  0.225500  0.990800  1.0  -0.067
  C  C102  1  0.450300  0.211800  0.055700  1.0  0.6968
  C  C103  1  0.643500  0.274900  0.962600  1.0  0.0747
  C  C104  1  0.588500  0.132500  0.976400  1.0  0.6765
  C  C105  1  0.745700  0.566400  0.394100  1.0  0.64
  C  C106  1  0.828800  0.572200  0.362900  1.0  -0.0154
  C  C107  1  0.886400  0.605900  0.417500  1.0  0.0568
  C  C108  1  0.847800  0.547400  0.281400  1.0  0.047
  C  C109  1  0.963200  0.609800  0.389400  1.0  -0.1137
  C  C110  1  0.923800  0.549900  0.254500  1.0  -0.0478
  C  C111  1  0.024500  0.650400  0.445700  1.0  -0.0609
  C  C112  1  0.982500  0.580200  0.309900  1.0  0.0384
  C  C113  1  0.949500  0.526300  0.165400  1.0  0.733
  C  C114  1  0.088300  0.602100  0.472000  1.0  0.0292
  C  C115  1  0.021800  0.734600  0.464000  1.0  -0.0352
  C  C116  1  0.146700  0.639400  0.520600  1.0  0.0933
  C  C117  1  0.084000  0.774500  0.509200  1.0  -0.0677
  C  C118  1  0.950300  0.788200  0.444300  1.0  0.6961
  C  C119  1  0.143500  0.725100  0.537400  1.0  0.0736
  C  C120  1  0.088500  0.867500  0.523600  1.0  0.678
  C  C121  1  0.754300  0.933600  0.394100  1.0  0.6416
  C  C122  1  0.671200  0.927800  0.362900  1.0  -0.0163
  C  C123  1  0.613600  0.894100  0.417500  1.0  0.0564
  C  C124  1  0.652200  0.952600  0.281400  1.0  0.0445
  C  C125  1  0.536800  0.890200  0.389400  1.0  -0.1126
  C  C126  1  0.576200  0.950100  0.254500  1.0  -0.0475
  C  C127  1  0.475500  0.849600  0.445700  1.0  -0.0604
  C  C128  1  0.517500  0.919800  0.309900  1.0  0.0392
  C  C129  1  0.550500  0.973700  0.165400  1.0  0.734
  C  C130  1  0.411700  0.897900  0.472000  1.0  0.0265
  C  C131  1  0.478200  0.765400  0.464000  1.0  -0.0345
  C  C132  1  0.353300  0.860600  0.520600  1.0  0.0937
  C  C133  1  0.416000  0.725500  0.509200  1.0  -0.0681
  C  C134  1  0.549700  0.711800  0.444300  1.0  0.6972
  C  C135  1  0.356500  0.774900  0.537400  1.0  0.075
  C  C136  1  0.411500  0.632500  0.523600  1.0  0.6763
  O  O137  1  0.647400  0.098800  0.948100  1.0  -0.576
  O  O138  1  0.529600  0.086100  0.998200  1.0  -0.7197
  O  O139  1  0.597700  0.798800  0.002400  1.0  -0.5817
  O  O140  1  0.552400  0.822100  0.874900  1.0  -0.54
  O  O141  1  0.733100  0.930000  0.973300  1.0  -0.6056
  O  O142  1  0.691400  0.946000  0.841700  1.0  -0.5882
  O  O143  1  0.601700  0.965700  0.109300  1.0  -0.6649
  O  O144  1  0.017300  0.000400  0.655700  1.0  -0.6851
  O  O145  1  0.852600  0.401200  0.948100  1.0  -0.5772
  O  O146  1  0.970400  0.413900  0.998200  1.0  -0.7188
  O  O147  1  0.902300  0.701200  0.002400  1.0  -0.5781
  O  O148  1  0.947600  0.677900  0.874900  1.0  -0.5403
  O  O149  1  0.766900  0.570000  0.973300  1.0  -0.6059
  O  O150  1  0.808600  0.554000  0.841700  1.0  -0.5884
  O  O151  1  0.898300  0.534300  0.109300  1.0  -0.6651
  O  O152  1  0.482700  0.499600  0.655700  1.0  -0.6871
  O  O153  1  0.352600  0.598800  0.551900  1.0  -0.5765
  O  O154  1  0.470400  0.586100  0.501800  1.0  -0.7187
  O  O155  1  0.402300  0.298800  0.497600  1.0  -0.5781
  O  O156  1  0.447600  0.322100  0.625100  1.0  -0.5406
  O  O157  1  0.266900  0.430000  0.526700  1.0  -0.606
  O  O158  1  0.308600  0.446000  0.658300  1.0  -0.5901
  O  O159  1  0.398300  0.465700  0.390700  1.0  -0.6659
  O  O160  1  0.982700  0.500400  0.844300  1.0  -0.6858
  O  O161  1  0.147400  0.901200  0.551900  1.0  -0.5763
  O  O162  1  0.029600  0.913900  0.501800  1.0  -0.7184
  O  O163  1  0.097700  0.201200  0.497600  1.0  -0.5771
  O  O164  1  0.052400  0.177900  0.625100  1.0  -0.5403
  O  O165  1  0.233100  0.070000  0.526700  1.0  -0.6057
  O  O166  1  0.191400  0.054000  0.658300  1.0  -0.5891
  O  O167  1  0.101700  0.034300  0.390700  1.0  -0.6658
  O  O168  1  0.517300  0.999600  0.844300  1.0  -0.6849
  O  O169  1  0.352600  0.901200  0.051900  1.0  -0.5759
  O  O170  1  0.470400  0.913900  0.001800  1.0  -0.7182
  O  O171  1  0.402300  0.201200  0.997600  1.0  -0.5781
  O  O172  1  0.447600  0.177900  0.125100  1.0  -0.5406
  O  O173  1  0.266900  0.070000  0.026700  1.0  -0.6058
  O  O174  1  0.308600  0.054000  0.158300  1.0  -0.5905
  O  O175  1  0.398300  0.034300  0.890700  1.0  -0.6658
  O  O176  1  0.982700  0.999600  0.344300  1.0  -0.6864
  O  O177  1  0.147400  0.598800  0.051900  1.0  -0.576
  O  O178  1  0.029600  0.586100  0.001800  1.0  -0.719
  O  O179  1  0.097700  0.298800  0.997600  1.0  -0.5787
  O  O180  1  0.052400  0.322100  0.125100  1.0  -0.5401
  O  O181  1  0.233100  0.430000  0.026700  1.0  -0.6056
  O  O182  1  0.191400  0.446000  0.158300  1.0  -0.5896
  O  O183  1  0.101700  0.465700  0.890700  1.0  -0.6662
  O  O184  1  0.517300  0.500400  0.344300  1.0  -0.6844
  O  O185  1  0.647400  0.401200  0.448100  1.0  -0.5771
  O  O186  1  0.529600  0.413900  0.498200  1.0  -0.7191
  O  O187  1  0.597700  0.701200  0.502400  1.0  -0.5804
  O  O188  1  0.552400  0.677900  0.374900  1.0  -0.5407
  O  O189  1  0.733100  0.570000  0.473300  1.0  -0.6057
  O  O190  1  0.691400  0.554000  0.341700  1.0  -0.588
  O  O191  1  0.601700  0.534300  0.609300  1.0  -0.6647
  O  O192  1  0.017300  0.499600  0.155700  1.0  -0.6857
  O  O193  1  0.852600  0.098800  0.448100  1.0  -0.577
  O  O194  1  0.970400  0.086100  0.498200  1.0  -0.7195
  O  O195  1  0.902300  0.798800  0.502400  1.0  -0.5779
  O  O196  1  0.947600  0.822100  0.374900  1.0  -0.5397
  O  O197  1  0.766900  0.930000  0.473300  1.0  -0.6058
  O  O198  1  0.808600  0.946000  0.341700  1.0  -0.5878
  O  O199  1  0.898300  0.965700  0.609300  1.0  -0.6653
  O  O200  1  0.482700  0.000400  0.155700  1.0  -0.6863
