# generated using pymatgen
data_MgAl3(PO4)4
_symmetry_space_group_name_H-M   'P 1'
_cell_length_a   12.38900000
_cell_length_b   14.92300000
_cell_length_c   9.38600000
_cell_angle_alpha   90.00000000
_cell_angle_beta   98.69900000
_cell_angle_gamma   90.00000000
_symmetry_Int_Tables_number   1
_chemical_formula_structural   MgAl3(PO4)4
_chemical_formula_sum   'Mg4 Al12 P16 O64'
_cell_volume   1715.33160454
_cell_formula_units_Z   4
loop_
 _symmetry_equiv_pos_site_id
 _symmetry_equiv_pos_as_xyz
  1  'x, y, z'
loop_
 _atom_site_type_symbol
 _atom_site_label
 _atom_site_symmetry_multiplicity
 _atom_site_fract_x
 _atom_site_fract_y
 _atom_site_fract_z
 _atom_site_occupancy
 _atom_site_charge
  Mg  Mg1  1  0.323300  0.984710  0.841400  1.0  1.6221
  Mg  Mg2  1  0.676700  0.484710  0.658600  1.0  1.6235
  Mg  Mg3  1  0.676700  0.015290  0.158600  1.0  1.6235
  Mg  Mg4  1  0.323300  0.515290  0.341400  1.0  1.6221
  Al  Al5  1  0.273760  0.168990  0.203500  1.0  1.9948
  Al  Al6  1  0.056540  0.669570  0.560400  1.0  1.9582
  Al  Al7  1  0.354960  0.811600  0.373800  1.0  1.9859
  Al  Al8  1  0.726240  0.668990  0.296500  1.0  1.9942
  Al  Al9  1  0.943460  0.169570  0.939600  1.0  1.9573
  Al  Al10  1  0.645040  0.311600  0.126200  1.0  1.9833
  Al  Al11  1  0.726240  0.831010  0.796500  1.0  1.9941
  Al  Al12  1  0.943460  0.330430  0.439600  1.0  1.9577
  Al  Al13  1  0.645040  0.188400  0.626200  1.0  1.9807
  Al  Al14  1  0.273760  0.331010  0.703500  1.0  1.9946
  Al  Al15  1  0.056540  0.830430  0.060400  1.0  1.9582
  Al  Al16  1  0.354960  0.688400  0.873800  1.0  1.9863
  P  P17  1  0.193030  0.173200  0.876700  1.0  1.8774
  P  P18  1  0.156050  0.815530  0.787200  1.0  1.8982
  P  P19  1  0.529990  0.176000  0.296500  1.0  2.0497
  P  P20  1  0.245920  0.964900  0.172200  1.0  1.8221
  P  P21  1  0.806970  0.673200  0.623300  1.0  1.8796
  P  P22  1  0.843950  0.315530  0.712800  1.0  1.896
  P  P23  1  0.470010  0.676000  0.203500  1.0  2.0498
  P  P24  1  0.754080  0.464900  0.327800  1.0  1.8224
  P  P25  1  0.806970  0.826800  0.123300  1.0  1.8771
  P  P26  1  0.843950  0.184470  0.212800  1.0  1.8889
  P  P27  1  0.470010  0.824000  0.703500  1.0  2.04
  P  P28  1  0.754080  0.035100  0.827800  1.0  1.8263
  P  P29  1  0.193030  0.326800  0.376700  1.0  1.8778
  P  P30  1  0.156050  0.684470  0.287200  1.0  1.8881
  P  P31  1  0.529990  0.324000  0.796500  1.0  2.0385
  P  P32  1  0.245920  0.535100  0.672200  1.0  1.826
  O  O33  1  0.223900  0.060800  0.224100  1.0  -0.9718
  O  O34  1  0.060600  0.822600  0.876100  1.0  -0.8835
  O  O35  1  0.112600  0.766000  0.647300  1.0  -1.0444
  O  O36  1  0.268100  0.192800  0.020200  1.0  -0.97
  O  O37  1  0.311300  0.962900  0.050300  1.0  -0.8548
  O  O38  1  0.193000  0.908000  0.749500  1.0  -0.74
  O  O39  1  0.407400  0.176600  0.291400  1.0  -1.0446
  O  O40  1  0.244600  0.761300  0.878700  1.0  -1.051
  O  O41  1  0.560900  0.269300  0.243200  1.0  -0.9508
  O  O42  1  0.190000  0.259400  0.784100  1.0  -0.9479
  O  O43  1  0.076100  0.156300  0.909100  1.0  -1.0587
  O  O44  1  0.302900  0.915200  0.305700  1.0  -1.0332
  O  O45  1  0.129500  0.923200  0.133800  1.0  -1.0263
  O  O46  1  0.230600  0.094100  0.797600  1.0  -0.8013
  O  O47  1  0.580600  0.168400  0.454100  1.0  -0.9917
  O  O48  1  0.568200  0.102200  0.207600  1.0  -0.8314
  O  O49  1  0.776100  0.560800  0.275900  1.0  -0.97
  O  O50  1  0.939400  0.322600  0.623900  1.0  -0.8837
  O  O51  1  0.887400  0.266000  0.852700  1.0  -1.0423
  O  O52  1  0.731900  0.692800  0.479800  1.0  -0.9693
  O  O53  1  0.688700  0.462900  0.449700  1.0  -0.854
  O  O54  1  0.807000  0.408000  0.750500  1.0  -0.7383
  O  O55  1  0.592600  0.676600  0.208600  1.0  -1.0444
  O  O56  1  0.755400  0.261300  0.621300  1.0  -1.0521
  O  O57  1  0.439100  0.769300  0.256800  1.0  -0.9494
  O  O58  1  0.810000  0.759400  0.715900  1.0  -0.9457
  O  O59  1  0.923900  0.656300  0.590900  1.0  -1.0596
  O  O60  1  0.697100  0.415200  0.194300  1.0  -1.0342
  O  O61  1  0.870500  0.423200  0.366200  1.0  -1.0249
  O  O62  1  0.769400  0.594100  0.702400  1.0  -0.8029
  O  O63  1  0.419400  0.668400  0.045900  1.0  -0.9932
  O  O64  1  0.431800  0.602200  0.292400  1.0  -0.8308
  O  O65  1  0.776100  0.939200  0.775900  1.0  -0.9706
  O  O66  1  0.939400  0.177400  0.123900  1.0  -0.8838
  O  O67  1  0.887400  0.234000  0.352700  1.0  -1.0418
  O  O68  1  0.731900  0.807200  0.979800  1.0  -0.9684
  O  O69  1  0.688700  0.037100  0.949700  1.0  -0.8542
  O  O70  1  0.807000  0.092000  0.250500  1.0  -0.739
  O  O71  1  0.592600  0.823400  0.708600  1.0  -1.0426
  O  O72  1  0.755400  0.238700  0.121300  1.0  -1.05
  O  O73  1  0.439100  0.730700  0.756800  1.0  -0.948
  O  O74  1  0.810000  0.740600  0.215900  1.0  -0.9497
  O  O75  1  0.923900  0.843700  0.090900  1.0  -1.06
  O  O76  1  0.697100  0.084800  0.694300  1.0  -1.034
  O  O77  1  0.870500  0.076800  0.866200  1.0  -1.0251
  O  O78  1  0.769400  0.905900  0.202400  1.0  -0.8027
  O  O79  1  0.419400  0.831600  0.545900  1.0  -0.9935
  O  O80  1  0.431800  0.897800  0.792400  1.0  -0.8339
  O  O81  1  0.223900  0.439200  0.724100  1.0  -0.9719
  O  O82  1  0.060600  0.677400  0.376100  1.0  -0.8836
  O  O83  1  0.112600  0.734000  0.147300  1.0  -1.0442
  O  O84  1  0.268100  0.307200  0.520200  1.0  -0.969
  O  O85  1  0.311300  0.537100  0.550300  1.0  -0.8547
  O  O86  1  0.193000  0.592000  0.249500  1.0  -0.7399
  O  O87  1  0.407400  0.323400  0.791400  1.0  -1.0436
  O  O88  1  0.244600  0.738700  0.378700  1.0  -1.0509
  O  O89  1  0.560900  0.230700  0.743200  1.0  -0.9488
  O  O90  1  0.190000  0.240600  0.284100  1.0  -0.9503
  O  O91  1  0.076100  0.343700  0.409100  1.0  -1.059
  O  O92  1  0.302900  0.584800  0.805700  1.0  -1.0326
  O  O93  1  0.129500  0.576800  0.633800  1.0  -1.0259
  O  O94  1  0.230600  0.405900  0.297600  1.0  -0.8011
  O  O95  1  0.580600  0.331600  0.954100  1.0  -0.9927
  O  O96  1  0.568200  0.397800  0.707600  1.0  -0.8331
