# generated using pymatgen
data_PrHC12N5O6
_symmetry_space_group_name_H-M   'P 1'
_cell_length_a   7.63910000
_cell_length_b   21.12700000
_cell_length_c   19.57800000
_cell_angle_alpha   90.00000000
_cell_angle_beta   98.30600000
_cell_angle_gamma   90.00000000
_symmetry_Int_Tables_number   1
_chemical_formula_structural   PrHC12N5O6
_chemical_formula_sum   'Pr8 H8 C96 N40 O48'
_cell_volume   3126.57486253
_cell_formula_units_Z   8
loop_
 _symmetry_equiv_pos_site_id
 _symmetry_equiv_pos_as_xyz
  1  'x, y, z'
loop_
 _atom_site_type_symbol
 _atom_site_label
 _atom_site_symmetry_multiplicity
 _atom_site_fract_x
 _atom_site_fract_y
 _atom_site_fract_z
 _atom_site_occupancy
 _atom_site_charge
  Pr  Pr1  1  0.989200  0.276630  0.255260  1.0  2.2502
  Pr  Pr2  1  0.489200  0.776630  0.255260  1.0  2.2502
  Pr  Pr3  1  0.010800  0.276630  0.744740  1.0  2.2506
  Pr  Pr4  1  0.510800  0.776630  0.744740  1.0  2.2506
  Pr  Pr5  1  0.010800  0.723370  0.744740  1.0  2.2508
  Pr  Pr6  1  0.510800  0.223370  0.744740  1.0  2.2508
  Pr  Pr7  1  0.989200  0.723370  0.255260  1.0  2.2505
  Pr  Pr8  1  0.489200  0.223370  0.255260  1.0  2.2505
  H  H9  1  0.597400  0.325300  0.394400  1.0  0.1235
  H  H10  1  0.097400  0.825300  0.394400  1.0  0.1235
  H  H11  1  0.402600  0.325300  0.605600  1.0  0.1232
  H  H12  1  0.902600  0.825300  0.605600  1.0  0.1232
  H  H13  1  0.402600  0.674700  0.605600  1.0  0.1253
  H  H14  1  0.902600  0.174700  0.605600  1.0  0.1253
  H  H15  1  0.597400  0.674700  0.394400  1.0  0.1239
  H  H16  1  0.097400  0.174700  0.394400  1.0  0.1239
  C  C17  1  0.716400  0.284400  0.131700  1.0  0.7165
  C  C18  1  0.602000  0.284800  0.064000  1.0  -0.0898
  C  C19  1  0.552900  0.341300  0.032000  1.0  0.221
  C  C20  1  0.548400  0.228200  0.032000  1.0  0.3318
  C  C21  1  0.255600  0.310700  0.376200  1.0  0.7063
  C  C22  1  0.378600  0.322300  0.439900  1.0  -0.0735
  C  C23  1  0.558300  0.324500  0.437200  1.0  -0.0705
  C  C24  1  0.317500  0.325400  0.503300  1.0  0.2604
  C  C25  1  0.111500  0.135500  0.250500  1.0  0.6984
  C  C26  1  0.121100  0.065600  0.249900  1.0  -0.1238
  C  C27  1  0.240900  0.033100  0.297200  1.0  0.2259
  C  C28  1  0.004600  0.031900  0.202400  1.0  0.3484
  C  C29  1  0.216400  0.784400  0.131700  1.0  0.7165
  C  C30  1  0.102000  0.784800  0.064000  1.0  -0.0898
  C  C31  1  0.052900  0.841300  0.032000  1.0  0.221
  C  C32  1  0.048400  0.728200  0.032000  1.0  0.3318
  C  C33  1  0.755600  0.810700  0.376200  1.0  0.7063
  C  C34  1  0.878600  0.822300  0.439900  1.0  -0.0735
  C  C35  1  0.058300  0.824500  0.437200  1.0  -0.0705
  C  C36  1  0.817500  0.825400  0.503300  1.0  0.2604
  C  C37  1  0.611500  0.635500  0.250500  1.0  0.6984
  C  C38  1  0.621100  0.565600  0.249900  1.0  -0.1238
  C  C39  1  0.740900  0.533100  0.297200  1.0  0.2259
  C  C40  1  0.504600  0.531900  0.202400  1.0  0.3484
  C  C41  1  0.283600  0.284400  0.868300  1.0  0.7158
  C  C42  1  0.398000  0.284800  0.936000  1.0  -0.0898
  C  C43  1  0.447100  0.341300  0.968000  1.0  0.2201
  C  C44  1  0.451600  0.228200  0.968000  1.0  0.3306
  C  C45  1  0.744400  0.310700  0.623800  1.0  0.7056
  C  C46  1  0.621400  0.322300  0.560100  1.0  -0.0745
  C  C47  1  0.441700  0.324500  0.562800  1.0  -0.0705
  C  C48  1  0.682500  0.325400  0.496700  1.0  0.2621
  C  C49  1  0.888500  0.135500  0.749500  1.0  0.6985
  C  C50  1  0.878900  0.065600  0.750100  1.0  -0.1235
  C  C51  1  0.759100  0.033100  0.702800  1.0  0.2253
  C  C52  1  0.995400  0.031900  0.797600  1.0  0.3478
  C  C53  1  0.783600  0.784400  0.868300  1.0  0.7158
  C  C54  1  0.898000  0.784800  0.936000  1.0  -0.0898
  C  C55  1  0.947100  0.841300  0.968000  1.0  0.2201
  C  C56  1  0.951600  0.728200  0.968000  1.0  0.3306
  C  C57  1  0.244400  0.810700  0.623800  1.0  0.7056
  C  C58  1  0.121400  0.822300  0.560100  1.0  -0.0745
  C  C59  1  0.941700  0.824500  0.562800  1.0  -0.0705
  C  C60  1  0.182500  0.825400  0.496700  1.0  0.2621
  C  C61  1  0.388500  0.635500  0.749500  1.0  0.6985
  C  C62  1  0.378900  0.565600  0.750100  1.0  -0.1235
  C  C63  1  0.259100  0.533100  0.702800  1.0  0.2253
  C  C64  1  0.495400  0.531900  0.797600  1.0  0.3478
  C  C65  1  0.283600  0.715600  0.868300  1.0  0.7158
  C  C66  1  0.398000  0.715200  0.936000  1.0  -0.0904
  C  C67  1  0.447100  0.658700  0.968000  1.0  0.2206
  C  C68  1  0.451600  0.771800  0.968000  1.0  0.3303
  C  C69  1  0.744400  0.689300  0.623800  1.0  0.7068
  C  C70  1  0.621400  0.677700  0.560100  1.0  -0.0742
  C  C71  1  0.441700  0.675500  0.562800  1.0  -0.0692
  C  C72  1  0.682500  0.674600  0.496700  1.0  0.2615
  C  C73  1  0.888500  0.864500  0.749500  1.0  0.6984
  C  C74  1  0.878900  0.934400  0.750100  1.0  -0.126
  C  C75  1  0.759100  0.966900  0.702800  1.0  0.2244
  C  C76  1  0.995400  0.968100  0.797600  1.0  0.3476
  C  C77  1  0.783600  0.215600  0.868300  1.0  0.7158
  C  C78  1  0.898000  0.215200  0.936000  1.0  -0.0904
  C  C79  1  0.947100  0.158700  0.968000  1.0  0.2206
  C  C80  1  0.951600  0.271800  0.968000  1.0  0.3303
  C  C81  1  0.244400  0.189300  0.623800  1.0  0.7068
  C  C82  1  0.121400  0.177700  0.560100  1.0  -0.0742
  C  C83  1  0.941700  0.175500  0.562800  1.0  -0.0692
  C  C84  1  0.182500  0.174600  0.496700  1.0  0.2615
  C  C85  1  0.388500  0.364500  0.749500  1.0  0.6984
  C  C86  1  0.378900  0.434400  0.750100  1.0  -0.126
  C  C87  1  0.259100  0.466900  0.702800  1.0  0.2244
  C  C88  1  0.495400  0.468100  0.797600  1.0  0.3476
  C  C89  1  0.716400  0.715600  0.131700  1.0  0.717
  C  C90  1  0.602000  0.715200  0.064000  1.0  -0.0904
  C  C91  1  0.552900  0.658700  0.032000  1.0  0.2199
  C  C92  1  0.548400  0.771800  0.032000  1.0  0.3325
  C  C93  1  0.255600  0.689300  0.376200  1.0  0.7067
  C  C94  1  0.378600  0.677700  0.439900  1.0  -0.0733
  C  C95  1  0.558300  0.675500  0.437200  1.0  -0.0687
  C  C96  1  0.317500  0.674600  0.503300  1.0  0.2601
  C  C97  1  0.111500  0.864500  0.250500  1.0  0.6983
  C  C98  1  0.121100  0.934400  0.249900  1.0  -0.126
  C  C99  1  0.240900  0.966900  0.297200  1.0  0.2251
  C  C100  1  0.004600  0.968100  0.202400  1.0  0.3484
  C  C101  1  0.216400  0.215600  0.131700  1.0  0.717
  C  C102  1  0.102000  0.215200  0.064000  1.0  -0.0904
  C  C103  1  0.052900  0.158700  0.032000  1.0  0.2199
  C  C104  1  0.048400  0.271800  0.032000  1.0  0.3325
  C  C105  1  0.755600  0.189300  0.376200  1.0  0.7067
  C  C106  1  0.878600  0.177700  0.439900  1.0  -0.0733
  C  C107  1  0.058300  0.175500  0.437200  1.0  -0.0687
  C  C108  1  0.817500  0.174600  0.503300  1.0  0.2601
  C  C109  1  0.611500  0.364500  0.250500  1.0  0.6983
  C  C110  1  0.621100  0.434400  0.249900  1.0  -0.126
  C  C111  1  0.740900  0.466900  0.297200  1.0  0.2251
  C  C112  1  0.504600  0.468100  0.202400  1.0  0.3484
  N  N113  1  0.633000  0.400400  0.052300  1.0  -0.2459
  N  N114  1  0.361000  0.057400  0.349700  1.0  -0.2467
  N  N115  1  0.148000  0.338800  0.509200  1.0  -0.3843
  N  N116  1  0.598000  0.176600  0.056400  1.0  -0.3399
  N  N117  1  0.880000  0.059800  0.160800  1.0  -0.2266
  N  N118  1  0.133000  0.900400  0.052300  1.0  -0.2459
  N  N119  1  0.861000  0.557400  0.349700  1.0  -0.2467
  N  N120  1  0.648000  0.838800  0.509200  1.0  -0.3843
  N  N121  1  0.098000  0.676600  0.056400  1.0  -0.3399
  N  N122  1  0.380000  0.559800  0.160800  1.0  -0.2266
  N  N123  1  0.367000  0.400400  0.947700  1.0  -0.2464
  N  N124  1  0.639000  0.057400  0.650300  1.0  -0.2467
  N  N125  1  0.852000  0.338800  0.490800  1.0  -0.3856
  N  N126  1  0.402000  0.176600  0.943600  1.0  -0.3409
  N  N127  1  0.120000  0.059800  0.839200  1.0  -0.224
  N  N128  1  0.867000  0.900400  0.947700  1.0  -0.2464
  N  N129  1  0.139000  0.557400  0.650300  1.0  -0.2467
  N  N130  1  0.352000  0.838800  0.490800  1.0  -0.3856
  N  N131  1  0.902000  0.676600  0.943600  1.0  -0.3409
  N  N132  1  0.620000  0.559800  0.839200  1.0  -0.224
  N  N133  1  0.367000  0.599600  0.947700  1.0  -0.2459
  N  N134  1  0.639000  0.942600  0.650300  1.0  -0.2475
  N  N135  1  0.852000  0.661200  0.490800  1.0  -0.3814
  N  N136  1  0.402000  0.823400  0.943600  1.0  -0.3413
  N  N137  1  0.120000  0.940200  0.839200  1.0  -0.2246
  N  N138  1  0.867000  0.099600  0.947700  1.0  -0.2459
  N  N139  1  0.139000  0.442600  0.650300  1.0  -0.2475
  N  N140  1  0.352000  0.161200  0.490800  1.0  -0.3814
  N  N141  1  0.902000  0.323400  0.943600  1.0  -0.3413
  N  N142  1  0.620000  0.440200  0.839200  1.0  -0.2246
  N  N143  1  0.633000  0.599600  0.052300  1.0  -0.2461
  N  N144  1  0.361000  0.942600  0.349700  1.0  -0.2468
  N  N145  1  0.148000  0.661200  0.509200  1.0  -0.3807
  N  N146  1  0.598000  0.823400  0.056400  1.0  -0.3415
  N  N147  1  0.880000  0.940200  0.160800  1.0  -0.2266
  N  N148  1  0.133000  0.099600  0.052300  1.0  -0.2461
  N  N149  1  0.861000  0.442600  0.349700  1.0  -0.2468
  N  N150  1  0.648000  0.161200  0.509200  1.0  -0.3807
  N  N151  1  0.098000  0.323400  0.056400  1.0  -0.3415
  N  N152  1  0.380000  0.440200  0.160800  1.0  -0.2266
  O  O153  1  0.828100  0.326610  0.147070  1.0  -0.5889
  O  O154  1  0.700600  0.239270  0.174470  1.0  -0.7625
  O  O155  1  0.315700  0.289910  0.323070  1.0  -0.7693
  O  O156  1  0.091600  0.317900  0.373930  1.0  -0.6099
  O  O157  1  0.232700  0.167280  0.285960  1.0  -0.7468
  O  O158  1  0.982000  0.162380  0.217700  1.0  -0.6022
  O  O159  1  0.328100  0.826610  0.147070  1.0  -0.5889
  O  O160  1  0.200600  0.739270  0.174470  1.0  -0.7625
  O  O161  1  0.815700  0.789910  0.323070  1.0  -0.7693
  O  O162  1  0.591600  0.817900  0.373930  1.0  -0.6099
  O  O163  1  0.732700  0.667280  0.285960  1.0  -0.7468
  O  O164  1  0.482000  0.662380  0.217700  1.0  -0.6022
  O  O165  1  0.171900  0.326610  0.852930  1.0  -0.588
  O  O166  1  0.299400  0.239270  0.825530  1.0  -0.7637
  O  O167  1  0.684300  0.289910  0.676930  1.0  -0.7696
  O  O168  1  0.908400  0.317900  0.626070  1.0  -0.6117
  O  O169  1  0.767300  0.167280  0.714040  1.0  -0.7479
  O  O170  1  0.018000  0.162380  0.782300  1.0  -0.6013
  O  O171  1  0.671900  0.826610  0.852930  1.0  -0.588
  O  O172  1  0.799400  0.739270  0.825530  1.0  -0.7637
  O  O173  1  0.184300  0.789910  0.676930  1.0  -0.7696
  O  O174  1  0.408400  0.817900  0.626070  1.0  -0.6117
  O  O175  1  0.267300  0.667280  0.714040  1.0  -0.7479
  O  O176  1  0.518000  0.662380  0.782300  1.0  -0.6013
  O  O177  1  0.171900  0.673390  0.852930  1.0  -0.5886
  O  O178  1  0.299400  0.760730  0.825530  1.0  -0.7613
  O  O179  1  0.684300  0.710090  0.676930  1.0  -0.7686
  O  O180  1  0.908400  0.682100  0.626070  1.0  -0.6122
  O  O181  1  0.767300  0.832720  0.714040  1.0  -0.748
  O  O182  1  0.018000  0.837620  0.782300  1.0  -0.6014
  O  O183  1  0.671900  0.173390  0.852930  1.0  -0.5886
  O  O184  1  0.799400  0.260730  0.825530  1.0  -0.7613
  O  O185  1  0.184300  0.210090  0.676930  1.0  -0.7686
  O  O186  1  0.408400  0.182100  0.626070  1.0  -0.6122
  O  O187  1  0.267300  0.332720  0.714040  1.0  -0.748
  O  O188  1  0.518000  0.337620  0.782300  1.0  -0.6014
  O  O189  1  0.828100  0.673390  0.147070  1.0  -0.5885
  O  O190  1  0.700600  0.760730  0.174470  1.0  -0.7631
  O  O191  1  0.315700  0.710090  0.323070  1.0  -0.7695
  O  O192  1  0.091600  0.682100  0.373930  1.0  -0.6107
  O  O193  1  0.232700  0.832720  0.285960  1.0  -0.747
  O  O194  1  0.982000  0.837620  0.217700  1.0  -0.6019
  O  O195  1  0.328100  0.173390  0.147070  1.0  -0.5885
  O  O196  1  0.200600  0.260730  0.174470  1.0  -0.7631
  O  O197  1  0.815700  0.210090  0.323070  1.0  -0.7695
  O  O198  1  0.591600  0.182100  0.373930  1.0  -0.6107
  O  O199  1  0.732700  0.332720  0.285960  1.0  -0.747
  O  O200  1  0.482000  0.337620  0.217700  1.0  -0.6019
