# generated using pymatgen
data_LaH3C12N5O7
_symmetry_space_group_name_H-M   'P 1'
_cell_length_a   7.80460000
_cell_length_b   21.38060000
_cell_length_c   19.81730000
_cell_angle_alpha   90.00000000
_cell_angle_beta   98.58200000
_cell_angle_gamma   90.00000000
_symmetry_Int_Tables_number   1
_chemical_formula_structural   LaH3C12N5O7
_chemical_formula_sum   'La8 H24 C96 N40 O56'
_cell_volume   3269.82819002
_cell_formula_units_Z   8
loop_
 _symmetry_equiv_pos_site_id
 _symmetry_equiv_pos_as_xyz
  1  'x, y, z'
loop_
 _atom_site_type_symbol
 _atom_site_label
 _atom_site_symmetry_multiplicity
 _atom_site_fract_x
 _atom_site_fract_y
 _atom_site_fract_z
 _atom_site_occupancy
 _atom_site_charge
  La  La1  1  0.988450  0.223230  0.255430  1.0  2.1743
  La  La2  1  0.488450  0.723230  0.255430  1.0  2.1743
  La  La3  1  0.011550  0.223230  0.744570  1.0  2.1744
  La  La4  1  0.511550  0.723230  0.744570  1.0  2.1744
  La  La5  1  0.011550  0.776770  0.744570  1.0  2.1738
  La  La6  1  0.511550  0.276770  0.744570  1.0  2.1738
  La  La7  1  0.988450  0.776770  0.255430  1.0  2.1738
  La  La8  1  0.488450  0.276770  0.255430  1.0  2.1738
  H  H9  1  0.205400  0.100500  0.264800  1.0  0.4643
  H  H10  1  0.071000  0.116200  0.194700  1.0  0.4773
  H  H11  1  0.593400  0.177900  0.395200  1.0  0.1359
  H  H12  1  0.705400  0.600500  0.264800  1.0  0.4643
  H  H13  1  0.571000  0.616200  0.194700  1.0  0.4773
  H  H14  1  0.093400  0.677900  0.395200  1.0  0.1359
  H  H15  1  0.794600  0.100500  0.735200  1.0  0.4612
  H  H16  1  0.929000  0.116200  0.805300  1.0  0.4785
  H  H17  1  0.406600  0.177900  0.604800  1.0  0.136
  H  H18  1  0.294600  0.600500  0.735200  1.0  0.4612
  H  H19  1  0.429000  0.616200  0.805300  1.0  0.4785
  H  H20  1  0.906600  0.677900  0.604800  1.0  0.136
  H  H21  1  0.794600  0.899500  0.735200  1.0  0.4614
  H  H22  1  0.929000  0.883800  0.805300  1.0  0.4782
  H  H23  1  0.406600  0.822100  0.604800  1.0  0.1361
  H  H24  1  0.294600  0.399500  0.735200  1.0  0.4614
  H  H25  1  0.429000  0.383800  0.805300  1.0  0.4782
  H  H26  1  0.906600  0.322100  0.604800  1.0  0.1361
  H  H27  1  0.205400  0.899500  0.264800  1.0  0.4641
  H  H28  1  0.071000  0.883800  0.194700  1.0  0.4772
  H  H29  1  0.593400  0.822100  0.395200  1.0  0.1355
  H  H30  1  0.705400  0.399500  0.264800  1.0  0.4641
  H  H31  1  0.571000  0.383800  0.194700  1.0  0.4772
  H  H32  1  0.093400  0.322100  0.395200  1.0  0.1355
  C  C33  1  0.715300  0.214900  0.131400  1.0  0.718
  C  C34  1  0.602300  0.215400  0.063600  1.0  -0.0836
  C  C35  1  0.554100  0.158700  0.032200  1.0  0.1385
  C  C36  1  0.549100  0.271000  0.032500  1.0  0.3343
  C  C37  1  0.256800  0.189500  0.376700  1.0  0.7101
  C  C38  1  0.380700  0.177600  0.440600  1.0  -0.0722
  C  C39  1  0.321200  0.173100  0.503900  1.0  0.2708
  C  C40  1  0.556100  0.176400  0.437600  1.0  -0.0219
  C  C41  1  0.106900  0.365200  0.250900  1.0  0.7184
  C  C42  1  0.119700  0.434600  0.250700  1.0  -0.1193
  C  C43  1  0.237200  0.466400  0.298300  1.0  0.1614
  C  C44  1  0.004500  0.467900  0.201900  1.0  0.2519
  C  C45  1  0.215300  0.714900  0.131400  1.0  0.718
  C  C46  1  0.102300  0.715400  0.063600  1.0  -0.0836
  C  C47  1  0.054100  0.658700  0.032200  1.0  0.1385
  C  C48  1  0.049100  0.771000  0.032500  1.0  0.3343
  C  C49  1  0.756800  0.689500  0.376700  1.0  0.7101
  C  C50  1  0.880700  0.677600  0.440600  1.0  -0.0722
  C  C51  1  0.821200  0.673100  0.503900  1.0  0.2708
  C  C52  1  0.056100  0.676400  0.437600  1.0  -0.0219
  C  C53  1  0.606900  0.865200  0.250900  1.0  0.7184
  C  C54  1  0.619700  0.934600  0.250700  1.0  -0.1193
  C  C55  1  0.737200  0.966400  0.298300  1.0  0.1614
  C  C56  1  0.504500  0.967900  0.201900  1.0  0.2519
  C  C57  1  0.284700  0.214900  0.868600  1.0  0.7179
  C  C58  1  0.397700  0.215400  0.936400  1.0  -0.0839
  C  C59  1  0.445900  0.158700  0.967800  1.0  0.1366
  C  C60  1  0.450900  0.271000  0.967500  1.0  0.3348
  C  C61  1  0.743200  0.189500  0.623300  1.0  0.709
  C  C62  1  0.619300  0.177600  0.559400  1.0  -0.0729
  C  C63  1  0.678800  0.173100  0.496100  1.0  0.2719
  C  C64  1  0.443900  0.176400  0.562400  1.0  -0.0231
  C  C65  1  0.893100  0.365200  0.749100  1.0  0.7189
  C  C66  1  0.880300  0.434600  0.749300  1.0  -0.1192
  C  C67  1  0.762800  0.466400  0.701700  1.0  0.1607
  C  C68  1  0.995500  0.467900  0.798100  1.0  0.2519
  C  C69  1  0.784700  0.714900  0.868600  1.0  0.7179
  C  C70  1  0.897700  0.715400  0.936400  1.0  -0.0839
  C  C71  1  0.945900  0.658700  0.967800  1.0  0.1366
  C  C72  1  0.950900  0.771000  0.967500  1.0  0.3348
  C  C73  1  0.243200  0.689500  0.623300  1.0  0.709
  C  C74  1  0.119300  0.677600  0.559400  1.0  -0.0729
  C  C75  1  0.178800  0.673100  0.496100  1.0  0.2719
  C  C76  1  0.943900  0.676400  0.562400  1.0  -0.0231
  C  C77  1  0.393100  0.865200  0.749100  1.0  0.7189
  C  C78  1  0.380300  0.934600  0.749300  1.0  -0.1192
  C  C79  1  0.262800  0.966400  0.701700  1.0  0.1607
  C  C80  1  0.495500  0.967900  0.798100  1.0  0.2519
  C  C81  1  0.284700  0.785100  0.868600  1.0  0.7186
  C  C82  1  0.397700  0.784600  0.936400  1.0  -0.0841
  C  C83  1  0.445900  0.841300  0.967800  1.0  0.1388
  C  C84  1  0.450900  0.729000  0.967500  1.0  0.3337
  C  C85  1  0.743200  0.810500  0.623300  1.0  0.7093
  C  C86  1  0.619300  0.822400  0.559400  1.0  -0.073
  C  C87  1  0.678800  0.826900  0.496100  1.0  0.273
  C  C88  1  0.443900  0.823600  0.562400  1.0  -0.0217
  C  C89  1  0.893100  0.634800  0.749100  1.0  0.7184
  C  C90  1  0.880300  0.565400  0.749300  1.0  -0.1197
  C  C91  1  0.762800  0.533600  0.701700  1.0  0.1604
  C  C92  1  0.995500  0.532100  0.798100  1.0  0.2525
  C  C93  1  0.784700  0.285100  0.868600  1.0  0.7186
  C  C94  1  0.897700  0.284600  0.936400  1.0  -0.0841
  C  C95  1  0.945900  0.341300  0.967800  1.0  0.1388
  C  C96  1  0.950900  0.229000  0.967500  1.0  0.3337
  C  C97  1  0.243200  0.310500  0.623300  1.0  0.7093
  C  C98  1  0.119300  0.322400  0.559400  1.0  -0.073
  C  C99  1  0.178800  0.326900  0.496100  1.0  0.273
  C  C100  1  0.943900  0.323600  0.562400  1.0  -0.0217
  C  C101  1  0.393100  0.134800  0.749100  1.0  0.7184
  C  C102  1  0.380300  0.065400  0.749300  1.0  -0.1197
  C  C103  1  0.262800  0.033600  0.701700  1.0  0.1604
  C  C104  1  0.495500  0.032100  0.798100  1.0  0.2525
  C  C105  1  0.715300  0.785100  0.131400  1.0  0.7184
  C  C106  1  0.602300  0.784600  0.063600  1.0  -0.0839
  C  C107  1  0.554100  0.841300  0.032200  1.0  0.1384
  C  C108  1  0.549100  0.729000  0.032500  1.0  0.3343
  C  C109  1  0.256800  0.810500  0.376700  1.0  0.7104
  C  C110  1  0.380700  0.822400  0.440600  1.0  -0.0719
  C  C111  1  0.321200  0.826900  0.503900  1.0  0.2713
  C  C112  1  0.556100  0.823600  0.437600  1.0  -0.0215
  C  C113  1  0.106900  0.634800  0.250900  1.0  0.7184
  C  C114  1  0.119700  0.565400  0.250700  1.0  -0.1197
  C  C115  1  0.237200  0.533600  0.298300  1.0  0.1611
  C  C116  1  0.004500  0.532100  0.201900  1.0  0.2529
  C  C117  1  0.215300  0.285100  0.131400  1.0  0.7184
  C  C118  1  0.102300  0.284600  0.063600  1.0  -0.0839
  C  C119  1  0.054100  0.341300  0.032200  1.0  0.1384
  C  C120  1  0.049100  0.229000  0.032500  1.0  0.3343
  C  C121  1  0.756800  0.310500  0.376700  1.0  0.7104
  C  C122  1  0.880700  0.322400  0.440600  1.0  -0.0719
  C  C123  1  0.821200  0.326900  0.503900  1.0  0.2713
  C  C124  1  0.056100  0.323600  0.437600  1.0  -0.0215
  C  C125  1  0.606900  0.134800  0.250900  1.0  0.7184
  C  C126  1  0.619700  0.065400  0.250700  1.0  -0.1197
  C  C127  1  0.737200  0.033600  0.298300  1.0  0.1611
  C  C128  1  0.504500  0.032100  0.201900  1.0  0.2529
  N  N129  1  0.150000  0.161400  0.510900  1.0  -0.294
  N  N130  1  0.354000  0.441400  0.351700  1.0  -0.2563
  N  N131  1  0.636000  0.100300  0.052500  1.0  -0.2227
  N  N132  1  0.879000  0.439000  0.159000  1.0  -0.23
  N  N133  1  0.602000  0.326000  0.057000  1.0  -0.2511
  N  N134  1  0.650000  0.661400  0.510900  1.0  -0.294
  N  N135  1  0.854000  0.941400  0.351700  1.0  -0.2563
  N  N136  1  0.136000  0.600300  0.052500  1.0  -0.2227
  N  N137  1  0.379000  0.939000  0.159000  1.0  -0.23
  N  N138  1  0.102000  0.826000  0.057000  1.0  -0.2511
  N  N139  1  0.850000  0.161400  0.489100  1.0  -0.2951
  N  N140  1  0.646000  0.441400  0.648300  1.0  -0.2563
  N  N141  1  0.364000  0.100300  0.947500  1.0  -0.2228
  N  N142  1  0.121000  0.439000  0.841000  1.0  -0.2299
  N  N143  1  0.398000  0.326000  0.943000  1.0  -0.2506
  N  N144  1  0.350000  0.661400  0.489100  1.0  -0.2951
  N  N145  1  0.146000  0.941400  0.648300  1.0  -0.2563
  N  N146  1  0.864000  0.600300  0.947500  1.0  -0.2228
  N  N147  1  0.621000  0.939000  0.841000  1.0  -0.2299
  N  N148  1  0.898000  0.826000  0.943000  1.0  -0.2506
  N  N149  1  0.850000  0.838600  0.489100  1.0  -0.2942
  N  N150  1  0.646000  0.558600  0.648300  1.0  -0.2554
  N  N151  1  0.364000  0.899700  0.947500  1.0  -0.2226
  N  N152  1  0.121000  0.561000  0.841000  1.0  -0.2291
  N  N153  1  0.398000  0.674000  0.943000  1.0  -0.2491
  N  N154  1  0.350000  0.338600  0.489100  1.0  -0.2942
  N  N155  1  0.146000  0.058600  0.648300  1.0  -0.2554
  N  N156  1  0.864000  0.399700  0.947500  1.0  -0.2226
  N  N157  1  0.621000  0.061000  0.841000  1.0  -0.2291
  N  N158  1  0.898000  0.174000  0.943000  1.0  -0.2491
  N  N159  1  0.150000  0.838600  0.510900  1.0  -0.293
  N  N160  1  0.354000  0.558600  0.351700  1.0  -0.2561
  N  N161  1  0.636000  0.899700  0.052500  1.0  -0.2222
  N  N162  1  0.879000  0.561000  0.159000  1.0  -0.2289
  N  N163  1  0.602000  0.674000  0.057000  1.0  -0.2493
  N  N164  1  0.650000  0.338600  0.510900  1.0  -0.293
  N  N165  1  0.854000  0.058600  0.351700  1.0  -0.2561
  N  N166  1  0.136000  0.399700  0.052500  1.0  -0.2222
  N  N167  1  0.379000  0.061000  0.159000  1.0  -0.2289
  N  N168  1  0.102000  0.174000  0.057000  1.0  -0.2493
  O  O169  1  0.127700  0.115900  0.234800  1.0  -0.8714
  O  O170  1  0.824700  0.172800  0.146600  1.0  -0.6602
  O  O171  1  0.698500  0.259900  0.173300  1.0  -0.7537
  O  O172  1  0.313200  0.210400  0.324100  1.0  -0.7635
  O  O173  1  0.096000  0.180800  0.375400  1.0  -0.6287
  O  O174  1  0.228900  0.333200  0.286100  1.0  -0.7523
  O  O175  1  0.979000  0.338700  0.217200  1.0  -0.5792
  O  O176  1  0.627700  0.615900  0.234800  1.0  -0.8714
  O  O177  1  0.324700  0.672800  0.146600  1.0  -0.6602
  O  O178  1  0.198500  0.759900  0.173300  1.0  -0.7537
  O  O179  1  0.813200  0.710400  0.324100  1.0  -0.7635
  O  O180  1  0.596000  0.680800  0.375400  1.0  -0.6287
  O  O181  1  0.728900  0.833200  0.286100  1.0  -0.7523
  O  O182  1  0.479000  0.838700  0.217200  1.0  -0.5792
  O  O183  1  0.872300  0.115900  0.765200  1.0  -0.8701
  O  O184  1  0.175300  0.172800  0.853400  1.0  -0.6605
  O  O185  1  0.301500  0.259900  0.826700  1.0  -0.7526
  O  O186  1  0.686800  0.210400  0.675900  1.0  -0.763
  O  O187  1  0.904000  0.180800  0.624600  1.0  -0.6283
  O  O188  1  0.771100  0.333200  0.713900  1.0  -0.7522
  O  O189  1  0.021000  0.338700  0.782800  1.0  -0.5788
  O  O190  1  0.372300  0.615900  0.765200  1.0  -0.8701
  O  O191  1  0.675300  0.672800  0.853400  1.0  -0.6605
  O  O192  1  0.801500  0.759900  0.826700  1.0  -0.7526
  O  O193  1  0.186800  0.710400  0.675900  1.0  -0.763
  O  O194  1  0.404000  0.680800  0.624600  1.0  -0.6283
  O  O195  1  0.271100  0.833200  0.713900  1.0  -0.7522
  O  O196  1  0.521000  0.838700  0.782800  1.0  -0.5788
  O  O197  1  0.872300  0.884100  0.765200  1.0  -0.8681
  O  O198  1  0.175300  0.827200  0.853400  1.0  -0.6602
  O  O199  1  0.301500  0.740100  0.826700  1.0  -0.7535
  O  O200  1  0.686800  0.789600  0.675900  1.0  -0.7634
  O  O201  1  0.904000  0.819200  0.624600  1.0  -0.6246
  O  O202  1  0.771100  0.666800  0.713900  1.0  -0.7524
  O  O203  1  0.021000  0.661300  0.782800  1.0  -0.5784
  O  O204  1  0.372300  0.384100  0.765200  1.0  -0.8681
  O  O205  1  0.675300  0.327200  0.853400  1.0  -0.6602
  O  O206  1  0.801500  0.240100  0.826700  1.0  -0.7535
  O  O207  1  0.186800  0.289600  0.675900  1.0  -0.7634
  O  O208  1  0.404000  0.319200  0.624600  1.0  -0.6246
  O  O209  1  0.271100  0.166800  0.713900  1.0  -0.7524
  O  O210  1  0.521000  0.161300  0.782800  1.0  -0.5784
  O  O211  1  0.127700  0.884100  0.234800  1.0  -0.8686
  O  O212  1  0.824700  0.827200  0.146600  1.0  -0.6599
  O  O213  1  0.698500  0.740100  0.173300  1.0  -0.7535
  O  O214  1  0.313200  0.789600  0.324100  1.0  -0.7639
  O  O215  1  0.096000  0.819200  0.375400  1.0  -0.6245
  O  O216  1  0.228900  0.666800  0.286100  1.0  -0.752
  O  O217  1  0.979000  0.661300  0.217200  1.0  -0.5792
  O  O218  1  0.627700  0.384100  0.234800  1.0  -0.8686
  O  O219  1  0.324700  0.327200  0.146600  1.0  -0.6599
  O  O220  1  0.198500  0.240100  0.173300  1.0  -0.7535
  O  O221  1  0.813200  0.289600  0.324100  1.0  -0.7639
  O  O222  1  0.596000  0.319200  0.375400  1.0  -0.6245
  O  O223  1  0.728900  0.166800  0.286100  1.0  -0.752
  O  O224  1  0.479000  0.161300  0.217200  1.0  -0.5792
