# generated using pymatgen
data_Cd2H42C60(N3O)3
_symmetry_space_group_name_H-M   'P 1'
_cell_length_a   12.10050000
_cell_length_b   18.21010000
_cell_length_c   18.21010000
_cell_angle_alpha   64.76020000
_cell_angle_beta   77.20290000
_cell_angle_gamma   102.79700000
_symmetry_Int_Tables_number   1
_chemical_formula_structural   Cd2H42C60(N3O)3
_chemical_formula_sum   'Cd4 H84 C120 N18 O6'
_cell_volume   3304.54032879
_cell_formula_units_Z   2
loop_
 _symmetry_equiv_pos_site_id
 _symmetry_equiv_pos_as_xyz
  1  'x, y, z'
loop_
 _atom_site_type_symbol
 _atom_site_label
 _atom_site_symmetry_multiplicity
 _atom_site_fract_x
 _atom_site_fract_y
 _atom_site_fract_z
 _atom_site_occupancy
 _atom_site_charge
  Cd  Cd1  1  0.000000  0.500000  0.000000  1.0  1.0105
  Cd  Cd2  1  0.000000  0.000000  0.000000  1.0  0.7499
  Cd  Cd3  1  0.000000  0.000000  0.500000  1.0  1.0105
  Cd  Cd4  1  0.500000  0.500000  0.500000  1.0  1.0105
  H  H5  1  0.862400  0.720200  0.761400  1.0  0.0931
  H  H6  1  0.742500  0.610200  0.512200  1.0  0.064
  H  H7  1  0.739600  0.933300  0.972600  1.0  0.0737
  H  H8  1  0.007400  0.325200  0.073100  1.0  0.1335
  H  H9  1  0.545600  0.403300  0.201400  1.0  0.0979
  H  H10  1  0.221400  0.776200  0.122100  1.0  0.1114
  H  H11  1  0.262900  0.865000  0.362700  1.0  0.1189
  H  H12  1  0.445200  0.101700  0.776200  1.0  0.1111
  H  H13  1  0.796700  0.912900  0.381900  1.0  0.1277
  H  H14  1  0.751500  0.759800  0.325000  1.0  0.1015
  H  H15  1  0.599800  0.774000  0.869400  1.0  0.1066
  H  H16  1  0.923500  0.675000  0.084800  1.0  0.1014
  H  H17  1  0.902200  0.838100  0.191500  1.0  0.0615
  H  H18  1  0.178600  0.381900  0.705200  1.0  0.1266
  H  H19  1  0.008300  0.084800  0.240200  1.0  0.1013
  H  H20  1  0.883800  0.705200  0.912900  1.0  0.1259
  H  H21  1  0.852600  0.839800  0.403300  1.0  0.128
  H  H22  1  0.064100  0.970400  0.838100  1.0  0.062
  H  H23  1  0.825800  0.356600  0.774000  1.0  0.1065
  H  H24  1  0.174200  0.643400  0.226000  1.0  0.1064
  H  H25  1  0.203300  0.087100  0.618100  1.0  0.1275
  H  H26  1  0.076500  0.325000  0.915200  1.0  0.101
  H  H27  1  0.807900  0.630500  0.708300  1.0  0.0923
  H  H28  1  0.530800  0.130600  0.643400  1.0  0.1052
  H  H29  1  0.867700  0.122400  0.389800  1.0  0.0656
  H  H30  1  0.253000  0.798600  0.604700  1.0  0.0997
  H  H31  1  0.478900  0.624500  0.320200  1.0  0.0732
  H  H32  1  0.142200  0.518400  0.720200  1.0  0.0929
  H  H33  1  0.142300  0.395300  0.403300  1.0  0.0986
  H  H34  1  0.906300  0.808500  0.029600  1.0  0.0583
  H  H35  1  0.737100  0.135000  0.637300  1.0  0.1183
  H  H36  1  0.400200  0.226000  0.130600  1.0  0.1064
  H  H37  1  0.012800  0.756900  0.839800  1.0  0.1303
  H  H38  1  0.255900  0.403300  0.756900  1.0  0.1284
  H  H39  1  0.080500  0.073100  0.601700  1.0  0.1354
  H  H40  1  0.799100  0.320200  0.055300  1.0  0.0709
  H  H41  1  0.145600  0.944700  0.375500  1.0  0.0721
  H  H42  1  0.992600  0.674800  0.926900  1.0  0.1341
  H  H43  1  0.821400  0.618100  0.294800  1.0  0.1265
  H  H44  1  0.857800  0.481600  0.279800  1.0  0.0926
  H  H45  1  0.656500  0.877900  0.898300  1.0  0.1108
  H  H46  1  0.806300  0.094100  0.933300  1.0  0.0704
  H  H47  1  0.483800  0.291700  0.338800  1.0  0.0919
  H  H48  1  0.192100  0.369500  0.291700  1.0  0.0909
  H  H49  1  0.935900  0.029600  0.161900  1.0  0.0597
  H  H50  1  0.682200  0.601700  0.325200  1.0  0.136
  H  H51  1  0.116200  0.294800  0.087100  1.0  0.1251
  H  H52  1  0.097800  0.161900  0.808500  1.0  0.0616
  H  H53  1  0.376200  0.238600  0.481600  1.0  0.0932
  H  H54  1  0.454400  0.596700  0.798600  1.0  0.098
  H  H55  1  0.987200  0.243100  0.160200  1.0  0.1301
  H  H56  1  0.287800  0.027400  0.905900  1.0  0.0693
  H  H57  1  0.257500  0.389800  0.487800  1.0  0.0638
  H  H58  1  0.397900  0.772300  0.865000  1.0  0.12
  H  H59  1  0.248500  0.240200  0.675000  1.0  0.1017
  H  H60  1  0.147400  0.160200  0.596700  1.0  0.1287
  H  H61  1  0.778600  0.223800  0.877900  1.0  0.111
  H  H62  1  0.254700  0.512200  0.877600  1.0  0.0641
  H  H63  1  0.745300  0.487800  0.122400  1.0  0.0649
  H  H64  1  0.093700  0.191500  0.970400  1.0  0.0598
  H  H65  1  0.712200  0.972600  0.094100  1.0  0.0705
  H  H66  1  0.260400  0.066700  0.027400  1.0  0.0739
  H  H67  1  0.854400  0.055300  0.624500  1.0  0.0727
  H  H68  1  0.374400  0.637300  0.227700  1.0  0.1198
  H  H69  1  0.132300  0.877600  0.610200  1.0  0.0654
  H  H70  1  0.137600  0.279800  0.238600  1.0  0.093
  H  H71  1  0.744100  0.596700  0.243100  1.0  0.1277
  H  H72  1  0.554800  0.898300  0.223800  1.0  0.1119
  H  H73  1  0.625600  0.362700  0.772300  1.0  0.1195
  H  H74  1  0.193700  0.905900  0.066700  1.0  0.07
  H  H75  1  0.177400  0.661200  0.630500  1.0  0.0928
  H  H76  1  0.857700  0.604700  0.596700  1.0  0.0981
  H  H77  1  0.516200  0.708300  0.661200  1.0  0.0929
  H  H78  1  0.822600  0.338800  0.369500  1.0  0.0935
  H  H79  1  0.317800  0.398300  0.674800  1.0  0.1373
  H  H80  1  0.343500  0.122100  0.101700  1.0  0.1098
  H  H81  1  0.602100  0.227700  0.135000  1.0  0.1187
  H  H82  1  0.469200  0.869400  0.356600  1.0  0.1061
  H  H83  1  0.521100  0.375500  0.679800  1.0  0.0731
  H  H84  1  0.200900  0.679800  0.944700  1.0  0.0715
  H  H85  1  0.623800  0.761400  0.518400  1.0  0.0933
  H  H86  1  0.747000  0.201400  0.395300  1.0  0.0975
  H  H87  1  0.991700  0.915200  0.759800  1.0  0.102
  H  H88  1  0.919500  0.926900  0.398300  1.0  0.1351
  C  C89  1  0.135820  0.464730  0.220070  1.0  0.0186
  C  C90  1  0.158370  0.114980  0.585170  1.0  -0.4121
  C  C91  1  0.947420  0.437200  0.878600  1.0  0.2618
  C  C92  1  0.468460  0.228810  0.622720  1.0  -0.0278
  C  C93  1  0.791370  0.930080  0.928970  1.0  0.1672
  C  C94  1  0.355890  0.220070  0.315200  1.0  0.0192
  C  C95  1  0.259820  0.103890  0.115530  1.0  -0.2265
  C  C96  1  0.792570  0.449790  0.332380  1.0  -0.1441
  C  C97  1  0.762790  0.843030  0.640260  1.0  0.0994
  C  C98  1  0.644820  0.226750  0.527090  1.0  -0.0464
  C  C99  1  0.375350  0.115530  0.780580  1.0  -0.2285
  C  C100  1  0.173980  0.121400  0.315800  1.0  0.2598
  C  C101  1  0.029310  0.198100  0.951560  1.0  0.1597
  C  C102  1  0.740600  0.802760  0.279010  1.0  -0.2154
  C  C103  1  0.813540  0.888960  0.818820  1.0  0.1008
  C  C104  1  0.956610  0.700150  0.885020  1.0  -0.4123
  C  C105  1  0.418070  0.246160  0.226750  1.0  -0.0463
  C  C106  1  0.328910  0.684800  0.535270  1.0  0.0188
  C  C107  1  0.256460  0.414830  0.700150  1.0  -0.4159
  C  C108  1  0.208630  0.069920  0.071030  1.0  0.1675
  C  C109  1  0.406290  0.249790  0.364720  1.0  -0.0842
  C  C110  1  0.062160  0.081770  0.197240  1.0  -0.2159
  C  C111  1  0.624650  0.884470  0.219420  1.0  -0.2296
  C  C112  1  0.405650  0.615920  0.827870  1.0  -0.2124
  C  C113  1  0.454310  0.693460  0.822430  1.0  0.037
  C  C114  1  0.168790  0.149660  0.801900  1.0  0.1577
  C  C115  1  0.908820  0.377280  0.851530  1.0  -0.0282
  C  C116  1  0.233520  0.827870  0.556210  1.0  -0.2117
  C  C117  1  0.259400  0.197240  0.720990  1.0  -0.2165
  C  C118  1  0.773210  0.846540  0.509910  1.0  0.2125
  C  C119  1  0.253560  0.663300  0.914820  1.0  0.1827
  C  C120  1  0.919760  0.516710  0.843030  1.0  0.1007
  C  C121  1  0.723260  0.177570  0.515890  1.0  0.0362
  C  C122  1  0.546740  0.187990  0.602570  1.0  -0.1657
  C  C123  1  0.924580  0.292220  0.888960  1.0  0.101
  C  C124  1  0.489780  0.315800  0.562800  1.0  0.2606
  C  C125  1  0.276740  0.822430  0.484110  1.0  0.0369
  C  C126  1  0.760350  0.851530  0.771190  1.0  -0.0279
  C  C127  1  0.168380  0.914820  0.421880  1.0  0.1819
  C  C128  1  0.720340  0.928970  0.140950  1.0  0.1657
  C  C129  1  0.367640  0.181180  0.707780  1.0  0.1007
  C  C130  1  0.831620  0.085180  0.578120  1.0  0.1815
  C  C131  1  0.149310  0.602570  0.209440  1.0  -0.1604
  C  C132  1  0.594350  0.384080  0.172130  1.0  -0.2112
  C  C133  1  0.926670  0.643550  0.846540  1.0  0.2112
  C  C134  1  0.671090  0.315200  0.464730  1.0  0.0189
  C  C135  1  0.644110  0.779930  0.684800  1.0  0.0191
  C  C136  1  0.581930  0.753840  0.773250  1.0  -0.0466
  C  C137  1  0.628260  0.281110  0.132430  1.0  -0.2157
  C  C138  1  0.743540  0.585170  0.299850  1.0  -0.4134
  C  C139  1  0.789730  0.556210  0.615920  1.0  -0.2118
  C  C140  1  0.239650  0.148470  0.228810  1.0  -0.0273
  C  C141  1  0.740180  0.896110  0.884470  1.0  -0.2274
  C  C142  1  0.831210  0.850340  0.198100  1.0  0.1542
  C  C143  1  0.155930  0.780580  0.103890  1.0  -0.2275
  C  C144  1  0.091180  0.622720  0.148470  1.0  -0.0262
  C  C145  1  0.355180  0.773250  0.472910  1.0  -0.0468
  C  C146  1  0.657220  0.782170  0.550210  1.0  -0.1439
  C  C147  1  0.828090  0.472910  0.753840  1.0  -0.0452
  C  C148  1  0.237210  0.156970  0.359740  1.0  0.1003
  C  C149  1  0.641250  0.790560  0.812010  1.0  -0.162
  C  C150  1  0.715870  0.435450  0.123540  1.0  0.1802
  C  C151  1  0.156500  0.385490  0.249790  1.0  -0.0841
  C  C152  1  0.239150  0.515890  0.306540  1.0  0.0366
  C  C153  1  0.284130  0.564550  0.876460  1.0  0.1809
  C  C154  1  0.760690  0.132430  0.586460  1.0  -0.2167
  C  C155  1  0.839410  0.123540  0.441010  1.0  0.1797
  C  C156  1  0.864180  0.535270  0.779930  1.0  0.0186
  C  C157  1  0.746440  0.336700  0.085180  1.0  0.1812
  C  C158  1  0.342780  0.217830  0.449790  1.0  -0.1457
  C  C159  1  0.980390  0.720990  0.081770  1.0  -0.2154
  C  C160  1  0.280420  0.441010  0.435450  1.0  0.1829
  C  C161  1  0.124950  0.332380  0.217830  1.0  -0.1452
  C  C162  1  0.226790  0.153460  0.490090  1.0  0.2132
  C  C163  1  0.590260  0.421880  0.663300  1.0  0.1822
  C  C164  1  0.043390  0.299850  0.114980  1.0  -0.4122
  C  C165  1  0.075420  0.707780  0.111040  1.0  0.1017
  C  C166  1  0.875050  0.667620  0.782170  1.0  -0.1432
  C  C167  1  0.019610  0.279010  0.918230  1.0  -0.2153
  C  C168  1  0.207430  0.550210  0.667620  1.0  -0.1429
  C  C169  1  0.186460  0.111040  0.181180  1.0  0.101
  C  C170  1  0.844070  0.219420  0.896110  1.0  -0.2272
  C  C171  1  0.760850  0.484110  0.693460  1.0  0.0371
  C  C172  1  0.826020  0.878600  0.684200  1.0  0.2598
  C  C173  1  0.980870  0.951560  0.850340  1.0  0.1576
  C  C174  1  0.371740  0.718890  0.867570  1.0  -0.2157
  C  C175  1  0.545690  0.306540  0.177570  1.0  0.0374
  C  C176  1  0.210270  0.443790  0.384080  1.0  -0.2103
  C  C177  1  0.080240  0.483290  0.156970  1.0  0.1008
  C  C178  1  0.358750  0.209440  0.187990  1.0  -0.1635
  C  C179  1  0.593710  0.750210  0.635280  1.0  -0.0835
  C  C180  1  0.073330  0.356450  0.153460  1.0  0.2109
  C  C181  1  0.239310  0.867570  0.413540  1.0  -0.2171
  C  C182  1  0.843500  0.614510  0.750210  1.0  -0.0824
  C  C183  1  0.171910  0.527090  0.246160  1.0  -0.0444
  C  C184  1  0.861290  0.140950  0.930080  1.0  0.1663
  C  C185  1  0.019130  0.048440  0.149660  1.0  0.1588
  C  C186  1  0.841630  0.885020  0.414830  1.0  -0.4125
  C  C187  1  0.510220  0.684200  0.437200  1.0  0.2598
  C  C188  1  0.052580  0.562800  0.121400  1.0  0.2622
  C  C189  1  0.850690  0.397430  0.790560  1.0  -0.1604
  C  C190  1  0.228990  0.635280  0.614510  1.0  -0.0839
  C  C191  1  0.970690  0.801900  0.048440  1.0  0.1563
  C  C192  1  0.279660  0.071030  0.859050  1.0  0.1654
  C  C193  1  0.766480  0.172130  0.443790  1.0  -0.2099
  C  C194  1  0.453260  0.812010  0.397430  1.0  -0.1696
  C  C195  1  0.771010  0.364720  0.385490  1.0  -0.083
  C  C196  1  0.716880  0.490090  0.356450  1.0  0.2106
  C  C197  1  0.632360  0.818820  0.292220  1.0  0.1003
  C  C198  1  0.937840  0.918230  0.802760  1.0  -0.2157
  C  C199  1  0.596950  0.359740  0.483290  1.0  0.1004
  C  C200  1  0.403050  0.640260  0.516710  1.0  0.1
  C  C201  1  0.719580  0.558990  0.564550  1.0  0.1837
  C  C202  1  0.347150  0.586460  0.281110  1.0  -0.2147
  C  C203  1  0.409740  0.578120  0.336700  1.0  0.1816
  C  C204  1  0.138710  0.859050  0.069920  1.0  0.1662
  C  C205  1  0.283120  0.509910  0.643550  1.0  0.2113
  C  C206  1  0.531540  0.771190  0.377280  1.0  -0.0289
  C  C207  1  0.652850  0.413540  0.718890  1.0  -0.2155
  C  C208  1  0.160590  0.876460  0.558990  1.0  0.1793
  N  N209  1  0.049020  0.872150  0.041500  1.0  -0.3645
  N  N210  1  0.909480  0.958500  0.913650  1.0  -0.3644
  N  N211  1  0.950980  0.127850  0.958500  1.0  -0.362
  N  N212  1  0.377900  0.554140  0.570000  1.0  -0.4039
  N  N213  1  0.090520  0.041500  0.086350  1.0  -0.3662
  N  N214  1  0.625240  0.495540  0.584680  1.0  -0.3358
  N  N215  1  0.176240  0.124140  0.445860  1.0  -0.4036
  N  N216  1  0.129700  0.919780  0.495540  1.0  -0.336
  N  N217  1  0.870300  0.080220  0.504460  1.0  -0.3344
  N  N218  1  0.374760  0.504460  0.415320  1.0  -0.3357
  N  N219  1  0.176870  0.086350  0.872150  1.0  -0.3634
  N  N220  1  0.823760  0.875860  0.554140  1.0  -0.4052
  N  N221  1  0.947900  0.570000  0.875860  1.0  -0.4009
  N  N222  1  0.209920  0.584680  0.919780  1.0  -0.3338
  N  N223  1  0.823130  0.913650  0.127850  1.0  -0.3657
  N  N224  1  0.052100  0.430000  0.124140  1.0  -0.4052
  N  N225  1  0.622100  0.445860  0.430000  1.0  -0.4032
  N  N226  1  0.790080  0.415320  0.080220  1.0  -0.3363
  O  O227  1  0.997780  0.576670  0.066540  1.0  -0.5757
  O  O228  1  0.421110  0.356790  0.576670  1.0  -0.5749
  O  O229  1  0.578890  0.643210  0.423330  1.0  -0.5758
  O  O230  1  0.002220  0.423330  0.933460  1.0  -0.5751
  O  O231  1  0.064320  0.066540  0.356790  1.0  -0.5737
  O  O232  1  0.935680  0.933460  0.643210  1.0  -0.5755
