# generated using pymatgen
data_Be2P2HO8
_symmetry_space_group_name_H-M   'P 1'
_cell_length_a   11.68400000
_cell_length_b   13.62000000
_cell_length_c   11.74800000
_cell_angle_alpha   90.00000000
_cell_angle_beta   91.42700000
_cell_angle_gamma   90.00000000
_symmetry_Int_Tables_number   1
_chemical_formula_structural   Be2P2HO8
_chemical_formula_sum   'Be16 P16 H8 O64'
_cell_volume   1868.95086167
_cell_formula_units_Z   8
loop_
 _symmetry_equiv_pos_site_id
 _symmetry_equiv_pos_as_xyz
  1  'x, y, z'
loop_
 _atom_site_type_symbol
 _atom_site_label
 _atom_site_symmetry_multiplicity
 _atom_site_fract_x
 _atom_site_fract_y
 _atom_site_fract_z
 _atom_site_occupancy
 _atom_site_charge
  Be  Be1  1  0.352100  0.244700  0.645100  1.0  1.1875
  Be  Be2  1  0.286400  0.605900  0.540100  1.0  1.0383
  Be  Be3  1  0.852100  0.744700  0.645100  1.0  1.1875
  Be  Be4  1  0.786400  0.105900  0.540100  1.0  1.0383
  Be  Be5  1  0.647900  0.244700  0.854900  1.0  1.1866
  Be  Be6  1  0.713600  0.605900  0.959900  1.0  1.0418
  Be  Be7  1  0.147900  0.744700  0.854900  1.0  1.1866
  Be  Be8  1  0.213600  0.105900  0.959900  1.0  1.0418
  Be  Be9  1  0.647900  0.755300  0.354900  1.0  1.1859
  Be  Be10  1  0.713600  0.394100  0.459900  1.0  1.042
  Be  Be11  1  0.147900  0.255300  0.354900  1.0  1.1859
  Be  Be12  1  0.213600  0.894100  0.459900  1.0  1.042
  Be  Be13  1  0.352100  0.755300  0.145100  1.0  1.1881
  Be  Be14  1  0.286400  0.394100  0.040100  1.0  1.038
  Be  Be15  1  0.852100  0.255300  0.145100  1.0  1.1881
  Be  Be16  1  0.786400  0.894100  0.040100  1.0  1.038
  P  P17  1  0.301550  0.398360  0.471010  1.0  2.0055
  P  P18  1  0.399150  0.246710  0.899040  1.0  1.9131
  P  P19  1  0.801550  0.898360  0.471010  1.0  2.0055
  P  P20  1  0.899150  0.746710  0.899040  1.0  1.9131
  P  P21  1  0.698450  0.398360  0.028990  1.0  2.0073
  P  P22  1  0.600850  0.246710  0.600960  1.0  1.9126
  P  P23  1  0.198450  0.898360  0.028990  1.0  2.0073
  P  P24  1  0.100850  0.746710  0.600960  1.0  1.9126
  P  P25  1  0.698450  0.601640  0.528990  1.0  2.0094
  P  P26  1  0.600850  0.753290  0.100960  1.0  1.913
  P  P27  1  0.198450  0.101640  0.528990  1.0  2.0094
  P  P28  1  0.100850  0.253290  0.100960  1.0  1.913
  P  P29  1  0.301550  0.601640  0.971010  1.0  2.0071
  P  P30  1  0.399150  0.753290  0.399040  1.0  1.9136
  P  P31  1  0.801550  0.101640  0.971010  1.0  2.0071
  P  P32  1  0.899150  0.253290  0.399040  1.0  1.9136
  H  H33  1  0.476000  0.388000  0.464000  1.0  0.4408
  H  H34  1  0.976000  0.888000  0.464000  1.0  0.4408
  H  H35  1  0.524000  0.388000  0.036000  1.0  0.4411
  H  H36  1  0.024000  0.888000  0.036000  1.0  0.4411
  H  H37  1  0.524000  0.612000  0.536000  1.0  0.4408
  H  H38  1  0.024000  0.112000  0.536000  1.0  0.4408
  H  H39  1  0.476000  0.612000  0.964000  1.0  0.4405
  H  H40  1  0.976000  0.112000  0.964000  1.0  0.4405
  O  O41  1  0.353300  0.267500  0.779700  1.0  -0.8023
  O  O42  1  0.299300  0.341400  0.580900  1.0  -0.8467
  O  O43  1  0.237200  0.348400  0.372100  1.0  -0.9382
  O  O44  1  0.524100  0.214900  0.902200  1.0  -0.8649
  O  O45  1  0.252300  0.501000  0.484900  1.0  -0.8449
  O  O46  1  0.388300  0.342100  0.969800  1.0  -0.7222
  O  O47  1  0.330700  0.165100  0.956700  1.0  -0.8674
  O  O48  1  0.427400  0.411100  0.430200  1.0  -0.6995
  O  O49  1  0.853300  0.767500  0.779700  1.0  -0.8023
  O  O50  1  0.799300  0.841400  0.580900  1.0  -0.8467
  O  O51  1  0.737200  0.848400  0.372100  1.0  -0.9382
  O  O52  1  0.024100  0.714900  0.902200  1.0  -0.8649
  O  O53  1  0.752300  0.001000  0.484900  1.0  -0.8449
  O  O54  1  0.888300  0.842100  0.969800  1.0  -0.7222
  O  O55  1  0.830700  0.665100  0.956700  1.0  -0.8674
  O  O56  1  0.927400  0.911100  0.430200  1.0  -0.6995
  O  O57  1  0.646700  0.267500  0.720300  1.0  -0.8026
  O  O58  1  0.700700  0.341400  0.919100  1.0  -0.8434
  O  O59  1  0.762800  0.348400  0.127900  1.0  -0.9411
  O  O60  1  0.475900  0.214900  0.597800  1.0  -0.8653
  O  O61  1  0.747700  0.501000  0.015100  1.0  -0.8464
  O  O62  1  0.611700  0.342100  0.530200  1.0  -0.7221
  O  O63  1  0.669300  0.165100  0.543300  1.0  -0.8654
  O  O64  1  0.572600  0.411100  0.069800  1.0  -0.6982
  O  O65  1  0.146700  0.767500  0.720300  1.0  -0.8026
  O  O66  1  0.200700  0.841400  0.919100  1.0  -0.8434
  O  O67  1  0.262800  0.848400  0.127900  1.0  -0.9411
  O  O68  1  0.975900  0.714900  0.597800  1.0  -0.8653
  O  O69  1  0.247700  0.001000  0.015100  1.0  -0.8464
  O  O70  1  0.111700  0.842100  0.530200  1.0  -0.7221
  O  O71  1  0.169300  0.665100  0.543300  1.0  -0.8654
  O  O72  1  0.072600  0.911100  0.069800  1.0  -0.6982
  O  O73  1  0.646700  0.732500  0.220300  1.0  -0.8031
  O  O74  1  0.700700  0.658600  0.419100  1.0  -0.8434
  O  O75  1  0.762800  0.651600  0.627900  1.0  -0.9397
  O  O76  1  0.475900  0.785100  0.097800  1.0  -0.8658
  O  O77  1  0.747700  0.499000  0.515100  1.0  -0.8465
  O  O78  1  0.611700  0.657900  0.030200  1.0  -0.7229
  O  O79  1  0.669300  0.834900  0.043300  1.0  -0.869
  O  O80  1  0.572600  0.588900  0.569800  1.0  -0.6978
  O  O81  1  0.146700  0.232500  0.220300  1.0  -0.8031
  O  O82  1  0.200700  0.158600  0.419100  1.0  -0.8434
  O  O83  1  0.262800  0.151600  0.627900  1.0  -0.9397
  O  O84  1  0.975900  0.285100  0.097800  1.0  -0.8658
  O  O85  1  0.247700  0.999000  0.515100  1.0  -0.8465
  O  O86  1  0.111700  0.157900  0.030200  1.0  -0.7229
  O  O87  1  0.169300  0.334900  0.043300  1.0  -0.869
  O  O88  1  0.072600  0.088900  0.569800  1.0  -0.6978
  O  O89  1  0.353300  0.732500  0.279700  1.0  -0.8028
  O  O90  1  0.299300  0.658600  0.080900  1.0  -0.8467
  O  O91  1  0.237200  0.651600  0.872100  1.0  -0.9384
  O  O92  1  0.524100  0.785100  0.402200  1.0  -0.8678
  O  O93  1  0.252300  0.499000  0.984900  1.0  -0.8457
  O  O94  1  0.388300  0.657900  0.469800  1.0  -0.7219
  O  O95  1  0.330700  0.834900  0.456700  1.0  -0.8703
  O  O96  1  0.427400  0.588900  0.930200  1.0  -0.7006
  O  O97  1  0.853300  0.232500  0.279700  1.0  -0.8028
  O  O98  1  0.799300  0.158600  0.080900  1.0  -0.8467
  O  O99  1  0.737200  0.151600  0.872100  1.0  -0.9384
  O  O100  1  0.024100  0.285100  0.402200  1.0  -0.8678
  O  O101  1  0.752300  0.999000  0.984900  1.0  -0.8457
  O  O102  1  0.888300  0.157900  0.469800  1.0  -0.7219
  O  O103  1  0.830700  0.334900  0.456700  1.0  -0.8703
  O  O104  1  0.927400  0.088900  0.930200  1.0  -0.7006
