# generated using pymatgen
data_SrP2H14C6(NO3)2
_symmetry_space_group_name_H-M   'P 1'
_cell_length_a   7.13300000
_cell_length_b   10.51900000
_cell_length_c   11.51900000
_cell_angle_alpha   74.03400000
_cell_angle_beta   83.17400000
_cell_angle_gamma   72.58500000
_symmetry_Int_Tables_number   1
_chemical_formula_structural   SrP2H14C6(NO3)2
_chemical_formula_sum   'Sr2 P4 H28 C12 N4 O12'
_cell_volume   792.23574094
_cell_formula_units_Z   2
loop_
 _symmetry_equiv_pos_site_id
 _symmetry_equiv_pos_as_xyz
  1  'x, y, z'
loop_
 _atom_site_type_symbol
 _atom_site_label
 _atom_site_symmetry_multiplicity
 _atom_site_fract_x
 _atom_site_fract_y
 _atom_site_fract_z
 _atom_site_occupancy
 _atom_site_charge
  Sr  Sr1  1  0.779220  0.400070  0.540960  1.0  1.6881
  Sr  Sr2  1  0.220780  0.599930  0.459040  1.0  1.6846
  P  P3  1  0.287670  0.322010  0.676690  1.0  1.5687
  P  P4  1  0.822730  0.258260  0.316390  1.0  1.4302
  P  P5  1  0.712330  0.677990  0.323310  1.0  1.569
  P  P6  1  0.177270  0.741740  0.683610  1.0  1.4311
  H  H7  1  0.545900  0.151300  0.532500  1.0  0.2437
  H  H8  1  0.879500  0.515300  0.145900  1.0  0.2498
  H  H9  1  0.238600  0.034700  0.557000  1.0  0.0969
  H  H10  1  0.224000  0.188200  0.487900  1.0  0.1155
  H  H11  1  0.722200  0.944100  0.651400  1.0  0.1023
  H  H12  1  0.541300  0.886200  0.657300  1.0  0.1029
  H  H13  1  0.304400  0.088200  0.731600  1.0  0.1515
  H  H14  1  0.508900  0.106200  0.747200  1.0  0.1619
  H  H15  1  0.784600  0.482900  0.932500  1.0  0.1053
  H  H16  1  0.662000  0.601400  0.992000  1.0  0.1032
  H  H17  1  0.127800  0.314500  0.160900  1.0  0.1059
  H  H18  1  0.069900  0.307200  0.036000  1.0  0.1036
  H  H19  1  0.607800  0.442100  0.185400  1.0  0.1627
  H  H20  1  0.706000  0.324800  0.119800  1.0  0.1431
  H  H21  1  0.454100  0.848700  0.467500  1.0  0.245
  H  H22  1  0.120500  0.484700  0.854100  1.0  0.2491
  H  H23  1  0.761400  0.965300  0.443000  1.0  0.1004
  H  H24  1  0.776000  0.811800  0.512100  1.0  0.1124
  H  H25  1  0.277800  0.055900  0.348600  1.0  0.103
  H  H26  1  0.458700  0.113800  0.342700  1.0  0.1033
  H  H27  1  0.695600  0.911800  0.268400  1.0  0.1634
  H  H28  1  0.491100  0.893800  0.252800  1.0  0.1614
  H  H29  1  0.215400  0.517100  0.067500  1.0  0.1042
  H  H30  1  0.338000  0.398600  0.008000  1.0  0.1031
  H  H31  1  0.872200  0.685500  0.839100  1.0  0.1072
  H  H32  1  0.930100  0.692800  0.964000  1.0  0.1007
  H  H33  1  0.392200  0.557900  0.814600  1.0  0.1622
  H  H34  1  0.294000  0.675200  0.880200  1.0  0.142
  C  C35  1  0.312300  0.095700  0.507800  1.0  -0.094
  C  C36  1  0.612200  0.948400  0.606900  1.0  -0.1063
  C  C37  1  0.401000  0.136400  0.693100  1.0  -0.5259
  C  C38  1  0.793100  0.542800  0.981200  1.0  -0.1027
  C  C39  1  0.074600  0.369400  0.083400  1.0  -0.0901
  C  C40  1  0.731600  0.377500  0.170300  1.0  -0.4707
  C  C41  1  0.687700  0.904300  0.492200  1.0  -0.0949
  C  C42  1  0.387800  0.051600  0.393100  1.0  -0.1064
  C  C43  1  0.599000  0.863600  0.306900  1.0  -0.5255
  C  C44  1  0.206900  0.457200  0.018800  1.0  -0.1039
  C  C45  1  0.925400  0.630600  0.916600  1.0  -0.0909
  C  C46  1  0.268400  0.622500  0.829700  1.0  -0.469
  N  N47  1  0.478000  0.093000  0.578300  1.0  0.1479
  N  N48  1  0.871000  0.457000  0.102500  1.0  0.1491
  N  N49  1  0.522000  0.907000  0.421700  1.0  0.1475
  N  N50  1  0.129000  0.543000  0.897500  1.0  0.1485
  O  O51  1  0.222300  0.323900  0.807500  1.0  -0.8871
  O  O52  1  0.119700  0.372200  0.592000  1.0  -0.9858
  O  O53  1  0.442500  0.397400  0.624300  1.0  -1.0257
  O  O54  1  0.915800  0.119800  0.290900  1.0  -0.8318
  O  O55  1  0.962500  0.320000  0.357500  1.0  -0.8985
  O  O56  1  0.639400  0.264400  0.400600  1.0  -0.9158
  O  O57  1  0.777700  0.676100  0.192500  1.0  -0.8862
  O  O58  1  0.880300  0.627800  0.408000  1.0  -0.9979
  O  O59  1  0.557500  0.602600  0.375700  1.0  -1.0247
  O  O60  1  0.084200  0.880200  0.709100  1.0  -0.8303
  O  O61  1  0.037500  0.680000  0.642500  1.0  -0.8906
  O  O62  1  0.360600  0.735600  0.599400  1.0  -0.9153
