# generated using pymatgen
data_TbH3C9NO7
_symmetry_space_group_name_H-M   'P 1'
_cell_length_a   12.97310000
_cell_length_b   12.97310000
_cell_length_c   14.78100000
_cell_angle_alpha   83.84000000
_cell_angle_beta   83.84000000
_cell_angle_gamma   62.22520000
_symmetry_Int_Tables_number   1
_chemical_formula_structural   TbH3C9NO7
_chemical_formula_sum   'Tb4 H12 C36 N4 O28'
_cell_volume   2183.69224956
_cell_formula_units_Z   4
loop_
 _symmetry_equiv_pos_site_id
 _symmetry_equiv_pos_as_xyz
  1  'x, y, z'
loop_
 _atom_site_type_symbol
 _atom_site_label
 _atom_site_symmetry_multiplicity
 _atom_site_fract_x
 _atom_site_fract_y
 _atom_site_fract_z
 _atom_site_occupancy
 _atom_site_charge
  Tb  Tb1  1  0.011770  0.649920  0.472760  1.0  2.2177
  Tb  Tb2  1  0.988230  0.350080  0.527240  1.0  2.2164
  Tb  Tb3  1  0.649920  0.011770  0.972760  1.0  2.2188
  Tb  Tb4  1  0.350080  0.988230  0.027240  1.0  2.2181
  H  H5  1  0.782000  0.735600  0.235200  1.0  0.1162
  H  H6  1  0.476100  0.711300  0.838500  1.0  0.1138
  H  H7  1  0.705300  0.518500  0.643400  1.0  0.114
  H  H8  1  0.735600  0.782000  0.735200  1.0  0.116
  H  H9  1  0.218000  0.264400  0.764800  1.0  0.1159
  H  H10  1  0.288700  0.523900  0.661500  1.0  0.1131
  H  H11  1  0.518500  0.705300  0.143400  1.0  0.1141
  H  H12  1  0.711300  0.476100  0.338500  1.0  0.1133
  H  H13  1  0.481500  0.294700  0.856600  1.0  0.1136
  H  H14  1  0.294700  0.481500  0.356600  1.0  0.1136
  H  H15  1  0.264400  0.218000  0.264800  1.0  0.116
  H  H16  1  0.523900  0.288700  0.161500  1.0  0.1132
  C  C17  1  0.438100  0.146100  0.137100  1.0  0.7609
  C  C18  1  0.581600  0.601400  0.742500  1.0  0.0319
  C  C19  1  0.649100  0.733900  0.177000  1.0  -0.1663
  C  C20  1  0.306200  0.457600  0.700700  1.0  -0.0712
  C  C21  1  0.350900  0.266100  0.823000  1.0  -0.1655
  C  C22  1  0.532800  0.521000  0.246700  1.0  -0.0805
  C  C23  1  0.303630  0.262630  0.263500  1.0  0.0382
  C  C24  1  0.561900  0.853900  0.862900  1.0  0.765
  C  C25  1  0.457600  0.306200  0.200700  1.0  -0.0723
  C  C26  1  0.321800  0.420200  0.318600  1.0  -0.0844
  C  C27  1  0.693800  0.542400  0.299300  1.0  -0.0715
  C  C28  1  0.240600  0.398200  0.702400  1.0  -0.1479
  C  C29  1  0.853900  0.561900  0.362900  1.0  0.7603
  C  C30  1  0.601400  0.581600  0.242500  1.0  0.03
  C  C31  1  0.398200  0.240600  0.202400  1.0  -0.1473
  C  C32  1  0.601800  0.759400  0.797600  1.0  -0.1477
  C  C33  1  0.168000  0.366400  0.393100  1.0  0.7565
  C  C34  1  0.420200  0.321800  0.818600  1.0  -0.0838
  C  C35  1  0.696370  0.737370  0.736500  1.0  0.0386
  C  C36  1  0.479000  0.467200  0.253300  1.0  -0.0812
  C  C37  1  0.418400  0.398600  0.257500  1.0  0.0338
  C  C38  1  0.737370  0.696370  0.236500  1.0  0.0382
  C  C39  1  0.678200  0.579800  0.681400  1.0  -0.0837
  C  C40  1  0.366400  0.168000  0.893100  1.0  0.7571
  C  C41  1  0.633600  0.832000  0.106900  1.0  0.7583
  C  C42  1  0.733900  0.649100  0.677000  1.0  -0.1654
  C  C43  1  0.467200  0.479000  0.753300  1.0  -0.0808
  C  C44  1  0.521000  0.532800  0.746700  1.0  -0.0797
  C  C45  1  0.542400  0.693800  0.799300  1.0  -0.0726
  C  C46  1  0.266100  0.350900  0.323000  1.0  -0.1655
  C  C47  1  0.398600  0.418400  0.757500  1.0  0.0321
  C  C48  1  0.579800  0.678200  0.181400  1.0  -0.085
  C  C49  1  0.832000  0.633600  0.606900  1.0  0.7561
  C  C50  1  0.146100  0.438100  0.637100  1.0  0.768
  C  C51  1  0.759400  0.601800  0.297600  1.0  -0.1491
  C  C52  1  0.262630  0.303630  0.763500  1.0  0.0371
  N  N53  1  0.275900  0.829900  0.967400  1.0  0.8729
  N  N54  1  0.724100  0.170100  0.032600  1.0  0.8743
  N  N55  1  0.170100  0.724100  0.532600  1.0  0.8731
  N  N56  1  0.829900  0.275900  0.467400  1.0  0.8731
  O  O57  1  0.364330  0.114530  0.120800  1.0  -0.7948
  O  O58  1  0.714710  0.857510  0.089600  1.0  -0.6199
  O  O59  1  0.062100  0.777900  0.548600  1.0  -0.5567
  O  O60  1  0.777900  0.062100  0.048600  1.0  -0.5572
  O  O61  1  0.885470  0.635670  0.379200  1.0  -0.7928
  O  O62  1  0.142490  0.285290  0.410400  1.0  -0.6232
  O  O63  1  0.743900  0.238500  0.069800  1.0  -0.4037
  O  O64  1  0.761500  0.256100  0.430200  1.0  -0.3996
  O  O65  1  0.256100  0.761500  0.930200  1.0  -0.4037
  O  O66  1  0.114530  0.364330  0.620800  1.0  -0.789
  O  O67  1  0.540780  0.883580  0.066400  1.0  -0.8004
  O  O68  1  0.459220  0.116420  0.933600  1.0  -0.8021
  O  O69  1  0.458590  0.895190  0.896000  1.0  -0.7007
  O  O70  1  0.222100  0.937900  0.951400  1.0  -0.558
  O  O71  1  0.116420  0.459220  0.433600  1.0  -0.8068
  O  O72  1  0.883580  0.540780  0.566400  1.0  -0.8059
  O  O73  1  0.104810  0.541410  0.604000  1.0  -0.6985
  O  O74  1  0.635670  0.885470  0.879200  1.0  -0.7935
  O  O75  1  0.645100  0.206700  0.977500  1.0  -0.5982
  O  O76  1  0.206700  0.645100  0.477500  1.0  -0.5975
  O  O77  1  0.857510  0.714710  0.589600  1.0  -0.6223
  O  O78  1  0.238500  0.743900  0.569800  1.0  -0.4013
  O  O79  1  0.793300  0.354900  0.522500  1.0  -0.5969
  O  O80  1  0.895190  0.458590  0.396000  1.0  -0.6997
  O  O81  1  0.354900  0.793300  0.022500  1.0  -0.5973
  O  O82  1  0.285290  0.142490  0.910400  1.0  -0.6209
  O  O83  1  0.541410  0.104810  0.104000  1.0  -0.7002
  O  O84  1  0.937900  0.222100  0.451400  1.0  -0.5572
