# generated using pymatgen
data_EuH3C9NO7
_symmetry_space_group_name_H-M   'P 1'
_cell_length_a   13.01770000
_cell_length_b   13.01770000
_cell_length_c   15.00200000
_cell_angle_alpha   83.69560000
_cell_angle_beta   83.69560000
_cell_angle_gamma   61.73200000
_symmetry_Int_Tables_number   1
_chemical_formula_structural   EuH3C9NO7
_chemical_formula_sum   'Eu4 H12 C36 N4 O28'
_cell_volume   2220.66561976
_cell_formula_units_Z   4
loop_
 _symmetry_equiv_pos_site_id
 _symmetry_equiv_pos_as_xyz
  1  'x, y, z'
loop_
 _atom_site_type_symbol
 _atom_site_label
 _atom_site_symmetry_multiplicity
 _atom_site_fract_x
 _atom_site_fract_y
 _atom_site_fract_z
 _atom_site_occupancy
 _atom_site_charge
  Eu  Eu1  1  0.989780  0.349020  0.527190  1.0  2.1274
  Eu  Eu2  1  0.349020  0.989780  0.027190  1.0  2.1295
  Eu  Eu3  1  0.010220  0.650980  0.472810  1.0  2.1259
  Eu  Eu4  1  0.650980  0.010220  0.972810  1.0  2.1284
  H  H5  1  0.780900  0.735300  0.235500  1.0  0.1224
  H  H6  1  0.702800  0.520400  0.641700  1.0  0.117
  H  H7  1  0.709100  0.476500  0.338300  1.0  0.121
  H  H8  1  0.290900  0.523500  0.661700  1.0  0.1217
  H  H9  1  0.523500  0.290900  0.161700  1.0  0.1214
  H  H10  1  0.297200  0.479600  0.358300  1.0  0.1172
  H  H11  1  0.479600  0.297200  0.858300  1.0  0.117
  H  H12  1  0.735300  0.780900  0.735500  1.0  0.1223
  H  H13  1  0.264700  0.219100  0.264500  1.0  0.1218
  H  H14  1  0.520400  0.702800  0.141700  1.0  0.1176
  H  H15  1  0.219100  0.264700  0.764500  1.0  0.1219
  H  H16  1  0.476500  0.709100  0.838300  1.0  0.1214
  C  C17  1  0.676800  0.580600  0.680100  1.0  -0.0202
  C  C18  1  0.303900  0.263300  0.263500  1.0  0.0438
  C  C19  1  0.466600  0.479200  0.752800  1.0  0.0456
  C  C20  1  0.533400  0.520800  0.247200  1.0  0.0419
  C  C21  1  0.829700  0.637500  0.606400  1.0  0.762
  C  C22  1  0.520800  0.533400  0.747200  1.0  0.0421
  C  C23  1  0.479200  0.466600  0.252800  1.0  0.0435
  C  C24  1  0.398200  0.418000  0.758100  1.0  0.0136
  C  C25  1  0.419400  0.323200  0.819900  1.0  -0.0215
  C  C26  1  0.692400  0.542400  0.299400  1.0  -0.08
  C  C27  1  0.349800  0.267400  0.824000  1.0  -0.1521
  C  C28  1  0.562600  0.853000  0.862400  1.0  0.7905
  C  C29  1  0.418000  0.398200  0.258100  1.0  0.0155
  C  C30  1  0.307600  0.457600  0.700600  1.0  -0.0803
  C  C31  1  0.242400  0.398200  0.701800  1.0  -0.1561
  C  C32  1  0.457600  0.307600  0.200600  1.0  -0.0802
  C  C33  1  0.736700  0.696100  0.236500  1.0  0.0439
  C  C34  1  0.398200  0.242400  0.201800  1.0  -0.1563
  C  C35  1  0.853000  0.562600  0.362400  1.0  0.7893
  C  C36  1  0.601800  0.582000  0.241900  1.0  0.0137
  C  C37  1  0.323200  0.419400  0.319900  1.0  -0.0216
  C  C38  1  0.601800  0.757600  0.798200  1.0  -0.1566
  C  C39  1  0.696100  0.736700  0.736500  1.0  0.0439
  C  C40  1  0.263300  0.303900  0.763500  1.0  0.0424
  C  C41  1  0.732600  0.650200  0.676000  1.0  -0.1523
  C  C42  1  0.542400  0.692400  0.799400  1.0  -0.081
  C  C43  1  0.147000  0.437400  0.637600  1.0  0.7768
  C  C44  1  0.757600  0.601800  0.298200  1.0  -0.1565
  C  C45  1  0.580600  0.676800  0.180100  1.0  -0.0226
  C  C46  1  0.362500  0.170300  0.893600  1.0  0.7629
  C  C47  1  0.637500  0.829700  0.106400  1.0  0.7644
  C  C48  1  0.582000  0.601800  0.741900  1.0  0.0157
  C  C49  1  0.170300  0.362500  0.393600  1.0  0.7616
  C  C50  1  0.650200  0.732600  0.176000  1.0  -0.1531
  C  C51  1  0.267400  0.349800  0.324000  1.0  -0.1522
  C  C52  1  0.437400  0.147000  0.137600  1.0  0.7745
  N  N53  1  0.828700  0.274900  0.469900  1.0  0.865
  N  N54  1  0.725100  0.171300  0.030100  1.0  0.8647
  N  N55  1  0.274900  0.828700  0.969900  1.0  0.8647
  N  N56  1  0.171300  0.725100  0.530100  1.0  0.8635
  O  O57  1  0.061500  0.781300  0.546600  1.0  -0.5925
  O  O58  1  0.893600  0.458600  0.396800  1.0  -0.7016
  O  O59  1  0.218700  0.938500  0.953400  1.0  -0.5923
  O  O60  1  0.740900  0.240300  0.068000  1.0  -0.401
  O  O61  1  0.883000  0.635600  0.378600  1.0  -0.7887
  O  O62  1  0.718800  0.854400  0.091400  1.0  -0.6809
  O  O63  1  0.458600  0.893600  0.896800  1.0  -0.7022
  O  O64  1  0.145600  0.281200  0.408600  1.0  -0.6815
  O  O65  1  0.781300  0.061500  0.046600  1.0  -0.5948
  O  O66  1  0.117000  0.364400  0.621400  1.0  -0.7861
  O  O67  1  0.259100  0.759700  0.932000  1.0  -0.4009
  O  O68  1  0.938500  0.218700  0.453400  1.0  -0.5904
  O  O69  1  0.117400  0.455400  0.434600  1.0  -0.8208
  O  O70  1  0.794100  0.353100  0.523200  1.0  -0.6048
  O  O71  1  0.281200  0.145600  0.908600  1.0  -0.6817
  O  O72  1  0.854400  0.718800  0.591400  1.0  -0.6812
  O  O73  1  0.541400  0.106400  0.103200  1.0  -0.7033
  O  O74  1  0.544600  0.882600  0.065400  1.0  -0.8149
  O  O75  1  0.205900  0.646900  0.476800  1.0  -0.6045
  O  O76  1  0.455400  0.117400  0.934600  1.0  -0.8165
  O  O77  1  0.240300  0.740900  0.568000  1.0  -0.3988
  O  O78  1  0.364400  0.117000  0.121400  1.0  -0.7926
  O  O79  1  0.646900  0.205900  0.976800  1.0  -0.6058
  O  O80  1  0.353100  0.794100  0.023200  1.0  -0.6057
  O  O81  1  0.882600  0.544600  0.565400  1.0  -0.8201
  O  O82  1  0.635600  0.883000  0.878600  1.0  -0.7936
  O  O83  1  0.759700  0.259100  0.432000  1.0  -0.398
  O  O84  1  0.106400  0.541400  0.603200  1.0  -0.7015
