# generated using pymatgen
data_ErH3C9NO7
_symmetry_space_group_name_H-M   'P 1'
_cell_length_a   12.94060000
_cell_length_b   12.94060000
_cell_length_c   14.63900000
_cell_angle_alpha   83.93200000
_cell_angle_beta   83.93200000
_cell_angle_gamma   61.62450000
_symmetry_Int_Tables_number   1
_chemical_formula_structural   ErH3C9NO7
_chemical_formula_sum   'Er4 H12 C36 N4 O28'
_cell_volume   2140.49907770
_cell_formula_units_Z   4
loop_
 _symmetry_equiv_pos_site_id
 _symmetry_equiv_pos_as_xyz
  1  'x, y, z'
loop_
 _atom_site_type_symbol
 _atom_site_label
 _atom_site_symmetry_multiplicity
 _atom_site_fract_x
 _atom_site_fract_y
 _atom_site_fract_z
 _atom_site_occupancy
 _atom_site_charge
  Er  Er1  1  0.348320  0.989720  0.027550  1.0  1.5596
  Er  Er2  1  0.651680  0.010280  0.972450  1.0  1.5583
  Er  Er3  1  0.010280  0.651680  0.472450  1.0  1.5586
  Er  Er4  1  0.989720  0.348320  0.527550  1.0  1.5577
  H  H5  1  0.217100  0.267700  0.764600  1.0  0.1415
  H  H6  1  0.698300  0.522300  0.640900  1.0  0.1358
  H  H7  1  0.473200  0.714000  0.841900  1.0  0.1517
  H  H8  1  0.732300  0.782900  0.735400  1.0  0.1432
  H  H9  1  0.522300  0.698300  0.140900  1.0  0.1365
  H  H10  1  0.301700  0.477700  0.359100  1.0  0.136
  H  H11  1  0.526800  0.286000  0.158100  1.0  0.1525
  H  H12  1  0.286000  0.526800  0.658100  1.0  0.1528
  H  H13  1  0.477700  0.301700  0.859100  1.0  0.136
  H  H14  1  0.714000  0.473200  0.341900  1.0  0.1517
  H  H15  1  0.782900  0.732300  0.235400  1.0  0.1433
  H  H16  1  0.267700  0.217100  0.264600  1.0  0.1421
  C  C17  1  0.350200  0.269000  0.823500  1.0  -0.1435
  C  C18  1  0.738100  0.693300  0.237000  1.0  0.0665
  C  C19  1  0.599800  0.760200  0.798700  1.0  -0.1116
  C  C20  1  0.303400  0.461200  0.698600  1.0  -0.0537
  C  C21  1  0.672900  0.582900  0.680300  1.0  -0.0846
  C  C22  1  0.731000  0.649800  0.676500  1.0  -0.1435
  C  C23  1  0.239800  0.400200  0.701300  1.0  -0.1114
  C  C24  1  0.649800  0.731000  0.176500  1.0  -0.1439
  C  C25  1  0.693300  0.738100  0.737000  1.0  0.0672
  C  C26  1  0.484500  0.460300  0.253700  1.0  0.0131
  C  C27  1  0.327100  0.417100  0.319700  1.0  -0.085
  C  C28  1  0.261900  0.306700  0.763000  1.0  0.0651
  C  C29  1  0.394600  0.422200  0.758200  1.0  0.0523
  C  C30  1  0.857100  0.560500  0.364600  1.0  0.7837
  C  C31  1  0.370800  0.169400  0.893200  1.0  0.7861
  C  C32  1  0.142900  0.439500  0.635400  1.0  0.7857
  C  C33  1  0.760200  0.599800  0.298700  1.0  -0.1112
  C  C34  1  0.560500  0.857100  0.864600  1.0  0.8021
  C  C35  1  0.269000  0.350200  0.323500  1.0  -0.1433
  C  C36  1  0.577800  0.605400  0.741800  1.0  0.0518
  C  C37  1  0.696600  0.538800  0.301400  1.0  -0.0549
  C  C38  1  0.515500  0.539700  0.746300  1.0  0.0171
  C  C39  1  0.422200  0.394600  0.258200  1.0  0.0531
  C  C40  1  0.417100  0.327100  0.819700  1.0  -0.0856
  C  C41  1  0.306700  0.261900  0.263000  1.0  0.0662
  C  C42  1  0.629200  0.830600  0.106800  1.0  0.7878
  C  C43  1  0.400200  0.239800  0.201300  1.0  -0.1108
  C  C44  1  0.169400  0.370800  0.393200  1.0  0.7865
  C  C45  1  0.830600  0.629200  0.606800  1.0  0.7871
  C  C46  1  0.460300  0.484500  0.753700  1.0  0.0136
  C  C47  1  0.538800  0.696600  0.801400  1.0  -0.0568
  C  C48  1  0.439500  0.142900  0.135400  1.0  0.7836
  C  C49  1  0.539700  0.515500  0.246300  1.0  0.0169
  C  C50  1  0.605400  0.577800  0.241800  1.0  0.0491
  C  C51  1  0.461200  0.303400  0.198600  1.0  -0.0553
  C  C52  1  0.582900  0.672900  0.180300  1.0  -0.0851
  N  N53  1  0.164100  0.728100  0.533200  1.0  0.8892
  N  N54  1  0.728100  0.164100  0.033200  1.0  0.8888
  N  N55  1  0.835900  0.271900  0.466800  1.0  0.8842
  N  N56  1  0.271900  0.835900  0.966800  1.0  0.888
  O  O57  1  0.899700  0.456300  0.396800  1.0  -0.6455
  O  O58  1  0.100300  0.543700  0.603200  1.0  -0.6424
  O  O59  1  0.219900  0.946100  0.951100  1.0  -0.5821
  O  O60  1  0.463900  0.118100  0.931700  1.0  -0.7272
  O  O61  1  0.536100  0.881900  0.068300  1.0  -0.7272
  O  O62  1  0.115600  0.363800  0.617700  1.0  -0.6872
  O  O63  1  0.745500  0.231500  0.072800  1.0  -0.3517
  O  O64  1  0.287600  0.145200  0.913800  1.0  -0.6131
  O  O65  1  0.854800  0.712400  0.586200  1.0  -0.6137
  O  O66  1  0.118100  0.463900  0.431700  1.0  -0.7316
  O  O67  1  0.647800  0.202000  0.978700  1.0  -0.5885
  O  O68  1  0.145200  0.287600  0.413800  1.0  -0.6145
  O  O69  1  0.456300  0.899700  0.896800  1.0  -0.645
  O  O70  1  0.884400  0.636200  0.382300  1.0  -0.6857
  O  O71  1  0.254500  0.768500  0.927200  1.0  -0.3499
  O  O72  1  0.780100  0.053900  0.048900  1.0  -0.577
  O  O73  1  0.053900  0.780100  0.548900  1.0  -0.5795
  O  O74  1  0.352200  0.798000  0.021300  1.0  -0.5871
  O  O75  1  0.202000  0.647800  0.478700  1.0  -0.5885
  O  O76  1  0.798000  0.352200  0.521300  1.0  -0.5876
  O  O77  1  0.946100  0.219900  0.451100  1.0  -0.5772
  O  O78  1  0.636200  0.884400  0.882300  1.0  -0.6897
  O  O79  1  0.543700  0.100300  0.103200  1.0  -0.644
  O  O80  1  0.712400  0.854800  0.086200  1.0  -0.6092
  O  O81  1  0.231500  0.745500  0.572800  1.0  -0.3497
  O  O82  1  0.363800  0.115600  0.117700  1.0  -0.6888
  O  O83  1  0.768500  0.254500  0.427200  1.0  -0.3464
  O  O84  1  0.881900  0.536100  0.568300  1.0  -0.7316
