# generated using pymatgen
data_YbH17C15(NO3)3
_symmetry_space_group_name_H-M   'P 1'
_cell_length_a   9.28814000
_cell_length_b   14.71130000
_cell_length_c   19.84710000
_cell_angle_alpha   74.97060000
_cell_angle_beta   76.46780000
_cell_angle_gamma   71.59810000
_symmetry_Int_Tables_number   1
_chemical_formula_structural   YbH17C15(NO3)3
_chemical_formula_sum   'Yb4 H68 C60 N12 O36'
_cell_volume   2450.73996694
_cell_formula_units_Z   4
loop_
 _symmetry_equiv_pos_site_id
 _symmetry_equiv_pos_as_xyz
  1  'x, y, z'
loop_
 _atom_site_type_symbol
 _atom_site_label
 _atom_site_symmetry_multiplicity
 _atom_site_fract_x
 _atom_site_fract_y
 _atom_site_fract_z
 _atom_site_occupancy
 _atom_site_charge
  Yb  Yb1  1  0.496160  0.531870  0.624870  1.0  1.3227
  Yb  Yb2  1  0.652900  0.968130  0.875130  1.0  1.324
  Yb  Yb3  1  0.503840  0.468130  0.375130  1.0  1.3196
  Yb  Yb4  1  0.347100  0.031870  0.124870  1.0  1.3268
  H  H5  1  0.522500  0.785100  0.512900  1.0  0.1262
  H  H6  1  0.442900  0.754500  0.330300  1.0  0.1283
  H  H7  1  0.445100  0.016900  0.352100  1.0  0.1221
  H  H8  1  0.716000  0.528000  0.734800  1.0  0.0448
  H  H9  1  0.891800  0.670100  0.781300  1.0  0.123
  H  H10  1  0.815000  0.585600  0.821200  1.0  0.1448
  H  H11  1  0.948700  0.569600  0.756800  1.0  0.1445
  H  H12  1  0.766600  0.785200  0.715800  1.0  0.111
  H  H13  1  0.744500  0.761800  0.646800  1.0  0.1196
  H  H14  1  0.604300  0.781900  0.707900  1.0  0.1379
  H  H15  1  0.798400  0.371200  0.551000  1.0  0.0526
  H  H16  1  0.200400  0.312200  0.517200  1.0  0.1304
  H  H17  1  0.082600  0.249500  0.535500  1.0  0.1429
  H  H18  1  0.073900  0.336700  0.470100  1.0  0.1293
  H  H19  1  0.179400  0.404100  0.576700  1.0  0.1191
  H  H20  1  0.040900  0.498300  0.569900  1.0  0.1374
  H  H21  1  0.043200  0.419300  0.640100  1.0  0.135
  H  H22  1  0.820500  0.714900  0.987100  1.0  0.1259
  H  H23  1  0.527700  0.745500  0.169700  1.0  0.1265
  H  H24  1  0.814100  0.483100  0.147900  1.0  0.1223
  H  H25  1  0.978800  0.972000  0.765200  1.0  0.0443
  H  H26  1  0.343200  0.829900  0.718700  1.0  0.1231
  H  H27  1  0.221800  0.914400  0.678800  1.0  0.1464
  H  H28  1  0.275100  0.930400  0.743200  1.0  0.1436
  H  H29  1  0.267600  0.714800  0.784200  1.0  0.1122
  H  H30  1  0.153100  0.738200  0.853200  1.0  0.1188
  H  H31  1  0.094100  0.718100  0.792100  1.0  0.1377
  H  H32  1  0.720600  0.128800  0.949000  1.0  0.0518
  H  H33  1  0.029800  0.187800  0.982800  1.0  0.1332
  H  H34  1  0.867600  0.250500  0.964500  1.0  0.1449
  H  H35  1  0.880700  0.163300  0.029900  1.0  0.1283
  H  H36  1  0.160200  0.095900  0.923300  1.0  0.1169
  H  H37  1  0.109100  0.001700  0.930100  1.0  0.1361
  H  H38  1  0.102600  0.080700  0.859900  1.0  0.1353
  H  H39  1  0.477500  0.214900  0.487100  1.0  0.1258
  H  H40  1  0.557100  0.245500  0.669700  1.0  0.129
  H  H41  1  0.554900  0.983100  0.647900  1.0  0.1223
  H  H42  1  0.284000  0.472000  0.265200  1.0  0.0443
  H  H43  1  0.108200  0.329900  0.218700  1.0  0.1242
  H  H44  1  0.185000  0.414400  0.178800  1.0  0.1443
  H  H45  1  0.051300  0.430400  0.243200  1.0  0.1446
  H  H46  1  0.233400  0.214800  0.284200  1.0  0.1106
  H  H47  1  0.255500  0.238200  0.353200  1.0  0.1185
  H  H48  1  0.395700  0.218100  0.292100  1.0  0.1412
  H  H49  1  0.201600  0.628800  0.449000  1.0  0.052
  H  H50  1  0.799600  0.687800  0.482800  1.0  0.1288
  H  H51  1  0.917400  0.750500  0.464500  1.0  0.1445
  H  H52  1  0.926100  0.663300  0.529900  1.0  0.1279
  H  H53  1  0.820600  0.595900  0.423300  1.0  0.1212
  H  H54  1  0.959100  0.501700  0.430100  1.0  0.1368
  H  H55  1  0.956800  0.580700  0.359900  1.0  0.1355
  H  H56  1  0.179500  0.285100  0.012900  1.0  0.1264
  H  H57  1  0.472300  0.254500  0.830300  1.0  0.1265
  H  H58  1  0.185900  0.516900  0.852100  1.0  0.1223
  H  H59  1  0.021200  0.028000  0.234800  1.0  0.0441
  H  H60  1  0.656800  0.170100  0.281300  1.0  0.1233
  H  H61  1  0.778200  0.085600  0.321200  1.0  0.1459
  H  H62  1  0.724900  0.069600  0.256800  1.0  0.1442
  H  H63  1  0.732400  0.285200  0.215800  1.0  0.1129
  H  H64  1  0.846900  0.261800  0.146800  1.0  0.1189
  H  H65  1  0.905900  0.281900  0.207900  1.0  0.1377
  H  H66  1  0.279400  0.871200  0.051000  1.0  0.0522
  H  H67  1  0.970200  0.812200  0.017200  1.0  0.1313
  H  H68  1  0.132400  0.749500  0.035500  1.0  0.1457
  H  H69  1  0.119300  0.836700  0.970100  1.0  0.1291
  H  H70  1  0.839800  0.904100  0.076700  1.0  0.1173
  H  H71  1  0.890900  0.998300  0.069900  1.0  0.1362
  H  H72  1  0.897400  0.919300  0.140100  1.0  0.1347
  C  C73  1  0.487900  0.910800  0.440200  1.0  0.0181
  C  C74  1  0.503500  0.811700  0.466900  1.0  -0.0853
  C  C75  1  0.491100  0.752400  0.426000  1.0  -0.12
  C  C76  1  0.455300  0.793500  0.357500  1.0  0.0278
  C  C77  1  0.438700  0.891800  0.331200  1.0  -0.1043
  C  C78  1  0.455300  0.950600  0.371000  1.0  -0.0748
  C  C79  1  0.498200  0.972900  0.482700  1.0  0.0149
  C  C80  1  0.519600  0.644100  0.454300  1.0  0.6855
  C  C81  1  0.403000  0.939400  0.257800  1.0  0.7285
  C  C82  1  0.686100  0.593700  0.713500  1.0  0.3782
  C  C83  1  0.860600  0.616300  0.775900  1.0  -0.1551
  C  C84  1  0.713200  0.753500  0.697100  1.0  -0.1343
  C  C85  1  0.842300  0.403100  0.572100  1.0  0.3533
  C  C86  1  0.096300  0.314000  0.517400  1.0  -0.1523
  C  C87  1  0.070300  0.429700  0.589500  1.0  -0.1465
  C  C88  1  0.838900  0.589200  0.059800  1.0  0.0177
  C  C89  1  0.782100  0.688300  0.033100  1.0  -0.0873
  C  C90  1  0.669500  0.747600  0.074000  1.0  -0.12
  C  C91  1  0.606300  0.706500  0.142500  1.0  0.0278
  C  C92  1  0.661700  0.608200  0.168800  1.0  -0.1032
  C  C93  1  0.776900  0.549400  0.129000  1.0  -0.0738
  C  C94  1  0.953800  0.527100  0.017300  1.0  0.0132
  C  C95  1  0.618000  0.855900  0.045700  1.0  0.6877
  C  C96  1  0.600200  0.560600  0.242200  1.0  0.7266
  C  C97  1  0.993300  0.906300  0.786500  1.0  0.3809
  C  C98  1  0.252800  0.883700  0.724100  1.0  -0.1555
  C  C99  1  0.163800  0.746500  0.802900  1.0  -0.134
  C  C100  1  0.817500  0.096900  0.927900  1.0  0.3555
  C  C101  1  0.927700  0.186000  0.982600  1.0  -0.1542
  C  C102  1  0.089500  0.070300  0.910500  1.0  -0.148
  C  C103  1  0.512100  0.089200  0.559800  1.0  0.0175
  C  C104  1  0.496500  0.188300  0.533100  1.0  -0.0835
  C  C105  1  0.508900  0.247600  0.574000  1.0  -0.1203
  C  C106  1  0.544700  0.206500  0.642500  1.0  0.0281
  C  C107  1  0.561300  0.108200  0.668800  1.0  -0.105
  C  C108  1  0.544700  0.049400  0.629000  1.0  -0.0758
  C  C109  1  0.501800  0.027100  0.517300  1.0  0.0152
  C  C110  1  0.480400  0.355900  0.545700  1.0  0.6875
  C  C111  1  0.597000  0.060600  0.742200  1.0  0.728
  C  C112  1  0.313900  0.406300  0.286500  1.0  0.3795
  C  C113  1  0.139400  0.383700  0.224100  1.0  -0.1555
  C  C114  1  0.286800  0.246500  0.302900  1.0  -0.134
  C  C115  1  0.157700  0.596900  0.427900  1.0  0.3556
  C  C116  1  0.903700  0.686000  0.482600  1.0  -0.1543
  C  C117  1  0.929700  0.570300  0.410500  1.0  -0.1465
  C  C118  1  0.161100  0.410800  0.940200  1.0  0.0179
  C  C119  1  0.217900  0.311700  0.966900  1.0  -0.0875
  C  C120  1  0.330500  0.252400  0.926000  1.0  -0.12
  C  C121  1  0.393700  0.293500  0.857500  1.0  0.0277
  C  C122  1  0.338300  0.391800  0.831200  1.0  -0.1043
  C  C123  1  0.223100  0.450600  0.871000  1.0  -0.0738
  C  C124  1  0.046200  0.472900  0.982700  1.0  0.0133
  C  C125  1  0.382000  0.144100  0.954300  1.0  0.6861
  C  C126  1  0.399800  0.439400  0.757800  1.0  0.7268
  C  C127  1  0.006700  0.093700  0.213500  1.0  0.381
  C  C128  1  0.747200  0.116300  0.275900  1.0  -0.1544
  C  C129  1  0.836200  0.253500  0.197100  1.0  -0.1338
  C  C130  1  0.182500  0.903100  0.072100  1.0  0.3561
  C  C131  1  0.072300  0.814000  0.017400  1.0  -0.1526
  C  C132  1  0.910500  0.929700  0.089500  1.0  -0.1472
  N  N133  1  0.748800  0.652400  0.728000  1.0  0.0331
  N  N134  1  0.991500  0.380300  0.562300  1.0  -0.0011
  N  N135  1  0.218100  0.671700  0.605100  1.0  0.7369
  N  N136  1  0.129200  0.847600  0.772000  1.0  0.0322
  N  N137  1  0.934100  0.119700  0.937700  1.0  -0.0029
  N  N138  1  0.494900  0.828300  0.894900  1.0  0.7358
  N  N139  1  0.251200  0.347600  0.272000  1.0  0.0329
  N  N140  1  0.008500  0.619700  0.437700  1.0  -0.0038
  N  N141  1  0.781900  0.328300  0.394900  1.0  0.7351
  N  N142  1  0.870800  0.152400  0.228000  1.0  0.032
  N  N143  1  0.065900  0.880300  0.062300  1.0  -0.0013
  N  N144  1  0.505100  0.171700  0.105100  1.0  0.737
  O  O145  1  0.557300  0.611600  0.514600  1.0  -0.6512
  O  O146  1  0.506000  0.593500  0.415900  1.0  -0.6587
  O  O147  1  0.438500  0.017100  0.227700  1.0  -0.6051
  O  O148  1  0.339900  0.902200  0.227400  1.0  -0.5803
  O  O149  1  0.592500  0.617400  0.674600  1.0  -0.5782
  O  O150  1  0.755400  0.461700  0.605700  1.0  -0.5921
  O  O151  1  0.250000  0.590000  0.585400  1.0  -0.66
  O  O152  1  0.314600  0.692500  0.624900  1.0  -0.5801
  O  O153  1  0.084700  0.724900  0.601700  1.0  -0.4688
  O  O154  1  0.683500  0.888400  0.985400  1.0  -0.6524
  O  O155  1  0.515400  0.906500  0.084100  1.0  -0.6608
  O  O156  1  0.683300  0.482900  0.272300  1.0  -0.6043
  O  O157  1  0.469500  0.597800  0.272600  1.0  -0.5791
  O  O158  1  0.884500  0.882600  0.825400  1.0  -0.5773
  O  O159  1  0.822800  0.038300  0.894300  1.0  -0.5905
  O  O160  1  0.425400  0.910000  0.914600  1.0  -0.6591
  O  O161  1  0.632000  0.807500  0.875100  1.0  -0.5816
  O  O162  1  0.411300  0.775100  0.898300  1.0  -0.4685
  O  O163  1  0.442700  0.388400  0.485400  1.0  -0.6507
  O  O164  1  0.494000  0.406500  0.584100  1.0  -0.6596
  O  O165  1  0.561500  0.982900  0.772300  1.0  -0.604
  O  O166  1  0.660100  0.097800  0.772600  1.0  -0.5788
  O  O167  1  0.407500  0.382600  0.325400  1.0  -0.5775
  O  O168  1  0.244600  0.538300  0.394300  1.0  -0.5912
  O  O169  1  0.750000  0.410000  0.414600  1.0  -0.6589
  O  O170  1  0.685400  0.307500  0.375100  1.0  -0.5806
  O  O171  1  0.915300  0.275100  0.398300  1.0  -0.4677
  O  O172  1  0.316500  0.111600  0.014600  1.0  -0.651
  O  O173  1  0.484600  0.093500  0.915900  1.0  -0.6584
  O  O174  1  0.316700  0.517100  0.727700  1.0  -0.6063
  O  O175  1  0.530500  0.402200  0.727400  1.0  -0.5789
  O  O176  1  0.115500  0.117400  0.174600  1.0  -0.5781
  O  O177  1  0.177200  0.961700  0.105700  1.0  -0.593
  O  O178  1  0.574600  0.090000  0.085400  1.0  -0.6604
  O  O179  1  0.368000  0.192500  0.124900  1.0  -0.5818
  O  O180  1  0.588700  0.224900  0.101700  1.0  -0.4692
