# generated using pymatgen
data_CdNiH20(C2N)6
_symmetry_space_group_name_H-M   'P 1'
_cell_length_a   11.52000000
_cell_length_b   7.63200000
_cell_length_c   7.03900000
_cell_angle_alpha   88.93000000
_cell_angle_beta   109.71000000
_cell_angle_gamma   82.81000000
_symmetry_Int_Tables_number   1
_chemical_formula_structural   CdNiH20(C2N)6
_chemical_formula_sum   'Cd1 Ni1 H20 C12 N6'
_cell_volume   576.80384430
_cell_formula_units_Z   1
loop_
 _symmetry_equiv_pos_site_id
 _symmetry_equiv_pos_as_xyz
  1  'x, y, z'
loop_
 _atom_site_type_symbol
 _atom_site_label
 _atom_site_symmetry_multiplicity
 _atom_site_fract_x
 _atom_site_fract_y
 _atom_site_fract_z
 _atom_site_occupancy
 _atom_site_charge
  Cd  Cd1  1  0.000000  0.000000  0.000000  1.0  0.9565
  Ni  Ni2  1  0.000000  0.500000  0.500000  1.0  0.311
  H  H3  1  0.748130  0.130300  0.921920  1.0  0.2158
  H  H4  1  0.765870  0.898070  0.948980  1.0  0.1334
  H  H5  1  0.815300  0.147430  0.276240  1.0  0.0802
  H  H6  1  0.846330  0.915490  0.312880  1.0  0.0937
  H  H7  1  0.595170  0.133000  0.109680  1.0  0.0759
  H  H8  1  0.623260  0.900480  0.128850  1.0  0.0826
  H  H9  1  0.669040  0.137880  0.481360  1.0  0.0787
  H  H10  1  0.707340  0.905860  0.505000  1.0  0.0911
  H  H11  1  0.447480  0.115650  0.305900  1.0  0.0786
  H  H12  1  0.481300  0.883580  0.324240  1.0  0.0777
  H  H13  1  0.251870  0.869700  0.078080  1.0  0.2169
  H  H14  1  0.234130  0.101930  0.051020  1.0  0.133
  H  H15  1  0.184700  0.852570  0.723760  1.0  0.0807
  H  H16  1  0.153670  0.084510  0.687120  1.0  0.0937
  H  H17  1  0.404830  0.867000  0.890320  1.0  0.0761
  H  H18  1  0.376740  0.099520  0.871150  1.0  0.0832
  H  H19  1  0.330960  0.862120  0.518640  1.0  0.0778
  H  H20  1  0.292660  0.094140  0.495000  1.0  0.0928
  H  H21  1  0.552520  0.884350  0.694100  1.0  0.0785
  H  H22  1  0.518700  0.116420  0.675760  1.0  0.0792
  C  C23  1  0.030900  0.323400  0.337900  1.0  0.1352
  C  C24  1  0.951400  0.335800  0.645800  1.0  0.12
  C  C25  1  0.786900  0.025000  0.213800  1.0  0.0373
  C  C26  1  0.654600  0.018500  0.201100  1.0  -0.1386
  C  C27  1  0.642000  0.017100  0.411900  1.0  -0.1633
  C  C28  1  0.508400  0.002900  0.397400  1.0  -0.1504
  C  C29  1  0.969100  0.676600  0.662100  1.0  0.134
  C  C30  1  0.048600  0.664200  0.354200  1.0  0.1212
  C  C31  1  0.213100  0.975000  0.786200  1.0  0.0372
  C  C32  1  0.345400  0.981500  0.798900  1.0  -0.1382
  C  C33  1  0.358000  0.982900  0.588100  1.0  -0.1629
  C  C34  1  0.491600  0.997100  0.602600  1.0  -0.15
  N  N35  1  0.046600  0.217400  0.235700  1.0  -0.447
  N  N36  1  0.927700  0.232700  0.741500  1.0  -0.4355
  N  N37  1  0.804000  0.014400  0.015100  1.0  -0.6011
  N  N38  1  0.953400  0.782600  0.764300  1.0  -0.4486
  N  N39  1  0.072300  0.767300  0.258500  1.0  -0.4337
  N  N40  1  0.196000  0.985600  0.984900  1.0  -0.6026
