# generated using pymatgen
data_CdNiH16(C2N)6
_symmetry_space_group_name_H-M   'P 1'
_cell_length_a   7.10100000
_cell_length_b   7.62600000
_cell_length_c   11.31560000
_cell_angle_alpha   90.00000000
_cell_angle_beta   106.60300000
_cell_angle_gamma   90.00000000
_symmetry_Int_Tables_number   1
_chemical_formula_structural   CdNiH16(C2N)6
_chemical_formula_sum   'Cd1 Ni1 H16 C12 N6'
_cell_volume   587.21729693
_cell_formula_units_Z   1
loop_
 _symmetry_equiv_pos_site_id
 _symmetry_equiv_pos_as_xyz
  1  'x, y, z'
loop_
 _atom_site_type_symbol
 _atom_site_label
 _atom_site_symmetry_multiplicity
 _atom_site_fract_x
 _atom_site_fract_y
 _atom_site_fract_z
 _atom_site_occupancy
 _atom_site_charge
  Cd  Cd1  1  0.000000  0.000000  0.000000  1.0  0.9752
  Ni  Ni2  1  0.500000  0.500000  0.000000  1.0  0.0314
  H  H3  1  0.820990  0.884750  0.757410  1.0  0.2856
  H  H4  1  0.539120  0.884750  0.832910  1.0  0.0791
  H  H5  1  0.489280  0.884750  0.608350  1.0  0.0739
  H  H6  1  0.197020  0.884750  0.688000  1.0  0.1117
  H  H7  1  0.179010  0.884750  0.242590  1.0  0.2851
  H  H8  1  0.460880  0.884750  0.167090  1.0  0.0784
  H  H9  1  0.510720  0.884750  0.391650  1.0  0.0749
  H  H10  1  0.802980  0.884750  0.312000  1.0  0.1117
  H  H11  1  0.179010  0.115250  0.242590  1.0  0.2837
  H  H12  1  0.460880  0.115250  0.167090  1.0  0.0781
  H  H13  1  0.510720  0.115250  0.391650  1.0  0.0751
  H  H14  1  0.802980  0.115250  0.312000  1.0  0.1115
  H  H15  1  0.820990  0.115250  0.757410  1.0  0.2847
  H  H16  1  0.539120  0.115250  0.832910  1.0  0.0788
  H  H17  1  0.489280  0.115250  0.608350  1.0  0.0751
  H  H18  1  0.197020  0.115250  0.688000  1.0  0.1115
  C  C19  1  0.693100  0.671300  0.038000  1.0  0.1242
  C  C20  1  0.306900  0.671300  0.962000  1.0  0.1223
  C  C21  1  0.306900  0.328700  0.962000  1.0  0.1224
  C  C22  1  0.693100  0.328700  0.038000  1.0  0.1228
  C  C23  1  0.575900  0.000000  0.787900  1.0  0.0712
  C  C24  1  0.452800  0.000000  0.654800  1.0  -0.174
  C  C25  1  0.233400  0.000000  0.642400  1.0  -0.1278
  C  C26  1  0.110500  0.000000  0.506500  1.0  -0.1169
  C  C27  1  0.424100  0.000000  0.212100  1.0  0.072
  C  C28  1  0.547200  0.000000  0.345200  1.0  -0.1754
  C  C29  1  0.766600  0.000000  0.357600  1.0  -0.1306
  C  C30  1  0.889500  0.000000  0.493500  1.0  -0.1202
  N  N31  1  0.811800  0.777000  0.057300  1.0  -0.4392
  N  N32  1  0.188200  0.777000  0.942700  1.0  -0.4385
  N  N33  1  0.188200  0.223000  0.942700  1.0  -0.4395
  N  N34  1  0.811800  0.223000  0.057300  1.0  -0.4395
  N  N35  1  0.787900  0.000000  0.805100  1.0  -0.6185
  N  N36  1  0.212100  0.000000  0.194900  1.0  -0.6204
