# generated using pymatgen
data_Cu3H12C30N10O13
_symmetry_space_group_name_H-M   'P 1'
_cell_length_a   27.93400000
_cell_length_b   27.93400000
_cell_length_c   28.49680000
_cell_angle_alpha   60.65110000
_cell_angle_beta   60.65110000
_cell_angle_gamma   89.99990000
_symmetry_Int_Tables_number   1
_chemical_formula_structural   Cu3H12C30N10O13
_chemical_formula_sum   'Cu24 H96 C240 N80 O104'
_cell_volume   16027.92050155
_cell_formula_units_Z   8
loop_
 _symmetry_equiv_pos_site_id
 _symmetry_equiv_pos_as_xyz
  1  'x, y, z'
loop_
 _atom_site_type_symbol
 _atom_site_label
 _atom_site_symmetry_multiplicity
 _atom_site_fract_x
 _atom_site_fract_y
 _atom_site_fract_z
 _atom_site_occupancy
 _atom_site_charge
  Cu  Cu1  1  0.038910  0.311870  0.725540  1.0  0.9035
  Cu  Cu2  1  0.235550  0.962590  0.725540  1.0  0.9027
  Cu  Cu3  1  0.926430  0.724100  0.000000  1.0  1.0055
  Cu  Cu4  1  0.949860  0.584770  0.364320  1.0  0.9008
  Cu  Cu5  1  0.961090  0.688130  0.274460  1.0  0.9023
  Cu  Cu6  1  0.688130  0.764450  0.274460  1.0  0.9056
  Cu  Cu7  1  0.685820  0.050910  0.364320  1.0  0.9018
  Cu  Cu8  1  0.367920  0.904160  0.000000  1.0  0.8921
  Cu  Cu9  1  0.314180  0.949090  0.635680  1.0  0.9016
  Cu  Cu10  1  0.962590  0.038910  0.725540  1.0  0.9026
  Cu  Cu11  1  0.904160  0.632080  0.000000  1.0  0.8935
  Cu  Cu12  1  0.632080  0.095840  0.000000  1.0  0.8891
  Cu  Cu13  1  0.584770  0.685820  0.364320  1.0  0.9026
  Cu  Cu14  1  0.311870  0.235550  0.725540  1.0  0.9038
  Cu  Cu15  1  0.764450  0.037410  0.274460  1.0  0.9022
  Cu  Cu16  1  0.724100  0.073570  0.000000  1.0  1.0043
  Cu  Cu17  1  0.073570  0.275900  0.000000  1.0  1.0074
  Cu  Cu18  1  0.275900  0.926430  0.000000  1.0  1.0008
  Cu  Cu19  1  0.050140  0.415230  0.635680  1.0  0.9023
  Cu  Cu20  1  0.095840  0.367920  0.000000  1.0  0.8948
  Cu  Cu21  1  0.037410  0.961090  0.274460  1.0  0.9013
  Cu  Cu22  1  0.415230  0.314180  0.635680  1.0  0.905
  Cu  Cu23  1  0.050910  0.949860  0.364320  1.0  0.9005
  Cu  Cu24  1  0.949090  0.050140  0.635680  1.0  0.9011
  H  H25  1  0.238800  0.487600  0.510000  1.0  0.1178
  H  H26  1  0.493700  0.240600  0.742200  1.0  0.1231
  H  H27  1  0.088300  0.148300  0.151600  1.0  0.1303
  H  H28  1  0.954800  0.623400  0.489000  1.0  0.1288
  H  H29  1  0.868400  0.981200  0.346800  1.0  0.1207
  H  H30  1  0.887600  0.954800  0.489000  1.0  0.129
  H  H31  1  0.284400  0.728400  0.165000  1.0  0.1209
  H  H32  1  0.802700  0.058700  0.840000  1.0  0.1319
  H  H33  1  0.512400  0.748800  0.490000  1.0  0.1192
  H  H34  1  0.162000  0.615000  0.837000  1.0  0.2464
  H  H35  1  0.548000  0.162000  0.837000  1.0  0.2467
  H  H36  1  0.614400  0.462100  0.556200  1.0  0.2453
  H  H37  1  0.521500  0.916600  0.118800  1.0  0.13
  H  H38  1  0.715600  0.271600  0.835000  1.0  0.121
  H  H39  1  0.087700  0.125600  0.303600  1.0  0.13
  H  H40  1  0.760100  0.700100  0.151600  1.0  0.1285
  H  H41  1  0.981200  0.784800  0.346800  1.0  0.1218
  H  H42  1  0.748800  0.997600  0.490000  1.0  0.1191
  H  H43  1  0.981700  0.614400  0.556200  1.0  0.2456
  H  H44  1  0.570800  0.087700  0.303600  1.0  0.1292
  H  H45  1  0.761200  0.512400  0.490000  1.0  0.1173
  H  H46  1  0.017200  0.493700  0.742200  1.0  0.1235
  H  H47  1  0.391300  0.429200  0.696400  1.0  0.1293
  H  H48  1  0.058700  0.357300  0.840000  1.0  0.132
  H  H49  1  0.131600  0.018800  0.653200  1.0  0.12
  H  H50  1  0.506300  0.759400  0.257800  1.0  0.1234
  H  H51  1  0.359700  0.964600  0.118800  1.0  0.1288
  H  H52  1  0.893400  0.715600  0.835000  1.0  0.1213
  H  H53  1  0.251200  0.002400  0.510000  1.0  0.1181
  H  H54  1  0.550600  0.106600  0.165000  1.0  0.1235
  H  H55  1  0.235900  0.982800  0.257800  1.0  0.1244
  H  H56  1  0.035400  0.478500  0.881200  1.0  0.1296
  H  H57  1  0.642700  0.898700  0.160000  1.0  0.1305
  H  H58  1  0.587700  0.491200  0.301000  1.0  0.2683
  H  H59  1  0.764100  0.017200  0.742200  1.0  0.1242
  H  H60  1  0.728400  0.550600  0.165000  1.0  0.1222
  H  H61  1  0.452000  0.838000  0.163000  1.0  0.2461
  H  H62  1  0.608700  0.570800  0.303600  1.0  0.1291
  H  H63  1  0.207800  0.587700  0.301000  1.0  0.2665
  H  H64  1  0.537900  0.170600  0.443800  1.0  0.2454
  H  H65  1  0.784800  0.672000  0.346800  1.0  0.1231
  H  H66  1  0.874400  0.391300  0.696400  1.0  0.1307
  H  H67  1  0.357300  0.101300  0.840000  1.0  0.1304
  H  H68  1  0.299900  0.911700  0.848400  1.0  0.1286
  H  H69  1  0.508800  0.888700  0.699000  1.0  0.2666
  H  H70  1  0.640300  0.035400  0.881200  1.0  0.1283
  H  H71  1  0.888700  0.792200  0.699000  1.0  0.2697
  H  H72  1  0.982800  0.506300  0.257800  1.0  0.1252
  H  H73  1  0.385600  0.537900  0.443800  1.0  0.2453
  H  H74  1  0.240600  0.764100  0.742200  1.0  0.1228
  H  H75  1  0.018300  0.385600  0.443800  1.0  0.2451
  H  H76  1  0.672000  0.868400  0.346800  1.0  0.126
  H  H77  1  0.462100  0.829400  0.556200  1.0  0.2464
  H  H78  1  0.838000  0.385000  0.163000  1.0  0.2447
  H  H79  1  0.112400  0.045200  0.511000  1.0  0.1285
  H  H80  1  0.101300  0.802700  0.840000  1.0  0.1308
  H  H81  1  0.898700  0.197300  0.160000  1.0  0.1309
  H  H82  1  0.997600  0.761200  0.490000  1.0  0.1202
  H  H83  1  0.429200  0.912300  0.696400  1.0  0.1301
  H  H84  1  0.999000  0.452000  0.163000  1.0  0.2471
  H  H85  1  0.125600  0.608700  0.303600  1.0  0.1306
  H  H86  1  0.911700  0.851700  0.848400  1.0  0.13
  H  H87  1  0.328000  0.131600  0.653200  1.0  0.1261
  H  H88  1  0.215200  0.328000  0.653200  1.0  0.1225
  H  H89  1  0.792200  0.412300  0.699000  1.0  0.2663
  H  H90  1  0.964600  0.521500  0.118800  1.0  0.13
  H  H91  1  0.615000  0.001000  0.837000  1.0  0.2458
  H  H92  1  0.376600  0.443800  0.511000  1.0  0.1299
  H  H93  1  0.912300  0.874400  0.696400  1.0  0.1302
  H  H94  1  0.449400  0.893400  0.835000  1.0  0.1241
  H  H95  1  0.045200  0.376600  0.511000  1.0  0.1277
  H  H96  1  0.941300  0.642700  0.160000  1.0  0.1314
  H  H97  1  0.478500  0.083400  0.881200  1.0  0.1301
  H  H98  1  0.239900  0.299900  0.848400  1.0  0.1287
  H  H99  1  0.851700  0.239900  0.848400  1.0  0.129
  H  H100  1  0.759400  0.235900  0.257800  1.0  0.1232
  H  H101  1  0.916600  0.359700  0.118800  1.0  0.1295
  H  H102  1  0.385000  0.999000  0.163000  1.0  0.2464
  H  H103  1  0.197300  0.941300  0.160000  1.0  0.1317
  H  H104  1  0.487600  0.251200  0.510000  1.0  0.1186
  H  H105  1  0.111300  0.207800  0.301000  1.0  0.2714
  H  H106  1  0.002400  0.238800  0.510000  1.0  0.1196
  H  H107  1  0.700100  0.088300  0.151600  1.0  0.1287
  H  H108  1  0.106600  0.284400  0.165000  1.0  0.121
  H  H109  1  0.170600  0.018300  0.443800  1.0  0.2444
  H  H110  1  0.001000  0.548000  0.837000  1.0  0.2471
  H  H111  1  0.491200  0.111300  0.301000  1.0  0.2678
  H  H112  1  0.412300  0.508800  0.699000  1.0  0.2683
  H  H113  1  0.556200  0.887600  0.489000  1.0  0.1293
  H  H114  1  0.443800  0.112400  0.511000  1.0  0.1293
  H  H115  1  0.018800  0.215200  0.653200  1.0  0.1215
  H  H116  1  0.083400  0.640300  0.881200  1.0  0.1299
  H  H117  1  0.148300  0.760100  0.151600  1.0  0.1289
  H  H118  1  0.271600  0.449400  0.835000  1.0  0.1228
  H  H119  1  0.829400  0.981700  0.556200  1.0  0.2475
  H  H120  1  0.623400  0.556200  0.489000  1.0  0.1303
  C  C121  1  0.922950  0.732240  0.714100  1.0  0.4448
  C  C122  1  0.989810  0.745680  0.470420  1.0  -0.0581
  C  C123  1  0.460230  0.216100  0.529580  1.0  -0.059
  C  C124  1  0.021610  0.492860  0.811860  1.0  0.1616
  C  C125  1  0.474330  0.185030  0.501680  1.0  0.2133
  C  C126  1  0.732240  0.362950  0.714100  1.0  0.4452
  C  C127  1  0.735350  0.662350  0.174200  1.0  0.0228
  C  C128  1  0.241830  0.652530  0.768740  1.0  0.5294
  C  C129  1  0.782580  0.594260  0.413460  1.0  -0.149
  C  C130  1  0.221710  0.752670  0.150000  1.0  -0.1349
  C  C131  1  0.799500  0.247680  0.225440  1.0  -0.0502
  C  C132  1  0.010570  0.421270  0.231260  1.0  0.5575
  C  C133  1  0.849810  0.354370  0.735660  1.0  -0.09
  C  C134  1  0.041470  0.323630  0.620040  1.0  0.6989
  C  C135  1  0.247680  0.975060  0.225440  1.0  -0.0499
  C  C136  1  0.318670  0.359330  0.768080  1.0  -0.1352
  C  C137  1  0.365390  0.145010  0.614900  1.0  0.0408
  C  C138  1  0.640670  0.086750  0.231920  1.0  -0.1348
  C  C139  1  0.336040  0.434140  0.530260  1.0  -0.1026
  C  C140  1  0.448470  0.903350  0.759560  1.0  0.2318
  C  C141  1  0.960440  0.576740  0.215320  1.0  -0.1368
  C  C142  1  0.662910  0.551530  0.240440  1.0  0.2313
  C  C143  1  0.916790  0.280410  0.133700  1.0  -0.1361
  C  C144  1  0.388170  0.664660  0.315280  1.0  0.3105
  C  C145  1  0.044650  0.344620  0.254900  1.0  0.292
  C  C146  1  0.299550  0.599520  0.745100  1.0  0.2901
  C  C147  1  0.854990  0.980290  0.385100  1.0  0.0333
  C  C148  1  0.945640  0.693910  0.654320  1.0  0.2581
  C  C149  1  0.338490  0.056330  0.620040  1.0  0.6981
  C  C150  1  0.426700  0.898940  0.817620  1.0  -0.0357
  C  C151  1  0.335340  0.703450  0.684720  1.0  0.3111
  C  C152  1  0.902350  0.740310  0.910000  1.0  0.704
  C  C153  1  0.955350  0.655380  0.745100  1.0  0.2936
  C  C154  1  0.585890  0.916790  0.133700  1.0  -0.1356
  C  C155  1  0.296550  0.020060  0.315280  1.0  0.3081
  C  C156  1  0.719590  0.050490  0.866300  1.0  -0.1352
  C  C157  1  0.611830  0.335340  0.684720  1.0  0.3134
  C  C158  1  0.146370  0.957940  0.255000  1.0  0.689
  C  C159  1  0.599960  0.348230  0.345680  1.0  0.2604
  C  C160  1  0.758170  0.347470  0.231260  1.0  0.5293
  C  C161  1  0.539770  0.783900  0.470420  1.0  -0.0569
  C  C162  1  0.042060  0.401370  0.745000  1.0  0.6894
  C  C163  1  0.573300  0.101060  0.182380  1.0  -0.0361
  C  C164  1  0.585470  0.090030  0.264340  1.0  -0.093
  C  C165  1  0.935410  0.618290  0.084320  1.0  0.7008
  C  C166  1  0.551530  0.096650  0.240440  1.0  0.2325
  C  C167  1  0.054360  0.306090  0.345680  1.0  0.2594
  C  C168  1  0.240090  0.365390  0.614900  1.0  0.0411
  C  C169  1  0.925240  0.936490  0.738060  1.0  0.7055
  C  C170  1  0.791970  0.337090  0.759560  1.0  0.2339
  C  C171  1  0.306090  0.599960  0.345680  1.0  0.2572
  C  C172  1  0.405740  0.196040  0.586540  1.0  -0.1494
  C  C173  1  0.401370  0.212940  0.745000  1.0  0.6893
  C  C174  1  0.187650  0.349690  0.910000  1.0  0.7028
  C  C175  1  0.007720  0.217420  0.586540  1.0  -0.1492
  C  C176  1  0.010190  0.254320  0.529580  1.0  -0.0581
  C  C177  1  0.024940  0.473120  0.774560  1.0  -0.0482
  C  C178  1  0.964200  0.535940  0.143040  1.0  -0.1147
  C  C179  1  0.117500  0.775680  0.831660  1.0  1e-04
  C  C180  1  0.227130  0.989300  0.619960  1.0  0.7047
  C  C181  1  0.970530  0.651150  0.599940  1.0  0.5214
  C  C182  1  0.349690  0.902350  0.910000  1.0  0.7057
  C  C183  1  0.607340  0.882500  0.168340  1.0  -0.0018
  C  C184  1  0.207940  0.960440  0.215320  1.0  -0.1361
  C  C185  1  0.050840  0.392660  0.831660  1.0  0.0043
  C  C186  1  0.628290  0.097330  0.150000  1.0  -0.1365
  C  C187  1  0.019710  0.240090  0.614900  1.0  0.0427
  C  C188  1  0.023990  0.313290  0.501680  1.0  0.2154
  C  C189  1  0.185030  0.023990  0.501680  1.0  0.214
  C  C190  1  0.074760  0.063510  0.261940  1.0  0.7052
  C  C191  1  0.872590  0.318670  0.768080  1.0  -0.1345
  C  C192  1  0.775680  0.050840  0.831660  1.0  0.0017
  C  C193  1  0.594260  0.803960  0.413460  1.0  -0.1496
  C  C194  1  0.323630  0.338490  0.620040  1.0  0.6974
  C  C195  1  0.337650  0.909550  0.825800  1.0  0.0263
  C  C196  1  0.833470  0.304720  0.188140  1.0  0.16
  C  C197  1  0.035600  0.336040  0.530260  1.0  -0.0976
  C  C198  1  0.029470  0.348850  0.400060  1.0  0.5194
  C  C199  1  0.792060  0.039560  0.784680  1.0  -0.1354
  C  C200  1  0.254320  0.460230  0.529580  1.0  -0.0526
  C  C201  1  0.423260  0.175760  0.784680  1.0  -0.136
  C  C202  1  0.752320  0.024940  0.774560  1.0  -0.0482
  C  C203  1  0.936490  0.336700  0.738060  1.0  0.704
  C  C204  1  0.752670  0.628290  0.150000  1.0  -0.1359
  C  C205  1  0.039560  0.423260  0.784680  1.0  -0.1363
  C  C206  1  0.380010  0.113740  0.586900  1.0  -0.137
  C  C207  1  0.980270  0.297390  0.084320  1.0  0.6996
  C  C208  1  0.354370  0.414530  0.735660  1.0  -0.0917
  C  C209  1  0.414530  0.909970  0.735660  1.0  -0.0918
  C  C210  1  0.957940  0.598630  0.255000  1.0  0.6898
  C  C211  1  0.655380  0.299550  0.745100  1.0  0.2901
  C  C212  1  0.464060  0.107240  0.856960  1.0  -0.1111
  C  C213  1  0.576740  0.824240  0.215320  1.0  -0.1364
  C  C214  1  0.989300  0.152910  0.619960  1.0  0.7045
  C  C215  1  0.598630  0.787060  0.255000  1.0  0.6892
  C  C216  1  0.145010  0.019710  0.614900  1.0  0.0323
  C  C217  1  0.651150  0.429530  0.599940  1.0  0.5223
  C  C218  1  0.244320  0.716560  0.182380  1.0  -0.0451
  C  C219  1  0.886260  0.966910  0.413100  1.0  -0.1346
  C  C220  1  0.033090  0.299360  0.586900  1.0  -0.1349
  C  C221  1  0.535940  0.892760  0.143040  1.0  -0.1132
  C  C222  1  0.783900  0.989810  0.470420  1.0  -0.0582
  C  C223  1  0.651770  0.945640  0.654320  1.0  0.2599
  C  C224  1  0.348230  0.054360  0.345680  1.0  0.2621
  C  C225  1  0.473120  0.200500  0.774560  1.0  -0.0458
  C  C226  1  0.787060  0.146370  0.255000  1.0  0.6889
  C  C227  1  0.097330  0.221710  0.150000  1.0  -0.1366
  C  C228  1  0.553660  0.922950  0.714100  1.0  0.4444
  C  C229  1  0.304720  0.978390  0.188140  1.0  0.1557
  C  C230  1  0.570470  0.251090  0.400060  1.0  0.5243
  C  C231  1  0.992280  0.782580  0.413460  1.0  -0.1485
  C  C232  1  0.446340  0.077050  0.285900  1.0  0.4454
  C  C233  1  0.086750  0.127410  0.231920  1.0  -0.1346
  C  C234  1  0.064590  0.381710  0.915680  1.0  0.7014
  C  C235  1  0.381710  0.019730  0.915680  1.0  0.7023
  C  C236  1  0.526880  0.799500  0.225440  1.0  -0.0488
  C  C237  1  0.609260  0.772870  0.380040  1.0  0.7044
  C  C238  1  0.096650  0.208030  0.240440  1.0  0.2333
  C  C239  1  0.980290  0.759910  0.385100  1.0  0.0411
  C  C240  1  0.216100  0.010190  0.529580  1.0  -0.0565
  C  C241  1  0.909970  0.849810  0.735660  1.0  -0.0901
  C  C242  1  0.217420  0.405740  0.586540  1.0  -0.149
  C  C243  1  0.063510  0.663300  0.261940  1.0  0.704
  C  C244  1  0.748910  0.970530  0.599940  1.0  0.5116
  C  C245  1  0.083210  0.719590  0.866300  1.0  -0.1363
  C  C246  1  0.264650  0.337650  0.825800  1.0  0.0221
  C  C247  1  0.772870  0.010700  0.380040  1.0  0.705
  C  C248  1  0.700450  0.400480  0.254900  1.0  0.2911
  C  C249  1  0.097650  0.259690  0.090000  1.0  0.7055
  C  C250  1  0.618290  0.980270  0.084320  1.0  0.7018
  C  C251  1  0.090450  0.163450  0.174200  1.0  0.0235
  C  C252  1  0.652530  0.989430  0.768740  1.0  0.5059
  C  C253  1  0.847090  0.609260  0.380040  1.0  0.704
  C  C254  1  0.693910  0.400040  0.654320  1.0  0.2579
  C  C255  1  0.107240  0.678980  0.856960  1.0  -0.1119
  C  C256  1  0.259690  0.812350  0.090000  1.0  0.704
  C  C257  1  0.703450  0.979940  0.684720  1.0  0.3093
  C  C258  1  0.949510  0.585890  0.133700  1.0  -0.1358
  C  C259  1  0.056330  0.041470  0.620040  1.0  0.6969
  C  C260  1  0.976010  0.686710  0.498320  1.0  0.2137
  C  C261  1  0.599520  0.955350  0.745100  1.0  0.2908
  C  C262  1  0.662350  0.090450  0.174200  1.0  0.0276
  C  C263  1  0.200500  0.752320  0.774560  1.0  -0.0487
  C  C264  1  0.619990  0.886260  0.413100  1.0  -0.1372
  C  C265  1  0.814970  0.976010  0.498320  1.0  0.2135
  C  C266  1  0.824240  0.207940  0.215320  1.0  -0.135
  C  C267  1  0.975060  0.526880  0.225440  1.0  -0.0495
  C  C268  1  0.645630  0.585470  0.264340  1.0  -0.0939
  C  C269  1  0.283440  0.426700  0.817620  1.0  -0.0445
  C  C270  1  0.392660  0.117500  0.831660  1.0  -0.0023
  C  C271  1  0.050490  0.414110  0.866300  1.0  -0.1359
  C  C272  1  0.010700  0.847090  0.380040  1.0  0.7041
  C  C273  1  0.196040  0.007720  0.586540  1.0  -0.1498
  C  C274  1  0.964400  0.663960  0.469740  1.0  -0.0973
  C  C275  1  0.958530  0.676370  0.379960  1.0  0.6981
  C  C276  1  0.803960  0.992280  0.413460  1.0  -0.1497
  C  C277  1  0.989430  0.578730  0.768740  1.0  0.5354
  C  C278  1  0.113740  0.033090  0.586900  1.0  -0.1349
  C  C279  1  0.362950  0.553660  0.714100  1.0  0.4601
  C  C280  1  0.019730  0.702610  0.915680  1.0  0.6998
  C  C281  1  0.978390  0.507140  0.188140  1.0  0.1612
  C  C282  1  0.812350  0.650310  0.090000  1.0  0.7036
  C  C283  1  0.695280  0.021610  0.811860  1.0  0.1578
  C  C284  1  0.565860  0.866300  0.469740  1.0  -0.102
  C  C285  1  0.745680  0.539770  0.470420  1.0  -0.0588
  C  C286  1  0.336700  0.325450  0.738060  1.0  0.7046
  C  C287  1  0.434140  0.133700  0.530260  1.0  -0.1013
  C  C288  1  0.892760  0.321020  0.143040  1.0  -0.1091
  C  C289  1  0.359330  0.913250  0.768080  1.0  -0.1348
  C  C290  1  0.637050  0.446340  0.285900  1.0  0.4438
  C  C291  1  0.224320  0.949160  0.168340  1.0  0.0021
  C  C292  1  0.853630  0.042060  0.745000  1.0  0.6881
  C  C293  1  0.414110  0.083210  0.866300  1.0  -0.1356
  C  C294  1  0.101060  0.244320  0.182380  1.0  -0.0407
  C  C295  1  0.247330  0.371710  0.850000  1.0  -0.1364
  C  C296  1  0.492860  0.166530  0.811860  1.0  0.1588
  C  C297  1  0.429530  0.748910  0.599940  1.0  0.5168
  C  C298  1  0.903350  0.791970  0.759560  1.0  0.2325
  C  C299  1  0.348850  0.570470  0.400060  1.0  0.512
  C  C300  1  0.943670  0.958530  0.379960  1.0  0.6968
  C  C301  1  0.152910  0.390740  0.619960  1.0  0.704
  C  C302  1  0.866300  0.964400  0.469740  1.0  -0.1048
  C  C303  1  0.634610  0.854990  0.385100  1.0  0.0402
  C  C304  1  0.676370  0.661510  0.379960  1.0  0.6974
  C  C305  1  0.208030  0.662910  0.240440  1.0  0.2328
  C  C306  1  0.578730  0.241830  0.768740  1.0  0.5611
  C  C307  1  0.400040  0.651770  0.654320  1.0  0.2601
  C  C308  1  0.150190  0.645630  0.264340  1.0  -0.0911
  C  C309  1  0.716560  0.573300  0.182380  1.0  -0.0422
  C  C310  1  0.664660  0.296550  0.315280  1.0  0.3105
  C  C311  1  0.371710  0.902670  0.850000  1.0  -0.1363
  C  C312  1  0.251090  0.029470  0.400060  1.0  0.513
  C  C313  1  0.909550  0.836550  0.825800  1.0  0.0236
  C  C314  1  0.836550  0.264650  0.825800  1.0  0.0208
  C  C315  1  0.898940  0.755680  0.817620  1.0  -0.0383
  C  C316  1  0.166530  0.695280  0.811860  1.0  0.1607
  C  C317  1  0.267760  0.637050  0.285900  1.0  0.4457
  C  C318  1  0.299360  0.380010  0.586900  1.0  -0.1371
  C  C319  1  0.344620  0.700450  0.254900  1.0  0.2898
  C  C320  1  0.674550  0.074760  0.261940  1.0  0.7058
  C  C321  1  0.507140  0.833470  0.188140  1.0  0.1591
  C  C322  1  0.127410  0.681330  0.231920  1.0  -0.1341
  C  C323  1  0.020060  0.388170  0.315280  1.0  0.3095
  C  C324  1  0.321020  0.964200  0.143040  1.0  -0.116
  C  C325  1  0.163450  0.735350  0.174200  1.0  0.0199
  C  C326  1  0.390740  0.227130  0.619960  1.0  0.7046
  C  C327  1  0.297390  0.935410  0.084320  1.0  0.6993
  C  C328  1  0.133700  0.035600  0.530260  1.0  -0.1067
  C  C329  1  0.280410  0.949510  0.133700  1.0  -0.1354
  C  C330  1  0.755680  0.283440  0.817620  1.0  -0.0453
  C  C331  1  0.525670  0.814970  0.498320  1.0  0.2129
  C  C332  1  0.175760  0.792060  0.784680  1.0  -0.1352
  C  C333  1  0.700640  0.619990  0.413100  1.0  -0.1357
  C  C334  1  0.347470  0.010570  0.231260  1.0  0.5067
  C  C335  1  0.077050  0.267760  0.285900  1.0  0.4592
  C  C336  1  0.421270  0.758170  0.231260  1.0  0.5431
  C  C337  1  0.325450  0.925240  0.738060  1.0  0.7055
  C  C338  1  0.681330  0.640670  0.231920  1.0  -0.1344
  C  C339  1  0.650310  0.097650  0.090000  1.0  0.7052
  C  C340  1  0.979940  0.611830  0.684720  1.0  0.3091
  C  C341  1  0.035800  0.464060  0.856960  1.0  -0.1204
  C  C342  1  0.778290  0.247330  0.850000  1.0  -0.1346
  C  C343  1  0.702610  0.064590  0.915680  1.0  0.6987
  C  C344  1  0.661510  0.943670  0.379960  1.0  0.6987
  C  C345  1  0.913250  0.872590  0.768080  1.0  -0.1346
  C  C346  1  0.740310  0.187650  0.910000  1.0  0.7024
  C  C347  1  0.663960  0.565860  0.469740  1.0  -0.1044
  C  C348  1  0.678980  0.035800  0.856960  1.0  -0.1183
  C  C349  1  0.313290  0.474330  0.501680  1.0  0.2134
  C  C350  1  0.090030  0.150190  0.264340  1.0  -0.0905
  C  C351  1  0.686710  0.525670  0.498320  1.0  0.2134
  C  C352  1  0.400480  0.044650  0.254900  1.0  0.2935
  C  C353  1  0.949160  0.607340  0.168340  1.0  0.002
  C  C354  1  0.966910  0.700640  0.413100  1.0  -0.1356
  C  C355  1  0.882500  0.224320  0.168340  1.0  0.0018
  C  C356  1  0.663300  0.674550  0.261940  1.0  0.7046
  C  C357  1  0.902670  0.778290  0.850000  1.0  -0.1372
  C  C358  1  0.212940  0.853630  0.745000  1.0  0.6889
  C  C359  1  0.759910  0.634610  0.385100  1.0  0.0411
  C  C360  1  0.337090  0.448470  0.759560  1.0  0.2315
  N  N361  1  0.381870  0.752230  0.218280  1.0  -0.3198
  N  N362  1  0.347980  0.039140  0.305540  1.0  -0.0973
  N  N363  1  0.470770  0.800520  0.552660  1.0  -0.344
  N  N364  1  0.618130  0.247770  0.781720  1.0  -0.3191
  N  N365  1  0.984200  0.609480  0.637800  1.0  -0.3909
  N  N366  1  0.609480  0.378000  0.637800  1.0  -0.3938
  N  N367  1  0.397930  0.074270  0.334880  1.0  -0.3034
  N  N368  1  0.409150  0.602070  0.665120  1.0  -0.3015
  N  N369  1  0.226170  0.624700  0.278720  1.0  -0.4107
  N  N370  1  0.063700  0.304490  0.245880  1.0  -0.4247
  N  N371  1  0.652020  0.960860  0.694460  1.0  -0.0974
  N  N372  1  0.247280  0.015800  0.362200  1.0  -0.3921
  N  N373  1  0.378000  0.752720  0.637800  1.0  -0.3897
  N  N374  1  0.074270  0.267190  0.334880  1.0  -0.3015
  N  N375  1  0.309580  0.550370  0.754120  1.0  -0.4237
  N  N376  1  0.573550  0.282790  0.722820  1.0  -0.3491
  N  N377  1  0.005610  0.426450  0.277180  1.0  -0.3486
  N  N378  1  0.701430  0.952530  0.605340  1.0  -0.3072
  N  N379  1  0.624700  0.495110  0.278720  1.0  -0.4104
  N  N380  1  0.649790  0.003430  0.808740  1.0  -0.4007
  N  N381  1  0.350210  0.996570  0.191260  1.0  -0.3994
  N  N382  1  0.247770  0.600150  0.781720  1.0  -0.3089
  N  N383  1  0.703630  0.994390  0.722820  1.0  -0.3462
  N  N384  1  0.717210  0.296370  0.277180  1.0  -0.3438
  N  N385  1  0.015800  0.390520  0.362200  1.0  -0.3886
  N  N386  1  0.442130  0.701430  0.605340  1.0  -0.3011
  N  N387  1  0.690420  0.449630  0.245880  1.0  -0.42
  N  N388  1  0.458530  0.812170  0.191260  1.0  -0.3942
  N  N389  1  0.267190  0.590850  0.334880  1.0  -0.3015
  N  N390  1  0.653520  0.344680  0.694460  1.0  -0.0973
  N  N391  1  0.399850  0.029490  0.218280  1.0  -0.3107
  N  N392  1  0.346480  0.655320  0.305540  1.0  -0.0974
  N  N393  1  0.600150  0.970510  0.781720  1.0  -0.308
  N  N394  1  0.976570  0.646820  0.552660  1.0  -0.3436
  N  N395  1  0.023430  0.353180  0.447340  1.0  -0.3435
  N  N396  1  0.695510  0.309580  0.754120  1.0  -0.4196
  N  N397  1  0.199480  0.023430  0.447340  1.0  -0.3445
  N  N398  1  0.495110  0.096580  0.278720  1.0  -0.4094
  N  N399  1  0.952530  0.693230  0.605340  1.0  -0.3088
  N  N400  1  0.622000  0.247280  0.362200  1.0  -0.3918
  N  N401  1  0.504890  0.903420  0.721280  1.0  -0.4106
  N  N402  1  0.550370  0.936300  0.754120  1.0  -0.4219
  N  N403  1  0.752230  0.399850  0.218280  1.0  -0.3106
  N  N404  1  0.449630  0.063700  0.245880  1.0  -0.423
  N  N405  1  0.960860  0.653520  0.694460  1.0  -0.0974
  N  N406  1  0.812170  0.350210  0.191260  1.0  -0.3915
  N  N407  1  0.029490  0.381870  0.218280  1.0  -0.3201
  N  N408  1  0.344680  0.652020  0.694460  1.0  -0.0973
  N  N409  1  0.752720  0.984200  0.637800  1.0  -0.3935
  N  N410  1  0.925730  0.732810  0.665120  1.0  -0.3013
  N  N411  1  0.096580  0.226170  0.278720  1.0  -0.4109
  N  N412  1  0.693230  0.442130  0.605340  1.0  -0.3041
  N  N413  1  0.296370  0.005610  0.277180  1.0  -0.3471
  N  N414  1  0.773830  0.375300  0.721280  1.0  -0.4108
  N  N415  1  0.375300  0.504890  0.721280  1.0  -0.4107
  N  N416  1  0.602070  0.925730  0.665120  1.0  -0.3036
  N  N417  1  0.298570  0.047470  0.394660  1.0  -0.3085
  N  N418  1  0.970510  0.618130  0.781720  1.0  -0.319
  N  N419  1  0.282790  0.703630  0.722820  1.0  -0.3448
  N  N420  1  0.306770  0.557870  0.394660  1.0  -0.3029
  N  N421  1  0.426450  0.717210  0.277180  1.0  -0.3458
  N  N422  1  0.655320  0.347980  0.305540  1.0  -0.0974
  N  N423  1  0.590850  0.397930  0.334880  1.0  -0.2992
  N  N424  1  0.936300  0.695510  0.754120  1.0  -0.4259
  N  N425  1  0.304490  0.690420  0.245880  1.0  -0.4227
  N  N426  1  0.800520  0.976570  0.552660  1.0  -0.3437
  N  N427  1  0.903420  0.773830  0.721280  1.0  -0.4108
  N  N428  1  0.541470  0.187830  0.808740  1.0  -0.3952
  N  N429  1  0.353180  0.529230  0.447340  1.0  -0.3445
  N  N430  1  0.187830  0.649790  0.808740  1.0  -0.3948
  N  N431  1  0.003430  0.541470  0.808740  1.0  -0.3975
  N  N432  1  0.557870  0.298570  0.394660  1.0  -0.3043
  N  N433  1  0.047470  0.306770  0.394660  1.0  -0.3035
  N  N434  1  0.646820  0.470770  0.552660  1.0  -0.3471
  N  N435  1  0.996570  0.458530  0.191260  1.0  -0.3984
  N  N436  1  0.390520  0.622000  0.362200  1.0  -0.3916
  N  N437  1  0.994390  0.573550  0.722820  1.0  -0.3497
  N  N438  1  0.039140  0.346480  0.305540  1.0  -0.0971
  N  N439  1  0.732810  0.409150  0.665120  1.0  -0.3099
  N  N440  1  0.529230  0.199480  0.447340  1.0  -0.3442
  O  O441  1  0.687500  0.174290  0.931280  1.0  -0.5626
  O  O442  1  0.342590  0.921610  0.065820  1.0  -0.5488
  O  O443  1  0.044810  0.698100  0.231980  1.0  -0.5657
  O  O444  1  0.614940  0.650710  0.315080  1.0  -0.5564
  O  O445  1  0.434840  0.262930  0.696020  1.0  -0.5517
  O  O446  1  0.993200  0.123730  0.667200  1.0  -0.5662
  O  O447  1  0.028560  0.866600  0.402160  1.0  -0.5558
  O  O448  1  0.966610  0.711900  0.326220  1.0  -0.5629
  O  O449  1  0.731240  0.028560  0.402160  1.0  -0.557
  O  O450  1  0.069920  0.044810  0.231980  1.0  -0.5653
  O  O451  1  0.130860  0.958950  0.303980  1.0  -0.5508
  O  O452  1  0.876270  0.660400  0.332800  1.0  -0.5668
  O  O453  1  0.894430  0.687500  0.931280  1.0  -0.5627
  O  O454  1  0.660400  0.790930  0.332800  1.0  -0.5668
  O  O455  1  0.038120  0.033390  0.673780  1.0  -0.563
  O  O456  1  0.961880  0.966610  0.326220  1.0  -0.5631
  O  O457  1  0.697170  0.088140  0.067460  1.0  -0.5432
  O  O458  1  0.707170  0.961880  0.326220  1.0  -0.5626
  O  O459  1  0.235370  0.844400  0.067460  1.0  -0.5434
  O  O460  1  0.385060  0.349290  0.684920  1.0  -0.5576
  O  O461  1  0.569280  0.731240  0.402160  1.0  -0.559
  O  O462  1  0.115360  0.955920  0.235200  1.0  -0.5562
  O  O463  1  0.618780  0.105570  0.068720  1.0  -0.5613
  O  O464  1  0.971440  0.133400  0.597840  1.0  -0.5572
  O  O465  1  0.987430  0.657410  0.934180  1.0  -0.5498
  O  O466  1  0.133400  0.430720  0.597840  1.0  -0.5559
  O  O467  1  0.591590  0.012570  0.065820  1.0  -0.5495
  O  O468  1  0.262930  0.869140  0.696020  1.0  -0.5507
  O  O469  1  0.955920  0.649440  0.235200  1.0  -0.556
  O  O470  1  0.030770  0.055130  0.591100  1.0  -0.586
  O  O471  1  0.288100  0.292830  0.673780  1.0  -0.5639
  O  O472  1  0.911860  0.764630  0.932540  1.0  -0.5457
  O  O473  1  0.735850  0.061920  0.933560  1.0  -0.5571
  O  O474  1  0.378130  0.353770  0.591100  1.0  -0.5833
  O  O475  1  0.939490  0.789790  0.015620  1.0  -0.5455
  O  O476  1  0.044080  0.350560  0.764800  1.0  -0.5559
  O  O477  1  0.944870  0.621870  0.408900  1.0  -0.5835
  O  O478  1  0.350560  0.191120  0.764800  1.0  -0.5575
  O  O479  1  0.869140  0.041050  0.696020  1.0  -0.5514
  O  O480  1  0.955110  0.805410  0.984380  1.0  -0.5495
  O  O481  1  0.209070  0.993200  0.667200  1.0  -0.5657
  O  O482  1  0.808880  0.115360  0.235200  1.0  -0.5578
  O  O483  1  0.723210  0.069920  0.231980  1.0  -0.566
  O  O484  1  0.408410  0.987430  0.934180  1.0  -0.5491
  O  O485  1  0.930080  0.955190  0.768020  1.0  -0.5651
  O  O486  1  0.789790  0.044890  0.015620  1.0  -0.547
  O  O487  1  0.938080  0.669410  0.066440  1.0  -0.5567
  O  O488  1  0.790930  0.006800  0.332800  1.0  -0.5663
  O  O489  1  0.621870  0.646230  0.408900  1.0  -0.5833
  O  O490  1  0.955190  0.301900  0.768020  1.0  -0.5657
  O  O491  1  0.565160  0.737070  0.303980  1.0  -0.5509
  O  O492  1  0.041050  0.434840  0.696020  1.0  -0.551
  O  O493  1  0.210210  0.955110  0.984380  1.0  -0.553
  O  O494  1  0.155600  0.302830  0.932540  1.0  -0.5459
  O  O495  1  0.264150  0.938080  0.066440  1.0  -0.5557
  O  O496  1  0.069980  0.034210  0.315080  1.0  -0.5569
  O  O497  1  0.965790  0.385060  0.684920  1.0  -0.5566
  O  O498  1  0.044890  0.194590  0.015620  1.0  -0.5487
  O  O499  1  0.105570  0.312500  0.068720  1.0  -0.5638
  O  O500  1  0.646230  0.969230  0.408900  1.0  -0.5852
  O  O501  1  0.191120  0.884640  0.764800  1.0  -0.5555
  O  O502  1  0.078390  0.408410  0.934180  1.0  -0.5482
  O  O503  1  0.737070  0.130860  0.303980  1.0  -0.5505
  O  O504  1  0.650710  0.069980  0.315080  1.0  -0.5554
  O  O505  1  0.061920  0.330590  0.933560  1.0  -0.5553
  O  O506  1  0.698100  0.723210  0.231980  1.0  -0.5671
  O  O507  1  0.055130  0.378130  0.591100  1.0  -0.5826
  O  O508  1  0.034210  0.614940  0.315080  1.0  -0.5557
  O  O509  1  0.268760  0.971440  0.597840  1.0  -0.5576
  O  O510  1  0.825710  0.618780  0.068720  1.0  -0.5622
  O  O511  1  0.657410  0.078390  0.934180  1.0  -0.5492
  O  O512  1  0.930020  0.965790  0.684920  1.0  -0.5551
  O  O513  1  0.921610  0.591590  0.065820  1.0  -0.5483
  O  O514  1  0.302830  0.911860  0.932540  1.0  -0.544
  O  O515  1  0.995480  0.264150  0.066440  1.0  -0.558
  O  O516  1  0.033390  0.288100  0.673780  1.0  -0.5636
  O  O517  1  0.339600  0.209070  0.667200  1.0  -0.5662
  O  O518  1  0.276790  0.930080  0.768020  1.0  -0.5653
  O  O519  1  0.669410  0.995480  0.066440  1.0  -0.5617
  O  O520  1  0.174290  0.381220  0.931280  1.0  -0.5632
  O  O521  1  0.866600  0.569280  0.402160  1.0  -0.5568
  O  O522  1  0.884640  0.044080  0.764800  1.0  -0.5542
  O  O523  1  0.194590  0.939490  0.015620  1.0  -0.5545
  O  O524  1  0.969230  0.944870  0.408900  1.0  -0.5847
  O  O525  1  0.060510  0.210210  0.984380  1.0  -0.5473
  O  O526  1  0.330590  0.004520  0.933560  1.0  -0.5615
  O  O527  1  0.381220  0.894430  0.931280  1.0  -0.5621
  O  O528  1  0.301900  0.276790  0.768020  1.0  -0.5656
  O  O529  1  0.312500  0.825710  0.068720  1.0  -0.5632
  O  O530  1  0.649440  0.808880  0.235200  1.0  -0.5575
  O  O531  1  0.123730  0.339600  0.667200  1.0  -0.5671
  O  O532  1  0.844400  0.697170  0.067460  1.0  -0.5462
  O  O533  1  0.711900  0.707170  0.326220  1.0  -0.5647
  O  O534  1  0.764630  0.155600  0.932540  1.0  -0.5439
  O  O535  1  0.004520  0.735850  0.933560  1.0  -0.5589
  O  O536  1  0.958950  0.565160  0.303980  1.0  -0.5519
  O  O537  1  0.088140  0.235370  0.067460  1.0  -0.545
  O  O538  1  0.006800  0.876270  0.332800  1.0  -0.5656
  O  O539  1  0.012570  0.342590  0.065820  1.0  -0.5501
  O  O540  1  0.349290  0.930020  0.684920  1.0  -0.555
  O  O541  1  0.805410  0.060510  0.984380  1.0  -0.5582
  O  O542  1  0.430720  0.268760  0.597840  1.0  -0.5593
  O  O543  1  0.292830  0.038120  0.673780  1.0  -0.5622
  O  O544  1  0.353770  0.030770  0.591100  1.0  -0.5858
