# generated using pymatgen
data_Tb2Co3H24C30(NO2)12
_symmetry_space_group_name_H-M   'P 1'
_cell_length_a   10.71170000
_cell_length_b   12.46870000
_cell_length_c   12.46870000
_cell_angle_alpha   91.59970000
_cell_angle_beta   113.84200000
_cell_angle_gamma   113.84200000
_symmetry_Int_Tables_number   1
_chemical_formula_structural   Tb2Co3H24C30(NO2)12
_chemical_formula_sum   'Tb2 Co3 H24 C30 N12 O24'
_cell_volume   1356.31750712
_cell_formula_units_Z   1
loop_
 _symmetry_equiv_pos_site_id
 _symmetry_equiv_pos_as_xyz
  1  'x, y, z'
loop_
 _atom_site_type_symbol
 _atom_site_label
 _atom_site_symmetry_multiplicity
 _atom_site_fract_x
 _atom_site_fract_y
 _atom_site_fract_z
 _atom_site_occupancy
 _atom_site_charge
  Tb  Tb1  1  0.000000  0.208820  0.791180  1.0  2.213
  Tb  Tb2  1  0.000000  0.791180  0.208820  1.0  2.2127
  Co  Co3  1  0.000000  0.000000  0.000000  1.0  0.8654
  Co  Co4  1  0.000000  0.500000  0.000000  1.0  0.9039
  Co  Co5  1  0.000000  0.000000  0.500000  1.0  0.9039
  H  H6  1  0.494200  0.109900  0.710700  1.0  0.1064
  H  H7  1  0.645400  0.164800  0.482800  1.0  0.1121
  H  H8  1  0.888000  0.139800  0.256800  1.0  0.1069
  H  H9  1  0.258100  0.983300  0.780700  1.0  0.1073
  H  H10  1  0.283000  0.765300  0.596700  1.0  0.1081
  H  H11  1  0.645400  0.482800  0.164800  1.0  0.1088
  H  H12  1  0.505800  0.890100  0.289300  1.0  0.105
  H  H13  1  0.717000  0.403300  0.234700  1.0  0.1092
  H  H14  1  0.544400  0.942500  0.420700  1.0  0.0947
  H  H15  1  0.741900  0.016700  0.219300  1.0  0.1071
  H  H16  1  0.112000  0.743200  0.860200  1.0  0.1074
  H  H17  1  0.112000  0.860200  0.743200  1.0  0.1086
  H  H18  1  0.258100  0.780700  0.983300  1.0  0.1111
  H  H19  1  0.505800  0.289300  0.890100  1.0  0.1065
  H  H20  1  0.354600  0.835200  0.517200  1.0  0.1105
  H  H21  1  0.455600  0.057500  0.579300  1.0  0.0951
  H  H22  1  0.717000  0.234700  0.403300  1.0  0.1083
  H  H23  1  0.544400  0.420700  0.942500  1.0  0.097
  H  H24  1  0.354600  0.517200  0.835200  1.0  0.108
  H  H25  1  0.283000  0.596700  0.765300  1.0  0.1085
  H  H26  1  0.888000  0.256800  0.139800  1.0  0.107
  H  H27  1  0.494200  0.710700  0.109900  1.0  0.107
  H  H28  1  0.741900  0.219300  0.016700  1.0  0.1094
  H  H29  1  0.455600  0.579300  0.057500  1.0  0.0959
  C  C30  1  0.175000  0.507700  0.860700  1.0  0.7307
  C  C31  1  0.325100  0.897200  0.300200  1.0  0.7418
  C  C32  1  0.685900  0.158600  0.427200  1.0  -0.1374
  C  C33  1  0.924100  0.221800  0.994800  1.0  0.7506
  C  C34  1  0.825700  0.200700  0.061700  1.0  -0.1632
  C  C35  1  0.174300  0.938300  0.799300  1.0  -0.165
  C  C36  1  0.483300  0.789200  0.914000  1.0  0.5638
  C  C37  1  0.825700  0.061700  0.200700  1.0  -0.164
  C  C38  1  0.175000  0.860700  0.507700  1.0  0.7304
  C  C39  1  0.507300  0.056000  0.663200  1.0  -0.1767
  C  C40  1  0.685900  0.427200  0.158600  1.0  -0.1442
  C  C41  1  0.516700  0.210800  0.086000  1.0  0.5673
  C  C42  1  0.516700  0.086000  0.210800  1.0  0.5625
  C  C43  1  0.649100  0.987900  0.987900  1.0  0.5632
  C  C44  1  0.507300  0.663200  0.056000  1.0  -0.1777
  C  C45  1  0.674900  0.699800  0.102800  1.0  0.7416
  C  C46  1  0.492700  0.944000  0.336800  1.0  -0.1756
  C  C47  1  0.825000  0.139300  0.492300  1.0  0.7279
  C  C48  1  0.314100  0.572800  0.841400  1.0  -0.1433
  C  C49  1  0.492700  0.336800  0.944000  1.0  -0.1763
  C  C50  1  0.075900  0.778200  0.005200  1.0  0.7519
  C  C51  1  0.174300  0.799300  0.938300  1.0  -0.1643
  C  C52  1  0.350900  0.012100  0.012100  1.0  0.565
  C  C53  1  0.314100  0.841400  0.572800  1.0  -0.1384
  C  C54  1  0.325100  0.300200  0.897200  1.0  0.7392
  C  C55  1  0.075900  0.005200  0.778200  1.0  0.7473
  C  C56  1  0.924100  0.994800  0.221800  1.0  0.7483
  C  C57  1  0.825000  0.492300  0.139300  1.0  0.7287
  C  C58  1  0.674900  0.102800  0.699800  1.0  0.7418
  C  C59  1  0.483300  0.914000  0.789200  1.0  0.567
  N  N60  1  0.565600  0.322100  0.065300  1.0  -0.0684
  N  N61  1  0.406400  0.987500  0.121500  1.0  -0.6204
  N  N62  1  0.578800  0.198900  0.198900  1.0  -0.5925
  N  N63  1  0.237700  0.920300  0.920300  1.0  -0.0663
  N  N64  1  0.421200  0.801100  0.801100  1.0  -0.5927
  N  N65  1  0.434400  0.677900  0.934700  1.0  -0.0667
  N  N66  1  0.565600  0.065300  0.322100  1.0  -0.0658
  N  N67  1  0.434400  0.934700  0.677900  1.0  -0.0667
  N  N68  1  0.762300  0.079700  0.079700  1.0  -0.0665
  N  N69  1  0.593600  0.878500  0.012500  1.0  -0.6177
  N  N70  1  0.406400  0.121500  0.987500  1.0  -0.6189
  N  N71  1  0.593600  0.012500  0.878500  1.0  -0.6186
  O  O72  1  0.987300  0.325600  0.980000  1.0  -0.7032
  O  O73  1  0.061500  0.046700  0.862700  1.0  -0.6825
  O  O74  1  0.731100  0.034400  0.692800  1.0  -0.6173
  O  O75  1  0.169200  0.555200  0.947000  1.0  -0.605
  O  O76  1  0.830800  0.444800  0.053000  1.0  -0.6065
  O  O77  1  0.241900  0.784800  0.262400  1.0  -0.682
  O  O78  1  0.830800  0.053000  0.444800  1.0  -0.606
  O  O79  1  0.758100  0.215200  0.737600  1.0  -0.6802
  O  O80  1  0.241900  0.262400  0.784800  1.0  -0.6783
  O  O81  1  0.169200  0.947000  0.555200  1.0  -0.6063
  O  O82  1  0.731100  0.692800  0.034400  1.0  -0.6187
  O  O83  1  0.938500  0.953300  0.137300  1.0  -0.6828
  O  O84  1  0.758100  0.737600  0.215200  1.0  -0.6778
  O  O85  1  0.926400  0.213300  0.592500  1.0  -0.688
  O  O86  1  0.938500  0.137300  0.953300  1.0  -0.6844
  O  O87  1  0.073600  0.786700  0.407500  1.0  -0.6908
  O  O88  1  0.268900  0.307200  0.965600  1.0  -0.6212
  O  O89  1  0.987300  0.980000  0.325600  1.0  -0.7014
  O  O90  1  0.061500  0.862700  0.046700  1.0  -0.6849
  O  O91  1  0.926400  0.592500  0.213300  1.0  -0.6895
  O  O92  1  0.012700  0.020000  0.674400  1.0  -0.7033
  O  O93  1  0.268900  0.965600  0.307200  1.0  -0.618
  O  O94  1  0.012700  0.674400  0.020000  1.0  -0.7043
  O  O95  1  0.073600  0.407500  0.786700  1.0  -0.6943
