# generated using pymatgen
data_Tb2Zn3H24C30(NO2)12
_symmetry_space_group_name_H-M   'P 1'
_cell_length_a   10.75350000
_cell_length_b   12.51010000
_cell_length_c   12.51010000
_cell_angle_alpha   91.96260000
_cell_angle_beta   113.77100000
_cell_angle_gamma   113.77100000
_symmetry_Int_Tables_number   1
_chemical_formula_structural   Tb2Zn3H24C30(NO2)12
_chemical_formula_sum   'Tb2 Zn3 H24 C30 N12 O24'
_cell_volume   1370.07910597
_cell_formula_units_Z   1
loop_
 _symmetry_equiv_pos_site_id
 _symmetry_equiv_pos_as_xyz
  1  'x, y, z'
loop_
 _atom_site_type_symbol
 _atom_site_label
 _atom_site_symmetry_multiplicity
 _atom_site_fract_x
 _atom_site_fract_y
 _atom_site_fract_z
 _atom_site_occupancy
 _atom_site_charge
  Tb  Tb1  1  0.500000  0.790920  0.209080  1.0  2.2574
  Tb  Tb2  1  0.500000  0.209080  0.790920  1.0  2.2578
  Zn  Zn3  1  0.500000  0.000000  0.000000  1.0  0.9058
  Zn  Zn4  1  0.500000  0.500000  0.000000  1.0  0.9444
  Zn  Zn5  1  0.500000  0.000000  0.500000  1.0  0.9444
  H  H6  1  0.390000  0.139800  0.259200  1.0  0.1127
  H  H7  1  0.955900  0.582400  0.059400  1.0  0.1021
  H  H8  1  0.244700  0.219000  0.016400  1.0  0.124
  H  H9  1  0.044100  0.417600  0.940600  1.0  0.1023
  H  H10  1  0.044100  0.940600  0.417600  1.0  0.1004
  H  H11  1  0.755300  0.983600  0.781000  1.0  0.1242
  H  H12  1  0.782400  0.767600  0.600000  1.0  0.0991
  H  H13  1  0.994700  0.713700  0.111700  1.0  0.1165
  H  H14  1  0.782400  0.600000  0.767600  1.0  0.1015
  H  H15  1  0.610000  0.740800  0.860200  1.0  0.1136
  H  H16  1  0.217600  0.232400  0.400000  1.0  0.0993
  H  H17  1  0.217600  0.400000  0.232400  1.0  0.1016
  H  H18  1  0.955900  0.059400  0.582400  1.0  0.1006
  H  H19  1  0.144400  0.165500  0.479100  1.0  0.1174
  H  H20  1  0.610000  0.860200  0.740800  1.0  0.114
  H  H21  1  0.005300  0.888300  0.286300  1.0  0.1151
  H  H22  1  0.144400  0.479100  0.165500  1.0  0.1139
  H  H23  1  0.005300  0.286300  0.888300  1.0  0.1165
  H  H24  1  0.994700  0.111700  0.713700  1.0  0.1148
  H  H25  1  0.755300  0.781000  0.983600  1.0  0.1265
  H  H26  1  0.855600  0.834500  0.520900  1.0  0.1155
  H  H27  1  0.390000  0.259200  0.139800  1.0  0.1131
  H  H28  1  0.855600  0.520900  0.834500  1.0  0.1136
  H  H29  1  0.244700  0.016400  0.219000  1.0  0.1218
  C  C30  1  0.670800  0.937600  0.797800  1.0  -0.1471
  C  C31  1  0.815000  0.842800  0.575600  1.0  -0.1514
  C  C32  1  0.323700  0.491600  0.136200  1.0  0.7311
  C  C33  1  0.992400  0.334100  0.941900  1.0  -0.1654
  C  C34  1  0.323700  0.136200  0.491600  1.0  0.7314
  C  C35  1  0.823300  0.894900  0.297100  1.0  0.7366
  C  C36  1  0.815000  0.575600  0.842800  1.0  -0.1557
  C  C37  1  0.985200  0.917400  0.792000  1.0  0.5606
  C  C38  1  0.185000  0.157200  0.424400  1.0  -0.1517
  C  C39  1  0.014800  0.208000  0.082600  1.0  0.5635
  C  C40  1  0.176700  0.702900  0.105100  1.0  0.7353
  C  C41  1  0.007600  0.665900  0.058100  1.0  -0.1654
  C  C42  1  0.573700  0.776300  0.001900  1.0  0.7356
  C  C43  1  0.014800  0.082600  0.208000  1.0  0.5664
  C  C44  1  0.985200  0.792000  0.917400  1.0  0.5663
  C  C45  1  0.176700  0.105100  0.702900  1.0  0.7366
  C  C46  1  0.850800  0.010300  0.010300  1.0  0.6198
  C  C47  1  0.676300  0.508400  0.863800  1.0  0.7325
  C  C48  1  0.426300  0.223700  0.998100  1.0  0.7352
  C  C49  1  0.185000  0.424400  0.157200  1.0  -0.1576
  C  C50  1  0.149200  0.989700  0.989700  1.0  0.6197
  C  C51  1  0.426300  0.998100  0.223700  1.0  0.7309
  C  C52  1  0.676300  0.863800  0.508400  1.0  0.7324
  C  C53  1  0.007600  0.058100  0.665900  1.0  -0.1632
  C  C54  1  0.329200  0.202200  0.062400  1.0  -0.1473
  C  C55  1  0.329200  0.062400  0.202200  1.0  -0.147
  C  C56  1  0.823300  0.297100  0.894900  1.0  0.733
  C  C57  1  0.670800  0.797800  0.937600  1.0  -0.1472
  C  C58  1  0.573700  0.001900  0.776300  1.0  0.7313
  C  C59  1  0.992400  0.941900  0.334100  1.0  -0.1635
  N  N60  1  0.064700  0.063180  0.319820  1.0  -0.0854
  N  N61  1  0.935300  0.680180  0.936820  1.0  -0.0865
  N  N62  1  0.732400  0.918200  0.918200  1.0  -0.1106
  N  N63  1  0.923400  0.804000  0.804000  1.0  -0.5939
  N  N64  1  0.096900  0.880840  0.013760  1.0  -0.6276
  N  N65  1  0.267600  0.081800  0.081800  1.0  -0.111
  N  N66  1  0.096900  0.013760  0.880840  1.0  -0.6286
  N  N67  1  0.903100  0.119160  0.986240  1.0  -0.6282
  N  N68  1  0.076600  0.196000  0.196000  1.0  -0.5968
  N  N69  1  0.064700  0.319820  0.063180  1.0  -0.0876
  N  N70  1  0.903100  0.986240  0.119160  1.0  -0.6302
  N  N71  1  0.935300  0.936820  0.680180  1.0  -0.0851
  O  O72  1  0.330100  0.444370  0.050030  1.0  -0.6102
  O  O73  1  0.513700  0.021110  0.674890  1.0  -0.7062
  O  O74  1  0.577900  0.790590  0.409210  1.0  -0.671
  O  O75  1  0.577900  0.409210  0.790590  1.0  -0.6763
  O  O76  1  0.441300  0.138270  0.956290  1.0  -0.7391
  O  O77  1  0.741300  0.783230  0.263370  1.0  -0.6693
  O  O78  1  0.558700  0.861730  0.043710  1.0  -0.7376
  O  O79  1  0.513700  0.674890  0.021110  1.0  -0.704
  O  O80  1  0.669900  0.949970  0.555630  1.0  -0.6086
  O  O81  1  0.258700  0.736630  0.216770  1.0  -0.6722
  O  O82  1  0.441300  0.956290  0.138270  1.0  -0.7382
  O  O83  1  0.232800  0.035090  0.695890  1.0  -0.6423
  O  O84  1  0.486300  0.325110  0.978890  1.0  -0.7042
  O  O85  1  0.422100  0.590790  0.209410  1.0  -0.6719
  O  O86  1  0.558700  0.043710  0.861730  1.0  -0.7359
  O  O87  1  0.330100  0.050030  0.444370  1.0  -0.6083
  O  O88  1  0.422100  0.209410  0.590790  1.0  -0.6703
  O  O89  1  0.767200  0.964910  0.304110  1.0  -0.6422
  O  O90  1  0.232800  0.695890  0.035090  1.0  -0.6432
  O  O91  1  0.741300  0.263370  0.783230  1.0  -0.6743
  O  O92  1  0.669900  0.555630  0.949970  1.0  -0.6086
  O  O93  1  0.486300  0.978890  0.325110  1.0  -0.7031
  O  O94  1  0.258700  0.216770  0.736630  1.0  -0.6701
  O  O95  1  0.767200  0.304110  0.964910  1.0  -0.6468
