# generated using pymatgen
data_LiHCO2
_symmetry_space_group_name_H-M   'P 1'
_cell_length_a   14.91500000
_cell_length_b   14.91500000
_cell_length_c   5.54300000
_cell_angle_alpha   90.00000000
_cell_angle_beta   90.00000000
_cell_angle_gamma   120.00000000
_symmetry_Int_Tables_number   1
_chemical_formula_structural   LiHCO2
_chemical_formula_sum   'Li18 H18 C18 O36'
_cell_volume   1067.87894973
_cell_formula_units_Z   18
loop_
 _symmetry_equiv_pos_site_id
 _symmetry_equiv_pos_as_xyz
  1  'x, y, z'
loop_
 _atom_site_type_symbol
 _atom_site_label
 _atom_site_symmetry_multiplicity
 _atom_site_fract_x
 _atom_site_fract_y
 _atom_site_fract_z
 _atom_site_occupancy
 _atom_site_charge
  Li  Li1  1  0.336400  0.531500  0.224300  1.0  0.9046
  Li  Li2  1  0.269100  0.302200  0.983400  1.0  0.8888
  Li  Li3  1  0.195300  0.332300  0.493300  1.0  0.8832
  Li  Li4  1  0.468500  0.804900  0.224300  1.0  0.9054
  Li  Li5  1  0.697800  0.966900  0.983400  1.0  0.8887
  Li  Li6  1  0.667700  0.863000  0.493300  1.0  0.8839
  Li  Li7  1  0.195100  0.663600  0.224300  1.0  0.9052
  Li  Li8  1  0.033100  0.730900  0.983400  1.0  0.8887
  Li  Li9  1  0.137000  0.804700  0.493300  1.0  0.8835
  Li  Li10  1  0.663600  0.468500  0.724300  1.0  0.905
  Li  Li11  1  0.730900  0.697800  0.483400  1.0  0.8887
  Li  Li12  1  0.804700  0.667700  0.993300  1.0  0.8825
  Li  Li13  1  0.531500  0.195100  0.724300  1.0  0.9042
  Li  Li14  1  0.302200  0.033100  0.483400  1.0  0.8885
  Li  Li15  1  0.332300  0.137000  0.993300  1.0  0.8839
  Li  Li16  1  0.804900  0.336400  0.724300  1.0  0.9055
  Li  Li17  1  0.966900  0.269100  0.483400  1.0  0.8895
  Li  Li18  1  0.863000  0.195300  0.993300  1.0  0.8825
  H  H19  1  0.391770  0.591000  0.742870  1.0  0.1243
  H  H20  1  0.538080  0.590650  0.136850  1.0  0.1054
  H  H21  1  0.409000  0.800780  0.742870  1.0  0.1204
  H  H22  1  0.409350  0.947430  0.136850  1.0  0.1044
  H  H23  1  0.199220  0.608230  0.742870  1.0  0.1219
  H  H24  1  0.052570  0.461920  0.136850  1.0  0.1055
  H  H25  1  0.608230  0.409000  0.242870  1.0  0.1245
  H  H26  1  0.461920  0.409350  0.636850  1.0  0.1062
  H  H27  1  0.947470  0.802170  0.574170  1.0  0.1039
  H  H28  1  0.591000  0.199220  0.242870  1.0  0.1194
  H  H29  1  0.590650  0.052570  0.636850  1.0  0.1057
  H  H30  1  0.197830  0.145300  0.574170  1.0  0.1044
  H  H31  1  0.800780  0.391770  0.242870  1.0  0.1217
  H  H32  1  0.947430  0.538080  0.636850  1.0  0.1047
  H  H33  1  0.854700  0.052530  0.574170  1.0  0.1045
  H  H34  1  0.052530  0.197830  0.074170  1.0  0.1042
  H  H35  1  0.802170  0.854700  0.074170  1.0  0.1043
  H  H36  1  0.145300  0.947470  0.074170  1.0  0.1043
  C  C37  1  0.349700  0.502900  0.754000  1.0  0.3941
  C  C38  1  0.540300  0.659800  0.230400  1.0  0.5575
  C  C39  1  0.054800  0.224400  0.880300  1.0  0.4548
  C  C40  1  0.497100  0.846800  0.754000  1.0  0.3952
  C  C41  1  0.340200  0.880500  0.230400  1.0  0.5555
  C  C42  1  0.775600  0.830400  0.880300  1.0  0.4545
  C  C43  1  0.153200  0.650300  0.754000  1.0  0.3944
  C  C44  1  0.119500  0.459700  0.230400  1.0  0.5565
  C  C45  1  0.169600  0.945200  0.880300  1.0  0.4537
  C  C46  1  0.650300  0.497100  0.254000  1.0  0.3954
  C  C47  1  0.459700  0.340200  0.730400  1.0  0.5575
  C  C48  1  0.945200  0.775600  0.380300  1.0  0.4556
  C  C49  1  0.502900  0.153200  0.254000  1.0  0.3932
  C  C50  1  0.659800  0.119500  0.730400  1.0  0.5559
  C  C51  1  0.224400  0.169600  0.380300  1.0  0.4544
  C  C52  1  0.846800  0.349700  0.254000  1.0  0.3946
  C  C53  1  0.880500  0.540300  0.730400  1.0  0.5551
  C  C54  1  0.830400  0.054800  0.380300  1.0  0.4534
  O  O55  1  0.331700  0.459600  0.953200  1.0  -0.6662
  O  O56  1  0.329000  0.465600  0.550000  1.0  -0.7044
  O  O57  1  0.460700  0.667900  0.236800  1.0  -0.7669
  O  O58  1  0.626100  0.729600  0.329600  1.0  -0.7649
  O  O59  1  0.142600  0.260200  0.748600  1.0  -0.7263
  O  O60  1  0.979400  0.226800  0.747200  1.0  -0.7827
  O  O61  1  0.540400  0.872100  0.953200  1.0  -0.6652
  O  O62  1  0.534400  0.863400  0.550000  1.0  -0.7035
  O  O63  1  0.332100  0.792800  0.236800  1.0  -0.7641
  O  O64  1  0.270400  0.896500  0.329600  1.0  -0.7655
  O  O65  1  0.739800  0.882400  0.748600  1.0  -0.729
  O  O66  1  0.773200  0.752600  0.747200  1.0  -0.782
  O  O67  1  0.127900  0.668300  0.953200  1.0  -0.6664
  O  O68  1  0.136600  0.671000  0.550000  1.0  -0.7035
  O  O69  1  0.207200  0.539300  0.236800  1.0  -0.773
  O  O70  1  0.103500  0.373900  0.329600  1.0  -0.765
  O  O71  1  0.117600  0.857400  0.748600  1.0  -0.7271
  O  O72  1  0.247400  0.020600  0.747200  1.0  -0.7834
  O  O73  1  0.668300  0.540400  0.453200  1.0  -0.6662
  O  O74  1  0.671000  0.534400  0.050000  1.0  -0.7045
  O  O75  1  0.539300  0.332100  0.736800  1.0  -0.7696
  O  O76  1  0.373900  0.270400  0.829600  1.0  -0.7661
  O  O77  1  0.857400  0.739800  0.248600  1.0  -0.7281
  O  O78  1  0.020600  0.773200  0.247200  1.0  -0.7815
  O  O79  1  0.459600  0.127900  0.453200  1.0  -0.6661
  O  O80  1  0.465600  0.136600  0.050000  1.0  -0.7049
  O  O81  1  0.667900  0.207200  0.736800  1.0  -0.7641
  O  O82  1  0.729600  0.103500  0.829600  1.0  -0.7651
  O  O83  1  0.260200  0.117600  0.248600  1.0  -0.7274
  O  O84  1  0.226800  0.247400  0.247200  1.0  -0.7824
  O  O85  1  0.872100  0.331700  0.453200  1.0  -0.666
  O  O86  1  0.863400  0.329000  0.050000  1.0  -0.7042
  O  O87  1  0.792800  0.460700  0.736800  1.0  -0.772
  O  O88  1  0.896500  0.626100  0.829600  1.0  -0.7649
  O  O89  1  0.882400  0.142600  0.248600  1.0  -0.7271
  O  O90  1  0.752600  0.979400  0.247200  1.0  -0.7838
