# generated using pymatgen
data_Ba3Co2C24(NO6)4
_symmetry_space_group_name_H-M   'P 1'
_cell_length_a   17.09400000
_cell_length_b   13.18730000
_cell_length_c   21.49000000
_cell_angle_alpha   90.00000000
_cell_angle_beta   98.45700000
_cell_angle_gamma   90.00000000
_symmetry_Int_Tables_number   1
_chemical_formula_structural   Ba3Co2C24(NO6)4
_chemical_formula_sum   'Ba12 Co8 C96 N16 O96'
_cell_volume   4791.68041775
_cell_formula_units_Z   4
loop_
 _symmetry_equiv_pos_site_id
 _symmetry_equiv_pos_as_xyz
  1  'x, y, z'
loop_
 _atom_site_type_symbol
 _atom_site_label
 _atom_site_symmetry_multiplicity
 _atom_site_fract_x
 _atom_site_fract_y
 _atom_site_fract_z
 _atom_site_occupancy
 _atom_site_charge
  Ba  Ba1  1  0.129400  0.460200  0.987900  1.0  1.6909
  Ba  Ba2  1  0.629400  0.960200  0.487900  1.0  1.6909
  Ba  Ba3  1  0.870600  0.460200  0.512100  1.0  1.6906
  Ba  Ba4  1  0.370600  0.960200  0.012100  1.0  1.6906
  Ba  Ba5  1  0.870600  0.539800  0.012100  1.0  1.6904
  Ba  Ba6  1  0.370600  0.039800  0.512100  1.0  1.6904
  Ba  Ba7  1  0.129400  0.539800  0.487900  1.0  1.6904
  Ba  Ba8  1  0.629400  0.039800  0.987900  1.0  1.6904
  Ba  Ba9  1  0.500000  0.530300  0.750000  1.0  1.6778
  Ba  Ba10  1  0.000000  0.030300  0.250000  1.0  1.6778
  Ba  Ba11  1  0.500000  0.469700  0.250000  1.0  1.6775
  Ba  Ba12  1  0.000000  0.969700  0.750000  1.0  1.6775
  Co  Co13  1  0.500000  0.500000  0.000000  1.0  0.7927
  Co  Co14  1  0.000000  0.000000  0.500000  1.0  0.7927
  Co  Co15  1  0.500000  0.500000  0.500000  1.0  0.7927
  Co  Co16  1  0.000000  0.000000  0.000000  1.0  0.7927
  Co  Co17  1  0.250000  0.750000  0.750000  1.0  0.8304
  Co  Co18  1  0.750000  0.750000  0.750000  1.0  0.8304
  Co  Co19  1  0.750000  0.250000  0.250000  1.0  0.8304
  Co  Co20  1  0.250000  0.250000  0.250000  1.0  0.8304
  C  C21  1  0.415400  0.349200  0.926900  1.0  -0.0311
  C  C22  1  0.433900  0.435000  0.884600  1.0  0.6703
  C  C23  1  0.368700  0.392400  0.027300  1.0  -0.081
  C  C24  1  0.348100  0.503800  0.022900  1.0  0.6754
  C  C25  1  0.487500  0.284900  0.026400  1.0  -0.0909
  C  C26  1  0.446700  0.181400  0.021000  1.0  0.6862
  C  C27  1  0.353300  0.832500  0.671600  1.0  -0.1011
  C  C28  1  0.386800  0.735000  0.699900  1.0  0.6707
  C  C29  1  0.210700  0.836900  0.631600  1.0  -0.0738
  C  C30  1  0.195200  0.723900  0.625800  1.0  0.6624
  C  C31  1  0.268200  0.962100  0.711400  1.0  -0.0228
  C  C32  1  0.280100  0.048600  0.664600  1.0  0.6752
  C  C33  1  0.915400  0.849200  0.426900  1.0  -0.0311
  C  C34  1  0.933900  0.935000  0.384600  1.0  0.6703
  C  C35  1  0.868700  0.892400  0.527300  1.0  -0.081
  C  C36  1  0.848100  0.003800  0.522900  1.0  0.6754
  C  C37  1  0.987500  0.784900  0.526400  1.0  -0.0909
  C  C38  1  0.946700  0.681400  0.521000  1.0  0.6862
  C  C39  1  0.853300  0.332500  0.171600  1.0  -0.1011
  C  C40  1  0.886800  0.235000  0.199900  1.0  0.6707
  C  C41  1  0.710700  0.336900  0.131600  1.0  -0.0738
  C  C42  1  0.695200  0.223900  0.125800  1.0  0.6624
  C  C43  1  0.768200  0.462100  0.211400  1.0  -0.0228
  C  C44  1  0.780100  0.548600  0.164600  1.0  0.6752
  C  C45  1  0.584600  0.349200  0.573100  1.0  -0.0331
  C  C46  1  0.566100  0.435000  0.615400  1.0  0.6709
  C  C47  1  0.631300  0.392400  0.472700  1.0  -0.0789
  C  C48  1  0.651900  0.503800  0.477100  1.0  0.6741
  C  C49  1  0.512500  0.284900  0.473600  1.0  -0.0898
  C  C50  1  0.553300  0.181400  0.479000  1.0  0.6856
  C  C51  1  0.646700  0.832500  0.828400  1.0  -0.1029
  C  C52  1  0.613200  0.735000  0.800100  1.0  0.6714
  C  C53  1  0.789300  0.836900  0.868400  1.0  -0.0773
  C  C54  1  0.804800  0.723900  0.874200  1.0  0.662
  C  C55  1  0.731800  0.962100  0.788600  1.0  -0.0217
  C  C56  1  0.719900  0.048600  0.835400  1.0  0.6759
  C  C57  1  0.084600  0.849200  0.073100  1.0  -0.0331
  C  C58  1  0.066100  0.935000  0.115400  1.0  0.6709
  C  C59  1  0.131300  0.892400  0.972700  1.0  -0.0789
  C  C60  1  0.151900  0.003800  0.977100  1.0  0.6741
  C  C61  1  0.012500  0.784900  0.973600  1.0  -0.0898
  C  C62  1  0.053300  0.681400  0.979000  1.0  0.6856
  C  C63  1  0.146700  0.332500  0.328400  1.0  -0.1029
  C  C64  1  0.113200  0.235000  0.300100  1.0  0.6714
  C  C65  1  0.289300  0.336900  0.368400  1.0  -0.0773
  C  C66  1  0.304800  0.223900  0.374200  1.0  0.662
  C  C67  1  0.231800  0.462100  0.288600  1.0  -0.0217
  C  C68  1  0.219900  0.548600  0.335400  1.0  0.6759
  C  C69  1  0.584600  0.650800  0.073100  1.0  -0.0343
  C  C70  1  0.566100  0.565000  0.115400  1.0  0.6709
  C  C71  1  0.631300  0.607600  0.972700  1.0  -0.0788
  C  C72  1  0.651900  0.496200  0.977100  1.0  0.6751
  C  C73  1  0.512500  0.715100  0.973600  1.0  -0.09
  C  C74  1  0.553300  0.818600  0.979000  1.0  0.6852
  C  C75  1  0.646700  0.167500  0.328400  1.0  -0.1024
  C  C76  1  0.613200  0.265000  0.300100  1.0  0.6714
  C  C77  1  0.789300  0.163100  0.368400  1.0  -0.077
  C  C78  1  0.804800  0.276100  0.374200  1.0  0.6619
  C  C79  1  0.731800  0.037900  0.288600  1.0  -0.0194
  C  C80  1  0.719900  0.951400  0.335400  1.0  0.6784
  C  C81  1  0.084600  0.150800  0.573100  1.0  -0.0343
  C  C82  1  0.066100  0.065000  0.615400  1.0  0.6709
  C  C83  1  0.131300  0.107600  0.472700  1.0  -0.0788
  C  C84  1  0.151900  0.996200  0.477100  1.0  0.6751
  C  C85  1  0.012500  0.215100  0.473600  1.0  -0.09
  C  C86  1  0.053300  0.318600  0.479000  1.0  0.6852
  C  C87  1  0.146700  0.667500  0.828400  1.0  -0.1024
  C  C88  1  0.113200  0.765000  0.800100  1.0  0.6714
  C  C89  1  0.289300  0.663100  0.868400  1.0  -0.077
  C  C90  1  0.304800  0.776100  0.874200  1.0  0.6619
  C  C91  1  0.231800  0.537900  0.788600  1.0  -0.0194
  C  C92  1  0.219900  0.451400  0.835400  1.0  0.6784
  C  C93  1  0.415400  0.650800  0.426900  1.0  -0.0328
  C  C94  1  0.433900  0.565000  0.384600  1.0  0.6705
  C  C95  1  0.368700  0.607600  0.527300  1.0  -0.0824
  C  C96  1  0.348100  0.496200  0.522900  1.0  0.6763
  C  C97  1  0.487500  0.715100  0.526400  1.0  -0.091
  C  C98  1  0.446700  0.818600  0.521000  1.0  0.6857
  C  C99  1  0.353300  0.167500  0.171600  1.0  -0.1005
  C  C100  1  0.386800  0.265000  0.199900  1.0  0.6711
  C  C101  1  0.210700  0.163100  0.131600  1.0  -0.0745
  C  C102  1  0.195200  0.276100  0.125800  1.0  0.6624
  C  C103  1  0.268200  0.037900  0.211400  1.0  -0.0206
  C  C104  1  0.280100  0.951400  0.164600  1.0  0.6766
  C  C105  1  0.915400  0.150800  0.926900  1.0  -0.0328
  C  C106  1  0.933900  0.065000  0.884600  1.0  0.6705
  C  C107  1  0.868700  0.107600  0.027300  1.0  -0.0824
  C  C108  1  0.848100  0.996200  0.022900  1.0  0.6763
  C  C109  1  0.987500  0.215100  0.026400  1.0  -0.091
  C  C110  1  0.946700  0.318600  0.021000  1.0  0.6857
  C  C111  1  0.853300  0.667500  0.671600  1.0  -0.1005
  C  C112  1  0.886800  0.765000  0.699900  1.0  0.6711
  C  C113  1  0.710700  0.663100  0.631600  1.0  -0.0745
  C  C114  1  0.695200  0.776100  0.625800  1.0  0.6624
  C  C115  1  0.768200  0.537900  0.711400  1.0  -0.0206
  C  C116  1  0.780100  0.451400  0.664600  1.0  0.6766
  N  N117  1  0.439600  0.370200  0.994600  1.0  0.0195
  N  N118  1  0.272600  0.856800  0.687700  1.0  0.0165
  N  N119  1  0.939600  0.870200  0.494600  1.0  0.0195
  N  N120  1  0.772600  0.356800  0.187700  1.0  0.0165
  N  N121  1  0.560400  0.370200  0.505400  1.0  0.0195
  N  N122  1  0.727400  0.856800  0.812300  1.0  0.0163
  N  N123  1  0.060400  0.870200  0.005400  1.0  0.0195
  N  N124  1  0.227400  0.356800  0.312300  1.0  0.0163
  N  N125  1  0.560400  0.629800  0.005400  1.0  0.0185
  N  N126  1  0.727400  0.143200  0.312300  1.0  0.0175
  N  N127  1  0.060400  0.129800  0.505400  1.0  0.0185
  N  N128  1  0.227400  0.643200  0.812300  1.0  0.0175
  N  N129  1  0.439600  0.629800  0.494600  1.0  0.0183
  N  N130  1  0.272600  0.143200  0.187700  1.0  0.0174
  N  N131  1  0.939600  0.129800  0.994600  1.0  0.0183
  N  N132  1  0.772600  0.643200  0.687700  1.0  0.0174
  O  O133  1  0.472400  0.510200  0.911200  1.0  -0.5775
  O  O134  1  0.411500  0.430500  0.826900  1.0  -0.5962
  O  O135  1  0.403400  0.563800  0.010700  1.0  -0.5347
  O  O136  1  0.282500  0.534600  0.033400  1.0  -0.5821
  O  O137  1  0.492400  0.106600  0.026700  1.0  -0.7047
  O  O138  1  0.373000  0.174700  0.014200  1.0  -0.5993
  O  O139  1  0.351500  0.692900  0.742200  1.0  -0.563
  O  O140  1  0.448100  0.699700  0.682700  1.0  -0.5949
  O  O141  1  0.207500  0.672400  0.677400  1.0  -0.5298
  O  O142  1  0.170400  0.686800  0.574300  1.0  -0.6589
  O  O143  1  0.282500  0.028900  0.608700  1.0  -0.6404
  O  O144  1  0.286000  0.135800  0.689000  1.0  -0.4283
  O  O145  1  0.972400  0.010200  0.411200  1.0  -0.5775
  O  O146  1  0.911500  0.930500  0.326900  1.0  -0.5962
  O  O147  1  0.903400  0.063800  0.510700  1.0  -0.5347
  O  O148  1  0.782500  0.034600  0.533400  1.0  -0.5821
  O  O149  1  0.992400  0.606600  0.526700  1.0  -0.7047
  O  O150  1  0.873000  0.674700  0.514200  1.0  -0.5993
  O  O151  1  0.851500  0.192900  0.242200  1.0  -0.563
  O  O152  1  0.948100  0.199700  0.182700  1.0  -0.5949
  O  O153  1  0.707500  0.172400  0.177400  1.0  -0.5298
  O  O154  1  0.670400  0.186800  0.074300  1.0  -0.6585
  O  O155  1  0.782500  0.528900  0.108700  1.0  -0.6404
  O  O156  1  0.786000  0.635800  0.189000  1.0  -0.4283
  O  O157  1  0.527600  0.510200  0.588800  1.0  -0.5779
  O  O158  1  0.588500  0.430500  0.673100  1.0  -0.597
  O  O159  1  0.596600  0.563800  0.489300  1.0  -0.5345
  O  O160  1  0.717500  0.534600  0.466600  1.0  -0.5825
  O  O161  1  0.507600  0.106600  0.473300  1.0  -0.7057
  O  O162  1  0.627000  0.174700  0.485800  1.0  -0.5986
  O  O163  1  0.648500  0.692900  0.757800  1.0  -0.5653
  O  O164  1  0.551900  0.699700  0.817300  1.0  -0.5939
  O  O165  1  0.792500  0.672400  0.822600  1.0  -0.5304
  O  O166  1  0.829600  0.686800  0.925700  1.0  -0.6553
  O  O167  1  0.717500  0.028900  0.891300  1.0  -0.6455
  O  O168  1  0.714000  0.135800  0.811000  1.0  -0.4281
  O  O169  1  0.027600  0.010200  0.088800  1.0  -0.5779
  O  O170  1  0.088500  0.930500  0.173100  1.0  -0.597
  O  O171  1  0.096600  0.063800  0.989300  1.0  -0.5345
  O  O172  1  0.217500  0.034600  0.966600  1.0  -0.5825
  O  O173  1  0.007600  0.606600  0.973300  1.0  -0.7057
  O  O174  1  0.127000  0.674700  0.985800  1.0  -0.5986
  O  O175  1  0.148500  0.192900  0.257800  1.0  -0.5653
  O  O176  1  0.051900  0.199700  0.317300  1.0  -0.5939
  O  O177  1  0.292500  0.172400  0.322600  1.0  -0.5304
  O  O178  1  0.329600  0.186800  0.425700  1.0  -0.655
  O  O179  1  0.217500  0.528900  0.391300  1.0  -0.6455
  O  O180  1  0.214000  0.635800  0.311000  1.0  -0.4281
  O  O181  1  0.527600  0.489800  0.088800  1.0  -0.5785
  O  O182  1  0.588500  0.569500  0.173100  1.0  -0.599
  O  O183  1  0.596600  0.436200  0.989300  1.0  -0.5343
  O  O184  1  0.717500  0.465400  0.966600  1.0  -0.584
  O  O185  1  0.507600  0.893400  0.973300  1.0  -0.7065
  O  O186  1  0.627000  0.825300  0.985800  1.0  -0.5987
  O  O187  1  0.648500  0.307100  0.257800  1.0  -0.5668
  O  O188  1  0.551900  0.300300  0.317300  1.0  -0.594
  O  O189  1  0.792500  0.327600  0.322600  1.0  -0.5322
  O  O190  1  0.829600  0.313200  0.425700  1.0  -0.6572
  O  O191  1  0.717500  0.971100  0.391300  1.0  -0.643
  O  O192  1  0.714000  0.864200  0.311000  1.0  -0.4289
  O  O193  1  0.027600  0.989800  0.588800  1.0  -0.5785
  O  O194  1  0.088500  0.069500  0.673100  1.0  -0.599
  O  O195  1  0.096600  0.936200  0.489300  1.0  -0.5343
  O  O196  1  0.217500  0.965400  0.466600  1.0  -0.584
  O  O197  1  0.007600  0.393400  0.473300  1.0  -0.7065
  O  O198  1  0.127000  0.325300  0.485800  1.0  -0.5987
  O  O199  1  0.148500  0.807100  0.757800  1.0  -0.5668
  O  O200  1  0.051900  0.800300  0.817300  1.0  -0.594
  O  O201  1  0.292500  0.827600  0.822600  1.0  -0.5322
  O  O202  1  0.329600  0.813200  0.925700  1.0  -0.6572
  O  O203  1  0.217500  0.471100  0.891300  1.0  -0.643
  O  O204  1  0.214000  0.364200  0.811000  1.0  -0.4289
  O  O205  1  0.472400  0.489800  0.411200  1.0  -0.5775
  O  O206  1  0.411500  0.569500  0.326900  1.0  -0.5985
  O  O207  1  0.403400  0.436200  0.510700  1.0  -0.534
  O  O208  1  0.282500  0.465400  0.533400  1.0  -0.5821
  O  O209  1  0.492400  0.893400  0.526700  1.0  -0.7052
  O  O210  1  0.373000  0.825300  0.514200  1.0  -0.6
  O  O211  1  0.351500  0.307100  0.242200  1.0  -0.5642
  O  O212  1  0.448100  0.300300  0.182700  1.0  -0.5947
  O  O213  1  0.207500  0.327600  0.177400  1.0  -0.5317
  O  O214  1  0.170400  0.313200  0.074300  1.0  -0.6606
  O  O215  1  0.282500  0.971100  0.108700  1.0  -0.6404
  O  O216  1  0.286000  0.864200  0.189000  1.0  -0.4285
  O  O217  1  0.972400  0.989800  0.911200  1.0  -0.5775
  O  O218  1  0.911500  0.069500  0.826900  1.0  -0.5985
  O  O219  1  0.903400  0.936200  0.010700  1.0  -0.534
  O  O220  1  0.782500  0.965400  0.033400  1.0  -0.5821
  O  O221  1  0.992400  0.393400  0.026700  1.0  -0.7052
  O  O222  1  0.873000  0.325300  0.014200  1.0  -0.6
  O  O223  1  0.851500  0.807100  0.742200  1.0  -0.5642
  O  O224  1  0.948100  0.800300  0.682700  1.0  -0.5947
  O  O225  1  0.707500  0.827600  0.677400  1.0  -0.5317
  O  O226  1  0.670400  0.813200  0.574300  1.0  -0.6607
  O  O227  1  0.782500  0.471100  0.608700  1.0  -0.6404
  O  O228  1  0.786000  0.364200  0.689000  1.0  -0.4285
