# generated using pymatgen
data_AgH7C8N5
_symmetry_space_group_name_H-M   'P 1'
_cell_length_a   24.73940000
_cell_length_b   38.26900000
_cell_length_c   5.34870000
_cell_angle_alpha   90.00000000
_cell_angle_beta   90.00000000
_cell_angle_gamma   90.00000000
_symmetry_Int_Tables_number   1
_chemical_formula_structural   AgH7C8N5
_chemical_formula_sum   'Ag16 H112 C128 N80'
_cell_volume   5063.89294978
_cell_formula_units_Z   16
loop_
 _symmetry_equiv_pos_site_id
 _symmetry_equiv_pos_as_xyz
  1  'x, y, z'
loop_
 _atom_site_type_symbol
 _atom_site_label
 _atom_site_symmetry_multiplicity
 _atom_site_fract_x
 _atom_site_fract_y
 _atom_site_fract_z
 _atom_site_occupancy
 _atom_site_charge
  Ag  Ag1  1  0.960090  0.231450  0.439530  1.0  0.3577
  Ag  Ag2  1  0.960090  0.731450  0.939530  1.0  0.3577
  Ag  Ag3  1  0.460090  0.231450  0.939530  1.0  0.3577
  Ag  Ag4  1  0.460090  0.731450  0.439530  1.0  0.3577
  Ag  Ag5  1  0.039910  0.768550  0.439530  1.0  0.3581
  Ag  Ag6  1  0.039910  0.268550  0.939530  1.0  0.3581
  Ag  Ag7  1  0.539910  0.768550  0.939530  1.0  0.3581
  Ag  Ag8  1  0.539910  0.268550  0.439530  1.0  0.3581
  Ag  Ag9  1  0.210090  0.018550  0.689530  1.0  0.3578
  Ag  Ag10  1  0.210090  0.518550  0.189530  1.0  0.3578
  Ag  Ag11  1  0.710090  0.018550  0.189530  1.0  0.3578
  Ag  Ag12  1  0.710090  0.518550  0.689530  1.0  0.3578
  Ag  Ag13  1  0.289910  0.481450  0.689530  1.0  0.358
  Ag  Ag14  1  0.289910  0.981450  0.189530  1.0  0.358
  Ag  Ag15  1  0.789910  0.481450  0.189530  1.0  0.358
  Ag  Ag16  1  0.789910  0.981450  0.689530  1.0  0.358
  H  H17  1  0.998600  0.147800  0.553600  1.0  0.0671
  H  H18  1  0.084300  0.183000  0.122900  1.0  0.069
  H  H19  1  0.107200  0.127800  0.165300  1.0  0.0669
  H  H20  1  0.073400  0.052300  0.795200  1.0  0.0776
  H  H21  1  0.100100  0.995100  0.880800  1.0  0.081
  H  H22  1  0.151900  0.983900  0.228900  1.0  0.0431
  H  H23  1  0.155600  0.083100  0.397600  1.0  0.0504
  H  H24  1  0.998600  0.647800  0.053600  1.0  0.0671
  H  H25  1  0.084300  0.683000  0.622900  1.0  0.069
  H  H26  1  0.107200  0.627800  0.665300  1.0  0.0669
  H  H27  1  0.073400  0.552300  0.295200  1.0  0.0776
  H  H28  1  0.100100  0.495100  0.380800  1.0  0.081
  H  H29  1  0.151900  0.483900  0.728900  1.0  0.0431
  H  H30  1  0.155600  0.583100  0.897600  1.0  0.0504
  H  H31  1  0.498600  0.147800  0.053600  1.0  0.0671
  H  H32  1  0.584300  0.183000  0.622900  1.0  0.069
  H  H33  1  0.607200  0.127800  0.665300  1.0  0.0669
  H  H34  1  0.573400  0.052300  0.295200  1.0  0.0776
  H  H35  1  0.600100  0.995100  0.380800  1.0  0.081
  H  H36  1  0.651900  0.983900  0.728900  1.0  0.0431
  H  H37  1  0.655600  0.083100  0.897600  1.0  0.0504
  H  H38  1  0.498600  0.647800  0.553600  1.0  0.0671
  H  H39  1  0.584300  0.683000  0.122900  1.0  0.069
  H  H40  1  0.607200  0.627800  0.165300  1.0  0.0669
  H  H41  1  0.573400  0.552300  0.795200  1.0  0.0776
  H  H42  1  0.600100  0.495100  0.880800  1.0  0.081
  H  H43  1  0.651900  0.483900  0.228900  1.0  0.0431
  H  H44  1  0.655600  0.583100  0.397600  1.0  0.0504
  H  H45  1  0.001400  0.852200  0.553600  1.0  0.0678
  H  H46  1  0.915700  0.817000  0.122900  1.0  0.07
  H  H47  1  0.892800  0.872200  0.165300  1.0  0.0674
  H  H48  1  0.926600  0.947700  0.795200  1.0  0.0786
  H  H49  1  0.899900  0.004900  0.880800  1.0  0.0815
  H  H50  1  0.848100  0.016100  0.228900  1.0  0.0438
  H  H51  1  0.844400  0.916900  0.397600  1.0  0.0507
  H  H52  1  0.001400  0.352200  0.053600  1.0  0.0678
  H  H53  1  0.915700  0.317000  0.622900  1.0  0.07
  H  H54  1  0.892800  0.372200  0.665300  1.0  0.0674
  H  H55  1  0.926600  0.447700  0.295200  1.0  0.0786
  H  H56  1  0.899900  0.504900  0.380800  1.0  0.0815
  H  H57  1  0.848100  0.516100  0.728900  1.0  0.0438
  H  H58  1  0.844400  0.416900  0.897600  1.0  0.0507
  H  H59  1  0.501400  0.852200  0.053600  1.0  0.0678
  H  H60  1  0.415700  0.817000  0.622900  1.0  0.07
  H  H61  1  0.392800  0.872200  0.665300  1.0  0.0674
  H  H62  1  0.426600  0.947700  0.295200  1.0  0.0786
  H  H63  1  0.399900  0.004900  0.380800  1.0  0.0815
  H  H64  1  0.348100  0.016100  0.728900  1.0  0.0438
  H  H65  1  0.344400  0.916900  0.897600  1.0  0.0507
  H  H66  1  0.501400  0.352200  0.553600  1.0  0.0678
  H  H67  1  0.415700  0.317000  0.122900  1.0  0.07
  H  H68  1  0.392800  0.372200  0.165300  1.0  0.0674
  H  H69  1  0.426600  0.447700  0.795200  1.0  0.0786
  H  H70  1  0.399900  0.504900  0.880800  1.0  0.0815
  H  H71  1  0.348100  0.516100  0.228900  1.0  0.0438
  H  H72  1  0.344400  0.416900  0.397600  1.0  0.0507
  H  H73  1  0.248600  0.102200  0.803600  1.0  0.0679
  H  H74  1  0.334300  0.067000  0.372900  1.0  0.0692
  H  H75  1  0.357200  0.122200  0.415300  1.0  0.0667
  H  H76  1  0.323400  0.197700  0.045200  1.0  0.0777
  H  H77  1  0.350100  0.254900  0.130800  1.0  0.0815
  H  H78  1  0.401900  0.266100  0.478900  1.0  0.0432
  H  H79  1  0.405600  0.166900  0.647600  1.0  0.0509
  H  H80  1  0.248600  0.602200  0.303600  1.0  0.0679
  H  H81  1  0.334300  0.567000  0.872900  1.0  0.0692
  H  H82  1  0.357200  0.622200  0.915300  1.0  0.0667
  H  H83  1  0.323400  0.697700  0.545200  1.0  0.0777
  H  H84  1  0.350100  0.754900  0.630800  1.0  0.0815
  H  H85  1  0.401900  0.766100  0.978900  1.0  0.0432
  H  H86  1  0.405600  0.666900  0.147600  1.0  0.0509
  H  H87  1  0.748600  0.102200  0.303600  1.0  0.0679
  H  H88  1  0.834300  0.067000  0.872900  1.0  0.0692
  H  H89  1  0.857200  0.122200  0.915300  1.0  0.0667
  H  H90  1  0.823400  0.197700  0.545200  1.0  0.0777
  H  H91  1  0.850100  0.254900  0.630800  1.0  0.0815
  H  H92  1  0.901900  0.266100  0.978900  1.0  0.0432
  H  H93  1  0.905600  0.166900  0.147600  1.0  0.0509
  H  H94  1  0.748600  0.602200  0.803600  1.0  0.0679
  H  H95  1  0.834300  0.567000  0.372900  1.0  0.0692
  H  H96  1  0.857200  0.622200  0.415300  1.0  0.0667
  H  H97  1  0.823400  0.697700  0.045200  1.0  0.0777
  H  H98  1  0.850100  0.754900  0.130800  1.0  0.0815
  H  H99  1  0.901900  0.766100  0.478900  1.0  0.0432
  H  H100  1  0.905600  0.666900  0.647600  1.0  0.0509
  H  H101  1  0.251400  0.397800  0.803600  1.0  0.067
  H  H102  1  0.165700  0.433000  0.372900  1.0  0.07
  H  H103  1  0.142800  0.377800  0.415300  1.0  0.0673
  H  H104  1  0.176600  0.302300  0.045200  1.0  0.0784
  H  H105  1  0.149900  0.245100  0.130800  1.0  0.081
  H  H106  1  0.098100  0.233900  0.478900  1.0  0.0434
  H  H107  1  0.094400  0.333100  0.647600  1.0  0.0503
  H  H108  1  0.251400  0.897800  0.303600  1.0  0.067
  H  H109  1  0.165700  0.933000  0.872900  1.0  0.07
  H  H110  1  0.142800  0.877800  0.915300  1.0  0.0673
  H  H111  1  0.176600  0.802300  0.545200  1.0  0.0784
  H  H112  1  0.149900  0.745100  0.630800  1.0  0.081
  H  H113  1  0.098100  0.733900  0.978900  1.0  0.0434
  H  H114  1  0.094400  0.833100  0.147600  1.0  0.0503
  H  H115  1  0.751400  0.397800  0.303600  1.0  0.067
  H  H116  1  0.665700  0.433000  0.872900  1.0  0.07
  H  H117  1  0.642800  0.377800  0.915300  1.0  0.0673
  H  H118  1  0.676600  0.302300  0.545200  1.0  0.0784
  H  H119  1  0.649900  0.245100  0.630800  1.0  0.081
  H  H120  1  0.598100  0.233900  0.978900  1.0  0.0434
  H  H121  1  0.594400  0.333100  0.147600  1.0  0.0503
  H  H122  1  0.751400  0.897800  0.803600  1.0  0.067
  H  H123  1  0.665700  0.933000  0.372900  1.0  0.07
  H  H124  1  0.642800  0.877800  0.415300  1.0  0.0673
  H  H125  1  0.676600  0.802300  0.045200  1.0  0.0784
  H  H126  1  0.649900  0.745100  0.130800  1.0  0.081
  H  H127  1  0.598100  0.733900  0.478900  1.0  0.0434
  H  H128  1  0.594400  0.833100  0.647600  1.0  0.0503
  C  C129  1  0.014050  0.162590  0.671700  1.0  0.1593
  C  C130  1  0.061240  0.182110  0.985800  1.0  0.0987
  C  C131  1  0.094930  0.110410  0.058000  1.0  0.0705
  C  C132  1  0.112080  0.073540  0.090100  1.0  -0.1108
  C  C133  1  0.094980  0.047360  0.933100  1.0  -0.0073
  C  C134  1  0.110660  0.013320  0.984900  1.0  -0.2155
  C  C135  1  0.142140  0.006840  0.193500  1.0  0.1408
  C  C136  1  0.144070  0.065170  0.293400  1.0  0.141
  C  C137  1  0.014050  0.662590  0.171700  1.0  0.1593
  C  C138  1  0.061240  0.682110  0.485800  1.0  0.0987
  C  C139  1  0.094930  0.610410  0.558000  1.0  0.0705
  C  C140  1  0.112080  0.573540  0.590100  1.0  -0.1108
  C  C141  1  0.094980  0.547360  0.433100  1.0  -0.0073
  C  C142  1  0.110660  0.513320  0.484900  1.0  -0.2155
  C  C143  1  0.142140  0.506840  0.693500  1.0  0.1408
  C  C144  1  0.144070  0.565170  0.793400  1.0  0.141
  C  C145  1  0.514050  0.162590  0.171700  1.0  0.1593
  C  C146  1  0.561240  0.182110  0.485800  1.0  0.0987
  C  C147  1  0.594930  0.110410  0.558000  1.0  0.0705
  C  C148  1  0.612080  0.073540  0.590100  1.0  -0.1108
  C  C149  1  0.594980  0.047360  0.433100  1.0  -0.0073
  C  C150  1  0.610660  0.013320  0.484900  1.0  -0.2155
  C  C151  1  0.642140  0.006840  0.693500  1.0  0.1408
  C  C152  1  0.644070  0.065170  0.793400  1.0  0.141
  C  C153  1  0.514050  0.662590  0.671700  1.0  0.1593
  C  C154  1  0.561240  0.682110  0.985800  1.0  0.0987
  C  C155  1  0.594930  0.610410  0.058000  1.0  0.0705
  C  C156  1  0.612080  0.573540  0.090100  1.0  -0.1108
  C  C157  1  0.594980  0.547360  0.933100  1.0  -0.0073
  C  C158  1  0.610660  0.513320  0.984900  1.0  -0.2155
  C  C159  1  0.642140  0.506840  0.193500  1.0  0.1408
  C  C160  1  0.644070  0.565170  0.293400  1.0  0.141
  C  C161  1  0.985950  0.837410  0.671700  1.0  0.1595
  C  C162  1  0.938760  0.817890  0.985800  1.0  0.0998
  C  C163  1  0.905070  0.889590  0.058000  1.0  0.0685
  C  C164  1  0.887920  0.926460  0.090100  1.0  -0.1126
  C  C165  1  0.905020  0.952640  0.933100  1.0  -0.0071
  C  C166  1  0.889340  0.986680  0.984900  1.0  -0.2169
  C  C167  1  0.857860  0.993160  0.193500  1.0  0.143
  C  C168  1  0.855930  0.934830  0.293400  1.0  0.1416
  C  C169  1  0.985950  0.337410  0.171700  1.0  0.1595
  C  C170  1  0.938760  0.317890  0.485800  1.0  0.0998
  C  C171  1  0.905070  0.389590  0.558000  1.0  0.0685
  C  C172  1  0.887920  0.426460  0.590100  1.0  -0.1126
  C  C173  1  0.905020  0.452640  0.433100  1.0  -0.0071
  C  C174  1  0.889340  0.486680  0.484900  1.0  -0.2169
  C  C175  1  0.857860  0.493160  0.693500  1.0  0.143
  C  C176  1  0.855930  0.434830  0.793400  1.0  0.1416
  C  C177  1  0.485950  0.837410  0.171700  1.0  0.1595
  C  C178  1  0.438760  0.817890  0.485800  1.0  0.0998
  C  C179  1  0.405070  0.889590  0.558000  1.0  0.0685
  C  C180  1  0.387920  0.926460  0.590100  1.0  -0.1126
  C  C181  1  0.405020  0.952640  0.433100  1.0  -0.0071
  C  C182  1  0.389340  0.986680  0.484900  1.0  -0.2169
  C  C183  1  0.357860  0.993160  0.693500  1.0  0.143
  C  C184  1  0.355930  0.934830  0.793400  1.0  0.1416
  C  C185  1  0.485950  0.337410  0.671700  1.0  0.1595
  C  C186  1  0.438760  0.317890  0.985800  1.0  0.0998
  C  C187  1  0.405070  0.389590  0.058000  1.0  0.0685
  C  C188  1  0.387920  0.426460  0.090100  1.0  -0.1126
  C  C189  1  0.405020  0.452640  0.933100  1.0  -0.0071
  C  C190  1  0.389340  0.486680  0.984900  1.0  -0.2169
  C  C191  1  0.357860  0.493160  0.193500  1.0  0.143
  C  C192  1  0.355930  0.434830  0.293400  1.0  0.1416
  C  C193  1  0.264050  0.087410  0.921700  1.0  0.1602
  C  C194  1  0.311240  0.067890  0.235800  1.0  0.0989
  C  C195  1  0.344930  0.139590  0.308000  1.0  0.0709
  C  C196  1  0.362080  0.176460  0.340100  1.0  -0.1116
  C  C197  1  0.344980  0.202640  0.183100  1.0  -0.0072
  C  C198  1  0.360660  0.236680  0.234900  1.0  -0.2163
  C  C199  1  0.392140  0.243160  0.443500  1.0  0.1405
  C  C200  1  0.394070  0.184830  0.543400  1.0  0.1425
  C  C201  1  0.264050  0.587410  0.421700  1.0  0.1602
  C  C202  1  0.311240  0.567890  0.735800  1.0  0.0989
  C  C203  1  0.344930  0.639590  0.808000  1.0  0.0709
  C  C204  1  0.362080  0.676460  0.840100  1.0  -0.1116
  C  C205  1  0.344980  0.702640  0.683100  1.0  -0.0072
  C  C206  1  0.360660  0.736680  0.734900  1.0  -0.2163
  C  C207  1  0.392140  0.743160  0.943500  1.0  0.1405
  C  C208  1  0.394070  0.684830  0.043400  1.0  0.1425
  C  C209  1  0.764050  0.087410  0.421700  1.0  0.1602
  C  C210  1  0.811240  0.067890  0.735800  1.0  0.0989
  C  C211  1  0.844930  0.139590  0.808000  1.0  0.0709
  C  C212  1  0.862080  0.176460  0.840100  1.0  -0.1116
  C  C213  1  0.844980  0.202640  0.683100  1.0  -0.0072
  C  C214  1  0.860660  0.236680  0.734900  1.0  -0.2163
  C  C215  1  0.892140  0.243160  0.943500  1.0  0.1405
  C  C216  1  0.894070  0.184830  0.043400  1.0  0.1425
  C  C217  1  0.764050  0.587410  0.921700  1.0  0.1602
  C  C218  1  0.811240  0.567890  0.235800  1.0  0.0989
  C  C219  1  0.844930  0.639590  0.308000  1.0  0.0709
  C  C220  1  0.862080  0.676460  0.340100  1.0  -0.1116
  C  C221  1  0.844980  0.702640  0.183100  1.0  -0.0072
  C  C222  1  0.860660  0.736680  0.234900  1.0  -0.2163
  C  C223  1  0.892140  0.743160  0.443500  1.0  0.1405
  C  C224  1  0.894070  0.684830  0.543400  1.0  0.1425
  C  C225  1  0.235950  0.412590  0.921700  1.0  0.1583
  C  C226  1  0.188760  0.432110  0.235800  1.0  0.0996
  C  C227  1  0.155070  0.360410  0.308000  1.0  0.0681
  C  C228  1  0.137920  0.323540  0.340100  1.0  -0.1121
  C  C229  1  0.155020  0.297360  0.183100  1.0  -0.0078
  C  C230  1  0.139340  0.263320  0.234900  1.0  -0.2163
  C  C231  1  0.107860  0.256840  0.443500  1.0  0.1434
  C  C232  1  0.105930  0.315170  0.543400  1.0  0.1403
  C  C233  1  0.235950  0.912590  0.421700  1.0  0.1583
  C  C234  1  0.188760  0.932110  0.735800  1.0  0.0996
  C  C235  1  0.155070  0.860410  0.808000  1.0  0.0681
  C  C236  1  0.137920  0.823540  0.840100  1.0  -0.1121
  C  C237  1  0.155020  0.797360  0.683100  1.0  -0.0078
  C  C238  1  0.139340  0.763320  0.734900  1.0  -0.2163
  C  C239  1  0.107860  0.756840  0.943500  1.0  0.1434
  C  C240  1  0.105930  0.815170  0.043400  1.0  0.1403
  C  C241  1  0.735950  0.412590  0.421700  1.0  0.1583
  C  C242  1  0.688760  0.432110  0.735800  1.0  0.0996
  C  C243  1  0.655070  0.360410  0.808000  1.0  0.0681
  C  C244  1  0.637920  0.323540  0.840100  1.0  -0.1121
  C  C245  1  0.655020  0.297360  0.683100  1.0  -0.0078
  C  C246  1  0.639340  0.263320  0.734900  1.0  -0.2163
  C  C247  1  0.607860  0.256840  0.943500  1.0  0.1434
  C  C248  1  0.605930  0.315170  0.043400  1.0  0.1403
  C  C249  1  0.735950  0.912590  0.921700  1.0  0.1583
  C  C250  1  0.688760  0.932110  0.235800  1.0  0.0996
  C  C251  1  0.655070  0.860410  0.308000  1.0  0.0681
  C  C252  1  0.637920  0.823540  0.340100  1.0  -0.1121
  C  C253  1  0.655020  0.797360  0.183100  1.0  -0.0078
  C  C254  1  0.639340  0.763320  0.234900  1.0  -0.2163
  C  C255  1  0.607860  0.756840  0.443500  1.0  0.1434
  C  C256  1  0.605930  0.815170  0.543400  1.0  0.1403
  N  N257  1  0.007040  0.196630  0.682600  1.0  -0.2694
  N  N258  1  0.036960  0.209000  0.883200  1.0  -0.2868
  N  N259  1  0.047140  0.152530  0.858600  1.0  0.0995
  N  N260  1  0.063150  0.117440  0.880900  1.0  -0.2714
  N  N261  1  0.159140  0.032450  0.347100  1.0  -0.3623
  N  N262  1  0.007040  0.696630  0.182600  1.0  -0.2694
  N  N263  1  0.036960  0.709000  0.383200  1.0  -0.2868
  N  N264  1  0.047140  0.652530  0.358600  1.0  0.0995
  N  N265  1  0.063150  0.617440  0.380900  1.0  -0.2714
  N  N266  1  0.159140  0.532450  0.847100  1.0  -0.3623
  N  N267  1  0.507040  0.196630  0.182600  1.0  -0.2694
  N  N268  1  0.536960  0.209000  0.383200  1.0  -0.2868
  N  N269  1  0.547140  0.152530  0.358600  1.0  0.0995
  N  N270  1  0.563150  0.117440  0.380900  1.0  -0.2714
  N  N271  1  0.659140  0.032450  0.847100  1.0  -0.3623
  N  N272  1  0.507040  0.696630  0.682600  1.0  -0.2694
  N  N273  1  0.536960  0.709000  0.883200  1.0  -0.2868
  N  N274  1  0.547140  0.652530  0.858600  1.0  0.0995
  N  N275  1  0.563150  0.617440  0.880900  1.0  -0.2714
  N  N276  1  0.659140  0.532450  0.347100  1.0  -0.3623
  N  N277  1  0.992960  0.803370  0.682600  1.0  -0.2683
  N  N278  1  0.963040  0.791000  0.883200  1.0  -0.2864
  N  N279  1  0.952860  0.847470  0.858600  1.0  0.1009
  N  N280  1  0.936850  0.882560  0.880900  1.0  -0.2723
  N  N281  1  0.840860  0.967550  0.347100  1.0  -0.365
  N  N282  1  0.992960  0.303370  0.182600  1.0  -0.2683
  N  N283  1  0.963040  0.291000  0.383200  1.0  -0.2864
  N  N284  1  0.952860  0.347470  0.358600  1.0  0.1009
  N  N285  1  0.936850  0.382560  0.380900  1.0  -0.2723
  N  N286  1  0.840860  0.467550  0.847100  1.0  -0.365
  N  N287  1  0.492960  0.803370  0.182600  1.0  -0.2683
  N  N288  1  0.463040  0.791000  0.383200  1.0  -0.2864
  N  N289  1  0.452860  0.847470  0.358600  1.0  0.1009
  N  N290  1  0.436850  0.882560  0.380900  1.0  -0.2723
  N  N291  1  0.340860  0.967550  0.847100  1.0  -0.365
  N  N292  1  0.492960  0.303370  0.682600  1.0  -0.2683
  N  N293  1  0.463040  0.291000  0.883200  1.0  -0.2864
  N  N294  1  0.452860  0.347470  0.858600  1.0  0.1009
  N  N295  1  0.436850  0.382560  0.880900  1.0  -0.2723
  N  N296  1  0.340860  0.467550  0.347100  1.0  -0.365
  N  N297  1  0.257040  0.053370  0.932600  1.0  -0.2699
  N  N298  1  0.286960  0.041000  0.133200  1.0  -0.2862
  N  N299  1  0.297140  0.097470  0.108600  1.0  0.1005
  N  N300  1  0.313150  0.132560  0.130900  1.0  -0.272
  N  N301  1  0.409140  0.217550  0.597100  1.0  -0.3628
  N  N302  1  0.257040  0.553370  0.432600  1.0  -0.2699
  N  N303  1  0.286960  0.541000  0.633200  1.0  -0.2862
  N  N304  1  0.297140  0.597470  0.608600  1.0  0.1005
  N  N305  1  0.313150  0.632560  0.630900  1.0  -0.272
  N  N306  1  0.409140  0.717550  0.097100  1.0  -0.3628
  N  N307  1  0.757040  0.053370  0.432600  1.0  -0.2699
  N  N308  1  0.786960  0.041000  0.633200  1.0  -0.2862
  N  N309  1  0.797140  0.097470  0.608600  1.0  0.1005
  N  N310  1  0.813150  0.132560  0.630900  1.0  -0.272
  N  N311  1  0.909140  0.217550  0.097100  1.0  -0.3628
  N  N312  1  0.757040  0.553370  0.932600  1.0  -0.2699
  N  N313  1  0.786960  0.541000  0.133200  1.0  -0.2862
  N  N314  1  0.797140  0.597470  0.108600  1.0  0.1005
  N  N315  1  0.813150  0.632560  0.130900  1.0  -0.272
  N  N316  1  0.909140  0.717550  0.597100  1.0  -0.3628
  N  N317  1  0.242960  0.446630  0.932600  1.0  -0.2692
  N  N318  1  0.213040  0.459000  0.133200  1.0  -0.2879
  N  N319  1  0.202860  0.402530  0.108600  1.0  0.0995
  N  N320  1  0.186850  0.367440  0.130900  1.0  -0.2709
  N  N321  1  0.090860  0.282450  0.597100  1.0  -0.3644
  N  N322  1  0.242960  0.946630  0.432600  1.0  -0.2692
  N  N323  1  0.213040  0.959000  0.633200  1.0  -0.2879
  N  N324  1  0.202860  0.902530  0.608600  1.0  0.0995
  N  N325  1  0.186850  0.867440  0.630900  1.0  -0.2709
  N  N326  1  0.090860  0.782450  0.097100  1.0  -0.3644
  N  N327  1  0.742960  0.446630  0.432600  1.0  -0.2692
  N  N328  1  0.713040  0.459000  0.633200  1.0  -0.2879
  N  N329  1  0.702860  0.402530  0.608600  1.0  0.0995
  N  N330  1  0.686850  0.367440  0.630900  1.0  -0.2709
  N  N331  1  0.590860  0.282450  0.097100  1.0  -0.3644
  N  N332  1  0.742960  0.946630  0.932600  1.0  -0.2692
  N  N333  1  0.713040  0.959000  0.133200  1.0  -0.2879
  N  N334  1  0.702860  0.902530  0.108600  1.0  0.0995
  N  N335  1  0.686850  0.867440  0.130900  1.0  -0.2709
  N  N336  1  0.590860  0.782450  0.597100  1.0  -0.3644
