# generated using pymatgen
data_Cu(C3O2)2
_symmetry_space_group_name_H-M   'P 1'
_cell_length_a   26.30340000
_cell_length_b   26.30340000
_cell_length_c   26.30340000
_cell_angle_alpha   90.00000000
_cell_angle_beta   90.00000000
_cell_angle_gamma   90.00000000
_symmetry_Int_Tables_number   1
_chemical_formula_structural   Cu(C3O2)2
_chemical_formula_sum   'Cu48 C288 O192'
_cell_volume   18198.50315012
_cell_formula_units_Z   48
loop_
 _symmetry_equiv_pos_site_id
 _symmetry_equiv_pos_as_xyz
  1  'x, y, z'
loop_
 _atom_site_type_symbol
 _atom_site_label
 _atom_site_symmetry_multiplicity
 _atom_site_fract_x
 _atom_site_fract_y
 _atom_site_fract_z
 _atom_site_occupancy
 _atom_site_charge
  Cu  Cu1  1  0.000000  0.214820  0.785180  1.0  0.9168
  Cu  Cu2  1  0.000000  0.714820  0.285180  1.0  0.9168
  Cu  Cu3  1  0.500000  0.214820  0.285180  1.0  0.9168
  Cu  Cu4  1  0.500000  0.714820  0.785180  1.0  0.9168
  Cu  Cu5  1  0.000000  0.785180  0.785180  1.0  0.9185
  Cu  Cu6  1  0.000000  0.285180  0.285180  1.0  0.9185
  Cu  Cu7  1  0.500000  0.785180  0.285180  1.0  0.9185
  Cu  Cu8  1  0.500000  0.285180  0.785180  1.0  0.9185
  Cu  Cu9  1  0.000000  0.214820  0.214820  1.0  0.9172
  Cu  Cu10  1  0.000000  0.714820  0.714820  1.0  0.9172
  Cu  Cu11  1  0.500000  0.214820  0.714820  1.0  0.9172
  Cu  Cu12  1  0.500000  0.714820  0.214820  1.0  0.9172
  Cu  Cu13  1  0.000000  0.785180  0.214820  1.0  0.9184
  Cu  Cu14  1  0.000000  0.285180  0.714820  1.0  0.9184
  Cu  Cu15  1  0.500000  0.785180  0.714820  1.0  0.9184
  Cu  Cu16  1  0.500000  0.285180  0.214820  1.0  0.9184
  Cu  Cu17  1  0.785180  0.000000  0.214820  1.0  0.9166
  Cu  Cu18  1  0.785180  0.500000  0.714820  1.0  0.9166
  Cu  Cu19  1  0.285180  0.000000  0.714820  1.0  0.9166
  Cu  Cu20  1  0.285180  0.500000  0.214820  1.0  0.9166
  Cu  Cu21  1  0.785180  0.000000  0.785180  1.0  0.9165
  Cu  Cu22  1  0.785180  0.500000  0.285180  1.0  0.9165
  Cu  Cu23  1  0.285180  0.000000  0.285180  1.0  0.9165
  Cu  Cu24  1  0.285180  0.500000  0.785180  1.0  0.9165
  Cu  Cu25  1  0.214820  0.000000  0.214820  1.0  0.918
  Cu  Cu26  1  0.214820  0.500000  0.714820  1.0  0.918
  Cu  Cu27  1  0.714820  0.000000  0.714820  1.0  0.918
  Cu  Cu28  1  0.714820  0.500000  0.214820  1.0  0.918
  Cu  Cu29  1  0.214820  0.000000  0.785180  1.0  0.9175
  Cu  Cu30  1  0.214820  0.500000  0.285180  1.0  0.9175
  Cu  Cu31  1  0.714820  0.000000  0.285180  1.0  0.9175
  Cu  Cu32  1  0.714820  0.500000  0.785180  1.0  0.9175
  Cu  Cu33  1  0.214820  0.785180  0.000000  1.0  0.9204
  Cu  Cu34  1  0.214820  0.285180  0.500000  1.0  0.9204
  Cu  Cu35  1  0.714820  0.785180  0.500000  1.0  0.9204
  Cu  Cu36  1  0.714820  0.285180  0.000000  1.0  0.9204
  Cu  Cu37  1  0.785180  0.785180  0.000000  1.0  0.9198
  Cu  Cu38  1  0.785180  0.285180  0.500000  1.0  0.9198
  Cu  Cu39  1  0.285180  0.785180  0.500000  1.0  0.9198
  Cu  Cu40  1  0.285180  0.285180  0.000000  1.0  0.9198
  Cu  Cu41  1  0.214820  0.214820  0.000000  1.0  0.9193
  Cu  Cu42  1  0.214820  0.714820  0.500000  1.0  0.9193
  Cu  Cu43  1  0.714820  0.214820  0.500000  1.0  0.9193
  Cu  Cu44  1  0.714820  0.714820  0.000000  1.0  0.9193
  Cu  Cu45  1  0.785180  0.214820  0.000000  1.0  0.9178
  Cu  Cu46  1  0.785180  0.714820  0.500000  1.0  0.9178
  Cu  Cu47  1  0.285180  0.214820  0.500000  1.0  0.9178
  Cu  Cu48  1  0.285180  0.714820  0.000000  1.0  0.9178
  C  C49  1  0.068900  0.297520  0.797520  1.0  0.6915
  C  C50  1  0.112200  0.323240  0.823240  1.0  -0.0698
  C  C51  1  0.568900  0.297520  0.297520  1.0  0.6915
  C  C52  1  0.612200  0.323240  0.323240  1.0  -0.0707
  C  C53  1  0.931100  0.702480  0.797520  1.0  0.6898
  C  C54  1  0.887800  0.676760  0.823240  1.0  -0.0694
  C  C55  1  0.931100  0.202480  0.297520  1.0  0.6898
  C  C56  1  0.887800  0.176760  0.323240  1.0  -0.07
  C  C57  1  0.431100  0.702480  0.297520  1.0  0.6898
  C  C58  1  0.387800  0.676760  0.323240  1.0  -0.0694
  C  C59  1  0.931100  0.297520  0.202480  1.0  0.69
  C  C60  1  0.887800  0.323240  0.176760  1.0  -0.0701
  C  C61  1  0.431100  0.297520  0.702480  1.0  0.69
  C  C62  1  0.387800  0.323240  0.676760  1.0  -0.0695
  C  C63  1  0.068900  0.702480  0.202480  1.0  0.6917
  C  C64  1  0.112200  0.676760  0.176760  1.0  -0.0694
  C  C65  1  0.568900  0.702480  0.702480  1.0  0.6917
  C  C66  1  0.612200  0.676760  0.676760  1.0  -0.0694
  C  C67  1  0.568900  0.202480  0.202480  1.0  0.6917
  C  C68  1  0.612200  0.176760  0.176760  1.0  -0.0703
  C  C69  1  0.797520  0.068900  0.297520  1.0  0.6921
  C  C70  1  0.823240  0.112200  0.323240  1.0  -0.0695
  C  C71  1  0.797520  0.568900  0.797520  1.0  0.6921
  C  C72  1  0.823240  0.612200  0.823240  1.0  -0.07
  C  C73  1  0.297520  0.568900  0.297520  1.0  0.6921
  C  C74  1  0.323240  0.612200  0.323240  1.0  -0.0703
  C  C75  1  0.797520  0.931100  0.702480  1.0  0.6925
  C  C76  1  0.823240  0.887800  0.676760  1.0  -0.0693
  C  C77  1  0.797520  0.431100  0.202480  1.0  0.6925
  C  C78  1  0.823240  0.387800  0.176760  1.0  -0.0693
  C  C79  1  0.297520  0.931100  0.202480  1.0  0.6925
  C  C80  1  0.323240  0.887800  0.176760  1.0  -0.0699
  C  C81  1  0.202480  0.931100  0.297520  1.0  0.6929
  C  C82  1  0.176760  0.887800  0.323240  1.0  -0.07
  C  C83  1  0.202480  0.431100  0.797520  1.0  0.6929
  C  C84  1  0.176760  0.387800  0.823240  1.0  -0.0706
  C  C85  1  0.202480  0.068900  0.702480  1.0  0.693
  C  C86  1  0.176760  0.112200  0.676760  1.0  -0.0699
  C  C87  1  0.202480  0.568900  0.202480  1.0  0.693
  C  C88  1  0.176760  0.612200  0.176760  1.0  -0.0705
  C  C89  1  0.297520  0.797520  0.068900  1.0  0.693
  C  C90  1  0.323240  0.823240  0.112200  1.0  -0.0699
  C  C91  1  0.297520  0.297520  0.568900  1.0  0.693
  C  C92  1  0.323240  0.323240  0.612200  1.0  -0.0708
  C  C93  1  0.702480  0.797520  0.931100  1.0  0.6942
  C  C94  1  0.676760  0.823240  0.887800  1.0  -0.0701
  C  C95  1  0.702480  0.297520  0.431100  1.0  0.6942
  C  C96  1  0.676760  0.323240  0.387800  1.0  -0.0701
  C  C97  1  0.202480  0.297520  0.931100  1.0  0.6942
  C  C98  1  0.176760  0.323240  0.887800  1.0  -0.071
  C  C99  1  0.297520  0.202480  0.931100  1.0  0.6935
  C  C100  1  0.323240  0.176760  0.887800  1.0  -0.0701
  C  C101  1  0.297520  0.702480  0.431100  1.0  0.6935
  C  C102  1  0.323240  0.676760  0.387800  1.0  -0.0698
  C  C103  1  0.702480  0.202480  0.068900  1.0  0.6936
  C  C104  1  0.676760  0.176760  0.112200  1.0  -0.0702
  C  C105  1  0.702480  0.702480  0.568900  1.0  0.6936
  C  C106  1  0.676760  0.676760  0.612200  1.0  -0.0708
  C  C107  1  0.202480  0.202480  0.568900  1.0  0.6936
  C  C108  1  0.176760  0.176760  0.612200  1.0  -0.0711
  C  C109  1  0.297520  0.068900  0.202480  1.0  0.6924
  C  C110  1  0.323240  0.112200  0.176760  1.0  -0.0699
  C  C111  1  0.297520  0.568900  0.702480  1.0  0.6924
  C  C112  1  0.323240  0.612200  0.676760  1.0  -0.0693
  C  C113  1  0.702480  0.931100  0.202480  1.0  0.6929
  C  C114  1  0.676760  0.887800  0.176760  1.0  -0.0698
  C  C115  1  0.702480  0.431100  0.702480  1.0  0.6929
  C  C116  1  0.676760  0.387800  0.676760  1.0  -0.0698
  C  C117  1  0.202480  0.431100  0.202480  1.0  0.6929
  C  C118  1  0.176760  0.387800  0.176760  1.0  -0.0704
  C  C119  1  0.297520  0.931100  0.797520  1.0  0.692
  C  C120  1  0.323240  0.887800  0.823240  1.0  -0.0695
  C  C121  1  0.297520  0.431100  0.297520  1.0  0.692
  C  C122  1  0.323240  0.387800  0.323240  1.0  -0.0701
  C  C123  1  0.702480  0.068900  0.797520  1.0  0.6931
  C  C124  1  0.676760  0.112200  0.823240  1.0  -0.0701
  C  C125  1  0.702480  0.568900  0.297520  1.0  0.6931
  C  C126  1  0.676760  0.612200  0.323240  1.0  -0.0701
  C  C127  1  0.202480  0.068900  0.297520  1.0  0.6931
  C  C128  1  0.176760  0.112200  0.323240  1.0  -0.0706
  C  C129  1  0.068900  0.797520  0.702480  1.0  0.6918
  C  C130  1  0.112200  0.823240  0.676760  1.0  -0.0697
  C  C131  1  0.068900  0.297520  0.202480  1.0  0.6918
  C  C132  1  0.112200  0.323240  0.176760  1.0  -0.0697
  C  C133  1  0.568900  0.797520  0.202480  1.0  0.6918
  C  C134  1  0.612200  0.823240  0.176760  1.0  -0.0703
  C  C135  1  0.931100  0.797520  0.297520  1.0  0.6901
  C  C136  1  0.887800  0.823240  0.323240  1.0  -0.0697
  C  C137  1  0.431100  0.797520  0.797520  1.0  0.6901
  C  C138  1  0.387800  0.823240  0.823240  1.0  -0.0703
  C  C139  1  0.431100  0.297520  0.297520  1.0  0.6901
  C  C140  1  0.387800  0.323240  0.323240  1.0  -0.0697
  C  C141  1  0.931100  0.202480  0.702480  1.0  0.6898
  C  C142  1  0.887800  0.176760  0.676760  1.0  -0.0693
  C  C143  1  0.431100  0.202480  0.202480  1.0  0.6898
  C  C144  1  0.387800  0.176760  0.176760  1.0  -0.0693
  C  C145  1  0.068900  0.202480  0.297520  1.0  0.6913
  C  C146  1  0.112200  0.176760  0.323240  1.0  -0.0695
  C  C147  1  0.568900  0.202480  0.797520  1.0  0.6913
  C  C148  1  0.612200  0.176760  0.823240  1.0  -0.0701
  C  C149  1  0.797520  0.297520  0.931100  1.0  0.6935
  C  C150  1  0.823240  0.323240  0.887800  1.0  -0.0695
  C  C151  1  0.797520  0.797520  0.431100  1.0  0.6935
  C  C152  1  0.823240  0.823240  0.387800  1.0  -0.0702
  C  C153  1  0.297520  0.297520  0.431100  1.0  0.6935
  C  C154  1  0.323240  0.323240  0.387800  1.0  -0.0705
  C  C155  1  0.797520  0.702480  0.068900  1.0  0.693
  C  C156  1  0.823240  0.676760  0.112200  1.0  -0.0697
  C  C157  1  0.797520  0.202480  0.568900  1.0  0.693
  C  C158  1  0.823240  0.176760  0.612200  1.0  -0.0702
  C  C159  1  0.297520  0.202480  0.068900  1.0  0.693
  C  C160  1  0.323240  0.176760  0.112200  1.0  -0.0705
  C  C161  1  0.202480  0.297520  0.068900  1.0  0.6938
  C  C162  1  0.176760  0.323240  0.112200  1.0  -0.0713
  C  C163  1  0.202480  0.797520  0.568900  1.0  0.6938
  C  C164  1  0.176760  0.823240  0.612200  1.0  -0.071
  C  C165  1  0.202480  0.702480  0.931100  1.0  0.694
  C  C166  1  0.176760  0.676760  0.887800  1.0  -0.0697
  C  C167  1  0.202480  0.202480  0.431100  1.0  0.694
  C  C168  1  0.176760  0.176760  0.387800  1.0  -0.0706
  C  C169  1  0.931100  0.702480  0.202480  1.0  0.6898
  C  C170  1  0.887800  0.676760  0.176760  1.0  -0.0698
  C  C171  1  0.431100  0.702480  0.702480  1.0  0.6898
  C  C172  1  0.387800  0.676760  0.676760  1.0  -0.0698
  C  C173  1  0.568900  0.297520  0.702480  1.0  0.6918
  C  C174  1  0.612200  0.323240  0.676760  1.0  -0.0703
  C  C175  1  0.068900  0.702480  0.797520  1.0  0.6913
  C  C176  1  0.112200  0.676760  0.823240  1.0  -0.0701
  C  C177  1  0.568900  0.702480  0.297520  1.0  0.6913
  C  C178  1  0.612200  0.676760  0.323240  1.0  -0.0701
  C  C179  1  0.931100  0.297520  0.797520  1.0  0.6901
  C  C180  1  0.887800  0.323240  0.823240  1.0  -0.0703
  C  C181  1  0.202480  0.931100  0.702480  1.0  0.6929
  C  C182  1  0.176760  0.887800  0.676760  1.0  -0.0707
  C  C183  1  0.202480  0.568900  0.797520  1.0  0.6931
  C  C184  1  0.176760  0.612200  0.823240  1.0  -0.0709
  C  C185  1  0.797520  0.068900  0.702480  1.0  0.6924
  C  C186  1  0.823240  0.112200  0.676760  1.0  -0.0701
  C  C187  1  0.797520  0.568900  0.202480  1.0  0.6924
  C  C188  1  0.823240  0.612200  0.176760  1.0  -0.0701
  C  C189  1  0.797520  0.931100  0.297520  1.0  0.692
  C  C190  1  0.823240  0.887800  0.323240  1.0  -0.0704
  C  C191  1  0.797520  0.431100  0.797520  1.0  0.692
  C  C192  1  0.823240  0.387800  0.823240  1.0  -0.0704
  C  C193  1  0.702480  0.202480  0.931100  1.0  0.694
  C  C194  1  0.676760  0.176760  0.887800  1.0  -0.0706
  C  C195  1  0.702480  0.702480  0.431100  1.0  0.694
  C  C196  1  0.676760  0.676760  0.387800  1.0  -0.0706
  C  C197  1  0.297520  0.702480  0.568900  1.0  0.693
  C  C198  1  0.323240  0.676760  0.612200  1.0  -0.0705
  C  C199  1  0.702480  0.797520  0.068900  1.0  0.6938
  C  C200  1  0.676760  0.823240  0.112200  1.0  -0.0713
  C  C201  1  0.702480  0.297520  0.568900  1.0  0.6938
  C  C202  1  0.676760  0.323240  0.612200  1.0  -0.0713
  C  C203  1  0.297520  0.797520  0.931100  1.0  0.6935
  C  C204  1  0.323240  0.823240  0.887800  1.0  -0.0705
  C  C205  1  0.702480  0.931100  0.797520  1.0  0.6929
  C  C206  1  0.676760  0.887800  0.823240  1.0  -0.0706
  C  C207  1  0.702480  0.431100  0.297520  1.0  0.6929
  C  C208  1  0.676760  0.387800  0.323240  1.0  -0.0706
  C  C209  1  0.297520  0.068900  0.797520  1.0  0.6921
  C  C210  1  0.323240  0.112200  0.823240  1.0  -0.0695
  C  C211  1  0.702480  0.068900  0.202480  1.0  0.693
  C  C212  1  0.676760  0.112200  0.176760  1.0  -0.0705
  C  C213  1  0.702480  0.568900  0.702480  1.0  0.693
  C  C214  1  0.676760  0.612200  0.676760  1.0  -0.0708
  C  C215  1  0.297520  0.431100  0.702480  1.0  0.6925
  C  C216  1  0.323240  0.387800  0.676760  1.0  -0.0699
  C  C217  1  0.431100  0.202480  0.797520  1.0  0.6898
  C  C218  1  0.387800  0.176760  0.823240  1.0  -0.07
  C  C219  1  0.068900  0.202480  0.702480  1.0  0.6917
  C  C220  1  0.112200  0.176760  0.676760  1.0  -0.07
  C  C221  1  0.068900  0.797520  0.297520  1.0  0.6915
  C  C222  1  0.112200  0.823240  0.323240  1.0  -0.0704
  C  C223  1  0.568900  0.797520  0.797520  1.0  0.6915
  C  C224  1  0.612200  0.823240  0.823240  1.0  -0.0707
  C  C225  1  0.931100  0.797520  0.702480  1.0  0.69
  C  C226  1  0.887800  0.823240  0.676760  1.0  -0.0701
  C  C227  1  0.431100  0.797520  0.202480  1.0  0.69
  C  C228  1  0.387800  0.823240  0.176760  1.0  -0.0703
  C  C229  1  0.202480  0.702480  0.068900  1.0  0.6936
  C  C230  1  0.176760  0.676760  0.112200  1.0  -0.0711
  C  C231  1  0.202480  0.797520  0.431100  1.0  0.6942
  C  C232  1  0.176760  0.823240  0.387800  1.0  -0.071
  C  C233  1  0.797520  0.702480  0.931100  1.0  0.6935
  C  C234  1  0.823240  0.676760  0.887800  1.0  -0.0701
  C  C235  1  0.797520  0.202480  0.431100  1.0  0.6935
  C  C236  1  0.823240  0.176760  0.387800  1.0  -0.0701
  C  C237  1  0.797520  0.297520  0.068900  1.0  0.693
  C  C238  1  0.823240  0.323240  0.112200  1.0  -0.0708
  C  C239  1  0.797520  0.797520  0.568900  1.0  0.693
  C  C240  1  0.823240  0.823240  0.612200  1.0  -0.0708
  C  C241  1  0.133600  0.366400  0.801700  1.0  0.0279
  C  C242  1  0.133600  0.866400  0.301700  1.0  0.0279
  C  C243  1  0.866400  0.633600  0.801700  1.0  0.027
  C  C244  1  0.866400  0.133600  0.301700  1.0  0.027
  C  C245  1  0.366400  0.133600  0.801700  1.0  0.027
  C  C246  1  0.866400  0.366400  0.198300  1.0  0.0289
  C  C247  1  0.866400  0.866400  0.698300  1.0  0.0289
  C  C248  1  0.366400  0.366400  0.698300  1.0  0.0289
  C  C249  1  0.133600  0.633600  0.198300  1.0  0.0275
  C  C250  1  0.133600  0.133600  0.698300  1.0  0.0275
  C  C251  1  0.801700  0.133600  0.366400  1.0  0.0297
  C  C252  1  0.301700  0.133600  0.866400  1.0  0.0297
  C  C253  1  0.801700  0.866400  0.633600  1.0  0.0304
  C  C254  1  0.801700  0.366400  0.133600  1.0  0.0304
  C  C255  1  0.301700  0.866400  0.133600  1.0  0.0304
  C  C256  1  0.198300  0.866400  0.366400  1.0  0.0278
  C  C257  1  0.698300  0.866400  0.866400  1.0  0.0278
  C  C258  1  0.698300  0.366400  0.366400  1.0  0.0278
  C  C259  1  0.198300  0.133600  0.633600  1.0  0.0266
  C  C260  1  0.698300  0.133600  0.133600  1.0  0.0266
  C  C261  1  0.366400  0.801700  0.133600  1.0  0.0281
  C  C262  1  0.366400  0.301700  0.633600  1.0  0.0281
  C  C263  1  0.633600  0.801700  0.866400  1.0  0.0285
  C  C264  1  0.633600  0.301700  0.366400  1.0  0.0285
  C  C265  1  0.133600  0.801700  0.366400  1.0  0.0285
  C  C266  1  0.366400  0.198300  0.866400  1.0  0.0298
  C  C267  1  0.366400  0.698300  0.366400  1.0  0.0298
  C  C268  1  0.633600  0.198300  0.133600  1.0  0.0298
  C  C269  1  0.633600  0.698300  0.633600  1.0  0.0298
  C  C270  1  0.133600  0.698300  0.133600  1.0  0.0298
  C  C271  1  0.366400  0.133600  0.198300  1.0  0.0281
  C  C272  1  0.366400  0.633600  0.698300  1.0  0.0281
  C  C273  1  0.633600  0.866400  0.198300  1.0  0.0286
  C  C274  1  0.633600  0.366400  0.698300  1.0  0.0286
  C  C275  1  0.133600  0.366400  0.198300  1.0  0.0286
  C  C276  1  0.366400  0.866400  0.801700  1.0  0.0284
  C  C277  1  0.366400  0.366400  0.301700  1.0  0.0284
  C  C278  1  0.633600  0.133600  0.801700  1.0  0.0269
  C  C279  1  0.633600  0.633600  0.301700  1.0  0.0269
  C  C280  1  0.133600  0.133600  0.301700  1.0  0.0269
  C  C281  1  0.133600  0.801700  0.633600  1.0  0.0276
  C  C282  1  0.133600  0.301700  0.133600  1.0  0.0276
  C  C283  1  0.866400  0.801700  0.366400  1.0  0.0289
  C  C284  1  0.866400  0.301700  0.866400  1.0  0.0289
  C  C285  1  0.366400  0.301700  0.366400  1.0  0.0289
  C  C286  1  0.866400  0.198300  0.633600  1.0  0.0295
  C  C287  1  0.866400  0.698300  0.133600  1.0  0.0295
  C  C288  1  0.366400  0.198300  0.133600  1.0  0.0295
  C  C289  1  0.133600  0.198300  0.366400  1.0  0.03
  C  C290  1  0.133600  0.698300  0.866400  1.0  0.03
  C  C291  1  0.801700  0.366400  0.866400  1.0  0.0311
  C  C292  1  0.301700  0.366400  0.366400  1.0  0.0311
  C  C293  1  0.801700  0.633600  0.133600  1.0  0.0283
  C  C294  1  0.301700  0.633600  0.633600  1.0  0.0283
  C  C295  1  0.301700  0.133600  0.133600  1.0  0.0283
  C  C296  1  0.198300  0.366400  0.133600  1.0  0.028
  C  C297  1  0.698300  0.366400  0.633600  1.0  0.028
  C  C298  1  0.198300  0.633600  0.866400  1.0  0.0274
  C  C299  1  0.198300  0.133600  0.366400  1.0  0.0274
  C  C300  1  0.698300  0.633600  0.366400  1.0  0.0274
  C  C301  1  0.866400  0.633600  0.198300  1.0  0.0281
  C  C302  1  0.866400  0.133600  0.698300  1.0  0.0281
  C  C303  1  0.133600  0.866400  0.698300  1.0  0.0286
  C  C304  1  0.133600  0.633600  0.801700  1.0  0.0269
  C  C305  1  0.866400  0.366400  0.801700  1.0  0.0284
  C  C306  1  0.866400  0.866400  0.301700  1.0  0.0284
  C  C307  1  0.198300  0.866400  0.633600  1.0  0.028
  C  C308  1  0.698300  0.866400  0.133600  1.0  0.028
  C  C309  1  0.698300  0.133600  0.866400  1.0  0.0274
  C  C310  1  0.801700  0.133600  0.633600  1.0  0.0283
  C  C311  1  0.801700  0.866400  0.366400  1.0  0.0311
  C  C312  1  0.301700  0.866400  0.866400  1.0  0.0311
  C  C313  1  0.633600  0.198300  0.866400  1.0  0.03
  C  C314  1  0.633600  0.698300  0.366400  1.0  0.03
  C  C315  1  0.366400  0.698300  0.633600  1.0  0.0295
  C  C316  1  0.633600  0.801700  0.133600  1.0  0.0276
  C  C317  1  0.633600  0.301700  0.633600  1.0  0.0276
  C  C318  1  0.366400  0.801700  0.866400  1.0  0.0289
  C  C319  1  0.633600  0.866400  0.801700  1.0  0.0279
  C  C320  1  0.633600  0.366400  0.301700  1.0  0.0279
  C  C321  1  0.366400  0.633600  0.301700  1.0  0.027
  C  C322  1  0.633600  0.133600  0.198300  1.0  0.0275
  C  C323  1  0.633600  0.633600  0.698300  1.0  0.0275
  C  C324  1  0.366400  0.866400  0.198300  1.0  0.0289
  C  C325  1  0.866400  0.198300  0.366400  1.0  0.0298
  C  C326  1  0.866400  0.698300  0.866400  1.0  0.0298
  C  C327  1  0.133600  0.198300  0.633600  1.0  0.0298
  C  C328  1  0.133600  0.301700  0.866400  1.0  0.0285
  C  C329  1  0.866400  0.801700  0.633600  1.0  0.0281
  C  C330  1  0.866400  0.301700  0.133600  1.0  0.0281
  C  C331  1  0.198300  0.633600  0.133600  1.0  0.0266
  C  C332  1  0.698300  0.633600  0.633600  1.0  0.0266
  C  C333  1  0.198300  0.366400  0.866400  1.0  0.0278
  C  C334  1  0.801700  0.633600  0.866400  1.0  0.0297
  C  C335  1  0.301700  0.633600  0.366400  1.0  0.0297
  C  C336  1  0.301700  0.366400  0.633600  1.0  0.0304
  O  O337  1  0.052300  0.256670  0.816810  1.0  -0.5547
  O  O338  1  0.052300  0.756670  0.316810  1.0  -0.5547
  O  O339  1  0.552300  0.256670  0.316810  1.0  -0.5547
  O  O340  1  0.552300  0.756670  0.816810  1.0  -0.5547
  O  O341  1  0.947700  0.743330  0.816810  1.0  -0.5542
  O  O342  1  0.947700  0.243330  0.316810  1.0  -0.5542
  O  O343  1  0.447700  0.743330  0.316810  1.0  -0.5542
  O  O344  1  0.447700  0.243330  0.816810  1.0  -0.5542
  O  O345  1  0.947700  0.256670  0.183190  1.0  -0.5543
  O  O346  1  0.947700  0.756670  0.683190  1.0  -0.5543
  O  O347  1  0.447700  0.256670  0.683190  1.0  -0.5542
  O  O348  1  0.447700  0.756670  0.183190  1.0  -0.5543
  O  O349  1  0.052300  0.743330  0.183190  1.0  -0.5555
  O  O350  1  0.052300  0.243330  0.683190  1.0  -0.5557
  O  O351  1  0.552300  0.743330  0.683190  1.0  -0.5555
  O  O352  1  0.552300  0.243330  0.183190  1.0  -0.5555
  O  O353  1  0.816810  0.052300  0.256670  1.0  -0.5536
  O  O354  1  0.816810  0.552300  0.756670  1.0  -0.5536
  O  O355  1  0.316810  0.052300  0.756670  1.0  -0.5536
  O  O356  1  0.316810  0.552300  0.256670  1.0  -0.5536
  O  O357  1  0.816810  0.947700  0.743330  1.0  -0.5524
  O  O358  1  0.816810  0.447700  0.243330  1.0  -0.5524
  O  O359  1  0.316810  0.947700  0.243330  1.0  -0.5522
  O  O360  1  0.316810  0.447700  0.743330  1.0  -0.5524
  O  O361  1  0.183190  0.947700  0.256670  1.0  -0.5546
  O  O362  1  0.183190  0.447700  0.756670  1.0  -0.5546
  O  O363  1  0.683190  0.947700  0.756670  1.0  -0.5546
  O  O364  1  0.683190  0.447700  0.256670  1.0  -0.5546
  O  O365  1  0.183190  0.052300  0.743330  1.0  -0.5532
  O  O366  1  0.183190  0.552300  0.243330  1.0  -0.5532
  O  O367  1  0.683190  0.052300  0.243330  1.0  -0.5532
  O  O368  1  0.683190  0.552300  0.743330  1.0  -0.5532
  O  O369  1  0.256670  0.816810  0.052300  1.0  -0.5562
  O  O370  1  0.256670  0.316810  0.552300  1.0  -0.5562
  O  O371  1  0.756670  0.816810  0.552300  1.0  -0.5562
  O  O372  1  0.756670  0.316810  0.052300  1.0  -0.5562
  O  O373  1  0.743330  0.816810  0.947700  1.0  -0.5567
  O  O374  1  0.743330  0.316810  0.447700  1.0  -0.5567
  O  O375  1  0.243330  0.816810  0.447700  1.0  -0.5567
  O  O376  1  0.243330  0.316810  0.947700  1.0  -0.5567
  O  O377  1  0.256670  0.183190  0.947700  1.0  -0.5565
  O  O378  1  0.256670  0.683190  0.447700  1.0  -0.5565
  O  O379  1  0.756670  0.183190  0.447700  1.0  -0.5565
  O  O380  1  0.756670  0.683190  0.947700  1.0  -0.5565
  O  O381  1  0.743330  0.183190  0.052300  1.0  -0.5569
  O  O382  1  0.743330  0.683190  0.552300  1.0  -0.5569
  O  O383  1  0.243330  0.183190  0.552300  1.0  -0.5568
  O  O384  1  0.243330  0.683190  0.052300  1.0  -0.5568
  O  O385  1  0.256670  0.052300  0.183190  1.0  -0.554
  O  O386  1  0.256670  0.552300  0.683190  1.0  -0.554
  O  O387  1  0.756670  0.052300  0.683190  1.0  -0.554
  O  O388  1  0.756670  0.552300  0.183190  1.0  -0.554
  O  O389  1  0.743330  0.947700  0.183190  1.0  -0.5545
  O  O390  1  0.743330  0.447700  0.683190  1.0  -0.5545
  O  O391  1  0.243330  0.947700  0.683190  1.0  -0.5545
  O  O392  1  0.243330  0.447700  0.183190  1.0  -0.5545
  O  O393  1  0.256670  0.947700  0.816810  1.0  -0.5525
  O  O394  1  0.256670  0.447700  0.316810  1.0  -0.5528
  O  O395  1  0.756670  0.947700  0.316810  1.0  -0.5525
  O  O396  1  0.756670  0.447700  0.816810  1.0  -0.5525
  O  O397  1  0.743330  0.052300  0.816810  1.0  -0.5536
  O  O398  1  0.743330  0.552300  0.316810  1.0  -0.5536
  O  O399  1  0.243330  0.052300  0.316810  1.0  -0.5536
  O  O400  1  0.243330  0.552300  0.816810  1.0  -0.5536
  O  O401  1  0.052300  0.816810  0.743330  1.0  -0.5544
  O  O402  1  0.052300  0.316810  0.243330  1.0  -0.5545
  O  O403  1  0.552300  0.816810  0.243330  1.0  -0.5544
  O  O404  1  0.552300  0.316810  0.743330  1.0  -0.5544
  O  O405  1  0.947700  0.816810  0.256670  1.0  -0.5557
  O  O406  1  0.947700  0.316810  0.756670  1.0  -0.5557
  O  O407  1  0.447700  0.816810  0.756670  1.0  -0.5557
  O  O408  1  0.447700  0.316810  0.256670  1.0  -0.5558
  O  O409  1  0.947700  0.183190  0.743330  1.0  -0.5555
  O  O410  1  0.947700  0.683190  0.243330  1.0  -0.5555
  O  O411  1  0.447700  0.183190  0.243330  1.0  -0.5555
  O  O412  1  0.447700  0.683190  0.743330  1.0  -0.5555
  O  O413  1  0.052300  0.183190  0.256670  1.0  -0.5553
  O  O414  1  0.052300  0.683190  0.756670  1.0  -0.5553
  O  O415  1  0.552300  0.183190  0.756670  1.0  -0.5553
  O  O416  1  0.552300  0.683190  0.256670  1.0  -0.5553
  O  O417  1  0.816810  0.256670  0.947700  1.0  -0.5556
  O  O418  1  0.816810  0.756670  0.447700  1.0  -0.5556
  O  O419  1  0.316810  0.256670  0.447700  1.0  -0.5555
  O  O420  1  0.316810  0.756670  0.947700  1.0  -0.5556
  O  O421  1  0.816810  0.743330  0.052300  1.0  -0.5552
  O  O422  1  0.816810  0.243330  0.552300  1.0  -0.5552
  O  O423  1  0.316810  0.743330  0.552300  1.0  -0.5552
  O  O424  1  0.316810  0.243330  0.052300  1.0  -0.5552
  O  O425  1  0.183190  0.256670  0.052300  1.0  -0.5556
  O  O426  1  0.183190  0.756670  0.552300  1.0  -0.5556
  O  O427  1  0.683190  0.256670  0.552300  1.0  -0.5556
  O  O428  1  0.683190  0.756670  0.052300  1.0  -0.5556
  O  O429  1  0.183190  0.743330  0.947700  1.0  -0.5556
  O  O430  1  0.183190  0.243330  0.447700  1.0  -0.5556
  O  O431  1  0.683190  0.743330  0.447700  1.0  -0.5556
  O  O432  1  0.683190  0.243330  0.947700  1.0  -0.5556
  O  O433  1  0.947700  0.743330  0.183190  1.0  -0.556
  O  O434  1  0.947700  0.243330  0.683190  1.0  -0.556
  O  O435  1  0.447700  0.743330  0.683190  1.0  -0.556
  O  O436  1  0.447700  0.243330  0.183190  1.0  -0.556
  O  O437  1  0.052300  0.256670  0.183190  1.0  -0.5544
  O  O438  1  0.052300  0.756670  0.683190  1.0  -0.5544
  O  O439  1  0.552300  0.256670  0.683190  1.0  -0.5544
  O  O440  1  0.552300  0.756670  0.183190  1.0  -0.5544
  O  O441  1  0.052300  0.743330  0.816810  1.0  -0.5538
  O  O442  1  0.052300  0.243330  0.316810  1.0  -0.5538
  O  O443  1  0.552300  0.743330  0.316810  1.0  -0.5537
  O  O444  1  0.552300  0.243330  0.816810  1.0  -0.5537
  O  O445  1  0.947700  0.256670  0.816810  1.0  -0.5552
  O  O446  1  0.947700  0.756670  0.316810  1.0  -0.5552
  O  O447  1  0.447700  0.256670  0.316810  1.0  -0.5554
  O  O448  1  0.447700  0.756670  0.816810  1.0  -0.5552
  O  O449  1  0.183190  0.947700  0.743330  1.0  -0.553
  O  O450  1  0.183190  0.447700  0.243330  1.0  -0.553
  O  O451  1  0.683190  0.947700  0.243330  1.0  -0.553
  O  O452  1  0.683190  0.447700  0.743330  1.0  -0.553
  O  O453  1  0.183190  0.052300  0.256670  1.0  -0.5548
  O  O454  1  0.183190  0.552300  0.756670  1.0  -0.5548
  O  O455  1  0.683190  0.052300  0.756670  1.0  -0.5548
  O  O456  1  0.683190  0.552300  0.256670  1.0  -0.5548
  O  O457  1  0.816810  0.052300  0.743330  1.0  -0.5528
  O  O458  1  0.816810  0.552300  0.243330  1.0  -0.5528
  O  O459  1  0.316810  0.052300  0.243330  1.0  -0.5528
  O  O460  1  0.316810  0.552300  0.743330  1.0  -0.5528
  O  O461  1  0.816810  0.947700  0.256670  1.0  -0.5533
  O  O462  1  0.816810  0.447700  0.756670  1.0  -0.5533
  O  O463  1  0.316810  0.947700  0.756670  1.0  -0.5531
  O  O464  1  0.316810  0.447700  0.256670  1.0  -0.5531
  O  O465  1  0.743330  0.183190  0.947700  1.0  -0.5568
  O  O466  1  0.743330  0.683190  0.447700  1.0  -0.5568
  O  O467  1  0.243330  0.183190  0.447700  1.0  -0.5568
  O  O468  1  0.243330  0.683190  0.947700  1.0  -0.5568
  O  O469  1  0.256670  0.183190  0.052300  1.0  -0.5562
  O  O470  1  0.256670  0.683190  0.552300  1.0  -0.5562
  O  O471  1  0.756670  0.183190  0.552300  1.0  -0.5562
  O  O472  1  0.756670  0.683190  0.052300  1.0  -0.5562
  O  O473  1  0.743330  0.816810  0.052300  1.0  -0.5568
  O  O474  1  0.743330  0.316810  0.552300  1.0  -0.5568
  O  O475  1  0.243330  0.816810  0.552300  1.0  -0.5568
  O  O476  1  0.243330  0.316810  0.052300  1.0  -0.5568
  O  O477  1  0.256670  0.816810  0.947700  1.0  -0.5561
  O  O478  1  0.256670  0.316810  0.447700  1.0  -0.5561
  O  O479  1  0.756670  0.816810  0.447700  1.0  -0.5561
  O  O480  1  0.756670  0.316810  0.947700  1.0  -0.5561
  O  O481  1  0.743330  0.947700  0.816810  1.0  -0.5533
  O  O482  1  0.743330  0.447700  0.316810  1.0  -0.5533
  O  O483  1  0.243330  0.947700  0.316810  1.0  -0.5533
  O  O484  1  0.243330  0.447700  0.816810  1.0  -0.5533
  O  O485  1  0.256670  0.052300  0.816810  1.0  -0.5527
  O  O486  1  0.256670  0.552300  0.316810  1.0  -0.5527
  O  O487  1  0.756670  0.052300  0.316810  1.0  -0.5527
  O  O488  1  0.756670  0.552300  0.816810  1.0  -0.5527
  O  O489  1  0.743330  0.052300  0.183190  1.0  -0.555
  O  O490  1  0.743330  0.552300  0.683190  1.0  -0.555
  O  O491  1  0.243330  0.052300  0.683190  1.0  -0.555
  O  O492  1  0.243330  0.552300  0.183190  1.0  -0.555
  O  O493  1  0.256670  0.947700  0.183190  1.0  -0.5536
  O  O494  1  0.256670  0.447700  0.683190  1.0  -0.5538
  O  O495  1  0.756670  0.947700  0.683190  1.0  -0.5536
  O  O496  1  0.756670  0.447700  0.183190  1.0  -0.5536
  O  O497  1  0.947700  0.183190  0.256670  1.0  -0.555
  O  O498  1  0.947700  0.683190  0.756670  1.0  -0.555
  O  O499  1  0.447700  0.183190  0.756670  1.0  -0.555
  O  O500  1  0.447700  0.683190  0.256670  1.0  -0.555
  O  O501  1  0.052300  0.183190  0.743330  1.0  -0.5555
  O  O502  1  0.052300  0.683190  0.243330  1.0  -0.5546
  O  O503  1  0.552300  0.183190  0.243330  1.0  -0.5546
  O  O504  1  0.552300  0.683190  0.743330  1.0  -0.5555
  O  O505  1  0.052300  0.816810  0.256670  1.0  -0.5556
  O  O506  1  0.052300  0.316810  0.756670  1.0  -0.5556
  O  O507  1  0.552300  0.816810  0.756670  1.0  -0.5556
  O  O508  1  0.552300  0.316810  0.256670  1.0  -0.5556
  O  O509  1  0.947700  0.816810  0.743330  1.0  -0.5545
  O  O510  1  0.947700  0.316810  0.243330  1.0  -0.5545
  O  O511  1  0.447700  0.816810  0.243330  1.0  -0.5545
  O  O512  1  0.447700  0.316810  0.743330  1.0  -0.5545
  O  O513  1  0.183190  0.743330  0.052300  1.0  -0.5564
  O  O514  1  0.183190  0.243330  0.552300  1.0  -0.5565
  O  O515  1  0.683190  0.743330  0.552300  1.0  -0.5561
  O  O516  1  0.683190  0.243330  0.052300  1.0  -0.5565
  O  O517  1  0.183190  0.256670  0.947700  1.0  -0.5556
  O  O518  1  0.183190  0.756670  0.447700  1.0  -0.5556
  O  O519  1  0.683190  0.256670  0.447700  1.0  -0.5556
  O  O520  1  0.683190  0.756670  0.947700  1.0  -0.5556
  O  O521  1  0.816810  0.743330  0.947700  1.0  -0.5551
  O  O522  1  0.816810  0.243330  0.447700  1.0  -0.5551
  O  O523  1  0.316810  0.743330  0.447700  1.0  -0.5551
  O  O524  1  0.316810  0.243330  0.947700  1.0  -0.5551
  O  O525  1  0.816810  0.256670  0.052300  1.0  -0.5557
  O  O526  1  0.816810  0.756670  0.552300  1.0  -0.5557
  O  O527  1  0.316810  0.256670  0.552300  1.0  -0.5557
  O  O528  1  0.316810  0.756670  0.052300  1.0  -0.5557
