# generated using pymatgen
data_CuH2(C3O2)2
_symmetry_space_group_name_H-M   'P 1'
_cell_length_a   18.60690000
_cell_length_b   18.60690000
_cell_length_c   18.60690000
_cell_angle_alpha   60.00000000
_cell_angle_beta   60.00000000
_cell_angle_gamma   60.00000000
_symmetry_Int_Tables_number   1
_chemical_formula_structural   CuH2(C3O2)2
_chemical_formula_sum   'Cu12 H24 C72 O48'
_cell_volume   4555.19604702
_cell_formula_units_Z   12
loop_
 _symmetry_equiv_pos_site_id
 _symmetry_equiv_pos_as_xyz
  1  'x, y, z'
loop_
 _atom_site_type_symbol
 _atom_site_label
 _atom_site_symmetry_multiplicity
 _atom_site_fract_x
 _atom_site_fract_y
 _atom_site_fract_z
 _atom_site_occupancy
 _atom_site_charge
  Cu  Cu1  1  0.500000  0.500000  0.070560  1.0  0.8874
  Cu  Cu2  1  0.500000  0.500000  0.929440  1.0  0.8883
  Cu  Cu3  1  0.070560  0.929440  0.500000  1.0  0.8886
  Cu  Cu4  1  0.929440  0.070560  0.500000  1.0  0.8896
  Cu  Cu5  1  0.500000  0.070560  0.929440  1.0  0.8894
  Cu  Cu6  1  0.500000  0.929440  0.070560  1.0  0.8892
  Cu  Cu7  1  0.070560  0.500000  0.500000  1.0  0.8885
  Cu  Cu8  1  0.929440  0.500000  0.500000  1.0  0.8898
  Cu  Cu9  1  0.500000  0.929440  0.500000  1.0  0.8889
  Cu  Cu10  1  0.500000  0.070560  0.500000  1.0  0.8887
  Cu  Cu11  1  0.070560  0.500000  0.929440  1.0  0.8889
  Cu  Cu12  1  0.929440  0.500000  0.070560  1.0  0.8897
  H  H13  1  0.466600  0.772200  0.989000  1.0  0.1172
  H  H14  1  0.772200  0.466600  0.772200  1.0  0.1165
  H  H15  1  0.989000  0.772200  0.466600  1.0  0.1172
  H  H16  1  0.772200  0.989000  0.772200  1.0  0.1178
  H  H17  1  0.466600  0.989000  0.772200  1.0  0.118
  H  H18  1  0.772200  0.772200  0.989000  1.0  0.1168
  H  H19  1  0.989000  0.466600  0.772200  1.0  0.1171
  H  H20  1  0.772200  0.772200  0.466600  1.0  0.1165
  H  H21  1  0.466600  0.772200  0.772200  1.0  0.1166
  H  H22  1  0.772200  0.989000  0.466600  1.0  0.1179
  H  H23  1  0.989000  0.772200  0.772200  1.0  0.1172
  H  H24  1  0.772200  0.466600  0.989000  1.0  0.1168
  H  H25  1  0.227800  0.533400  0.011000  1.0  0.1166
  H  H26  1  0.533400  0.227800  0.227800  1.0  0.1168
  H  H27  1  0.227800  0.011000  0.533400  1.0  0.118
  H  H28  1  0.011000  0.227800  0.227800  1.0  0.1167
  H  H29  1  0.011000  0.533400  0.227800  1.0  0.1169
  H  H30  1  0.227800  0.227800  0.011000  1.0  0.1164
  H  H31  1  0.533400  0.011000  0.227800  1.0  0.1181
  H  H32  1  0.227800  0.227800  0.533400  1.0  0.1163
  H  H33  1  0.227800  0.533400  0.227800  1.0  0.1168
  H  H34  1  0.011000  0.227800  0.533400  1.0  0.1168
  H  H35  1  0.227800  0.011000  0.227800  1.0  0.118
  H  H36  1  0.533400  0.227800  0.011000  1.0  0.1164
  C  C37  1  0.474140  0.662860  0.931500  1.0  0.6927
  C  C38  1  0.465300  0.758100  0.888300  1.0  -0.1696
  C  C39  1  0.662860  0.474140  0.931500  1.0  0.693
  C  C40  1  0.758100  0.465300  0.888300  1.0  -0.1701
  C  C41  1  0.931500  0.931500  0.474140  1.0  0.6918
  C  C42  1  0.888300  0.888300  0.465300  1.0  -0.1695
  C  C43  1  0.931500  0.931500  0.662860  1.0  0.6922
  C  C44  1  0.888300  0.888300  0.758100  1.0  -0.1697
  C  C45  1  0.474140  0.931500  0.931500  1.0  0.6935
  C  C46  1  0.465300  0.888300  0.888300  1.0  -0.1701
  C  C47  1  0.662860  0.931500  0.931500  1.0  0.6921
  C  C48  1  0.758100  0.888300  0.888300  1.0  -0.1705
  C  C49  1  0.931500  0.474140  0.662860  1.0  0.6932
  C  C50  1  0.888300  0.465300  0.758100  1.0  -0.1705
  C  C51  1  0.931500  0.662860  0.474140  1.0  0.6922
  C  C52  1  0.888300  0.758100  0.465300  1.0  -0.1706
  C  C53  1  0.474140  0.931500  0.662860  1.0  0.6933
  C  C54  1  0.465300  0.888300  0.758100  1.0  -0.1703
  C  C55  1  0.662860  0.931500  0.474140  1.0  0.6919
  C  C56  1  0.758100  0.888300  0.465300  1.0  -0.1703
  C  C57  1  0.931500  0.662860  0.931500  1.0  0.6927
  C  C58  1  0.888300  0.758100  0.888300  1.0  -0.1706
  C  C59  1  0.931500  0.474140  0.931500  1.0  0.6934
  C  C60  1  0.888300  0.465300  0.888300  1.0  -0.1704
  C  C61  1  0.337140  0.525860  0.068500  1.0  0.6917
  C  C62  1  0.241900  0.534700  0.111700  1.0  -0.1697
  C  C63  1  0.525860  0.337140  0.068500  1.0  0.6926
  C  C64  1  0.534700  0.241900  0.111700  1.0  -0.1697
  C  C65  1  0.068500  0.068500  0.525860  1.0  0.6924
  C  C66  1  0.111700  0.111700  0.534700  1.0  -0.1702
  C  C67  1  0.068500  0.068500  0.337140  1.0  0.692
  C  C68  1  0.111700  0.111700  0.241900  1.0  -0.1699
  C  C69  1  0.068500  0.525860  0.068500  1.0  0.6928
  C  C70  1  0.111700  0.534700  0.111700  1.0  -0.1706
  C  C71  1  0.068500  0.337140  0.068500  1.0  0.6925
  C  C72  1  0.111700  0.241900  0.111700  1.0  -0.1703
  C  C73  1  0.525860  0.068500  0.337140  1.0  0.6934
  C  C74  1  0.534700  0.111700  0.241900  1.0  -0.1706
  C  C75  1  0.337140  0.068500  0.525860  1.0  0.6924
  C  C76  1  0.241900  0.111700  0.534700  1.0  -0.1701
  C  C77  1  0.068500  0.525860  0.337140  1.0  0.693
  C  C78  1  0.111700  0.534700  0.241900  1.0  -0.1705
  C  C79  1  0.068500  0.337140  0.525860  1.0  0.6929
  C  C80  1  0.111700  0.241900  0.534700  1.0  -0.1704
  C  C81  1  0.337140  0.068500  0.068500  1.0  0.692
  C  C82  1  0.241900  0.111700  0.111700  1.0  -0.1702
  C  C83  1  0.525860  0.068500  0.068500  1.0  0.6931
  C  C84  1  0.534700  0.111700  0.111700  1.0  -0.1706
  C  C85  1  0.465900  0.801300  0.931500  1.0  0.0299
  C  C86  1  0.801300  0.465900  0.801300  1.0  0.0286
  C  C87  1  0.931500  0.801300  0.465900  1.0  0.0306
  C  C88  1  0.801300  0.931500  0.801300  1.0  0.0308
  C  C89  1  0.465900  0.931500  0.801300  1.0  0.0313
  C  C90  1  0.801300  0.801300  0.931500  1.0  0.0305
  C  C91  1  0.931500  0.465900  0.801300  1.0  0.0297
  C  C92  1  0.801300  0.801300  0.465900  1.0  0.0292
  C  C93  1  0.465900  0.801300  0.801300  1.0  0.0292
  C  C94  1  0.801300  0.931500  0.465900  1.0  0.0306
  C  C95  1  0.931500  0.801300  0.801300  1.0  0.0304
  C  C96  1  0.801300  0.465900  0.931500  1.0  0.0294
  C  C97  1  0.198700  0.534100  0.068500  1.0  0.0287
  C  C98  1  0.534100  0.198700  0.198700  1.0  0.0306
  C  C99  1  0.198700  0.068500  0.534100  1.0  0.0308
  C  C100  1  0.068500  0.198700  0.198700  1.0  0.0301
  C  C101  1  0.068500  0.534100  0.198700  1.0  0.0279
  C  C102  1  0.198700  0.198700  0.068500  1.0  0.03
  C  C103  1  0.534100  0.068500  0.198700  1.0  0.0304
  C  C104  1  0.198700  0.198700  0.534100  1.0  0.0308
  C  C105  1  0.198700  0.534100  0.198700  1.0  0.0303
  C  C106  1  0.068500  0.198700  0.534100  1.0  0.0302
  C  C107  1  0.198700  0.068500  0.198700  1.0  0.0307
  C  C108  1  0.534100  0.198700  0.068500  1.0  0.0291
  O  O109  1  0.479220  0.626120  0.007840  1.0  -0.5566
  O  O110  1  0.626120  0.479220  0.886820  1.0  -0.5569
  O  O111  1  0.007840  0.886820  0.479220  1.0  -0.5576
  O  O112  1  0.886820  0.007840  0.626120  1.0  -0.5573
  O  O113  1  0.479220  0.007840  0.886820  1.0  -0.5576
  O  O114  1  0.626120  0.886820  0.007840  1.0  -0.557
  O  O115  1  0.007840  0.479220  0.626120  1.0  -0.5572
  O  O116  1  0.886820  0.626120  0.479220  1.0  -0.5571
  O  O117  1  0.479220  0.886820  0.626120  1.0  -0.5568
  O  O118  1  0.626120  0.007840  0.479220  1.0  -0.5577
  O  O119  1  0.007840  0.626120  0.886820  1.0  -0.557
  O  O120  1  0.886820  0.479220  0.007840  1.0  -0.5561
  O  O121  1  0.373880  0.520780  0.992160  1.0  -0.5567
  O  O122  1  0.520780  0.373880  0.113180  1.0  -0.5563
  O  O123  1  0.113180  0.992160  0.520780  1.0  -0.5576
  O  O124  1  0.992160  0.113180  0.373880  1.0  -0.5573
  O  O125  1  0.992160  0.520780  0.113180  1.0  -0.5571
  O  O126  1  0.113180  0.373880  0.992160  1.0  -0.5573
  O  O127  1  0.520780  0.992160  0.373880  1.0  -0.5571
  O  O128  1  0.373880  0.113180  0.520780  1.0  -0.5571
  O  O129  1  0.113180  0.520780  0.373880  1.0  -0.5564
  O  O130  1  0.992160  0.373880  0.520780  1.0  -0.5568
  O  O131  1  0.373880  0.992160  0.113180  1.0  -0.5571
  O  O132  1  0.520780  0.113180  0.992160  1.0  -0.5563
  O  O133  1  0.520780  0.373880  0.992160  1.0  -0.5561
  O  O134  1  0.373880  0.520780  0.113180  1.0  -0.5568
  O  O135  1  0.992160  0.113180  0.520780  1.0  -0.5572
  O  O136  1  0.113180  0.992160  0.373880  1.0  -0.5575
  O  O137  1  0.520780  0.992160  0.113180  1.0  -0.5568
  O  O138  1  0.373880  0.113180  0.992160  1.0  -0.5571
  O  O139  1  0.992160  0.520780  0.373880  1.0  -0.5575
  O  O140  1  0.113180  0.373880  0.520780  1.0  -0.5566
  O  O141  1  0.520780  0.113180  0.373880  1.0  -0.5571
  O  O142  1  0.373880  0.992160  0.520780  1.0  -0.5573
  O  O143  1  0.992160  0.373880  0.113180  1.0  -0.5565
  O  O144  1  0.113180  0.520780  0.992160  1.0  -0.5562
  O  O145  1  0.626120  0.479220  0.007840  1.0  -0.5571
  O  O146  1  0.479220  0.626120  0.886820  1.0  -0.5565
  O  O147  1  0.886820  0.007840  0.479220  1.0  -0.5571
  O  O148  1  0.007840  0.886820  0.626120  1.0  -0.5576
  O  O149  1  0.007840  0.479220  0.886820  1.0  -0.5576
  O  O150  1  0.886820  0.626120  0.007840  1.0  -0.557
  O  O151  1  0.479220  0.007840  0.626120  1.0  -0.5567
  O  O152  1  0.626120  0.886820  0.479220  1.0  -0.5573
  O  O153  1  0.886820  0.479220  0.626120  1.0  -0.5565
  O  O154  1  0.007840  0.626120  0.479220  1.0  -0.557
  O  O155  1  0.626120  0.007840  0.886820  1.0  -0.5567
  O  O156  1  0.479220  0.886820  0.007840  1.0  -0.5566
