# generated using pymatgen
data_Fe4P4O17
_symmetry_space_group_name_H-M   'P 1'
_cell_length_a   30.38010000
_cell_length_b   10.12040000
_cell_length_c   10.09770000
_cell_angle_alpha   90.00000000
_cell_angle_beta   107.71200000
_cell_angle_gamma   90.00000000
_symmetry_Int_Tables_number   1
_chemical_formula_structural   Fe4P4O17
_chemical_formula_sum   'Fe24 P24 O102'
_cell_volume   2957.46019171
_cell_formula_units_Z   6
loop_
 _symmetry_equiv_pos_site_id
 _symmetry_equiv_pos_as_xyz
  1  'x, y, z'
loop_
 _atom_site_type_symbol
 _atom_site_label
 _atom_site_symmetry_multiplicity
 _atom_site_fract_x
 _atom_site_fract_y
 _atom_site_fract_z
 _atom_site_occupancy
 _atom_site_charge
  Fe  Fe1  1  0.796440  0.162380  0.918700  1.0  1.1167
  Fe  Fe2  1  0.792610  0.922500  0.671200  1.0  1.2913
  Fe  Fe3  1  0.034420  0.677500  0.399900  1.0  1.224
  Fe  Fe4  1  0.865420  0.928100  0.007700  1.0  1.1971
  Fe  Fe5  1  0.949070  0.431600  0.338300  1.0  1.0703
  Fe  Fe6  1  0.875140  0.177700  0.770800  1.0  1.1808
  Fe  Fe7  1  0.296440  0.662380  0.918700  1.0  1.1167
  Fe  Fe8  1  0.292610  0.422500  0.671200  1.0  1.2913
  Fe  Fe9  1  0.534420  0.177500  0.399900  1.0  1.224
  Fe  Fe10  1  0.365420  0.428100  0.007700  1.0  1.1971
  Fe  Fe11  1  0.449070  0.931600  0.338300  1.0  1.0703
  Fe  Fe12  1  0.375140  0.677700  0.770800  1.0  1.1808
  Fe  Fe13  1  0.203560  0.162380  0.081300  1.0  1.1128
  Fe  Fe14  1  0.207390  0.922500  0.328800  1.0  1.293
  Fe  Fe15  1  0.965580  0.677500  0.600100  1.0  1.2281
  Fe  Fe16  1  0.134580  0.928100  0.992300  1.0  1.2019
  Fe  Fe17  1  0.050930  0.431600  0.661700  1.0  1.0685
  Fe  Fe18  1  0.124860  0.177700  0.229200  1.0  1.1812
  Fe  Fe19  1  0.703560  0.662380  0.081300  1.0  1.1128
  Fe  Fe20  1  0.707390  0.422500  0.328800  1.0  1.293
  Fe  Fe21  1  0.465580  0.177500  0.600100  1.0  1.2281
  Fe  Fe22  1  0.634580  0.428100  0.992300  1.0  1.2019
  Fe  Fe23  1  0.550930  0.931600  0.661700  1.0  1.0685
  Fe  Fe24  1  0.624860  0.677700  0.229200  1.0  1.1812
  P  P25  1  0.769940  0.219200  0.599400  1.0  1.8675
  P  P26  1  0.928530  0.738000  0.285900  1.0  1.7798
  P  P27  1  0.889020  0.219300  0.068700  1.0  1.7298
  P  P28  1  0.900400  0.877600  0.750200  1.0  1.9305
  P  P29  1  0.054250  0.380400  0.355800  1.0  1.8936
  P  P30  1  0.758860  0.874100  0.927100  1.0  1.7535
  P  P31  1  0.269940  0.719200  0.599400  1.0  1.8675
  P  P32  1  0.428530  0.238000  0.285900  1.0  1.7798
  P  P33  1  0.389020  0.719300  0.068700  1.0  1.7298
  P  P34  1  0.400400  0.377600  0.750200  1.0  1.933
  P  P35  1  0.554250  0.880400  0.355800  1.0  1.8928
  P  P36  1  0.258860  0.374100  0.927100  1.0  1.7655
  P  P37  1  0.230060  0.219200  0.400600  1.0  1.899
  P  P38  1  0.071470  0.738000  0.714100  1.0  1.8169
  P  P39  1  0.110980  0.219300  0.931300  1.0  1.7296
  P  P40  1  0.099600  0.877600  0.249800  1.0  1.8884
  P  P41  1  0.945750  0.380400  0.644200  1.0  1.843
  P  P42  1  0.241140  0.874100  0.072900  1.0  1.7892
  P  P43  1  0.730060  0.719200  0.400600  1.0  1.899
  P  P44  1  0.571470  0.238000  0.714100  1.0  1.8169
  P  P45  1  0.610980  0.719300  0.931300  1.0  1.7296
  P  P46  1  0.599600  0.377600  0.249800  1.0  1.8884
  P  P47  1  0.445750  0.880400  0.644200  1.0  1.843
  P  P48  1  0.741140  0.374100  0.072900  1.0  1.7892
  O  O49  1  0.761400  0.069200  0.559100  1.0  -0.6722
  O  O50  1  0.759900  0.242200  0.739300  1.0  -0.6772
  O  O51  1  0.820300  0.255300  0.613600  1.0  -0.6898
  O  O52  1  0.736000  0.300600  0.490100  1.0  -0.7588
  O  O53  1  0.979100  0.762300  0.282300  1.0  -0.6679
  O  O54  1  0.927300  0.759900  0.436200  1.0  -0.6695
  O  O55  1  0.895500  0.833800  0.193400  1.0  -0.7148
  O  O56  1  0.914800  0.594000  0.244700  1.0  -0.6647
  O  O57  1  0.855200  0.108500  0.092400  1.0  -0.766
  O  O58  1  0.856800  0.278900  0.928400  1.0  -0.7789
  O  O59  1  0.930300  0.159900  0.039200  1.0  -0.7377
  O  O60  1  0.899400  0.319300  0.184800  1.0  -0.7462
  O  O61  1  0.850500  0.842100  0.658000  1.0  -0.6633
  O  O62  1  0.935200  0.791500  0.712500  1.0  -0.7453
  O  O63  1  0.904400  0.850000  0.903900  1.0  -0.6675
  O  O64  1  0.909800  0.024000  0.725300  1.0  -0.6708
  O  O65  1  0.059800  0.531100  0.332600  1.0  -0.6787
  O  O66  1  0.002600  0.344700  0.302400  1.0  -0.6594
  O  O67  1  0.079300  0.309000  0.269000  1.0  -0.7189
  O  O68  1  0.073800  0.351300  0.511300  1.0  -0.6644
  O  O69  1  0.754200  0.844900  0.771100  1.0  -0.6809
  O  O70  1  0.753400  0.025500  0.946000  1.0  -0.6685
  O  O71  1  0.806500  0.826500  0.983100  1.0  -0.6115
  O  O72  1  0.719900  0.802700  0.962800  1.0  -0.7914
  O  O73  1  0.825400  0.033000  0.821400  1.0  -0.864
  O  O74  1  0.261400  0.569200  0.559100  1.0  -0.6722
  O  O75  1  0.259900  0.742200  0.739300  1.0  -0.6772
  O  O76  1  0.320300  0.755300  0.613600  1.0  -0.6898
  O  O77  1  0.236000  0.800600  0.490100  1.0  -0.7588
  O  O78  1  0.479100  0.262300  0.282300  1.0  -0.6679
  O  O79  1  0.427300  0.259900  0.436200  1.0  -0.6695
  O  O80  1  0.395500  0.333800  0.193400  1.0  -0.7148
  O  O81  1  0.414800  0.094000  0.244700  1.0  -0.6647
  O  O82  1  0.355200  0.608500  0.092400  1.0  -0.766
  O  O83  1  0.356800  0.778900  0.928400  1.0  -0.7789
  O  O84  1  0.430300  0.659900  0.039200  1.0  -0.7377
  O  O85  1  0.399400  0.819300  0.184800  1.0  -0.7462
  O  O86  1  0.350500  0.342100  0.658000  1.0  -0.6633
  O  O87  1  0.435200  0.291500  0.712500  1.0  -0.7453
  O  O88  1  0.404400  0.350000  0.903900  1.0  -0.6675
  O  O89  1  0.409800  0.524000  0.725300  1.0  -0.6708
  O  O90  1  0.559800  0.031100  0.332600  1.0  -0.6787
  O  O91  1  0.502600  0.844700  0.302400  1.0  -0.6594
  O  O92  1  0.579300  0.809000  0.269000  1.0  -0.7192
  O  O93  1  0.573800  0.851300  0.511300  1.0  -0.6644
  O  O94  1  0.254200  0.344900  0.771100  1.0  -0.6809
  O  O95  1  0.253400  0.525500  0.946000  1.0  -0.6685
  O  O96  1  0.306500  0.326500  0.983100  1.0  -0.6115
  O  O97  1  0.219900  0.302700  0.962800  1.0  -0.7914
  O  O98  1  0.325400  0.533000  0.821400  1.0  -0.864
  O  O99  1  0.238600  0.069200  0.440900  1.0  -0.6698
  O  O100  1  0.240100  0.242200  0.260700  1.0  -0.6791
  O  O101  1  0.179700  0.255300  0.386400  1.0  -0.6879
  O  O102  1  0.264000  0.300600  0.509900  1.0  -0.7609
  O  O103  1  0.020900  0.762300  0.717700  1.0  -0.6656
  O  O104  1  0.072700  0.759900  0.563800  1.0  -0.667
  O  O105  1  0.104500  0.833800  0.806600  1.0  -0.7135
  O  O106  1  0.085200  0.594000  0.755300  1.0  -0.6624
  O  O107  1  0.144800  0.108500  0.907600  1.0  -0.7679
  O  O108  1  0.143200  0.278900  0.071600  1.0  -0.7784
  O  O109  1  0.069700  0.159900  0.960800  1.0  -0.7347
  O  O110  1  0.100600  0.319300  0.815200  1.0  -0.7468
  O  O111  1  0.149500  0.842100  0.342000  1.0  -0.662
  O  O112  1  0.064800  0.791500  0.287500  1.0  -0.7446
  O  O113  1  0.095600  0.850000  0.096100  1.0  -0.6659
  O  O114  1  0.090200  0.024000  0.274700  1.0  -0.6697
  O  O115  1  0.940200  0.531100  0.667400  1.0  -0.6799
  O  O116  1  0.997400  0.344700  0.697600  1.0  -0.6607
  O  O117  1  0.920700  0.309000  0.731000  1.0  -0.7183
  O  O118  1  0.926200  0.351300  0.488700  1.0  -0.6662
  O  O119  1  0.245800  0.844900  0.228900  1.0  -0.6809
  O  O120  1  0.246600  0.025500  0.054000  1.0  -0.6701
  O  O121  1  0.193500  0.826500  0.016900  1.0  -0.612
  O  O122  1  0.280100  0.802700  0.037200  1.0  -0.7923
  O  O123  1  0.174600  0.033000  0.178600  1.0  -0.8639
  O  O124  1  0.738600  0.569200  0.440900  1.0  -0.6698
  O  O125  1  0.740100  0.742200  0.260700  1.0  -0.6791
  O  O126  1  0.679700  0.755300  0.386400  1.0  -0.6879
  O  O127  1  0.764000  0.800600  0.509900  1.0  -0.7609
  O  O128  1  0.520900  0.262300  0.717700  1.0  -0.6656
  O  O129  1  0.572700  0.259900  0.563800  1.0  -0.667
  O  O130  1  0.604500  0.333800  0.806600  1.0  -0.7135
  O  O131  1  0.585200  0.094000  0.755300  1.0  -0.6624
  O  O132  1  0.644800  0.608500  0.907600  1.0  -0.7679
  O  O133  1  0.643200  0.778900  0.071600  1.0  -0.7784
  O  O134  1  0.569700  0.659900  0.960800  1.0  -0.7347
  O  O135  1  0.600600  0.819300  0.815200  1.0  -0.7468
  O  O136  1  0.649500  0.342100  0.342000  1.0  -0.662
  O  O137  1  0.564800  0.291500  0.287500  1.0  -0.7445
  O  O138  1  0.595600  0.350000  0.096100  1.0  -0.6659
  O  O139  1  0.590200  0.524000  0.274700  1.0  -0.6697
  O  O140  1  0.440200  0.031100  0.667400  1.0  -0.6799
  O  O141  1  0.497400  0.844700  0.697600  1.0  -0.6607
  O  O142  1  0.420700  0.809000  0.731000  1.0  -0.7185
  O  O143  1  0.426200  0.851300  0.488700  1.0  -0.6662
  O  O144  1  0.745800  0.344900  0.228900  1.0  -0.6809
  O  O145  1  0.746600  0.525500  0.054000  1.0  -0.6701
  O  O146  1  0.693500  0.326500  0.016900  1.0  -0.612
  O  O147  1  0.780100  0.302700  0.037200  1.0  -0.7923
  O  O148  1  0.674600  0.533000  0.178600  1.0  -0.8639
  O  O149  1  0.000000  0.577300  0.500000  1.0  -0.8444
  O  O150  1  0.500000  0.077300  0.500000  1.0  -0.8444
