# generated using pymatgen
data_TmH15C24(NO)6
_symmetry_space_group_name_H-M   'P 1'
_cell_length_a   20.35870000
_cell_length_b   20.35870000
_cell_length_c   20.35870000
_cell_angle_alpha   90.00000000
_cell_angle_beta   90.00000000
_cell_angle_gamma   90.00000000
_symmetry_Int_Tables_number   1
_chemical_formula_structural   TmH15C24(NO)6
_chemical_formula_sum   'Tm8 H120 C192 N48 O48'
_cell_volume   8438.20609378
_cell_formula_units_Z   8
loop_
 _symmetry_equiv_pos_site_id
 _symmetry_equiv_pos_as_xyz
  1  'x, y, z'
loop_
 _atom_site_type_symbol
 _atom_site_label
 _atom_site_symmetry_multiplicity
 _atom_site_fract_x
 _atom_site_fract_y
 _atom_site_fract_z
 _atom_site_occupancy
 _atom_site_charge
  Tm  Tm1  1  0.156190  0.843810  0.343810  1.0  2.0111
  Tm  Tm2  1  0.343810  0.156190  0.843810  1.0  2.0121
  Tm  Tm3  1  0.843810  0.343810  0.156190  1.0  2.0138
  Tm  Tm4  1  0.656190  0.656190  0.656190  1.0  2.0123
  Tm  Tm5  1  0.338300  0.661700  0.161700  1.0  1.9361
  Tm  Tm6  1  0.161700  0.338300  0.661700  1.0  1.9339
  Tm  Tm7  1  0.661700  0.161700  0.338300  1.0  1.9349
  Tm  Tm8  1  0.838300  0.838300  0.838300  1.0  1.9357
  H  H9  1  0.959500  0.668600  0.992700  1.0  0.2974
  H  H10  1  0.988900  0.839700  0.118800  1.0  0.1083
  H  H11  1  0.952700  0.764900  0.042000  1.0  0.1081
  H  H12  1  0.092000  0.636200  0.102100  1.0  0.097
  H  H13  1  0.127600  0.712900  0.177600  1.0  0.0957
  H  H14  1  0.540500  0.331400  0.492700  1.0  0.2976
  H  H15  1  0.511100  0.160300  0.618800  1.0  0.1084
  H  H16  1  0.547300  0.235100  0.542000  1.0  0.1077
  H  H17  1  0.408000  0.363800  0.602100  1.0  0.0971
  H  H18  1  0.372400  0.287100  0.677600  1.0  0.0953
  H  H19  1  0.040500  0.168600  0.507300  1.0  0.2976
  H  H20  1  0.011100  0.339700  0.381200  1.0  0.1084
  H  H21  1  0.047300  0.264900  0.458000  1.0  0.1078
  H  H22  1  0.908000  0.136200  0.397900  1.0  0.0966
  H  H23  1  0.872400  0.212900  0.322400  1.0  0.095
  H  H24  1  0.459500  0.831400  0.007300  1.0  0.2989
  H  H25  1  0.488900  0.660300  0.881200  1.0  0.1079
  H  H26  1  0.452700  0.735100  0.958000  1.0  0.1084
  H  H27  1  0.592000  0.863800  0.897900  1.0  0.0966
  H  H28  1  0.627600  0.787100  0.822400  1.0  0.0952
  H  H29  1  0.992700  0.959500  0.668600  1.0  0.3008
  H  H30  1  0.118800  0.988900  0.839700  1.0  0.1092
  H  H31  1  0.042000  0.952700  0.764900  1.0  0.1086
  H  H32  1  0.102100  0.092000  0.636200  1.0  0.0965
  H  H33  1  0.177600  0.127600  0.712900  1.0  0.0955
  H  H34  1  0.492700  0.540500  0.331400  1.0  0.2978
  H  H35  1  0.618800  0.511100  0.160300  1.0  0.1085
  H  H36  1  0.542000  0.547300  0.235100  1.0  0.1092
  H  H37  1  0.602100  0.408000  0.363800  1.0  0.0965
  H  H38  1  0.677600  0.372400  0.287100  1.0  0.0953
  H  H39  1  0.507300  0.040500  0.168600  1.0  0.2994
  H  H40  1  0.381200  0.011100  0.339700  1.0  0.1088
  H  H41  1  0.458000  0.047300  0.264900  1.0  0.1086
  H  H42  1  0.397900  0.908000  0.136200  1.0  0.0967
  H  H43  1  0.322400  0.872400  0.212900  1.0  0.095
  H  H44  1  0.007300  0.459500  0.831400  1.0  0.3003
  H  H45  1  0.881200  0.488900  0.660300  1.0  0.1088
  H  H46  1  0.958000  0.452700  0.735100  1.0  0.1086
  H  H47  1  0.897900  0.592000  0.863800  1.0  0.0965
  H  H48  1  0.822400  0.627600  0.787100  1.0  0.0953
  H  H49  1  0.668600  0.992700  0.959500  1.0  0.2992
  H  H50  1  0.839700  0.118800  0.988900  1.0  0.1088
  H  H51  1  0.764900  0.042000  0.952700  1.0  0.1079
  H  H52  1  0.636200  0.102100  0.092000  1.0  0.096
  H  H53  1  0.712900  0.177600  0.127600  1.0  0.0954
  H  H54  1  0.331400  0.492700  0.540500  1.0  0.3006
  H  H55  1  0.160300  0.618800  0.511100  1.0  0.1088
  H  H56  1  0.235100  0.542000  0.547300  1.0  0.1094
  H  H57  1  0.363800  0.602100  0.408000  1.0  0.0962
  H  H58  1  0.287100  0.677600  0.372400  1.0  0.0952
  H  H59  1  0.168600  0.507300  0.040500  1.0  0.2995
  H  H60  1  0.339700  0.381200  0.011100  1.0  0.1095
  H  H61  1  0.264900  0.458000  0.047300  1.0  0.1081
  H  H62  1  0.136200  0.397900  0.908000  1.0  0.0959
  H  H63  1  0.212900  0.322400  0.872400  1.0  0.0951
  H  H64  1  0.831400  0.007300  0.459500  1.0  0.2981
  H  H65  1  0.660300  0.881200  0.488900  1.0  0.1088
  H  H66  1  0.735100  0.958000  0.452700  1.0  0.1084
  H  H67  1  0.863800  0.897900  0.592000  1.0  0.0961
  H  H68  1  0.787100  0.822400  0.627600  1.0  0.0957
  H  H69  1  0.993900  0.454900  0.342500  1.0  0.2616
  H  H70  1  0.180000  0.619800  0.286400  1.0  0.0883
  H  H71  1  0.099700  0.590300  0.362300  1.0  0.1169
  H  H72  1  0.038300  0.446900  0.239300  1.0  0.1183
  H  H73  1  0.118000  0.477000  0.163900  1.0  0.1002
  H  H74  1  0.506100  0.545100  0.842500  1.0  0.2633
  H  H75  1  0.320000  0.380200  0.786400  1.0  0.0882
  H  H76  1  0.400300  0.409700  0.862300  1.0  0.1171
  H  H77  1  0.461700  0.553100  0.739300  1.0  0.1182
  H  H78  1  0.382000  0.523000  0.663900  1.0  0.1011
  H  H79  1  0.006100  0.954900  0.157500  1.0  0.2625
  H  H80  1  0.820000  0.119800  0.213600  1.0  0.0886
  H  H81  1  0.900300  0.090300  0.137700  1.0  0.1172
  H  H82  1  0.961700  0.946900  0.260700  1.0  0.1181
  H  H83  1  0.882000  0.977000  0.336100  1.0  0.1008
  H  H84  1  0.493900  0.045100  0.657500  1.0  0.2633
  H  H85  1  0.680000  0.880200  0.713600  1.0  0.0888
  H  H86  1  0.599700  0.909700  0.637700  1.0  0.117
  H  H87  1  0.538300  0.053100  0.760700  1.0  0.1181
  H  H88  1  0.618000  0.023000  0.836100  1.0  0.1009
  H  H89  1  0.342500  0.993900  0.454900  1.0  0.262
  H  H90  1  0.286400  0.180000  0.619800  1.0  0.0888
  H  H91  1  0.362300  0.099700  0.590300  1.0  0.1171
  H  H92  1  0.239300  0.038300  0.446900  1.0  0.1184
  H  H93  1  0.163900  0.118000  0.477000  1.0  0.1007
  H  H94  1  0.842500  0.506100  0.545100  1.0  0.2633
  H  H95  1  0.786400  0.320000  0.380200  1.0  0.089
  H  H96  1  0.862300  0.400300  0.409700  1.0  0.1175
  H  H97  1  0.739300  0.461700  0.553100  1.0  0.1187
  H  H98  1  0.663900  0.382000  0.523000  1.0  0.1008
  H  H99  1  0.157500  0.006100  0.954900  1.0  0.2619
  H  H100  1  0.213600  0.820000  0.119800  1.0  0.089
  H  H101  1  0.137700  0.900300  0.090300  1.0  0.1171
  H  H102  1  0.260700  0.961700  0.946900  1.0  0.118
  H  H103  1  0.336100  0.882000  0.977000  1.0  0.1006
  H  H104  1  0.657500  0.493900  0.045100  1.0  0.2632
  H  H105  1  0.713600  0.680000  0.880200  1.0  0.0889
  H  H106  1  0.637700  0.599700  0.909700  1.0  0.1171
  H  H107  1  0.760700  0.538300  0.053100  1.0  0.1176
  H  H108  1  0.836100  0.618000  0.023000  1.0  0.1005
  H  H109  1  0.454900  0.342500  0.993900  1.0  0.2641
  H  H110  1  0.619800  0.286400  0.180000  1.0  0.0889
  H  H111  1  0.590300  0.362300  0.099700  1.0  0.1183
  H  H112  1  0.446900  0.239300  0.038300  1.0  0.1172
  H  H113  1  0.477000  0.163900  0.118000  1.0  0.0993
  H  H114  1  0.545100  0.842500  0.506100  1.0  0.2634
  H  H115  1  0.380200  0.786400  0.320000  1.0  0.0889
  H  H116  1  0.409700  0.862300  0.400300  1.0  0.1179
  H  H117  1  0.553100  0.739300  0.461700  1.0  0.1167
  H  H118  1  0.523000  0.663900  0.382000  1.0  0.1002
  H  H119  1  0.954900  0.157500  0.006100  1.0  0.2637
  H  H120  1  0.119800  0.213600  0.820000  1.0  0.0888
  H  H121  1  0.090300  0.137700  0.900300  1.0  0.1178
  H  H122  1  0.946900  0.260700  0.961700  1.0  0.1173
  H  H123  1  0.977000  0.336100  0.882000  1.0  0.1
  H  H124  1  0.045100  0.657500  0.493900  1.0  0.2636
  H  H125  1  0.880200  0.713600  0.680000  1.0  0.0891
  H  H126  1  0.909700  0.637700  0.599700  1.0  0.1173
  H  H127  1  0.053100  0.760700  0.538300  1.0  0.1174
  H  H128  1  0.023000  0.836100  0.618000  1.0  0.1004
  C  C129  1  0.082300  0.831500  0.207400  1.0  0.7288
  C  C130  1  0.060200  0.783000  0.156900  1.0  -0.1414
  C  C131  1  0.009700  0.798100  0.115600  1.0  -0.0907
  C  C132  1  0.988700  0.753700  0.069400  1.0  -0.1521
  C  C133  1  0.019200  0.691100  0.061300  1.0  0.1275
  C  C134  1  0.070600  0.677600  0.104400  1.0  -0.1551
  C  C135  1  0.091200  0.723000  0.150100  1.0  -0.0242
  C  C136  1  0.022900  0.595800  0.985100  1.0  0.4036
  C  C137  1  0.417700  0.168500  0.707400  1.0  0.7305
  C  C138  1  0.439800  0.217000  0.656900  1.0  -0.1408
  C  C139  1  0.490300  0.201900  0.615600  1.0  -0.0905
  C  C140  1  0.511300  0.246300  0.569400  1.0  -0.1526
  C  C141  1  0.480800  0.308900  0.561300  1.0  0.1261
  C  C142  1  0.429400  0.322400  0.604400  1.0  -0.154
  C  C143  1  0.408800  0.277000  0.650100  1.0  -0.0242
  C  C144  1  0.477100  0.404200  0.485100  1.0  0.4042
  C  C145  1  0.917700  0.331500  0.292600  1.0  0.7298
  C  C146  1  0.939800  0.283000  0.343100  1.0  -0.1403
  C  C147  1  0.990300  0.298100  0.384400  1.0  -0.0899
  C  C148  1  0.011300  0.253700  0.430600  1.0  -0.1511
  C  C149  1  0.980800  0.191100  0.438700  1.0  0.1257
  C  C150  1  0.929400  0.177600  0.395600  1.0  -0.1541
  C  C151  1  0.908800  0.223000  0.349900  1.0  -0.0237
  C  C152  1  0.977100  0.095800  0.514900  1.0  0.4041
  C  C153  1  0.582300  0.668500  0.792600  1.0  0.7296
  C  C154  1  0.560200  0.717000  0.843100  1.0  -0.1407
  C  C155  1  0.509700  0.701900  0.884400  1.0  -0.0893
  C  C156  1  0.488700  0.746300  0.930600  1.0  -0.1524
  C  C157  1  0.519200  0.808900  0.938700  1.0  0.1268
  C  C158  1  0.570600  0.822400  0.895600  1.0  -0.1542
  C  C159  1  0.591200  0.777000  0.849900  1.0  -0.0241
  C  C160  1  0.522900  0.904200  0.014900  1.0  0.4033
  C  C161  1  0.207400  0.082300  0.831500  1.0  0.7216
  C  C162  1  0.156900  0.060200  0.783000  1.0  -0.1447
  C  C163  1  0.115600  0.009700  0.798100  1.0  -0.0948
  C  C164  1  0.069400  0.988700  0.753700  1.0  -0.1567
  C  C165  1  0.061300  0.019200  0.691100  1.0  0.1277
  C  C166  1  0.104400  0.070600  0.677600  1.0  -0.156
  C  C167  1  0.150100  0.091200  0.723000  1.0  -0.0245
  C  C168  1  0.985100  0.022900  0.595800  1.0  0.4264
  C  C169  1  0.707400  0.417700  0.168500  1.0  0.7209
  C  C170  1  0.656900  0.439800  0.217000  1.0  -0.1441
  C  C171  1  0.615600  0.490300  0.201900  1.0  -0.0928
  C  C172  1  0.569400  0.511300  0.246300  1.0  -0.1547
  C  C173  1  0.561300  0.480800  0.308900  1.0  0.1283
  C  C174  1  0.604400  0.429400  0.322400  1.0  -0.1564
  C  C175  1  0.650100  0.408800  0.277000  1.0  -0.0261
  C  C176  1  0.485100  0.477100  0.404200  1.0  0.427
  C  C177  1  0.292600  0.917700  0.331500  1.0  0.7219
  C  C178  1  0.343100  0.939800  0.283000  1.0  -0.1435
  C  C179  1  0.384400  0.990300  0.298100  1.0  -0.0938
  C  C180  1  0.430600  0.011300  0.253700  1.0  -0.1532
  C  C181  1  0.438700  0.980800  0.191100  1.0  0.1267
  C  C182  1  0.395600  0.929400  0.177600  1.0  -0.1557
  C  C183  1  0.349900  0.908800  0.223000  1.0  -0.0251
  C  C184  1  0.514900  0.977100  0.095800  1.0  0.4259
  C  C185  1  0.792600  0.582300  0.668500  1.0  0.7224
  C  C186  1  0.843100  0.560200  0.717000  1.0  -0.1442
  C  C187  1  0.884400  0.509700  0.701900  1.0  -0.0936
  C  C188  1  0.930600  0.488700  0.746300  1.0  -0.156
  C  C189  1  0.938700  0.519200  0.808900  1.0  0.1267
  C  C190  1  0.895600  0.570600  0.822400  1.0  -0.156
  C  C191  1  0.849900  0.591200  0.777000  1.0  -0.0241
  C  C192  1  0.014900  0.522900  0.904200  1.0  0.4265
  C  C193  1  0.831500  0.207400  0.082300  1.0  0.7172
  C  C194  1  0.783000  0.156900  0.060200  1.0  -0.1396
  C  C195  1  0.798100  0.115600  0.009700  1.0  -0.0903
  C  C196  1  0.753700  0.069400  0.988700  1.0  -0.1549
  C  C197  1  0.691100  0.061300  0.019200  1.0  0.1273
  C  C198  1  0.677600  0.104400  0.070600  1.0  -0.1545
  C  C199  1  0.723000  0.150100  0.091200  1.0  -0.0253
  C  C200  1  0.595800  0.985100  0.022900  1.0  0.4028
  C  C201  1  0.168500  0.707400  0.417700  1.0  0.7185
  C  C202  1  0.217000  0.656900  0.439800  1.0  -0.14
  C  C203  1  0.201900  0.615600  0.490300  1.0  -0.0919
  C  C204  1  0.246300  0.569400  0.511300  1.0  -0.1542
  C  C205  1  0.308900  0.561300  0.480800  1.0  0.1278
  C  C206  1  0.322400  0.604400  0.429400  1.0  -0.1536
  C  C207  1  0.277000  0.650100  0.408800  1.0  -0.0235
  C  C208  1  0.404200  0.485100  0.477100  1.0  0.4032
  C  C209  1  0.331500  0.292600  0.917700  1.0  0.7177
  C  C210  1  0.283000  0.343100  0.939800  1.0  -0.1413
  C  C211  1  0.298100  0.384400  0.990300  1.0  -0.0902
  C  C212  1  0.253700  0.430600  0.011300  1.0  -0.1508
  C  C213  1  0.191100  0.438700  0.980800  1.0  0.1267
  C  C214  1  0.177600  0.395600  0.929400  1.0  -0.1546
  C  C215  1  0.223000  0.349900  0.908800  1.0  -0.0246
  C  C216  1  0.095800  0.514900  0.977100  1.0  0.4031
  C  C217  1  0.668500  0.792600  0.582300  1.0  0.7203
  C  C218  1  0.717000  0.843100  0.560200  1.0  -0.1409
  C  C219  1  0.701900  0.884400  0.509700  1.0  -0.0908
  C  C220  1  0.746300  0.930600  0.488700  1.0  -0.154
  C  C221  1  0.808900  0.938700  0.519200  1.0  0.1278
  C  C222  1  0.822400  0.895600  0.570600  1.0  -0.1532
  C  C223  1  0.777000  0.849900  0.591200  1.0  -0.0246
  C  C224  1  0.904200  0.014900  0.522900  1.0  0.4032
  C  C225  1  0.206300  0.573700  0.167200  1.0  0.7301
  C  C226  1  0.155800  0.554400  0.216200  1.0  -0.1515
  C  C227  1  0.150300  0.585300  0.276100  1.0  0.026
  C  C228  1  0.103200  0.567800  0.321600  1.0  -0.1638
  C  C229  1  0.060700  0.515900  0.306300  1.0  0.1463
  C  C230  1  0.066700  0.482700  0.248600  1.0  -0.1552
  C  C231  1  0.113800  0.500800  0.203800  1.0  -0.0572
  C  C232  1  0.985100  0.519400  0.403500  1.0  0.4857
  C  C233  1  0.293700  0.426300  0.667200  1.0  0.7289
  C  C234  1  0.344200  0.445600  0.716200  1.0  -0.1532
  C  C235  1  0.349700  0.414700  0.776100  1.0  0.0251
  C  C236  1  0.396800  0.432200  0.821600  1.0  -0.1646
  C  C237  1  0.439300  0.484100  0.806300  1.0  0.146
  C  C238  1  0.433300  0.517300  0.748600  1.0  -0.1533
  C  C239  1  0.386200  0.499200  0.703800  1.0  -0.0575
  C  C240  1  0.514900  0.480600  0.903500  1.0  0.4853
  C  C241  1  0.793700  0.073700  0.332800  1.0  0.7289
  C  C242  1  0.844200  0.054400  0.283800  1.0  -0.1538
  C  C243  1  0.849700  0.085300  0.223900  1.0  0.0267
  C  C244  1  0.896800  0.067800  0.178400  1.0  -0.1633
  C  C245  1  0.939300  0.015900  0.193700  1.0  0.1457
  C  C246  1  0.933300  0.982700  0.251400  1.0  -0.1548
  C  C247  1  0.886200  0.000800  0.296200  1.0  -0.057
  C  C248  1  0.014900  0.019400  0.096500  1.0  0.4837
  C  C249  1  0.706300  0.926300  0.832800  1.0  0.7301
  C  C250  1  0.655800  0.945600  0.783800  1.0  -0.1519
  C  C251  1  0.650300  0.914700  0.723900  1.0  0.0246
  C  C252  1  0.603200  0.932200  0.678400  1.0  -0.1641
  C  C253  1  0.560700  0.984100  0.693700  1.0  0.1473
  C  C254  1  0.566700  0.017300  0.751400  1.0  -0.1548
  C  C255  1  0.613800  0.999200  0.796200  1.0  -0.0582
  C  C256  1  0.485100  0.980600  0.596500  1.0  0.4853
  C  C257  1  0.167200  0.206300  0.573700  1.0  0.7252
  C  C258  1  0.216200  0.155800  0.554400  1.0  -0.1465
  C  C259  1  0.276100  0.150300  0.585300  1.0  0.0272
  C  C260  1  0.321600  0.103200  0.567800  1.0  -0.1633
  C  C261  1  0.306300  0.060700  0.515900  1.0  0.146
  C  C262  1  0.248600  0.066700  0.482700  1.0  -0.155
  C  C263  1  0.203800  0.113800  0.500800  1.0  -0.0559
  C  C264  1  0.403500  0.985100  0.519400  1.0  0.4699
  C  C265  1  0.667200  0.293700  0.426300  1.0  0.7252
  C  C266  1  0.716200  0.344200  0.445600  1.0  -0.1478
  C  C267  1  0.776100  0.349700  0.414700  1.0  0.0271
  C  C268  1  0.821600  0.396800  0.432200  1.0  -0.1634
  C  C269  1  0.806300  0.439300  0.484100  1.0  0.146
  C  C270  1  0.748600  0.433300  0.517300  1.0  -0.1555
  C  C271  1  0.703800  0.386200  0.499200  1.0  -0.0564
  C  C272  1  0.903500  0.514900  0.480600  1.0  0.4695
  C  C273  1  0.332800  0.793700  0.073700  1.0  0.7262
  C  C274  1  0.283800  0.844200  0.054400  1.0  -0.147
  C  C275  1  0.223900  0.849700  0.085300  1.0  0.0255
  C  C276  1  0.178400  0.896800  0.067800  1.0  -0.164
  C  C277  1  0.193700  0.939300  0.015900  1.0  0.1457
  C  C278  1  0.251400  0.933300  0.982700  1.0  -0.1546
  C  C279  1  0.296200  0.886200  0.000800  1.0  -0.0578
  C  C280  1  0.096500  0.014900  0.019400  1.0  0.4671
  C  C281  1  0.832800  0.706300  0.926300  1.0  0.7268
  C  C282  1  0.783800  0.655800  0.945600  1.0  -0.1465
  C  C283  1  0.723900  0.650300  0.914700  1.0  0.0265
  C  C284  1  0.678400  0.603200  0.932200  1.0  -0.1642
  C  C285  1  0.693700  0.560700  0.984100  1.0  0.1453
  C  C286  1  0.751400  0.566700  0.017300  1.0  -0.1537
  C  C287  1  0.796200  0.613800  0.999200  1.0  -0.0559
  C  C288  1  0.596500  0.485100  0.980600  1.0  0.4677
  C  C289  1  0.573700  0.167200  0.206300  1.0  0.7299
  C  C290  1  0.554400  0.216200  0.155800  1.0  -0.1498
  C  C291  1  0.585300  0.276100  0.150300  1.0  0.0258
  C  C292  1  0.567800  0.321600  0.103200  1.0  -0.1624
  C  C293  1  0.515900  0.306300  0.060700  1.0  0.1461
  C  C294  1  0.482700  0.248600  0.066700  1.0  -0.1541
  C  C295  1  0.500800  0.203800  0.113800  1.0  -0.052
  C  C296  1  0.519400  0.403500  0.985100  1.0  0.4828
  C  C297  1  0.426300  0.667200  0.293700  1.0  0.7331
  C  C298  1  0.445600  0.716200  0.344200  1.0  -0.1504
  C  C299  1  0.414700  0.776100  0.349700  1.0  0.0256
  C  C300  1  0.432200  0.821600  0.396800  1.0  -0.1621
  C  C301  1  0.484100  0.806300  0.439300  1.0  0.1451
  C  C302  1  0.517300  0.748600  0.433300  1.0  -0.1526
  C  C303  1  0.499200  0.703800  0.386200  1.0  -0.0534
  C  C304  1  0.480600  0.903500  0.514900  1.0  0.4803
  C  C305  1  0.073700  0.332800  0.793700  1.0  0.7326
  C  C306  1  0.054400  0.283800  0.844200  1.0  -0.1511
  C  C307  1  0.085300  0.223900  0.849700  1.0  0.0264
  C  C308  1  0.067800  0.178400  0.896800  1.0  -0.1636
  C  C309  1  0.015900  0.193700  0.939300  1.0  0.1465
  C  C310  1  0.982700  0.251400  0.933300  1.0  -0.1531
  C  C311  1  0.000800  0.296200  0.886200  1.0  -0.0532
  C  C312  1  0.019400  0.096500  0.014900  1.0  0.483
  C  C313  1  0.926300  0.832800  0.706300  1.0  0.731
  C  C314  1  0.945600  0.783800  0.655800  1.0  -0.1497
  C  C315  1  0.914700  0.723900  0.650300  1.0  0.0255
  C  C316  1  0.932200  0.678400  0.603200  1.0  -0.1632
  C  C317  1  0.984100  0.693700  0.560700  1.0  0.1459
  C  C318  1  0.017300  0.751400  0.566700  1.0  -0.1528
  C  C319  1  0.999200  0.796200  0.613800  1.0  -0.0514
  C  C320  1  0.980600  0.596500  0.485100  1.0  0.4818
  N  N321  1  0.995900  0.654500  0.011300  1.0  -0.3861
  N  N322  1  0.989000  0.574600  0.931100  1.0  -0.5269
  N  N323  1  0.504100  0.345500  0.511300  1.0  -0.3849
  N  N324  1  0.511000  0.425400  0.431100  1.0  -0.5258
  N  N325  1  0.004100  0.154500  0.488700  1.0  -0.3846
  N  N326  1  0.011000  0.074600  0.568900  1.0  -0.526
  N  N327  1  0.495900  0.845500  0.988700  1.0  -0.3862
  N  N328  1  0.489000  0.925400  0.068900  1.0  -0.5267
  N  N329  1  0.011300  0.995900  0.654500  1.0  -0.3855
  N  N330  1  0.931100  0.989000  0.574600  1.0  -0.5254
  N  N331  1  0.511300  0.504100  0.345500  1.0  -0.3845
  N  N332  1  0.431100  0.511000  0.425400  1.0  -0.5257
  N  N333  1  0.488700  0.004100  0.154500  1.0  -0.3848
  N  N334  1  0.568900  0.011000  0.074600  1.0  -0.5254
  N  N335  1  0.988700  0.495900  0.845500  1.0  -0.3856
  N  N336  1  0.068900  0.489000  0.925400  1.0  -0.5263
  N  N337  1  0.654500  0.011300  0.995900  1.0  -0.387
  N  N338  1  0.574600  0.931100  0.989000  1.0  -0.5278
  N  N339  1  0.345500  0.511300  0.504100  1.0  -0.3875
  N  N340  1  0.425400  0.431100  0.511000  1.0  -0.5284
  N  N341  1  0.154500  0.488700  0.004100  1.0  -0.3866
  N  N342  1  0.074600  0.568900  0.011000  1.0  -0.5278
  N  N343  1  0.845500  0.988700  0.495900  1.0  -0.3866
  N  N344  1  0.925400  0.068900  0.489000  1.0  -0.5273
  N  N345  1  0.010200  0.493800  0.352200  1.0  -0.3647
  N  N346  1  0.011900  0.573300  0.430200  1.0  -0.566
  N  N347  1  0.489800  0.506200  0.852200  1.0  -0.363
  N  N348  1  0.488100  0.426700  0.930200  1.0  -0.5676
  N  N349  1  0.989800  0.993800  0.147800  1.0  -0.364
  N  N350  1  0.988100  0.073300  0.069800  1.0  -0.5663
  N  N351  1  0.510200  0.006200  0.647800  1.0  -0.3632
  N  N352  1  0.511900  0.926700  0.569800  1.0  -0.5659
  N  N353  1  0.352200  0.010200  0.493800  1.0  -0.3668
  N  N354  1  0.430200  0.011900  0.573300  1.0  -0.5676
  N  N355  1  0.852200  0.489800  0.506200  1.0  -0.3646
  N  N356  1  0.930200  0.488100  0.426700  1.0  -0.5683
  N  N357  1  0.147800  0.989800  0.993800  1.0  -0.365
  N  N358  1  0.069800  0.988100  0.073300  1.0  -0.5668
  N  N359  1  0.647800  0.510200  0.006200  1.0  -0.364
  N  N360  1  0.569800  0.511900  0.926700  1.0  -0.5674
  N  N361  1  0.493800  0.352200  0.010200  1.0  -0.364
  N  N362  1  0.573300  0.430200  0.011900  1.0  -0.566
  N  N363  1  0.506200  0.852200  0.489800  1.0  -0.3632
  N  N364  1  0.426700  0.930200  0.488100  1.0  -0.566
  N  N365  1  0.993800  0.147800  0.989800  1.0  -0.3634
  N  N366  1  0.073300  0.069800  0.988100  1.0  -0.5655
  N  N367  1  0.006200  0.647800  0.510200  1.0  -0.3634
  N  N368  1  0.926700  0.569800  0.511900  1.0  -0.5663
  O  O369  1  0.130600  0.815200  0.242700  1.0  -0.6478
  O  O370  1  0.053800  0.884500  0.212200  1.0  -0.5419
  O  O371  1  0.369400  0.184800  0.742700  1.0  -0.646
  O  O372  1  0.446200  0.115500  0.712200  1.0  -0.5409
  O  O373  1  0.869400  0.315200  0.257300  1.0  -0.647
  O  O374  1  0.946200  0.384500  0.287800  1.0  -0.5404
  O  O375  1  0.630600  0.684800  0.757300  1.0  -0.6479
  O  O376  1  0.553800  0.615500  0.787800  1.0  -0.5409
  O  O377  1  0.242700  0.130600  0.815200  1.0  -0.6471
  O  O378  1  0.212200  0.053800  0.884500  1.0  -0.5442
  O  O379  1  0.742700  0.369400  0.184800  1.0  -0.6484
  O  O380  1  0.712200  0.446200  0.115500  1.0  -0.5424
  O  O381  1  0.257300  0.869400  0.315200  1.0  -0.6466
  O  O382  1  0.287800  0.946200  0.384500  1.0  -0.5453
  O  O383  1  0.757300  0.630600  0.684800  1.0  -0.6478
  O  O384  1  0.787800  0.553800  0.615500  1.0  -0.5442
  O  O385  1  0.815200  0.242700  0.130600  1.0  -0.6449
  O  O386  1  0.884500  0.212200  0.053800  1.0  -0.5501
  O  O387  1  0.184800  0.742700  0.369400  1.0  -0.6484
  O  O388  1  0.115500  0.712200  0.446200  1.0  -0.5492
  O  O389  1  0.315200  0.257300  0.869400  1.0  -0.6463
  O  O390  1  0.384500  0.287800  0.946200  1.0  -0.5495
  O  O391  1  0.684800  0.757300  0.630600  1.0  -0.6472
  O  O392  1  0.615500  0.787800  0.553800  1.0  -0.5495
  O  O393  1  0.240200  0.624800  0.182900  1.0  -0.6683
  O  O394  1  0.213300  0.542400  0.115700  1.0  -0.5604
  O  O395  1  0.259800  0.375200  0.682900  1.0  -0.6679
  O  O396  1  0.286700  0.457600  0.615700  1.0  -0.5591
  O  O397  1  0.759800  0.124800  0.317100  1.0  -0.6679
  O  O398  1  0.786700  0.042400  0.384300  1.0  -0.5599
  O  O399  1  0.740200  0.875200  0.817100  1.0  -0.6675
  O  O400  1  0.713300  0.957600  0.884300  1.0  -0.5591
  O  O401  1  0.182900  0.240200  0.624800  1.0  -0.6653
  O  O402  1  0.115700  0.213300  0.542400  1.0  -0.5583
  O  O403  1  0.682900  0.259800  0.375200  1.0  -0.6668
  O  O404  1  0.615700  0.286700  0.457600  1.0  -0.5613
  O  O405  1  0.317100  0.759800  0.124800  1.0  -0.6669
  O  O406  1  0.384300  0.786700  0.042400  1.0  -0.5654
  O  O407  1  0.817100  0.740200  0.875200  1.0  -0.667
  O  O408  1  0.884300  0.713300  0.957600  1.0  -0.562
  O  O409  1  0.624800  0.182900  0.240200  1.0  -0.6671
  O  O410  1  0.542400  0.115700  0.213300  1.0  -0.5583
  O  O411  1  0.375200  0.682900  0.259800  1.0  -0.6674
  O  O412  1  0.457600  0.615700  0.286700  1.0  -0.5622
  O  O413  1  0.124800  0.317100  0.759800  1.0  -0.6672
  O  O414  1  0.042400  0.384300  0.786700  1.0  -0.5578
  O  O415  1  0.875200  0.817100  0.740200  1.0  -0.6673
  O  O416  1  0.957600  0.884300  0.713300  1.0  -0.5606
