# generated using pymatgen
data_YbH15C24(NO)6
_symmetry_space_group_name_H-M   'P 1'
_cell_length_a   20.31770000
_cell_length_b   20.31770000
_cell_length_c   20.31770000
_cell_angle_alpha   90.00000000
_cell_angle_beta   90.00000000
_cell_angle_gamma   90.00000000
_symmetry_Int_Tables_number   1
_chemical_formula_structural   YbH15C24(NO)6
_chemical_formula_sum   'Yb8 H120 C192 N48 O48'
_cell_volume   8387.32806391
_cell_formula_units_Z   8
loop_
 _symmetry_equiv_pos_site_id
 _symmetry_equiv_pos_as_xyz
  1  'x, y, z'
loop_
 _atom_site_type_symbol
 _atom_site_label
 _atom_site_symmetry_multiplicity
 _atom_site_fract_x
 _atom_site_fract_y
 _atom_site_fract_z
 _atom_site_occupancy
 _atom_site_charge
  Yb  Yb1  1  0.156270  0.843730  0.343730  1.0  1.515
  Yb  Yb2  1  0.343730  0.156270  0.843730  1.0  1.5146
  Yb  Yb3  1  0.843730  0.343730  0.156270  1.0  1.5152
  Yb  Yb4  1  0.656270  0.656270  0.656270  1.0  1.5136
  Yb  Yb5  1  0.342360  0.657640  0.157640  1.0  1.4884
  Yb  Yb6  1  0.157640  0.342360  0.657640  1.0  1.4881
  Yb  Yb7  1  0.657640  0.157640  0.342360  1.0  1.4865
  Yb  Yb8  1  0.842360  0.842360  0.842360  1.0  1.49
  H  H9  1  0.960800  0.670000  0.989600  1.0  0.3045
  H  H10  1  0.991100  0.840900  0.121100  1.0  0.104
  H  H11  1  0.957100  0.768600  0.037900  1.0  0.1165
  H  H12  1  0.098200  0.640900  0.092700  1.0  0.117
  H  H13  1  0.127800  0.714200  0.176900  1.0  0.1154
  H  H14  1  0.539200  0.330000  0.489600  1.0  0.3039
  H  H15  1  0.508900  0.159100  0.621100  1.0  0.1036
  H  H16  1  0.542900  0.231400  0.537900  1.0  0.1171
  H  H17  1  0.401800  0.359100  0.592700  1.0  0.117
  H  H18  1  0.372200  0.285800  0.676900  1.0  0.1153
  H  H19  1  0.039200  0.170000  0.510400  1.0  0.3035
  H  H20  1  0.008900  0.340900  0.378900  1.0  0.104
  H  H21  1  0.042900  0.268600  0.462100  1.0  0.1166
  H  H22  1  0.901800  0.140900  0.407300  1.0  0.1171
  H  H23  1  0.872200  0.214200  0.323100  1.0  0.115
  H  H24  1  0.460800  0.830000  0.010400  1.0  0.3046
  H  H25  1  0.491100  0.659100  0.878900  1.0  0.1035
  H  H26  1  0.457100  0.731400  0.962100  1.0  0.1166
  H  H27  1  0.598200  0.859100  0.907300  1.0  0.1168
  H  H28  1  0.627800  0.785800  0.823100  1.0  0.1149
  H  H29  1  0.989600  0.960800  0.670000  1.0  0.3064
  H  H30  1  0.121100  0.991100  0.840900  1.0  0.1033
  H  H31  1  0.037900  0.957100  0.768600  1.0  0.1173
  H  H32  1  0.092700  0.098200  0.640900  1.0  0.1176
  H  H33  1  0.176900  0.127800  0.714200  1.0  0.1149
  H  H34  1  0.489600  0.539200  0.330000  1.0  0.3035
  H  H35  1  0.621100  0.508900  0.159100  1.0  0.1032
  H  H36  1  0.537900  0.542900  0.231400  1.0  0.1178
  H  H37  1  0.592700  0.401800  0.359100  1.0  0.1178
  H  H38  1  0.676900  0.372200  0.285800  1.0  0.115
  H  H39  1  0.510400  0.039200  0.170000  1.0  0.304
  H  H40  1  0.378900  0.008900  0.340900  1.0  0.1031
  H  H41  1  0.462100  0.042900  0.268600  1.0  0.1178
  H  H42  1  0.407300  0.901800  0.140900  1.0  0.1174
  H  H43  1  0.323100  0.872200  0.214200  1.0  0.1145
  H  H44  1  0.010400  0.460800  0.830000  1.0  0.3056
  H  H45  1  0.878900  0.491100  0.659100  1.0  0.1037
  H  H46  1  0.962100  0.457100  0.731400  1.0  0.1175
  H  H47  1  0.907300  0.598200  0.859100  1.0  0.1175
  H  H48  1  0.823100  0.627800  0.785800  1.0  0.1147
  H  H49  1  0.670000  0.989600  0.960800  1.0  0.3048
  H  H50  1  0.840900  0.121100  0.991100  1.0  0.105
  H  H51  1  0.768600  0.037900  0.957100  1.0  0.1167
  H  H52  1  0.640900  0.092700  0.098200  1.0  0.1168
  H  H53  1  0.714200  0.176900  0.127800  1.0  0.1151
  H  H54  1  0.330000  0.489600  0.539200  1.0  0.3051
  H  H55  1  0.159100  0.621100  0.508900  1.0  0.1058
  H  H56  1  0.231400  0.537900  0.542900  1.0  0.1172
  H  H57  1  0.359100  0.592700  0.401800  1.0  0.117
  H  H58  1  0.285800  0.676900  0.372200  1.0  0.1151
  H  H59  1  0.170000  0.510400  0.039200  1.0  0.3039
  H  H60  1  0.340900  0.378900  0.008900  1.0  0.1054
  H  H61  1  0.268600  0.462100  0.042900  1.0  0.1167
  H  H62  1  0.140900  0.407300  0.901800  1.0  0.1171
  H  H63  1  0.214200  0.323100  0.872200  1.0  0.115
  H  H64  1  0.830000  0.010400  0.460800  1.0  0.3042
  H  H65  1  0.659100  0.878900  0.491100  1.0  0.1057
  H  H66  1  0.731400  0.962100  0.457100  1.0  0.117
  H  H67  1  0.859100  0.907300  0.598200  1.0  0.1168
  H  H68  1  0.785800  0.823100  0.627800  1.0  0.1155
  H  H69  1  0.998000  0.454400  0.342100  1.0  0.2654
  H  H70  1  0.183200  0.621300  0.287200  1.0  0.085
  H  H71  1  0.105100  0.588800  0.364200  1.0  0.121
  H  H72  1  0.045800  0.442000  0.243300  1.0  0.1278
  H  H73  1  0.116800  0.477000  0.163200  1.0  0.11
  H  H74  1  0.502000  0.545600  0.842100  1.0  0.2653
  H  H75  1  0.316800  0.378700  0.787200  1.0  0.0854
  H  H76  1  0.394900  0.411200  0.864200  1.0  0.1215
  H  H77  1  0.454200  0.558000  0.743300  1.0  0.1276
  H  H78  1  0.383200  0.523000  0.663200  1.0  0.1101
  H  H79  1  0.002000  0.954400  0.157900  1.0  0.2655
  H  H80  1  0.816800  0.121300  0.212800  1.0  0.0854
  H  H81  1  0.894900  0.088800  0.135800  1.0  0.1214
  H  H82  1  0.954200  0.942000  0.256700  1.0  0.1274
  H  H83  1  0.883200  0.977000  0.336800  1.0  0.1099
  H  H84  1  0.498000  0.045600  0.657900  1.0  0.2661
  H  H85  1  0.683200  0.878700  0.712800  1.0  0.0858
  H  H86  1  0.605100  0.911200  0.635800  1.0  0.1211
  H  H87  1  0.545800  0.058000  0.756700  1.0  0.1276
  H  H88  1  0.616800  0.023000  0.836800  1.0  0.11
  H  H89  1  0.342100  0.998000  0.454400  1.0  0.2657
  H  H90  1  0.287200  0.183200  0.621300  1.0  0.0849
  H  H91  1  0.364200  0.105100  0.588800  1.0  0.1208
  H  H92  1  0.243300  0.045800  0.442000  1.0  0.1274
  H  H93  1  0.163200  0.116800  0.477000  1.0  0.1104
  H  H94  1  0.842100  0.502000  0.545600  1.0  0.2666
  H  H95  1  0.787200  0.316800  0.378700  1.0  0.0854
  H  H96  1  0.864200  0.394900  0.411200  1.0  0.1211
  H  H97  1  0.743300  0.454200  0.558000  1.0  0.1271
  H  H98  1  0.663200  0.383200  0.523000  1.0  0.1108
  H  H99  1  0.157900  0.002000  0.954400  1.0  0.265
  H  H100  1  0.212800  0.816800  0.121300  1.0  0.0858
  H  H101  1  0.135800  0.894900  0.088800  1.0  0.1209
  H  H102  1  0.256700  0.954200  0.942000  1.0  0.1274
  H  H103  1  0.336800  0.883200  0.977000  1.0  0.1099
  H  H104  1  0.657900  0.498000  0.045600  1.0  0.2659
  H  H105  1  0.712800  0.683200  0.878700  1.0  0.0853
  H  H106  1  0.635800  0.605100  0.911200  1.0  0.1214
  H  H107  1  0.756700  0.545800  0.058000  1.0  0.1274
  H  H108  1  0.836800  0.616800  0.023000  1.0  0.1104
  H  H109  1  0.454400  0.342100  0.998000  1.0  0.2663
  H  H110  1  0.621300  0.287200  0.183200  1.0  0.0857
  H  H111  1  0.588800  0.364200  0.105100  1.0  0.1212
  H  H112  1  0.442000  0.243300  0.045800  1.0  0.1267
  H  H113  1  0.477000  0.163200  0.116800  1.0  0.1098
  H  H114  1  0.545600  0.842100  0.502000  1.0  0.2657
  H  H115  1  0.378700  0.787200  0.316800  1.0  0.085
  H  H116  1  0.411200  0.864200  0.394900  1.0  0.1213
  H  H117  1  0.558000  0.743300  0.454200  1.0  0.1265
  H  H118  1  0.523000  0.663200  0.383200  1.0  0.1096
  H  H119  1  0.954400  0.157900  0.002000  1.0  0.2664
  H  H120  1  0.121300  0.212800  0.816800  1.0  0.085
  H  H121  1  0.088800  0.135800  0.894900  1.0  0.121
  H  H122  1  0.942000  0.256700  0.954200  1.0  0.1263
  H  H123  1  0.977000  0.336800  0.883200  1.0  0.1096
  H  H124  1  0.045600  0.657900  0.498000  1.0  0.2654
  H  H125  1  0.878700  0.712800  0.683200  1.0  0.0857
  H  H126  1  0.911200  0.635800  0.605100  1.0  0.121
  H  H127  1  0.058000  0.756700  0.545800  1.0  0.1266
  H  H128  1  0.023000  0.836800  0.616800  1.0  0.1095
  C  C129  1  0.077900  0.831500  0.209000  1.0  0.7075
  C  C130  1  0.057600  0.783800  0.154800  1.0  -0.0798
  C  C131  1  0.011800  0.799200  0.116800  1.0  -0.1027
  C  C132  1  0.990600  0.754900  0.067500  1.0  -0.1479
  C  C133  1  0.016700  0.692900  0.060900  1.0  0.2549
  C  C134  1  0.073300  0.679800  0.099800  1.0  -0.102
  C  C135  1  0.092100  0.724100  0.148400  1.0  -0.058
  C  C136  1  0.024200  0.598800  0.980200  1.0  0.3811
  C  C137  1  0.422100  0.168500  0.709000  1.0  0.7088
  C  C138  1  0.442400  0.216200  0.654800  1.0  -0.087
  C  C139  1  0.488200  0.200800  0.616800  1.0  -0.1031
  C  C140  1  0.509400  0.245100  0.567500  1.0  -0.1495
  C  C141  1  0.483300  0.307100  0.560900  1.0  0.2551
  C  C142  1  0.426700  0.320200  0.599800  1.0  -0.1025
  C  C143  1  0.407900  0.275900  0.648400  1.0  -0.0563
  C  C144  1  0.475800  0.401200  0.480200  1.0  0.3799
  C  C145  1  0.922100  0.331500  0.291000  1.0  0.7061
  C  C146  1  0.942400  0.283800  0.345200  1.0  -0.0877
  C  C147  1  0.988200  0.299200  0.383200  1.0  -0.1038
  C  C148  1  0.009400  0.254900  0.432500  1.0  -0.1487
  C  C149  1  0.983300  0.192900  0.439100  1.0  0.2547
  C  C150  1  0.926700  0.179800  0.400200  1.0  -0.1026
  C  C151  1  0.907900  0.224100  0.351600  1.0  -0.0549
  C  C152  1  0.975800  0.098800  0.519800  1.0  0.3796
  C  C153  1  0.577900  0.668500  0.791000  1.0  0.707
  C  C154  1  0.557600  0.716200  0.845200  1.0  -0.079
  C  C155  1  0.511800  0.700800  0.883200  1.0  -0.1025
  C  C156  1  0.490600  0.745100  0.932500  1.0  -0.1488
  C  C157  1  0.516700  0.807100  0.939100  1.0  0.2547
  C  C158  1  0.573300  0.820200  0.900200  1.0  -0.1011
  C  C159  1  0.592100  0.775900  0.851600  1.0  -0.0567
  C  C160  1  0.524200  0.901200  0.019800  1.0  0.3809
  C  C161  1  0.209000  0.077900  0.831500  1.0  0.7068
  C  C162  1  0.154800  0.057600  0.783800  1.0  -0.0826
  C  C163  1  0.116800  0.011800  0.799200  1.0  -0.1065
  C  C164  1  0.067500  0.990600  0.754900  1.0  -0.1501
  C  C165  1  0.060900  0.016700  0.692900  1.0  0.2565
  C  C166  1  0.099800  0.073300  0.679800  1.0  -0.1024
  C  C167  1  0.148400  0.092100  0.724100  1.0  -0.0567
  C  C168  1  0.980200  0.024200  0.598800  1.0  0.4064
  C  C169  1  0.709000  0.422100  0.168500  1.0  0.7045
  C  C170  1  0.654800  0.442400  0.216200  1.0  -0.083
  C  C171  1  0.616800  0.488200  0.200800  1.0  -0.1078
  C  C172  1  0.567500  0.509400  0.245100  1.0  -0.1527
  C  C173  1  0.560900  0.483300  0.307100  1.0  0.2568
  C  C174  1  0.599800  0.426700  0.320200  1.0  -0.1031
  C  C175  1  0.648400  0.407900  0.275900  1.0  -0.058
  C  C176  1  0.480200  0.475800  0.401200  1.0  0.4076
  C  C177  1  0.291000  0.922100  0.331500  1.0  0.7063
  C  C178  1  0.345200  0.942400  0.283800  1.0  -0.0866
  C  C179  1  0.383200  0.988200  0.299200  1.0  -0.1073
  C  C180  1  0.432500  0.009400  0.254900  1.0  -0.1512
  C  C181  1  0.439100  0.983300  0.192900  1.0  0.257
  C  C182  1  0.400200  0.926700  0.179800  1.0  -0.1021
  C  C183  1  0.351600  0.907900  0.224100  1.0  -0.0573
  C  C184  1  0.519800  0.975800  0.098800  1.0  0.4072
  C  C185  1  0.791000  0.577900  0.668500  1.0  0.7058
  C  C186  1  0.845200  0.557600  0.716200  1.0  -0.0875
  C  C187  1  0.883200  0.511800  0.700800  1.0  -0.1087
  C  C188  1  0.932500  0.490600  0.745100  1.0  -0.1534
  C  C189  1  0.939100  0.516700  0.807100  1.0  0.2559
  C  C190  1  0.900200  0.573300  0.820200  1.0  -0.1025
  C  C191  1  0.851600  0.592100  0.775900  1.0  -0.0574
  C  C192  1  0.019800  0.524200  0.901200  1.0  0.4069
  C  C193  1  0.831500  0.209000  0.077900  1.0  0.7006
  C  C194  1  0.783800  0.154800  0.057600  1.0  -0.0775
  C  C195  1  0.799200  0.116800  0.011800  1.0  -0.1025
  C  C196  1  0.754900  0.067500  0.990600  1.0  -0.15
  C  C197  1  0.692900  0.060900  0.016700  1.0  0.2575
  C  C198  1  0.679800  0.099800  0.073300  1.0  -0.1035
  C  C199  1  0.724100  0.148400  0.092100  1.0  -0.0555
  C  C200  1  0.598800  0.980200  0.024200  1.0  0.3804
  C  C201  1  0.168500  0.709000  0.422100  1.0  0.7001
  C  C202  1  0.216200  0.654800  0.442400  1.0  -0.0769
  C  C203  1  0.200800  0.616800  0.488200  1.0  -0.1027
  C  C204  1  0.245100  0.567500  0.509400  1.0  -0.1489
  C  C205  1  0.307100  0.560900  0.483300  1.0  0.2571
  C  C206  1  0.320200  0.599800  0.426700  1.0  -0.1023
  C  C207  1  0.275900  0.648400  0.407900  1.0  -0.0544
  C  C208  1  0.401200  0.480200  0.475800  1.0  0.38
  C  C209  1  0.331500  0.291000  0.922100  1.0  0.7021
  C  C210  1  0.283800  0.345200  0.942400  1.0  -0.0777
  C  C211  1  0.299200  0.383200  0.988200  1.0  -0.1009
  C  C212  1  0.254900  0.432500  0.009400  1.0  -0.1488
  C  C213  1  0.192900  0.439100  0.983300  1.0  0.2574
  C  C214  1  0.179800  0.400200  0.926700  1.0  -0.104
  C  C215  1  0.224100  0.351600  0.907900  1.0  -0.0553
  C  C216  1  0.098800  0.519800  0.975800  1.0  0.3802
  C  C217  1  0.668500  0.791000  0.577900  1.0  0.7011
  C  C218  1  0.716200  0.845200  0.557600  1.0  -0.0786
  C  C219  1  0.700800  0.883200  0.511800  1.0  -0.1032
  C  C220  1  0.745100  0.932500  0.490600  1.0  -0.1499
  C  C221  1  0.807100  0.939100  0.516700  1.0  0.2574
  C  C222  1  0.820200  0.900200  0.573300  1.0  -0.1016
  C  C223  1  0.775900  0.851600  0.592100  1.0  -0.0546
  C  C224  1  0.901200  0.019800  0.524200  1.0  0.3804
  C  C225  1  0.206500  0.580400  0.164700  1.0  0.7634
  C  C226  1  0.159400  0.558800  0.215700  1.0  -0.1287
  C  C227  1  0.153500  0.587000  0.275900  1.0  -0.0458
  C  C228  1  0.106300  0.568600  0.322100  1.0  -0.1672
  C  C229  1  0.061300  0.520600  0.305500  1.0  0.1048
  C  C230  1  0.070400  0.481400  0.249000  1.0  -0.1994
  C  C231  1  0.114000  0.500300  0.203700  1.0  -0.0622
  C  C232  1  0.987900  0.520200  0.404300  1.0  0.3728
  C  C233  1  0.293500  0.419600  0.664700  1.0  0.7617
  C  C234  1  0.340600  0.441200  0.715700  1.0  -0.1288
  C  C235  1  0.346500  0.413000  0.775900  1.0  -0.0455
  C  C236  1  0.393700  0.431400  0.822100  1.0  -0.1685
  C  C237  1  0.438700  0.479400  0.805500  1.0  0.1042
  C  C238  1  0.429600  0.518600  0.749000  1.0  -0.2009
  C  C239  1  0.386000  0.499700  0.703700  1.0  -0.0635
  C  C240  1  0.512100  0.479800  0.904300  1.0  0.3727
  C  C241  1  0.793500  0.080400  0.335300  1.0  0.7618
  C  C242  1  0.840600  0.058800  0.284300  1.0  -0.129
  C  C243  1  0.846500  0.087000  0.224100  1.0  -0.0446
  C  C244  1  0.893700  0.068600  0.177900  1.0  -0.1668
  C  C245  1  0.938700  0.020600  0.194500  1.0  0.1033
  C  C246  1  0.929600  0.981400  0.251000  1.0  -0.1995
  C  C247  1  0.886000  0.000300  0.296300  1.0  -0.063
  C  C248  1  0.012100  0.020200  0.095700  1.0  0.3718
  C  C249  1  0.706500  0.919600  0.835300  1.0  0.7633
  C  C250  1  0.659400  0.941200  0.784300  1.0  -0.1287
  C  C251  1  0.653500  0.913000  0.724100  1.0  -0.0472
  C  C252  1  0.606300  0.931400  0.677900  1.0  -0.1678
  C  C253  1  0.561300  0.979400  0.694500  1.0  0.1044
  C  C254  1  0.570400  0.018600  0.751000  1.0  -0.1995
  C  C255  1  0.614000  0.999700  0.796300  1.0  -0.0627
  C  C256  1  0.487900  0.979800  0.595700  1.0  0.3707
  C  C257  1  0.164700  0.206500  0.580400  1.0  0.7566
  C  C258  1  0.215700  0.159400  0.558800  1.0  -0.1269
  C  C259  1  0.275900  0.153500  0.587000  1.0  -0.047
  C  C260  1  0.322100  0.106300  0.568600  1.0  -0.1655
  C  C261  1  0.305500  0.061300  0.520600  1.0  0.1055
  C  C262  1  0.249000  0.070400  0.481400  1.0  -0.2036
  C  C263  1  0.203700  0.114000  0.500300  1.0  -0.0642
  C  C264  1  0.404300  0.987900  0.520200  1.0  0.3633
  C  C265  1  0.664700  0.293500  0.419600  1.0  0.7582
  C  C266  1  0.715700  0.340600  0.441200  1.0  -0.1281
  C  C267  1  0.775900  0.346500  0.413000  1.0  -0.0484
  C  C268  1  0.822100  0.393700  0.431400  1.0  -0.1655
  C  C269  1  0.805500  0.438700  0.479400  1.0  0.1063
  C  C270  1  0.749000  0.429600  0.518600  1.0  -0.2034
  C  C271  1  0.703700  0.386000  0.499700  1.0  -0.0643
  C  C272  1  0.904300  0.512100  0.479800  1.0  0.3641
  C  C273  1  0.335300  0.793500  0.080400  1.0  0.7569
  C  C274  1  0.284300  0.840600  0.058800  1.0  -0.1264
  C  C275  1  0.224100  0.846500  0.087000  1.0  -0.0473
  C  C276  1  0.177900  0.893700  0.068600  1.0  -0.1664
  C  C277  1  0.194500  0.938700  0.020600  1.0  0.1044
  C  C278  1  0.251000  0.929600  0.981400  1.0  -0.2028
  C  C279  1  0.296300  0.886000  0.000300  1.0  -0.0659
  C  C280  1  0.095700  0.012100  0.020200  1.0  0.3607
  C  C281  1  0.835300  0.706500  0.919600  1.0  0.7565
  C  C282  1  0.784300  0.659400  0.941200  1.0  -0.1273
  C  C283  1  0.724100  0.653500  0.913000  1.0  -0.0466
  C  C284  1  0.677900  0.606300  0.931400  1.0  -0.1668
  C  C285  1  0.694500  0.561300  0.979400  1.0  0.1042
  C  C286  1  0.751000  0.570400  0.018600  1.0  -0.2014
  C  C287  1  0.796300  0.614000  0.999700  1.0  -0.0632
  C  C288  1  0.595700  0.487900  0.979800  1.0  0.3621
  C  C289  1  0.580400  0.164700  0.206500  1.0  0.7651
  C  C290  1  0.558800  0.215700  0.159400  1.0  -0.1285
  C  C291  1  0.587000  0.275900  0.153500  1.0  -0.0457
  C  C292  1  0.568600  0.322100  0.106300  1.0  -0.1668
  C  C293  1  0.520600  0.305500  0.061300  1.0  0.1049
  C  C294  1  0.481400  0.249000  0.070400  1.0  -0.1991
  C  C295  1  0.500300  0.203700  0.114000  1.0  -0.0569
  C  C296  1  0.520200  0.404300  0.987900  1.0  0.3731
  C  C297  1  0.419600  0.664700  0.293500  1.0  0.7651
  C  C298  1  0.441200  0.715700  0.340600  1.0  -0.1275
  C  C299  1  0.413000  0.775900  0.346500  1.0  -0.0455
  C  C300  1  0.431400  0.822100  0.393700  1.0  -0.1669
  C  C301  1  0.479400  0.805500  0.438700  1.0  0.1027
  C  C302  1  0.518600  0.749000  0.429600  1.0  -0.1985
  C  C303  1  0.499700  0.703700  0.386000  1.0  -0.0581
  C  C304  1  0.479800  0.904300  0.512100  1.0  0.3726
  C  C305  1  0.080400  0.335300  0.793500  1.0  0.765
  C  C306  1  0.058800  0.284300  0.840600  1.0  -0.1274
  C  C307  1  0.087000  0.224100  0.846500  1.0  -0.0456
  C  C308  1  0.068600  0.177900  0.893700  1.0  -0.1672
  C  C309  1  0.020600  0.194500  0.938700  1.0  0.1047
  C  C310  1  0.981400  0.251000  0.929600  1.0  -0.1997
  C  C311  1  0.000300  0.296300  0.886000  1.0  -0.0583
  C  C312  1  0.020200  0.095700  0.012100  1.0  0.3721
  C  C313  1  0.919600  0.835300  0.706500  1.0  0.7658
  C  C314  1  0.941200  0.784300  0.659400  1.0  -0.1282
  C  C315  1  0.913000  0.724100  0.653500  1.0  -0.0461
  C  C316  1  0.931400  0.677900  0.606300  1.0  -0.1675
  C  C317  1  0.979400  0.694500  0.561300  1.0  0.1029
  C  C318  1  0.018600  0.751000  0.570400  1.0  -0.1984
  C  C319  1  0.999700  0.796300  0.614000  1.0  -0.0582
  C  C320  1  0.979800  0.595700  0.487900  1.0  0.3734
  N  N321  1  0.997000  0.655900  0.008900  1.0  -0.3644
  N  N322  1  0.990800  0.577600  0.930000  1.0  -0.4382
  N  N323  1  0.503000  0.344100  0.508900  1.0  -0.3639
  N  N324  1  0.509200  0.422400  0.430000  1.0  -0.4387
  N  N325  1  0.003000  0.155900  0.491100  1.0  -0.3639
  N  N326  1  0.009200  0.077600  0.570000  1.0  -0.4387
  N  N327  1  0.497000  0.844100  0.991100  1.0  -0.3644
  N  N328  1  0.490800  0.922400  0.070000  1.0  -0.4387
  N  N329  1  0.008900  0.997000  0.655900  1.0  -0.3627
  N  N330  1  0.930000  0.990800  0.577600  1.0  -0.4385
  N  N331  1  0.508900  0.503000  0.344100  1.0  -0.3627
  N  N332  1  0.430000  0.509200  0.422400  1.0  -0.4391
  N  N333  1  0.491100  0.003000  0.155900  1.0  -0.3623
  N  N334  1  0.570000  0.009200  0.077600  1.0  -0.4359
  N  N335  1  0.991100  0.497000  0.844100  1.0  -0.3626
  N  N336  1  0.070000  0.490800  0.922400  1.0  -0.4358
  N  N337  1  0.655900  0.008900  0.997000  1.0  -0.3655
  N  N338  1  0.577600  0.930000  0.990800  1.0  -0.4384
  N  N339  1  0.344100  0.508900  0.503000  1.0  -0.3638
  N  N340  1  0.422400  0.430000  0.509200  1.0  -0.4387
  N  N341  1  0.155900  0.491100  0.003000  1.0  -0.3636
  N  N342  1  0.077600  0.570000  0.009200  1.0  -0.4385
  N  N343  1  0.844100  0.991100  0.497000  1.0  -0.3641
  N  N344  1  0.922400  0.070000  0.490800  1.0  -0.4381
  N  N345  1  0.012600  0.494000  0.351600  1.0  -0.3797
  N  N346  1  0.012400  0.572600  0.430500  1.0  -0.4801
  N  N347  1  0.487400  0.506000  0.851600  1.0  -0.3792
  N  N348  1  0.487600  0.427400  0.930500  1.0  -0.4794
  N  N349  1  0.987400  0.994000  0.148400  1.0  -0.3789
  N  N350  1  0.987600  0.072600  0.069500  1.0  -0.4794
  N  N351  1  0.512600  0.006000  0.648400  1.0  -0.3797
  N  N352  1  0.512400  0.927400  0.569500  1.0  -0.4799
  N  N353  1  0.351600  0.012600  0.494000  1.0  -0.3817
  N  N354  1  0.430500  0.012400  0.572600  1.0  -0.483
  N  N355  1  0.851600  0.487400  0.506000  1.0  -0.3812
  N  N356  1  0.930500  0.487600  0.427400  1.0  -0.4807
  N  N357  1  0.148400  0.987400  0.994000  1.0  -0.3804
  N  N358  1  0.069500  0.987600  0.072600  1.0  -0.4806
  N  N359  1  0.648400  0.512600  0.006000  1.0  -0.3809
  N  N360  1  0.569500  0.512400  0.927400  1.0  -0.4805
  N  N361  1  0.494000  0.351600  0.012600  1.0  -0.3806
  N  N362  1  0.572600  0.430500  0.012400  1.0  -0.4804
  N  N363  1  0.506000  0.851600  0.487400  1.0  -0.3795
  N  N364  1  0.427400  0.930500  0.487600  1.0  -0.4785
  N  N365  1  0.994000  0.148400  0.987400  1.0  -0.3803
  N  N366  1  0.072600  0.069500  0.987600  1.0  -0.4789
  N  N367  1  0.006000  0.648400  0.512600  1.0  -0.3791
  N  N368  1  0.927400  0.569500  0.512400  1.0  -0.4798
  O  O369  1  0.129700  0.814600  0.244100  1.0  -0.626
  O  O370  1  0.047400  0.883900  0.215600  1.0  -0.5384
  O  O371  1  0.370300  0.185400  0.744100  1.0  -0.6248
  O  O372  1  0.452600  0.116100  0.715600  1.0  -0.5383
  O  O373  1  0.870300  0.314600  0.255900  1.0  -0.6258
  O  O374  1  0.952600  0.383900  0.284400  1.0  -0.5381
  O  O375  1  0.629700  0.685400  0.755900  1.0  -0.6243
  O  O376  1  0.547400  0.616100  0.784400  1.0  -0.5386
  O  O377  1  0.244100  0.129700  0.814600  1.0  -0.625
  O  O378  1  0.215600  0.047400  0.883900  1.0  -0.5395
  O  O379  1  0.744100  0.370300  0.185400  1.0  -0.6262
  O  O380  1  0.715600  0.452600  0.116100  1.0  -0.5379
  O  O381  1  0.255900  0.870300  0.314600  1.0  -0.6269
  O  O382  1  0.284400  0.952600  0.383900  1.0  -0.5398
  O  O383  1  0.755900  0.629700  0.685400  1.0  -0.6256
  O  O384  1  0.784400  0.547400  0.616100  1.0  -0.5393
  O  O385  1  0.814600  0.244100  0.129700  1.0  -0.6295
  O  O386  1  0.883900  0.215600  0.047400  1.0  -0.5389
  O  O387  1  0.185400  0.744100  0.370300  1.0  -0.6293
  O  O388  1  0.116100  0.715600  0.452600  1.0  -0.5381
  O  O389  1  0.314600  0.255900  0.870300  1.0  -0.628
  O  O390  1  0.383900  0.284400  0.952600  1.0  -0.5384
  O  O391  1  0.685400  0.755900  0.629700  1.0  -0.6282
  O  O392  1  0.616100  0.784400  0.547400  1.0  -0.5375
  O  O393  1  0.241900  0.626900  0.180800  1.0  -0.6342
  O  O394  1  0.212000  0.550100  0.113800  1.0  -0.4954
  O  O395  1  0.258100  0.373100  0.680800  1.0  -0.6344
  O  O396  1  0.288000  0.449900  0.613800  1.0  -0.4956
  O  O397  1  0.758100  0.126900  0.319200  1.0  -0.6344
  O  O398  1  0.788000  0.050100  0.386200  1.0  -0.4947
  O  O399  1  0.741900  0.873100  0.819200  1.0  -0.6334
  O  O400  1  0.712000  0.949900  0.886200  1.0  -0.4943
  O  O401  1  0.180800  0.241900  0.626900  1.0  -0.6322
  O  O402  1  0.113800  0.212000  0.550100  1.0  -0.4947
  O  O403  1  0.680800  0.258100  0.373100  1.0  -0.633
  O  O404  1  0.613800  0.288000  0.449900  1.0  -0.4947
  O  O405  1  0.319200  0.758100  0.126900  1.0  -0.6312
  O  O406  1  0.386200  0.788000  0.050100  1.0  -0.4984
  O  O407  1  0.819200  0.741900  0.873100  1.0  -0.6321
  O  O408  1  0.886200  0.712000  0.949900  1.0  -0.4977
  O  O409  1  0.626900  0.180800  0.241900  1.0  -0.6344
  O  O410  1  0.550100  0.113800  0.212000  1.0  -0.4929
  O  O411  1  0.373100  0.680800  0.258100  1.0  -0.6327
  O  O412  1  0.449900  0.613800  0.288000  1.0  -0.494
  O  O413  1  0.126900  0.319200  0.758100  1.0  -0.6338
  O  O414  1  0.050100  0.386200  0.788000  1.0  -0.4917
  O  O415  1  0.873100  0.819200  0.741900  1.0  -0.633
  O  O416  1  0.949900  0.886200  0.712000  1.0  -0.4935
