# generated using pymatgen
data_KH12C22N9
_symmetry_space_group_name_H-M   'P 1'
_cell_length_a   20.92590000
_cell_length_b   20.92590000
_cell_length_c   9.63220000
_cell_angle_alpha   90.00000000
_cell_angle_beta   90.00000000
_cell_angle_gamma   90.00000000
_symmetry_Int_Tables_number   1
_chemical_formula_structural   KH12C22N9
_chemical_formula_sum   'K8 H96 C176 N72'
_cell_volume   4217.87575574
_cell_formula_units_Z   8
loop_
 _symmetry_equiv_pos_site_id
 _symmetry_equiv_pos_as_xyz
  1  'x, y, z'
loop_
 _atom_site_type_symbol
 _atom_site_label
 _atom_site_symmetry_multiplicity
 _atom_site_fract_x
 _atom_site_fract_y
 _atom_site_fract_z
 _atom_site_occupancy
 _atom_site_charge
  K  K1  1  0.338090  0.980950  0.144190  1.0  0.9163
  K  K2  1  0.161910  0.519050  0.144190  1.0  0.9167
  K  K3  1  0.019050  0.838090  0.644190  1.0  0.9159
  K  K4  1  0.480950  0.661910  0.644190  1.0  0.9164
  K  K5  1  0.661910  0.019050  0.855810  1.0  0.9164
  K  K6  1  0.838090  0.480950  0.855810  1.0  0.9159
  K  K7  1  0.980950  0.161910  0.355810  1.0  0.916
  K  K8  1  0.519050  0.338090  0.355810  1.0  0.9156
  H  H9  1  0.234300  0.938800  0.901200  1.0  0.1064
  H  H10  1  0.134700  0.892000  0.884700  1.0  0.0587
  H  H11  1  0.291700  0.828100  0.586300  1.0  0.1068
  H  H12  1  0.191300  0.786000  0.577300  1.0  0.0544
  H  H13  1  0.575600  0.144900  0.967700  1.0  0.098
  H  H14  1  0.589500  0.228200  0.118600  1.0  0.0588
  H  H15  1  0.396200  0.128100  0.108800  1.0  0.1186
  H  H16  1  0.415900  0.212300  0.254300  1.0  0.0646
  H  H17  1  0.547400  0.842600  0.399200  1.0  0.1065
  H  H18  1  0.626900  0.815200  0.247600  1.0  0.06
  H  H19  1  0.661000  0.982500  0.538500  1.0  0.086
  H  H20  1  0.736400  0.950100  0.384200  1.0  0.0586
  H  H21  1  0.265700  0.561200  0.901200  1.0  0.1065
  H  H22  1  0.365300  0.608000  0.884700  1.0  0.0584
  H  H23  1  0.208300  0.671900  0.586300  1.0  0.107
  H  H24  1  0.308700  0.714000  0.577300  1.0  0.0545
  H  H25  1  0.924400  0.355100  0.967700  1.0  0.0985
  H  H26  1  0.910500  0.271800  0.118600  1.0  0.0589
  H  H27  1  0.103800  0.371900  0.108800  1.0  0.1194
  H  H28  1  0.084100  0.287700  0.254300  1.0  0.0645
  H  H29  1  0.952600  0.657400  0.399200  1.0  0.1064
  H  H30  1  0.873100  0.684800  0.247600  1.0  0.0601
  H  H31  1  0.839000  0.517500  0.538500  1.0  0.0867
  H  H32  1  0.763600  0.549900  0.384200  1.0  0.0587
  H  H33  1  0.061200  0.734300  0.401200  1.0  0.1066
  H  H34  1  0.108000  0.634700  0.384700  1.0  0.0584
  H  H35  1  0.171900  0.791700  0.086300  1.0  0.1072
  H  H36  1  0.214000  0.691300  0.077300  1.0  0.0543
  H  H37  1  0.855100  0.075600  0.467700  1.0  0.099
  H  H38  1  0.771800  0.089500  0.618600  1.0  0.0588
  H  H39  1  0.871900  0.896200  0.608800  1.0  0.1205
  H  H40  1  0.787700  0.915900  0.754300  1.0  0.0642
  H  H41  1  0.157400  0.047400  0.899200  1.0  0.1071
  H  H42  1  0.184800  0.126900  0.747600  1.0  0.0604
  H  H43  1  0.017500  0.161000  0.038500  1.0  0.0858
  H  H44  1  0.049900  0.236400  0.884200  1.0  0.0599
  H  H45  1  0.438800  0.765700  0.401200  1.0  0.1066
  H  H46  1  0.392000  0.865300  0.384700  1.0  0.0576
  H  H47  1  0.328100  0.708300  0.086300  1.0  0.1069
  H  H48  1  0.286000  0.808700  0.077300  1.0  0.0547
  H  H49  1  0.644900  0.424400  0.467700  1.0  0.0984
  H  H50  1  0.728200  0.410500  0.618600  1.0  0.0587
  H  H51  1  0.628100  0.603800  0.608800  1.0  0.1204
  H  H52  1  0.712300  0.584100  0.754300  1.0  0.0641
  H  H53  1  0.342600  0.452600  0.899200  1.0  0.1076
  H  H54  1  0.315200  0.373100  0.747600  1.0  0.0604
  H  H55  1  0.482500  0.339000  0.038500  1.0  0.0864
  H  H56  1  0.450100  0.263600  0.884200  1.0  0.0596
  H  H57  1  0.765700  0.061200  0.098800  1.0  0.1066
  H  H58  1  0.865300  0.108000  0.115300  1.0  0.0578
  H  H59  1  0.708300  0.171900  0.413700  1.0  0.1071
  H  H60  1  0.808700  0.214000  0.422700  1.0  0.0537
  H  H61  1  0.424400  0.855100  0.032300  1.0  0.0991
  H  H62  1  0.410500  0.771800  0.881400  1.0  0.0603
  H  H63  1  0.603800  0.871900  0.891200  1.0  0.1196
  H  H64  1  0.584100  0.787700  0.745700  1.0  0.0644
  H  H65  1  0.452600  0.157400  0.600800  1.0  0.1063
  H  H66  1  0.373100  0.184800  0.752400  1.0  0.0601
  H  H67  1  0.339000  0.017500  0.461500  1.0  0.0863
  H  H68  1  0.263600  0.049900  0.615800  1.0  0.0587
  H  H69  1  0.734300  0.438800  0.098800  1.0  0.1067
  H  H70  1  0.634700  0.392000  0.115300  1.0  0.0581
  H  H71  1  0.791700  0.328100  0.413700  1.0  0.1075
  H  H72  1  0.691300  0.286000  0.422700  1.0  0.0544
  H  H73  1  0.075600  0.644900  0.032300  1.0  0.0988
  H  H74  1  0.089500  0.728200  0.881400  1.0  0.0605
  H  H75  1  0.896200  0.628100  0.891200  1.0  0.1188
  H  H76  1  0.915900  0.712300  0.745700  1.0  0.0644
  H  H77  1  0.047400  0.342600  0.600800  1.0  0.1063
  H  H78  1  0.126900  0.315200  0.752400  1.0  0.0598
  H  H79  1  0.161000  0.482500  0.461500  1.0  0.0859
  H  H80  1  0.236400  0.450100  0.615800  1.0  0.0588
  H  H81  1  0.938800  0.265700  0.598800  1.0  0.1066
  H  H82  1  0.892000  0.365300  0.615300  1.0  0.0571
  H  H83  1  0.828100  0.208300  0.913700  1.0  0.1074
  H  H84  1  0.786000  0.308700  0.922700  1.0  0.0538
  H  H85  1  0.144900  0.924400  0.532300  1.0  0.0991
  H  H86  1  0.228200  0.910500  0.381400  1.0  0.0601
  H  H87  1  0.128100  0.103800  0.391200  1.0  0.1205
  H  H88  1  0.212300  0.084100  0.245700  1.0  0.0645
  H  H89  1  0.842600  0.952600  0.100800  1.0  0.1075
  H  H90  1  0.815200  0.873100  0.252400  1.0  0.0604
  H  H91  1  0.982500  0.839000  0.961500  1.0  0.0857
  H  H92  1  0.950100  0.763600  0.115800  1.0  0.06
  H  H93  1  0.561200  0.234300  0.598800  1.0  0.1068
  H  H94  1  0.608000  0.134700  0.615300  1.0  0.0577
  H  H95  1  0.671900  0.291700  0.913700  1.0  0.1073
  H  H96  1  0.714000  0.191300  0.922700  1.0  0.0544
  H  H97  1  0.355100  0.575600  0.532300  1.0  0.0994
  H  H98  1  0.271800  0.589500  0.381400  1.0  0.0606
  H  H99  1  0.371900  0.396200  0.391200  1.0  0.1205
  H  H100  1  0.287700  0.415900  0.245700  1.0  0.0638
  H  H101  1  0.657400  0.547400  0.100800  1.0  0.1071
  H  H102  1  0.684800  0.626900  0.252400  1.0  0.0605
  H  H103  1  0.517500  0.661000  0.961500  1.0  0.0859
  H  H104  1  0.549900  0.736400  0.115800  1.0  0.0597
  C  C105  1  0.274900  0.889040  0.744800  1.0  -0.0342
  C  C106  1  0.226700  0.907700  0.834300  1.0  -0.1398
  C  C107  1  0.166500  0.879300  0.823100  1.0  0.1687
  C  C108  1  0.260500  0.842300  0.647800  1.0  -0.1822
  C  C109  1  0.199900  0.817200  0.643400  1.0  0.1698
  C  C110  1  0.339700  0.919470  0.749900  1.0  0.3966
  C  C111  1  0.484200  0.125800  0.021000  1.0  -0.0617
  C  C112  1  0.542200  0.157400  0.025400  1.0  -0.1679
  C  C113  1  0.550100  0.207600  0.116400  1.0  0.1627
  C  C114  1  0.436100  0.147500  0.108800  1.0  -0.1422
  C  C115  1  0.448500  0.198300  0.196000  1.0  0.1486
  C  C116  1  0.473400  0.070310  0.925500  1.0  0.4258
  C  C117  1  0.594210  0.916600  0.488200  1.0  -0.0496
  C  C118  1  0.585500  0.865500  0.398500  1.0  -0.1807
  C  C119  1  0.634000  0.849100  0.308200  1.0  0.1754
  C  C120  1  0.652700  0.947900  0.480500  1.0  -0.1585
  C  C121  1  0.697900  0.927900  0.387900  1.0  0.1586
  C  C122  1  0.542260  0.937360  0.583400  1.0  0.4071
  C  C123  1  0.439630  0.926090  0.658400  1.0  0.4845
  C  C124  1  0.404200  0.995700  0.844400  1.0  0.4577
  C  C125  1  0.451800  0.976250  0.750900  1.0  -0.1685
  C  C126  1  0.511300  0.005920  0.754800  1.0  0.4918
  C  C127  1  0.225100  0.610960  0.744800  1.0  -0.0344
  C  C128  1  0.273300  0.592300  0.834300  1.0  -0.1402
  C  C129  1  0.333500  0.620700  0.823100  1.0  0.1701
  C  C130  1  0.239500  0.657700  0.647800  1.0  -0.183
  C  C131  1  0.300100  0.682800  0.643400  1.0  0.1701
  C  C132  1  0.160300  0.580530  0.749900  1.0  0.397
  C  C133  1  0.015800  0.374200  0.021000  1.0  -0.0587
  C  C134  1  0.957800  0.342600  0.025400  1.0  -0.1675
  C  C135  1  0.949900  0.292400  0.116400  1.0  0.1628
  C  C136  1  0.063900  0.352500  0.108800  1.0  -0.1427
  C  C137  1  0.051500  0.301700  0.196000  1.0  0.1485
  C  C138  1  0.026600  0.429690  0.925500  1.0  0.4257
  C  C139  1  0.905790  0.583400  0.488200  1.0  -0.0471
  C  C140  1  0.914500  0.634500  0.398500  1.0  -0.1817
  C  C141  1  0.866000  0.650900  0.308200  1.0  0.177
  C  C142  1  0.847300  0.552100  0.480500  1.0  -0.1583
  C  C143  1  0.802100  0.572100  0.387900  1.0  0.1587
  C  C144  1  0.957740  0.562640  0.583400  1.0  0.4067
  C  C145  1  0.060370  0.573910  0.658400  1.0  0.4844
  C  C146  1  0.095800  0.504300  0.844400  1.0  0.4589
  C  C147  1  0.048200  0.523750  0.750900  1.0  -0.1689
  C  C148  1  0.988700  0.494080  0.754800  1.0  0.4916
  C  C149  1  0.110960  0.774900  0.244800  1.0  -0.0317
  C  C150  1  0.092300  0.726700  0.334300  1.0  -0.1409
  C  C151  1  0.120700  0.666500  0.323100  1.0  0.1691
  C  C152  1  0.157700  0.760500  0.147800  1.0  -0.1834
  C  C153  1  0.182800  0.699900  0.143400  1.0  0.1707
  C  C154  1  0.080530  0.839700  0.249900  1.0  0.3978
  C  C155  1  0.874200  0.984200  0.521000  1.0  -0.0617
  C  C156  1  0.842600  0.042200  0.525400  1.0  -0.1691
  C  C157  1  0.792400  0.050100  0.616400  1.0  0.1641
  C  C158  1  0.852500  0.936100  0.608800  1.0  -0.1442
  C  C159  1  0.801700  0.948500  0.696000  1.0  0.148
  C  C160  1  0.929690  0.973400  0.425500  1.0  0.4257
  C  C161  1  0.083400  0.094210  0.988200  1.0  -0.0494
  C  C162  1  0.134500  0.085500  0.898500  1.0  -0.1805
  C  C163  1  0.150900  0.134000  0.808200  1.0  0.1755
  C  C164  1  0.052100  0.152700  0.980500  1.0  -0.1566
  C  C165  1  0.072100  0.197900  0.887900  1.0  0.1589
  C  C166  1  0.062640  0.042260  0.083400  1.0  0.4071
  C  C167  1  0.073910  0.939630  0.158400  1.0  0.4838
  C  C168  1  0.004300  0.904200  0.344400  1.0  0.4595
  C  C169  1  0.023750  0.951800  0.250900  1.0  -0.1686
  C  C170  1  0.994080  0.011300  0.254800  1.0  0.4943
  C  C171  1  0.389040  0.725100  0.244800  1.0  -0.0311
  C  C172  1  0.407700  0.773300  0.334300  1.0  -0.1407
  C  C173  1  0.379300  0.833500  0.323100  1.0  0.1702
  C  C174  1  0.342300  0.739500  0.147800  1.0  -0.1833
  C  C175  1  0.317200  0.800100  0.143400  1.0  0.1709
  C  C176  1  0.419470  0.660300  0.249900  1.0  0.3979
  C  C177  1  0.625800  0.515800  0.521000  1.0  -0.0602
  C  C178  1  0.657400  0.457800  0.525400  1.0  -0.1685
  C  C179  1  0.707600  0.449900  0.616400  1.0  0.164
  C  C180  1  0.647500  0.563900  0.608800  1.0  -0.1457
  C  C181  1  0.698300  0.551500  0.696000  1.0  0.1464
  C  C182  1  0.570310  0.526600  0.425500  1.0  0.4258
  C  C183  1  0.416600  0.405790  0.988200  1.0  -0.0464
  C  C184  1  0.365500  0.414500  0.898500  1.0  -0.1795
  C  C185  1  0.349100  0.366000  0.808200  1.0  0.1746
  C  C186  1  0.447900  0.347300  0.980500  1.0  -0.1582
  C  C187  1  0.427900  0.302100  0.887900  1.0  0.1595
  C  C188  1  0.437360  0.457740  0.083400  1.0  0.4066
  C  C189  1  0.426090  0.560370  0.158400  1.0  0.4838
  C  C190  1  0.495700  0.595800  0.344400  1.0  0.4587
  C  C191  1  0.476250  0.548200  0.250900  1.0  -0.1684
  C  C192  1  0.505920  0.488700  0.254800  1.0  0.4941
  C  C193  1  0.725100  0.110960  0.255200  1.0  -0.0344
  C  C194  1  0.773300  0.092300  0.165700  1.0  -0.1398
  C  C195  1  0.833500  0.120700  0.176900  1.0  0.1672
  C  C196  1  0.739500  0.157700  0.352200  1.0  -0.1824
  C  C197  1  0.800100  0.182800  0.356600  1.0  0.17
  C  C198  1  0.660300  0.080530  0.250100  1.0  0.3973
  C  C199  1  0.515800  0.874200  0.979000  1.0  -0.0608
  C  C200  1  0.457800  0.842600  0.974600  1.0  -0.1677
  C  C201  1  0.449900  0.792400  0.883600  1.0  0.162
  C  C202  1  0.563900  0.852500  0.891200  1.0  -0.1427
  C  C203  1  0.551500  0.801700  0.804000  1.0  0.1477
  C  C204  1  0.526600  0.929690  0.074500  1.0  0.4255
  C  C205  1  0.405790  0.083400  0.511800  1.0  -0.0475
  C  C206  1  0.414500  0.134500  0.601500  1.0  -0.1823
  C  C207  1  0.366000  0.150900  0.691800  1.0  0.177
  C  C208  1  0.347300  0.052100  0.519500  1.0  -0.1575
  C  C209  1  0.302100  0.072100  0.612100  1.0  0.1586
  C  C210  1  0.457740  0.062640  0.416600  1.0  0.4069
  C  C211  1  0.560370  0.073910  0.341600  1.0  0.4832
  C  C212  1  0.595800  0.004300  0.155600  1.0  0.4585
  C  C213  1  0.548200  0.023750  0.249100  1.0  -0.1683
  C  C214  1  0.488700  0.994080  0.245200  1.0  0.4915
  C  C215  1  0.774900  0.389040  0.255200  1.0  -0.0337
  C  C216  1  0.726700  0.407700  0.165700  1.0  -0.1403
  C  C217  1  0.666500  0.379300  0.176900  1.0  0.1659
  C  C218  1  0.760500  0.342300  0.352200  1.0  -0.1819
  C  C219  1  0.699900  0.317200  0.356600  1.0  0.17
  C  C220  1  0.839700  0.419470  0.250100  1.0  0.3966
  C  C221  1  0.984200  0.625800  0.979000  1.0  -0.0612
  C  C222  1  0.042200  0.657400  0.974600  1.0  -0.1679
  C  C223  1  0.050100  0.707600  0.883600  1.0  0.1629
  C  C224  1  0.936100  0.647500  0.891200  1.0  -0.1425
  C  C225  1  0.948500  0.698300  0.804000  1.0  0.1488
  C  C226  1  0.973400  0.570310  0.074500  1.0  0.4256
  C  C227  1  0.094210  0.416600  0.511800  1.0  -0.0498
  C  C228  1  0.085500  0.365500  0.601500  1.0  -0.1815
  C  C229  1  0.134000  0.349100  0.691800  1.0  0.1767
  C  C230  1  0.152700  0.447900  0.519500  1.0  -0.1594
  C  C231  1  0.197900  0.427900  0.612100  1.0  0.1583
  C  C232  1  0.042260  0.437360  0.416600  1.0  0.4072
  C  C233  1  0.939630  0.426090  0.341600  1.0  0.4838
  C  C234  1  0.904200  0.495700  0.155600  1.0  0.4574
  C  C235  1  0.951800  0.476250  0.249100  1.0  -0.168
  C  C236  1  0.011300  0.505920  0.245200  1.0  0.4917
  C  C237  1  0.889040  0.225100  0.755200  1.0  -0.0312
  C  C238  1  0.907700  0.273300  0.665700  1.0  -0.1412
  C  C239  1  0.879300  0.333500  0.676900  1.0  0.1678
  C  C240  1  0.842300  0.239500  0.852200  1.0  -0.1827
  C  C241  1  0.817200  0.300100  0.856600  1.0  0.171
  C  C242  1  0.919470  0.160300  0.750100  1.0  0.3982
  C  C243  1  0.125800  0.015800  0.479000  1.0  -0.0618
  C  C244  1  0.157400  0.957800  0.474600  1.0  -0.169
  C  C245  1  0.207600  0.949900  0.383600  1.0  0.1638
  C  C246  1  0.147500  0.063900  0.391200  1.0  -0.1453
  C  C247  1  0.198300  0.051500  0.304000  1.0  0.146
  C  C248  1  0.070310  0.026600  0.574500  1.0  0.4256
  C  C249  1  0.916600  0.905790  0.011800  1.0  -0.0476
  C  C250  1  0.865500  0.914500  0.101500  1.0  -0.1801
  C  C251  1  0.849100  0.866000  0.191800  1.0  0.176
  C  C252  1  0.947900  0.847300  0.019500  1.0  -0.1587
  C  C253  1  0.927900  0.802100  0.112100  1.0  0.1591
  C  C254  1  0.937360  0.957740  0.916600  1.0  0.4068
  C  C255  1  0.926090  0.060370  0.841600  1.0  0.4827
  C  C256  1  0.995700  0.095800  0.655600  1.0  0.4591
  C  C257  1  0.976250  0.048200  0.749100  1.0  -0.1679
  C  C258  1  0.005920  0.988700  0.745200  1.0  0.4941
  C  C259  1  0.610960  0.274900  0.755200  1.0  -0.0318
  C  C260  1  0.592300  0.226700  0.665700  1.0  -0.1409
  C  C261  1  0.620700  0.166500  0.676900  1.0  0.1657
  C  C262  1  0.657700  0.260500  0.852200  1.0  -0.1829
  C  C263  1  0.682800  0.199900  0.856600  1.0  0.1708
  C  C264  1  0.580530  0.339700  0.750100  1.0  0.3978
  C  C265  1  0.374200  0.484200  0.479000  1.0  -0.0624
  C  C266  1  0.342600  0.542200  0.474600  1.0  -0.1693
  C  C267  1  0.292400  0.550100  0.383600  1.0  0.1639
  C  C268  1  0.352500  0.436100  0.391200  1.0  -0.1443
  C  C269  1  0.301700  0.448500  0.304000  1.0  0.1477
  C  C270  1  0.429690  0.473400  0.574500  1.0  0.4256
  C  C271  1  0.583400  0.594210  0.011800  1.0  -0.049
  C  C272  1  0.634500  0.585500  0.101500  1.0  -0.1806
  C  C273  1  0.650900  0.634000  0.191800  1.0  0.1761
  C  C274  1  0.552100  0.652700  0.019500  1.0  -0.1569
  C  C275  1  0.572100  0.697900  0.112100  1.0  0.1592
  C  C276  1  0.562640  0.542260  0.916600  1.0  0.4073
  C  C277  1  0.573910  0.439630  0.841600  1.0  0.4828
  C  C278  1  0.504300  0.404200  0.655600  1.0  0.4588
  C  C279  1  0.523750  0.451800  0.749100  1.0  -0.1681
  C  C280  1  0.494080  0.511300  0.745200  1.0  0.4942
  N  N281  1  0.152330  0.835000  0.728800  1.0  -0.4321
  N  N282  1  0.504400  0.228240  0.201200  1.0  -0.4152
  N  N283  1  0.690000  0.878200  0.302000  1.0  -0.4252
  N  N284  1  0.381750  0.897920  0.654900  1.0  -0.5032
  N  N285  1  0.346970  0.964840  0.846700  1.0  -0.5073
  N  N286  1  0.415100  0.043670  0.932600  1.0  -0.4663
  N  N287  1  0.522600  0.054440  0.844700  1.0  -0.5206
  N  N288  1  0.558490  0.985450  0.670400  1.0  -0.5081
  N  N289  1  0.486430  0.906820  0.571500  1.0  -0.4865
  N  N290  1  0.347670  0.665000  0.728800  1.0  -0.4312
  N  N291  1  0.995600  0.271760  0.201200  1.0  -0.4131
  N  N292  1  0.810000  0.621800  0.302000  1.0  -0.4252
  N  N293  1  0.118250  0.602080  0.654900  1.0  -0.5028
  N  N294  1  0.153030  0.535160  0.846700  1.0  -0.5039
  N  N295  1  0.084900  0.456330  0.932600  1.0  -0.4641
  N  N296  1  0.977400  0.445560  0.844700  1.0  -0.5219
  N  N297  1  0.941510  0.514550  0.670400  1.0  -0.511
  N  N298  1  0.013570  0.593180  0.571500  1.0  -0.4869
  N  N299  1  0.165000  0.652330  0.228800  1.0  -0.4283
  N  N300  1  0.771760  0.004400  0.701200  1.0  -0.4109
  N  N301  1  0.121800  0.190000  0.802000  1.0  -0.4238
  N  N302  1  0.102080  0.881750  0.154900  1.0  -0.5006
  N  N303  1  0.035160  0.846970  0.346700  1.0  -0.5071
  N  N304  1  0.956330  0.915100  0.432600  1.0  -0.4717
  N  N305  1  0.945560  0.022600  0.344700  1.0  -0.5221
  N  N306  1  0.014550  0.058490  0.170400  1.0  -0.5111
  N  N307  1  0.093180  0.986430  0.071500  1.0  -0.4821
  N  N308  1  0.335000  0.847670  0.228800  1.0  -0.4313
  N  N309  1  0.728240  0.495600  0.701200  1.0  -0.4106
  N  N310  1  0.378200  0.310000  0.802000  1.0  -0.4221
  N  N311  1  0.397920  0.618250  0.154900  1.0  -0.5024
  N  N312  1  0.464840  0.653030  0.346700  1.0  -0.5093
  N  N313  1  0.543670  0.584900  0.432600  1.0  -0.4719
  N  N314  1  0.554440  0.477400  0.344700  1.0  -0.5204
  N  N315  1  0.485450  0.441510  0.170400  1.0  -0.5099
  N  N316  1  0.406820  0.513570  0.071500  1.0  -0.4829
  N  N317  1  0.847670  0.165000  0.271200  1.0  -0.4313
  N  N318  1  0.495600  0.771760  0.798800  1.0  -0.4144
  N  N319  1  0.310000  0.121800  0.698000  1.0  -0.4267
  N  N320  1  0.618250  0.102080  0.345100  1.0  -0.5033
  N  N321  1  0.653030  0.035160  0.153300  1.0  -0.5049
  N  N322  1  0.584900  0.956330  0.067400  1.0  -0.4646
  N  N323  1  0.477400  0.945560  0.155300  1.0  -0.522
  N  N324  1  0.441510  0.014550  0.329600  1.0  -0.5116
  N  N325  1  0.513570  0.093180  0.428500  1.0  -0.4883
  N  N326  1  0.652330  0.335000  0.271200  1.0  -0.4322
  N  N327  1  0.004400  0.728240  0.798800  1.0  -0.4139
  N  N328  1  0.190000  0.378200  0.698000  1.0  -0.4246
  N  N329  1  0.881750  0.397920  0.345100  1.0  -0.5029
  N  N330  1  0.846970  0.464840  0.153300  1.0  -0.5069
  N  N331  1  0.915100  0.543670  0.067400  1.0  -0.4656
  N  N332  1  0.022600  0.554440  0.155300  1.0  -0.5206
  N  N333  1  0.058490  0.485450  0.329600  1.0  -0.5086
  N  N334  1  0.986430  0.406820  0.428500  1.0  -0.4865
  N  N335  1  0.835000  0.347670  0.771200  1.0  -0.4315
  N  N336  1  0.228240  0.995600  0.298800  1.0  -0.4116
  N  N337  1  0.878200  0.810000  0.198000  1.0  -0.4226
  N  N338  1  0.897920  0.118250  0.845100  1.0  -0.5036
  N  N339  1  0.964840  0.153030  0.653300  1.0  -0.5102
  N  N340  1  0.043670  0.084900  0.567400  1.0  -0.4722
  N  N341  1  0.054440  0.977400  0.655300  1.0  -0.5204
  N  N342  1  0.985450  0.941510  0.829600  1.0  -0.5103
  N  N343  1  0.906820  0.013570  0.928500  1.0  -0.4831
  N  N344  1  0.665000  0.152330  0.771200  1.0  -0.4286
  N  N345  1  0.271760  0.504400  0.298800  1.0  -0.409
  N  N346  1  0.621800  0.690000  0.198000  1.0  -0.4248
  N  N347  1  0.602080  0.381750  0.845100  1.0  -0.5003
  N  N348  1  0.535160  0.346970  0.653300  1.0  -0.5073
  N  N349  1  0.456330  0.415100  0.567400  1.0  -0.4727
  N  N350  1  0.445560  0.522600  0.655300  1.0  -0.5221
  N  N351  1  0.514550  0.558490  0.829600  1.0  -0.5115
  N  N352  1  0.593180  0.486430  0.928500  1.0  -0.482
