# generated using pymatgen
data_SmH15C24(NO)6
_symmetry_space_group_name_H-M   'P 1'
_cell_length_a   20.49260000
_cell_length_b   20.49260000
_cell_length_c   20.49260000
_cell_angle_alpha   90.00000000
_cell_angle_beta   90.00000000
_cell_angle_gamma   90.00000000
_symmetry_Int_Tables_number   1
_chemical_formula_structural   SmH15C24(NO)6
_chemical_formula_sum   'Sm8 H120 C192 N48 O48'
_cell_volume   8605.79881733
_cell_formula_units_Z   8
loop_
 _symmetry_equiv_pos_site_id
 _symmetry_equiv_pos_as_xyz
  1  'x, y, z'
loop_
 _atom_site_type_symbol
 _atom_site_label
 _atom_site_symmetry_multiplicity
 _atom_site_fract_x
 _atom_site_fract_y
 _atom_site_fract_z
 _atom_site_occupancy
 _atom_site_charge
  Sm  Sm1  1  0.153320  0.846680  0.346680  1.0  2.0224
  Sm  Sm2  1  0.346680  0.153320  0.846680  1.0  2.022
  Sm  Sm3  1  0.846680  0.346680  0.153320  1.0  2.0373
  Sm  Sm4  1  0.653320  0.653320  0.653320  1.0  2.0365
  Sm  Sm5  1  0.333570  0.666430  0.166430  1.0  1.8436
  Sm  Sm6  1  0.166430  0.333570  0.666430  1.0  1.8426
  Sm  Sm7  1  0.666430  0.166430  0.333570  1.0  1.8443
  Sm  Sm8  1  0.833570  0.833570  0.833570  1.0  1.846
  H  H9  1  0.961100  0.664900  0.993800  1.0  0.295
  H  H10  1  0.994300  0.837400  0.118200  1.0  0.0979
  H  H11  1  0.958600  0.764800  0.039700  1.0  0.0951
  H  H12  1  0.095800  0.634900  0.100800  1.0  0.0906
  H  H13  1  0.126700  0.706300  0.180300  1.0  0.0785
  H  H14  1  0.538900  0.335100  0.493800  1.0  0.2946
  H  H15  1  0.505700  0.162600  0.618200  1.0  0.0982
  H  H16  1  0.541400  0.235200  0.539700  1.0  0.0944
  H  H17  1  0.404200  0.365100  0.600800  1.0  0.0904
  H  H18  1  0.373300  0.293700  0.680300  1.0  0.0786
  H  H19  1  0.038900  0.164900  0.506200  1.0  0.2944
  H  H20  1  0.005700  0.337400  0.381800  1.0  0.0978
  H  H21  1  0.041400  0.264800  0.460300  1.0  0.0945
  H  H22  1  0.904200  0.134900  0.399200  1.0  0.0904
  H  H23  1  0.873300  0.206300  0.319700  1.0  0.0782
  H  H24  1  0.461100  0.835100  0.006200  1.0  0.2949
  H  H25  1  0.494300  0.662600  0.881800  1.0  0.0983
  H  H26  1  0.458600  0.735200  0.960300  1.0  0.0944
  H  H27  1  0.595800  0.865100  0.899200  1.0  0.0902
  H  H28  1  0.626700  0.793700  0.819700  1.0  0.0781
  H  H29  1  0.993800  0.961100  0.664900  1.0  0.2965
  H  H30  1  0.118200  0.994300  0.837400  1.0  0.098
  H  H31  1  0.039700  0.958600  0.764800  1.0  0.0957
  H  H32  1  0.100800  0.095800  0.634900  1.0  0.0916
  H  H33  1  0.180300  0.126700  0.706300  1.0  0.0782
  H  H34  1  0.493800  0.538900  0.335100  1.0  0.2945
  H  H35  1  0.618200  0.505700  0.162600  1.0  0.0979
  H  H36  1  0.539700  0.541400  0.235200  1.0  0.096
  H  H37  1  0.600800  0.404200  0.365100  1.0  0.092
  H  H38  1  0.680300  0.373300  0.293700  1.0  0.0783
  H  H39  1  0.506200  0.038900  0.164900  1.0  0.2946
  H  H40  1  0.381800  0.005700  0.337400  1.0  0.098
  H  H41  1  0.460300  0.041400  0.264800  1.0  0.0953
  H  H42  1  0.399200  0.904200  0.134900  1.0  0.0916
  H  H43  1  0.319700  0.873300  0.206300  1.0  0.0781
  H  H44  1  0.006200  0.461100  0.835100  1.0  0.2947
  H  H45  1  0.881800  0.494300  0.662600  1.0  0.098
  H  H46  1  0.960300  0.458600  0.735200  1.0  0.0958
  H  H47  1  0.899200  0.595800  0.865100  1.0  0.0915
  H  H48  1  0.819700  0.626700  0.793700  1.0  0.0782
  H  H49  1  0.664900  0.993800  0.961100  1.0  0.2948
  H  H50  1  0.837400  0.118200  0.994300  1.0  0.0982
  H  H51  1  0.764800  0.039700  0.958600  1.0  0.0948
  H  H52  1  0.634900  0.100800  0.095800  1.0  0.0907
  H  H53  1  0.706300  0.180300  0.126700  1.0  0.0777
  H  H54  1  0.335100  0.493800  0.538900  1.0  0.2954
  H  H55  1  0.162600  0.618200  0.505700  1.0  0.0978
  H  H56  1  0.235200  0.539700  0.541400  1.0  0.0952
  H  H57  1  0.365100  0.600800  0.404200  1.0  0.0907
  H  H58  1  0.293700  0.680300  0.373300  1.0  0.078
  H  H59  1  0.164900  0.506200  0.038900  1.0  0.2946
  H  H60  1  0.337400  0.381800  0.005700  1.0  0.0977
  H  H61  1  0.264800  0.460300  0.041400  1.0  0.0949
  H  H62  1  0.134900  0.399200  0.904200  1.0  0.0905
  H  H63  1  0.206300  0.319700  0.873300  1.0  0.0781
  H  H64  1  0.835100  0.006200  0.461100  1.0  0.2945
  H  H65  1  0.662600  0.881800  0.494300  1.0  0.0986
  H  H66  1  0.735200  0.960300  0.458600  1.0  0.0954
  H  H67  1  0.865100  0.899200  0.595800  1.0  0.0904
  H  H68  1  0.793700  0.819700  0.626700  1.0  0.0781
  H  H69  1  0.988200  0.453600  0.338400  1.0  0.2681
  H  H70  1  0.175900  0.613600  0.283700  1.0  0.0799
  H  H71  1  0.098400  0.584200  0.361400  1.0  0.0986
  H  H72  1  0.033300  0.443100  0.238600  1.0  0.1003
  H  H73  1  0.112300  0.471700  0.164000  1.0  0.0965
  H  H74  1  0.511800  0.546400  0.838400  1.0  0.2681
  H  H75  1  0.324100  0.386400  0.783700  1.0  0.0801
  H  H76  1  0.401600  0.415800  0.861400  1.0  0.0989
  H  H77  1  0.466700  0.556900  0.738600  1.0  0.1003
  H  H78  1  0.387700  0.528300  0.664000  1.0  0.097
  H  H79  1  0.011800  0.953600  0.161600  1.0  0.2674
  H  H80  1  0.824100  0.113600  0.216300  1.0  0.0803
  H  H81  1  0.901600  0.084200  0.138600  1.0  0.0985
  H  H82  1  0.966700  0.943100  0.261400  1.0  0.0995
  H  H83  1  0.887700  0.971700  0.336000  1.0  0.097
  H  H84  1  0.488200  0.046400  0.661600  1.0  0.2684
  H  H85  1  0.675900  0.886400  0.716300  1.0  0.0802
  H  H86  1  0.598400  0.915800  0.638600  1.0  0.0985
  H  H87  1  0.533300  0.056900  0.761400  1.0  0.0996
  H  H88  1  0.612300  0.028300  0.836000  1.0  0.0972
  H  H89  1  0.338400  0.988200  0.453600  1.0  0.2669
  H  H90  1  0.283700  0.175900  0.613600  1.0  0.0802
  H  H91  1  0.361400  0.098400  0.584200  1.0  0.0993
  H  H92  1  0.238600  0.033300  0.443100  1.0  0.0995
  H  H93  1  0.164000  0.112300  0.471700  1.0  0.0962
  H  H94  1  0.838400  0.511800  0.546400  1.0  0.2681
  H  H95  1  0.783700  0.324100  0.386400  1.0  0.0808
  H  H96  1  0.861400  0.401600  0.415800  1.0  0.0997
  H  H97  1  0.738600  0.466700  0.556900  1.0  0.1001
  H  H98  1  0.664000  0.387700  0.528300  1.0  0.0971
  H  H99  1  0.161600  0.011800  0.953600  1.0  0.2668
  H  H100  1  0.216300  0.824100  0.113600  1.0  0.0807
  H  H101  1  0.138600  0.901600  0.084200  1.0  0.0994
  H  H102  1  0.261400  0.966700  0.943100  1.0  0.0991
  H  H103  1  0.336000  0.887700  0.971700  1.0  0.096
  H  H104  1  0.661600  0.488200  0.046400  1.0  0.2674
  H  H105  1  0.716300  0.675900  0.886400  1.0  0.0809
  H  H106  1  0.638600  0.598400  0.915800  1.0  0.0997
  H  H107  1  0.761400  0.533300  0.056900  1.0  0.0994
  H  H108  1  0.836000  0.612300  0.028300  1.0  0.0968
  H  H109  1  0.453600  0.338400  0.988200  1.0  0.2657
  H  H110  1  0.613600  0.283700  0.175900  1.0  0.0806
  H  H111  1  0.584200  0.361400  0.098400  1.0  0.0996
  H  H112  1  0.443100  0.238600  0.033300  1.0  0.0991
  H  H113  1  0.471700  0.164000  0.112300  1.0  0.0958
  H  H114  1  0.546400  0.838400  0.511800  1.0  0.2667
  H  H115  1  0.386400  0.783700  0.324100  1.0  0.0809
  H  H116  1  0.415800  0.861400  0.401600  1.0  0.0998
  H  H117  1  0.556900  0.738600  0.466700  1.0  0.0981
  H  H118  1  0.528300  0.664000  0.387700  1.0  0.0957
  H  H119  1  0.953600  0.161600  0.011800  1.0  0.2667
  H  H120  1  0.113600  0.216300  0.824100  1.0  0.0805
  H  H121  1  0.084200  0.138600  0.901600  1.0  0.0997
  H  H122  1  0.943100  0.261400  0.966700  1.0  0.0989
  H  H123  1  0.971700  0.336000  0.887700  1.0  0.0962
  H  H124  1  0.046400  0.661600  0.488200  1.0  0.2664
  H  H125  1  0.886400  0.716300  0.675900  1.0  0.0808
  H  H126  1  0.915800  0.638600  0.598400  1.0  0.0996
  H  H127  1  0.056900  0.761400  0.533300  1.0  0.0989
  H  H128  1  0.028300  0.836000  0.612300  1.0  0.0957
  C  C129  1  0.087300  0.827000  0.207400  1.0  0.7416
  C  C130  1  0.065600  0.779900  0.156100  1.0  -0.1695
  C  C131  1  0.014600  0.796000  0.114500  1.0  -0.0437
  C  C132  1  0.993300  0.752800  0.068100  1.0  -0.1681
  C  C133  1  0.022300  0.690500  0.062100  1.0  0.1901
  C  C134  1  0.074100  0.675700  0.104600  1.0  -0.1495
  C  C135  1  0.093300  0.718600  0.150700  1.0  -0.0437
  C  C136  1  0.023100  0.596200  0.985200  1.0  0.5693
  C  C137  1  0.412700  0.173000  0.707400  1.0  0.7437
  C  C138  1  0.434400  0.220100  0.656100  1.0  -0.1686
  C  C139  1  0.485400  0.204000  0.614500  1.0  -0.0446
  C  C140  1  0.506700  0.247200  0.568100  1.0  -0.1683
  C  C141  1  0.477700  0.309500  0.562100  1.0  0.1912
  C  C142  1  0.425900  0.324300  0.604600  1.0  -0.1482
  C  C143  1  0.406700  0.281400  0.650700  1.0  -0.0421
  C  C144  1  0.476900  0.403800  0.485200  1.0  0.5693
  C  C145  1  0.912700  0.327000  0.292600  1.0  0.743
  C  C146  1  0.934400  0.279900  0.343900  1.0  -0.1678
  C  C147  1  0.985400  0.296000  0.385500  1.0  -0.0444
  C  C148  1  0.006700  0.252800  0.431900  1.0  -0.1682
  C  C149  1  0.977700  0.190500  0.437900  1.0  0.191
  C  C150  1  0.925900  0.175700  0.395400  1.0  -0.1489
  C  C151  1  0.906700  0.218600  0.349300  1.0  -0.0427
  C  C152  1  0.976900  0.096200  0.514800  1.0  0.5693
  C  C153  1  0.587300  0.673000  0.792600  1.0  0.7431
  C  C154  1  0.565600  0.720100  0.843900  1.0  -0.1689
  C  C155  1  0.514600  0.704000  0.885500  1.0  -0.0435
  C  C156  1  0.493300  0.747200  0.931900  1.0  -0.1689
  C  C157  1  0.522300  0.809500  0.937900  1.0  0.1903
  C  C158  1  0.574100  0.824300  0.895400  1.0  -0.1482
  C  C159  1  0.593300  0.781400  0.849300  1.0  -0.0436
  C  C160  1  0.523100  0.903800  0.014800  1.0  0.5687
  C  C161  1  0.207400  0.087300  0.827000  1.0  0.7357
  C  C162  1  0.156100  0.065600  0.779900  1.0  -0.1692
  C  C163  1  0.114500  0.014600  0.796000  1.0  -0.0486
  C  C164  1  0.068100  0.993300  0.752800  1.0  -0.1704
  C  C165  1  0.062100  0.022300  0.690500  1.0  0.1914
  C  C166  1  0.104600  0.074100  0.675700  1.0  -0.1499
  C  C167  1  0.150700  0.093300  0.718600  1.0  -0.0442
  C  C168  1  0.985200  0.023100  0.596200  1.0  0.5895
  C  C169  1  0.707400  0.412700  0.173000  1.0  0.7344
  C  C170  1  0.656100  0.434400  0.220100  1.0  -0.1682
  C  C171  1  0.614500  0.485400  0.204000  1.0  -0.0468
  C  C172  1  0.568100  0.506700  0.247200  1.0  -0.1711
  C  C173  1  0.562100  0.477700  0.309500  1.0  0.1918
  C  C174  1  0.604600  0.425900  0.324300  1.0  -0.1499
  C  C175  1  0.650700  0.406700  0.281400  1.0  -0.0449
  C  C176  1  0.485200  0.476900  0.403800  1.0  0.5895
  C  C177  1  0.292600  0.912700  0.327000  1.0  0.7347
  C  C178  1  0.343900  0.934400  0.279900  1.0  -0.1685
  C  C179  1  0.385500  0.985400  0.296000  1.0  -0.0481
  C  C180  1  0.431900  0.006700  0.252800  1.0  -0.1694
  C  C181  1  0.437900  0.977700  0.190500  1.0  0.1913
  C  C182  1  0.395400  0.925900  0.175700  1.0  -0.1502
  C  C183  1  0.349300  0.906700  0.218600  1.0  -0.0443
  C  C184  1  0.514800  0.976900  0.096200  1.0  0.5888
  C  C185  1  0.792600  0.587300  0.673000  1.0  0.7354
  C  C186  1  0.843900  0.565600  0.720100  1.0  -0.1693
  C  C187  1  0.885500  0.514600  0.704000  1.0  -0.048
  C  C188  1  0.931900  0.493300  0.747200  1.0  -0.1695
  C  C189  1  0.937900  0.522300  0.809500  1.0  0.1909
  C  C190  1  0.895400  0.574100  0.824300  1.0  -0.1496
  C  C191  1  0.849300  0.593300  0.781400  1.0  -0.0435
  C  C192  1  0.014800  0.523100  0.903800  1.0  0.5892
  C  C193  1  0.827000  0.207400  0.087300  1.0  0.7323
  C  C194  1  0.779900  0.156100  0.065600  1.0  -0.1657
  C  C195  1  0.796000  0.114500  0.014600  1.0  -0.0472
  C  C196  1  0.752800  0.068100  0.993300  1.0  -0.1695
  C  C197  1  0.690500  0.062100  0.022300  1.0  0.1913
  C  C198  1  0.675700  0.104600  0.074100  1.0  -0.1488
  C  C199  1  0.718600  0.150700  0.093300  1.0  -0.0432
  C  C200  1  0.596200  0.985200  0.023100  1.0  0.5687
  C  C201  1  0.173000  0.707400  0.412700  1.0  0.7316
  C  C202  1  0.220100  0.656100  0.434400  1.0  -0.1655
  C  C203  1  0.204000  0.614500  0.485400  1.0  -0.0471
  C  C204  1  0.247200  0.568100  0.506700  1.0  -0.1713
  C  C205  1  0.309500  0.562100  0.477700  1.0  0.1917
  C  C206  1  0.324300  0.604600  0.425900  1.0  -0.1488
  C  C207  1  0.281400  0.650700  0.406700  1.0  -0.0431
  C  C208  1  0.403800  0.485200  0.476900  1.0  0.57
  C  C209  1  0.327000  0.292600  0.912700  1.0  0.7316
  C  C210  1  0.279900  0.343900  0.934400  1.0  -0.1664
  C  C211  1  0.296000  0.385500  0.985400  1.0  -0.0472
  C  C212  1  0.252800  0.431900  0.006700  1.0  -0.1692
  C  C213  1  0.190500  0.437900  0.977700  1.0  0.1913
  C  C214  1  0.175700  0.395400  0.925900  1.0  -0.149
  C  C215  1  0.218600  0.349300  0.906700  1.0  -0.0437
  C  C216  1  0.096200  0.514800  0.976900  1.0  0.5689
  C  C217  1  0.673000  0.792600  0.587300  1.0  0.731
  C  C218  1  0.720100  0.843900  0.565600  1.0  -0.1665
  C  C219  1  0.704000  0.885500  0.514600  1.0  -0.0471
  C  C220  1  0.747200  0.931900  0.493300  1.0  -0.1709
  C  C221  1  0.809500  0.937900  0.522300  1.0  0.1919
  C  C222  1  0.824300  0.895400  0.574100  1.0  -0.1491
  C  C223  1  0.781400  0.849300  0.593300  1.0  -0.0435
  C  C224  1  0.903800  0.014800  0.523100  1.0  0.5699
  C  C225  1  0.201700  0.566200  0.166500  1.0  0.7232
  C  C226  1  0.151900  0.546100  0.216900  1.0  -0.1419
  C  C227  1  0.147000  0.578500  0.274900  1.0  -0.0195
  C  C228  1  0.100700  0.561400  0.321100  1.0  -0.1708
  C  C229  1  0.057600  0.510400  0.308000  1.0  0.2274
  C  C230  1  0.062600  0.477700  0.248300  1.0  -0.1682
  C  C231  1  0.109000  0.494800  0.204000  1.0  -0.0748
  C  C232  1  0.983300  0.518200  0.404600  1.0  0.613
  C  C233  1  0.298300  0.433800  0.666500  1.0  0.7242
  C  C234  1  0.348100  0.453900  0.716900  1.0  -0.1419
  C  C235  1  0.353000  0.421500  0.774900  1.0  -0.0191
  C  C236  1  0.399300  0.438600  0.821100  1.0  -0.1711
  C  C237  1  0.442400  0.489600  0.808000  1.0  0.2277
  C  C238  1  0.437400  0.522300  0.748300  1.0  -0.1674
  C  C239  1  0.391000  0.505200  0.704000  1.0  -0.0757
  C  C240  1  0.516700  0.481800  0.904600  1.0  0.6128
  C  C241  1  0.798300  0.066200  0.333500  1.0  0.7235
  C  C242  1  0.848100  0.046100  0.283100  1.0  -0.1426
  C  C243  1  0.853000  0.078500  0.225100  1.0  -0.018
  C  C244  1  0.899300  0.061400  0.178900  1.0  -0.17
  C  C245  1  0.942400  0.010400  0.192000  1.0  0.2272
  C  C246  1  0.937400  0.977700  0.251700  1.0  -0.1679
  C  C247  1  0.891000  0.994800  0.296000  1.0  -0.075
  C  C248  1  0.016700  0.018200  0.095400  1.0  0.6126
  C  C249  1  0.701700  0.933800  0.833500  1.0  0.7232
  C  C250  1  0.651900  0.953900  0.783100  1.0  -0.1423
  C  C251  1  0.647000  0.921500  0.725100  1.0  -0.0197
  C  C252  1  0.600700  0.938600  0.678900  1.0  -0.1716
  C  C253  1  0.557600  0.989600  0.692000  1.0  0.228
  C  C254  1  0.562600  0.022300  0.751700  1.0  -0.1674
  C  C255  1  0.609000  0.005200  0.796000  1.0  -0.0753
  C  C256  1  0.483300  0.981800  0.595400  1.0  0.6131
  C  C257  1  0.166500  0.201700  0.566200  1.0  0.7217
  C  C258  1  0.216900  0.151900  0.546100  1.0  -0.1381
  C  C259  1  0.274900  0.147000  0.578500  1.0  -0.0193
  C  C260  1  0.321100  0.100700  0.561400  1.0  -0.169
  C  C261  1  0.308000  0.057600  0.510400  1.0  0.2275
  C  C262  1  0.248300  0.062600  0.477700  1.0  -0.1688
  C  C263  1  0.204000  0.109000  0.494800  1.0  -0.0725
  C  C264  1  0.404600  0.983300  0.518200  1.0  0.5906
  C  C265  1  0.666500  0.298300  0.433800  1.0  0.7215
  C  C266  1  0.716900  0.348100  0.453900  1.0  -0.1382
  C  C267  1  0.774900  0.353000  0.421500  1.0  -0.0184
  C  C268  1  0.821100  0.399300  0.438600  1.0  -0.1697
  C  C269  1  0.808000  0.442400  0.489600  1.0  0.2274
  C  C270  1  0.748300  0.437400  0.522300  1.0  -0.1685
  C  C271  1  0.704000  0.391000  0.505200  1.0  -0.0738
  C  C272  1  0.904600  0.516700  0.481800  1.0  0.5911
  C  C273  1  0.333500  0.798300  0.066200  1.0  0.722
  C  C274  1  0.283100  0.848100  0.046100  1.0  -0.1376
  C  C275  1  0.225100  0.853000  0.078500  1.0  -0.019
  C  C276  1  0.178900  0.899300  0.061400  1.0  -0.1701
  C  C277  1  0.192000  0.942400  0.010400  1.0  0.2272
  C  C278  1  0.251700  0.937400  0.977700  1.0  -0.1685
  C  C279  1  0.296000  0.891000  0.994800  1.0  -0.0756
  C  C280  1  0.095400  0.016700  0.018200  1.0  0.5894
  C  C281  1  0.833500  0.701700  0.933800  1.0  0.7224
  C  C282  1  0.783100  0.651900  0.953900  1.0  -0.1383
  C  C283  1  0.725100  0.647000  0.921500  1.0  -0.0182
  C  C284  1  0.678900  0.600700  0.938600  1.0  -0.1704
  C  C285  1  0.692000  0.557600  0.989600  1.0  0.2268
  C  C286  1  0.751700  0.562600  0.022300  1.0  -0.166
  C  C287  1  0.796000  0.609000  0.005200  1.0  -0.0747
  C  C288  1  0.595400  0.483300  0.981800  1.0  0.5896
  C  C289  1  0.566200  0.166500  0.201700  1.0  0.7296
  C  C290  1  0.546100  0.216900  0.151900  1.0  -0.1401
  C  C291  1  0.578500  0.274900  0.147000  1.0  -0.02
  C  C292  1  0.561400  0.321100  0.100700  1.0  -0.1698
  C  C293  1  0.510400  0.308000  0.057600  1.0  0.226
  C  C294  1  0.477700  0.248300  0.062600  1.0  -0.1679
  C  C295  1  0.494800  0.204000  0.109000  1.0  -0.0694
  C  C296  1  0.518200  0.404600  0.983300  1.0  0.6128
  C  C297  1  0.433800  0.666500  0.298300  1.0  0.7292
  C  C298  1  0.453900  0.716900  0.348100  1.0  -0.139
  C  C299  1  0.421500  0.774900  0.353000  1.0  -0.0186
  C  C300  1  0.438600  0.821100  0.399300  1.0  -0.1696
  C  C301  1  0.489600  0.808000  0.442400  1.0  0.2268
  C  C302  1  0.522300  0.748300  0.437400  1.0  -0.1658
  C  C303  1  0.505200  0.704000  0.391000  1.0  -0.0722
  C  C304  1  0.481800  0.904600  0.516700  1.0  0.6114
  C  C305  1  0.066200  0.333500  0.798300  1.0  0.7293
  C  C306  1  0.046100  0.283100  0.848100  1.0  -0.1394
  C  C307  1  0.078500  0.225100  0.853000  1.0  -0.0193
  C  C308  1  0.061400  0.178900  0.899300  1.0  -0.1706
  C  C309  1  0.010400  0.192000  0.942400  1.0  0.2264
  C  C310  1  0.977700  0.251700  0.937400  1.0  -0.1668
  C  C311  1  0.994800  0.296000  0.891000  1.0  -0.0705
  C  C312  1  0.018200  0.095400  0.016700  1.0  0.6124
  C  C313  1  0.933800  0.833500  0.701700  1.0  0.7311
  C  C314  1  0.953900  0.783100  0.651900  1.0  -0.1412
  C  C315  1  0.921500  0.725100  0.647000  1.0  -0.0184
  C  C316  1  0.938600  0.678900  0.600700  1.0  -0.1704
  C  C317  1  0.989600  0.692000  0.557600  1.0  0.2273
  C  C318  1  0.022300  0.751700  0.562600  1.0  -0.1662
  C  C319  1  0.005200  0.796000  0.609000  1.0  -0.071
  C  C320  1  0.981800  0.595400  0.483300  1.0  0.6121
  N  N321  1  0.997900  0.651500  0.011200  1.0  -0.3982
  N  N322  1  0.990100  0.576000  0.931300  1.0  -0.6225
  N  N323  1  0.502100  0.348500  0.511200  1.0  -0.3966
  N  N324  1  0.509900  0.424000  0.431300  1.0  -0.6216
  N  N325  1  0.002100  0.151500  0.488800  1.0  -0.3968
  N  N326  1  0.009900  0.076000  0.568700  1.0  -0.6211
  N  N327  1  0.497900  0.848500  0.988800  1.0  -0.3981
  N  N328  1  0.490100  0.924000  0.068700  1.0  -0.6229
  N  N329  1  0.011200  0.997900  0.651500  1.0  -0.3967
  N  N330  1  0.931300  0.990100  0.576000  1.0  -0.6226
  N  N331  1  0.511200  0.502100  0.348500  1.0  -0.3965
  N  N332  1  0.431300  0.509900  0.424000  1.0  -0.6233
  N  N333  1  0.488800  0.002100  0.151500  1.0  -0.3968
  N  N334  1  0.568700  0.009900  0.076000  1.0  -0.622
  N  N335  1  0.988800  0.497900  0.848500  1.0  -0.3975
  N  N336  1  0.068700  0.490100  0.924000  1.0  -0.6233
  N  N337  1  0.651500  0.011200  0.997900  1.0  -0.3983
  N  N338  1  0.576000  0.931300  0.990100  1.0  -0.6218
  N  N339  1  0.348500  0.511200  0.502100  1.0  -0.3989
  N  N340  1  0.424000  0.431300  0.509900  1.0  -0.6247
  N  N341  1  0.151500  0.488800  0.002100  1.0  -0.3972
  N  N342  1  0.076000  0.568700  0.009900  1.0  -0.6228
  N  N343  1  0.848500  0.988800  0.497900  1.0  -0.3985
  N  N344  1  0.924000  0.068700  0.490100  1.0  -0.6232
  N  N345  1  0.007300  0.490400  0.349700  1.0  -0.3932
  N  N346  1  0.011600  0.571000  0.429500  1.0  -0.5959
  N  N347  1  0.492700  0.509600  0.849700  1.0  -0.3927
  N  N348  1  0.488400  0.429000  0.929500  1.0  -0.5987
  N  N349  1  0.992700  0.990400  0.150300  1.0  -0.3932
  N  N350  1  0.988400  0.071000  0.070500  1.0  -0.5979
  N  N351  1  0.507300  0.009600  0.650300  1.0  -0.3927
  N  N352  1  0.511600  0.929000  0.570500  1.0  -0.596
  N  N353  1  0.349700  0.007300  0.490400  1.0  -0.3961
  N  N354  1  0.429500  0.011600  0.571000  1.0  -0.5975
  N  N355  1  0.849700  0.492700  0.509600  1.0  -0.3939
  N  N356  1  0.929500  0.488400  0.429000  1.0  -0.5982
  N  N357  1  0.150300  0.992700  0.990400  1.0  -0.3954
  N  N358  1  0.070500  0.988400  0.071000  1.0  -0.5979
  N  N359  1  0.650300  0.507300  0.009600  1.0  -0.3942
  N  N360  1  0.570500  0.511600  0.929000  1.0  -0.5973
  N  N361  1  0.490400  0.349700  0.007300  1.0  -0.394
  N  N362  1  0.571000  0.429500  0.011600  1.0  -0.5975
  N  N363  1  0.509600  0.849700  0.492700  1.0  -0.3938
  N  N364  1  0.429000  0.929500  0.488400  1.0  -0.5956
  N  N365  1  0.990400  0.150300  0.992700  1.0  -0.3941
  N  N366  1  0.071000  0.070500  0.988400  1.0  -0.5956
  N  N367  1  0.009600  0.650300  0.507300  1.0  -0.3935
  N  N368  1  0.929000  0.570500  0.511600  1.0  -0.5971
  O  O369  1  0.133800  0.808100  0.243800  1.0  -0.6163
  O  O370  1  0.061200  0.881100  0.212300  1.0  -0.5957
  O  O371  1  0.366200  0.191900  0.743800  1.0  -0.6174
  O  O372  1  0.438800  0.118900  0.712300  1.0  -0.596
  O  O373  1  0.866200  0.308100  0.256200  1.0  -0.6183
  O  O374  1  0.938800  0.381100  0.287700  1.0  -0.5939
  O  O375  1  0.633800  0.691900  0.756200  1.0  -0.6171
  O  O376  1  0.561200  0.618900  0.787700  1.0  -0.5951
  O  O377  1  0.243800  0.133800  0.808100  1.0  -0.6176
  O  O378  1  0.212300  0.061200  0.881100  1.0  -0.5959
  O  O379  1  0.743800  0.366200  0.191900  1.0  -0.6186
  O  O380  1  0.712300  0.438800  0.118900  1.0  -0.5945
  O  O381  1  0.256200  0.866200  0.308100  1.0  -0.6187
  O  O382  1  0.287700  0.938800  0.381100  1.0  -0.5956
  O  O383  1  0.756200  0.633800  0.691900  1.0  -0.6182
  O  O384  1  0.787700  0.561200  0.618900  1.0  -0.5941
  O  O385  1  0.808100  0.243800  0.133800  1.0  -0.6174
  O  O386  1  0.881100  0.212300  0.061200  1.0  -0.5984
  O  O387  1  0.191900  0.743800  0.366200  1.0  -0.6193
  O  O388  1  0.118900  0.712300  0.438800  1.0  -0.5978
  O  O389  1  0.308100  0.256200  0.866200  1.0  -0.619
  O  O390  1  0.381100  0.287700  0.938800  1.0  -0.6005
  O  O391  1  0.691900  0.756200  0.633800  1.0  -0.6188
  O  O392  1  0.618900  0.787700  0.561200  1.0  -0.5995
  O  O393  1  0.234400  0.617100  0.179400  1.0  -0.7019
  O  O394  1  0.208600  0.533200  0.116200  1.0  -0.5769
  O  O395  1  0.265600  0.382900  0.679400  1.0  -0.7
  O  O396  1  0.291400  0.466800  0.616200  1.0  -0.576
  O  O397  1  0.765600  0.117100  0.320600  1.0  -0.7029
  O  O398  1  0.791400  0.033200  0.383800  1.0  -0.5753
  O  O399  1  0.734400  0.882900  0.820600  1.0  -0.7004
  O  O400  1  0.708600  0.966800  0.883800  1.0  -0.5756
  O  O401  1  0.179400  0.234400  0.617100  1.0  -0.7058
  O  O402  1  0.116200  0.208600  0.533200  1.0  -0.5765
  O  O403  1  0.679400  0.265600  0.382900  1.0  -0.7039
  O  O404  1  0.616200  0.291400  0.466800  1.0  -0.5775
  O  O405  1  0.320600  0.765600  0.117100  1.0  -0.7052
  O  O406  1  0.383800  0.791400  0.033200  1.0  -0.5776
  O  O407  1  0.820600  0.734400  0.882900  1.0  -0.7046
  O  O408  1  0.883800  0.708600  0.966800  1.0  -0.578
  O  O409  1  0.617100  0.179400  0.234400  1.0  -0.7045
  O  O410  1  0.533200  0.116200  0.208600  1.0  -0.5758
  O  O411  1  0.382900  0.679400  0.265600  1.0  -0.7034
  O  O412  1  0.466800  0.616200  0.291400  1.0  -0.5762
  O  O413  1  0.117100  0.320600  0.765600  1.0  -0.7051
  O  O414  1  0.033200  0.383800  0.791400  1.0  -0.5742
  O  O415  1  0.882900  0.820600  0.734400  1.0  -0.7043
  O  O416  1  0.966800  0.883800  0.708600  1.0  -0.5766
