# generated using pymatgen
data_EuH15C24(NO)6
_symmetry_space_group_name_H-M   'P 1'
_cell_length_a   20.50100000
_cell_length_b   20.50100000
_cell_length_c   20.50100000
_cell_angle_alpha   90.00000000
_cell_angle_beta   90.00000000
_cell_angle_gamma   90.00000000
_symmetry_Int_Tables_number   1
_chemical_formula_structural   EuH15C24(NO)6
_chemical_formula_sum   'Eu8 H120 C192 N48 O48'
_cell_volume   8616.38581150
_cell_formula_units_Z   8
loop_
 _symmetry_equiv_pos_site_id
 _symmetry_equiv_pos_as_xyz
  1  'x, y, z'
loop_
 _atom_site_type_symbol
 _atom_site_label
 _atom_site_symmetry_multiplicity
 _atom_site_fract_x
 _atom_site_fract_y
 _atom_site_fract_z
 _atom_site_occupancy
 _atom_site_charge
  Eu  Eu1  1  0.154330  0.845670  0.345670  1.0  1.9692
  Eu  Eu2  1  0.345670  0.154330  0.845670  1.0  1.9689
  Eu  Eu3  1  0.845670  0.345670  0.154330  1.0  1.9853
  Eu  Eu4  1  0.654330  0.654330  0.654330  1.0  1.9835
  Eu  Eu5  1  0.333900  0.666100  0.166100  1.0  1.7999
  Eu  Eu6  1  0.166100  0.333900  0.666100  1.0  1.7982
  Eu  Eu7  1  0.666100  0.166100  0.333900  1.0  1.7978
  Eu  Eu8  1  0.833900  0.833900  0.833900  1.0  1.8011
  H  H9  1  0.959000  0.663200  0.995900  1.0  0.3013
  H  H10  1  0.994100  0.837700  0.116900  1.0  0.0967
  H  H11  1  0.956900  0.763200  0.041100  1.0  0.094
  H  H12  1  0.091900  0.633500  0.101900  1.0  0.0934
  H  H13  1  0.127700  0.706700  0.177300  1.0  0.0792
  H  H14  1  0.541000  0.336800  0.495900  1.0  0.3019
  H  H15  1  0.505900  0.162300  0.616900  1.0  0.0961
  H  H16  1  0.543100  0.236800  0.541100  1.0  0.0932
  H  H17  1  0.408100  0.366500  0.601900  1.0  0.0934
  H  H18  1  0.372300  0.293300  0.677300  1.0  0.0791
  H  H19  1  0.041000  0.163200  0.504100  1.0  0.3009
  H  H20  1  0.005900  0.337700  0.383100  1.0  0.0961
  H  H21  1  0.043100  0.263200  0.458900  1.0  0.0931
  H  H22  1  0.908100  0.133500  0.398100  1.0  0.0922
  H  H23  1  0.872300  0.206700  0.322700  1.0  0.0787
  H  H24  1  0.459000  0.836800  0.004100  1.0  0.2962
  H  H25  1  0.494100  0.662300  0.883100  1.0  0.0967
  H  H26  1  0.456900  0.736800  0.958900  1.0  0.0933
  H  H27  1  0.591900  0.866500  0.898100  1.0  0.0931
  H  H28  1  0.627700  0.793300  0.822700  1.0  0.0786
  H  H29  1  0.995900  0.959000  0.663200  1.0  0.3029
  H  H30  1  0.116900  0.994100  0.837700  1.0  0.0968
  H  H31  1  0.041100  0.956900  0.763200  1.0  0.0943
  H  H32  1  0.101900  0.091900  0.633500  1.0  0.0945
  H  H33  1  0.177300  0.127700  0.706700  1.0  0.0793
  H  H34  1  0.495900  0.541000  0.336800  1.0  0.3015
  H  H35  1  0.616900  0.505900  0.162300  1.0  0.0968
  H  H36  1  0.541100  0.543100  0.236800  1.0  0.0951
  H  H37  1  0.601900  0.408100  0.366500  1.0  0.0944
  H  H38  1  0.677300  0.372300  0.293300  1.0  0.0793
  H  H39  1  0.504100  0.041000  0.163200  1.0  0.3016
  H  H40  1  0.383100  0.005900  0.337700  1.0  0.0965
  H  H41  1  0.458900  0.043100  0.263200  1.0  0.0945
  H  H42  1  0.398100  0.908100  0.133500  1.0  0.0933
  H  H43  1  0.322700  0.872300  0.206700  1.0  0.0791
  H  H44  1  0.004100  0.459000  0.836800  1.0  0.297
  H  H45  1  0.883100  0.494100  0.662300  1.0  0.0971
  H  H46  1  0.958900  0.456900  0.736800  1.0  0.0946
  H  H47  1  0.898100  0.591900  0.866500  1.0  0.0943
  H  H48  1  0.822700  0.627700  0.793300  1.0  0.0794
  H  H49  1  0.663200  0.995900  0.959000  1.0  0.3024
  H  H50  1  0.837700  0.116900  0.994100  1.0  0.0976
  H  H51  1  0.763200  0.041100  0.956900  1.0  0.0936
  H  H52  1  0.633500  0.101900  0.091900  1.0  0.0928
  H  H53  1  0.706700  0.177300  0.127700  1.0  0.0792
  H  H54  1  0.336800  0.495900  0.541000  1.0  0.3026
  H  H55  1  0.162300  0.616900  0.505900  1.0  0.097
  H  H56  1  0.236800  0.541100  0.543100  1.0  0.0942
  H  H57  1  0.366500  0.601900  0.408100  1.0  0.0933
  H  H58  1  0.293300  0.677300  0.372300  1.0  0.079
  H  H59  1  0.163200  0.504100  0.041000  1.0  0.3021
  H  H60  1  0.337700  0.383100  0.005900  1.0  0.0973
  H  H61  1  0.263200  0.458900  0.043100  1.0  0.0936
  H  H62  1  0.133500  0.398100  0.908100  1.0  0.0921
  H  H63  1  0.206700  0.322700  0.872300  1.0  0.0789
  H  H64  1  0.836800  0.004100  0.459000  1.0  0.2969
  H  H65  1  0.662300  0.883100  0.494100  1.0  0.0976
  H  H66  1  0.736800  0.958900  0.456900  1.0  0.0943
  H  H67  1  0.866500  0.898100  0.591900  1.0  0.0929
  H  H68  1  0.793300  0.822700  0.627700  1.0  0.0794
  H  H69  1  0.989800  0.452700  0.340700  1.0  0.2729
  H  H70  1  0.177500  0.614300  0.284200  1.0  0.0949
  H  H71  1  0.097300  0.585200  0.361200  1.0  0.0921
  H  H72  1  0.035600  0.443800  0.239100  1.0  0.0964
  H  H73  1  0.112200  0.472800  0.164500  1.0  0.098
  H  H74  1  0.510200  0.547300  0.840700  1.0  0.274
  H  H75  1  0.322500  0.385700  0.784200  1.0  0.0948
  H  H76  1  0.402700  0.414800  0.861200  1.0  0.0922
  H  H77  1  0.464400  0.556200  0.739100  1.0  0.0964
  H  H78  1  0.387800  0.527200  0.664500  1.0  0.0985
  H  H79  1  0.010200  0.952700  0.159300  1.0  0.274
  H  H80  1  0.822500  0.114300  0.215800  1.0  0.095
  H  H81  1  0.902700  0.085200  0.138800  1.0  0.0926
  H  H82  1  0.964400  0.943800  0.260900  1.0  0.0965
  H  H83  1  0.887800  0.972800  0.335500  1.0  0.0979
  H  H84  1  0.489800  0.047300  0.659300  1.0  0.2742
  H  H85  1  0.677500  0.885700  0.715800  1.0  0.095
  H  H86  1  0.597300  0.914800  0.638800  1.0  0.092
  H  H87  1  0.535600  0.056200  0.760900  1.0  0.0963
  H  H88  1  0.612200  0.027200  0.835500  1.0  0.0981
  H  H89  1  0.340700  0.989800  0.452700  1.0  0.2717
  H  H90  1  0.284200  0.177500  0.614300  1.0  0.0949
  H  H91  1  0.361200  0.097300  0.585200  1.0  0.0914
  H  H92  1  0.239100  0.035600  0.443800  1.0  0.0958
  H  H93  1  0.164500  0.112200  0.472800  1.0  0.0979
  H  H94  1  0.840700  0.510200  0.547300  1.0  0.273
  H  H95  1  0.784200  0.322500  0.385700  1.0  0.0953
  H  H96  1  0.861200  0.402700  0.414800  1.0  0.0919
  H  H97  1  0.739100  0.464400  0.556200  1.0  0.0961
  H  H98  1  0.664500  0.387800  0.527200  1.0  0.0982
  H  H99  1  0.159300  0.010200  0.952700  1.0  0.2719
  H  H100  1  0.215800  0.822500  0.114300  1.0  0.0956
  H  H101  1  0.138800  0.902700  0.085200  1.0  0.0911
  H  H102  1  0.260900  0.964400  0.943800  1.0  0.0957
  H  H103  1  0.335500  0.887800  0.972800  1.0  0.0979
  H  H104  1  0.659300  0.489800  0.047300  1.0  0.2731
  H  H105  1  0.715800  0.677500  0.885700  1.0  0.0952
  H  H106  1  0.638800  0.597300  0.914800  1.0  0.0913
  H  H107  1  0.760900  0.535600  0.056200  1.0  0.0957
  H  H108  1  0.835500  0.612200  0.027200  1.0  0.0982
  H  H109  1  0.452700  0.340700  0.989800  1.0  0.2726
  H  H110  1  0.614300  0.284200  0.177500  1.0  0.0958
  H  H111  1  0.585200  0.361200  0.097300  1.0  0.0925
  H  H112  1  0.443800  0.239100  0.035600  1.0  0.0952
  H  H113  1  0.472800  0.164500  0.112200  1.0  0.097
  H  H114  1  0.547300  0.840700  0.510200  1.0  0.2727
  H  H115  1  0.385700  0.784200  0.322500  1.0  0.0955
  H  H116  1  0.414800  0.861200  0.402700  1.0  0.0925
  H  H117  1  0.556200  0.739100  0.464400  1.0  0.0946
  H  H118  1  0.527200  0.664500  0.387800  1.0  0.0971
  H  H119  1  0.952700  0.159300  0.010200  1.0  0.2732
  H  H120  1  0.114300  0.215800  0.822500  1.0  0.0958
  H  H121  1  0.085200  0.138800  0.902700  1.0  0.0922
  H  H122  1  0.943800  0.260900  0.964400  1.0  0.0948
  H  H123  1  0.972800  0.335500  0.887800  1.0  0.0976
  H  H124  1  0.047300  0.659300  0.489800  1.0  0.2724
  H  H125  1  0.885700  0.715800  0.677500  1.0  0.0954
  H  H126  1  0.914800  0.638800  0.597300  1.0  0.092
  H  H127  1  0.056200  0.760900  0.535600  1.0  0.0955
  H  H128  1  0.027200  0.835500  0.612200  1.0  0.0973
  C  C129  1  0.086500  0.827900  0.207300  1.0  0.736
  C  C130  1  0.063800  0.780600  0.156600  1.0  -0.1228
  C  C131  1  0.013900  0.795900  0.114500  1.0  -0.0715
  C  C132  1  0.992100  0.751600  0.068900  1.0  -0.1706
  C  C133  1  0.020400  0.690700  0.062800  1.0  0.242
  C  C134  1  0.071600  0.675100  0.104800  1.0  -0.1646
  C  C135  1  0.092500  0.718400  0.149500  1.0  -0.0412
  C  C136  1  0.022300  0.594600  0.986800  1.0  0.4741
  C  C137  1  0.413500  0.172100  0.707300  1.0  0.7394
  C  C138  1  0.436200  0.219400  0.656600  1.0  -0.1209
  C  C139  1  0.486100  0.204100  0.614500  1.0  -0.0723
  C  C140  1  0.507900  0.248400  0.568900  1.0  -0.1722
  C  C141  1  0.479600  0.309300  0.562800  1.0  0.2415
  C  C142  1  0.428400  0.324900  0.604800  1.0  -0.165
  C  C143  1  0.407500  0.281600  0.649500  1.0  -0.0399
  C  C144  1  0.477700  0.405400  0.486800  1.0  0.4743
  C  C145  1  0.913500  0.327900  0.292700  1.0  0.7378
  C  C146  1  0.936200  0.280600  0.343400  1.0  -0.1211
  C  C147  1  0.986100  0.295900  0.385500  1.0  -0.0717
  C  C148  1  0.007900  0.251600  0.431100  1.0  -0.171
  C  C149  1  0.979600  0.190700  0.437200  1.0  0.2417
  C  C150  1  0.928400  0.175100  0.395200  1.0  -0.1649
  C  C151  1  0.907500  0.218400  0.350500  1.0  -0.0392
  C  C152  1  0.977700  0.094600  0.513200  1.0  0.4739
  C  C153  1  0.586500  0.672100  0.792700  1.0  0.7362
  C  C154  1  0.563800  0.719400  0.843400  1.0  -0.1238
  C  C155  1  0.513900  0.704100  0.885500  1.0  -0.0715
  C  C156  1  0.492100  0.748400  0.931100  1.0  -0.171
  C  C157  1  0.520400  0.809300  0.937200  1.0  0.2414
  C  C158  1  0.571600  0.824900  0.895200  1.0  -0.1649
  C  C159  1  0.592500  0.781600  0.850500  1.0  -0.0402
  C  C160  1  0.522300  0.905400  0.013200  1.0  0.4736
  C  C161  1  0.207300  0.086500  0.827900  1.0  0.7291
  C  C162  1  0.156600  0.063800  0.780600  1.0  -0.1231
  C  C163  1  0.114500  0.013900  0.795900  1.0  -0.0778
  C  C164  1  0.068900  0.992100  0.751600  1.0  -0.1713
  C  C165  1  0.062800  0.020400  0.690700  1.0  0.2419
  C  C166  1  0.104800  0.071600  0.675100  1.0  -0.1672
  C  C167  1  0.149500  0.092500  0.718400  1.0  -0.0421
  C  C168  1  0.986800  0.022300  0.594600  1.0  0.4896
  C  C169  1  0.707300  0.413500  0.172100  1.0  0.7277
  C  C170  1  0.656600  0.436200  0.219400  1.0  -0.1223
  C  C171  1  0.614500  0.486100  0.204100  1.0  -0.0757
  C  C172  1  0.568900  0.507900  0.248400  1.0  -0.1723
  C  C173  1  0.562800  0.479600  0.309300  1.0  0.2426
  C  C174  1  0.604800  0.428400  0.324900  1.0  -0.1666
  C  C175  1  0.649500  0.407500  0.281600  1.0  -0.042
  C  C176  1  0.486800  0.477700  0.405400  1.0  0.4899
  C  C177  1  0.292700  0.913500  0.327900  1.0  0.7277
  C  C178  1  0.343400  0.936200  0.280600  1.0  -0.1243
  C  C179  1  0.385500  0.986100  0.295900  1.0  -0.0769
  C  C180  1  0.431100  0.007900  0.251600  1.0  -0.1715
  C  C181  1  0.437200  0.979600  0.190700  1.0  0.2421
  C  C182  1  0.395200  0.928400  0.175100  1.0  -0.1671
  C  C183  1  0.350500  0.907500  0.218400  1.0  -0.0417
  C  C184  1  0.513200  0.977700  0.094600  1.0  0.4894
  C  C185  1  0.792700  0.586500  0.672100  1.0  0.7287
  C  C186  1  0.843400  0.563800  0.719400  1.0  -0.1251
  C  C187  1  0.885500  0.513900  0.704100  1.0  -0.0769
  C  C188  1  0.931100  0.492100  0.748400  1.0  -0.1736
  C  C189  1  0.937200  0.520400  0.809300  1.0  0.2418
  C  C190  1  0.895200  0.571600  0.824900  1.0  -0.167
  C  C191  1  0.850500  0.592500  0.781600  1.0  -0.0414
  C  C192  1  0.013200  0.522300  0.905400  1.0  0.4898
  C  C193  1  0.827900  0.207300  0.086500  1.0  0.7221
  C  C194  1  0.780600  0.156600  0.063800  1.0  -0.1184
  C  C195  1  0.795900  0.114500  0.013900  1.0  -0.0724
  C  C196  1  0.751600  0.068900  0.992100  1.0  -0.1733
  C  C197  1  0.690700  0.062800  0.020400  1.0  0.2419
  C  C198  1  0.675100  0.104800  0.071600  1.0  -0.1659
  C  C199  1  0.718400  0.149500  0.092500  1.0  -0.0393
  C  C200  1  0.594600  0.986800  0.022300  1.0  0.4748
  C  C201  1  0.172100  0.707300  0.413500  1.0  0.7245
  C  C202  1  0.219400  0.656600  0.436200  1.0  -0.1172
  C  C203  1  0.204100  0.614500  0.486100  1.0  -0.074
  C  C204  1  0.248400  0.568900  0.507900  1.0  -0.1721
  C  C205  1  0.309300  0.562800  0.479600  1.0  0.2422
  C  C206  1  0.324900  0.604800  0.428400  1.0  -0.1654
  C  C207  1  0.281600  0.649500  0.407500  1.0  -0.0391
  C  C208  1  0.405400  0.486800  0.477700  1.0  0.4755
  C  C209  1  0.327900  0.292700  0.913500  1.0  0.7224
  C  C210  1  0.280600  0.343400  0.936200  1.0  -0.1184
  C  C211  1  0.295900  0.385500  0.986100  1.0  -0.0736
  C  C212  1  0.251600  0.431100  0.007900  1.0  -0.1708
  C  C213  1  0.190700  0.437200  0.979600  1.0  0.2422
  C  C214  1  0.175100  0.395200  0.928400  1.0  -0.1659
  C  C215  1  0.218400  0.350500  0.907500  1.0  -0.0398
  C  C216  1  0.094600  0.513200  0.977700  1.0  0.4752
  C  C217  1  0.672100  0.792700  0.586500  1.0  0.7243
  C  C218  1  0.719400  0.843400  0.563800  1.0  -0.1184
  C  C219  1  0.704100  0.885500  0.513900  1.0  -0.0734
  C  C220  1  0.748400  0.931100  0.492100  1.0  -0.1719
  C  C221  1  0.809300  0.937200  0.520400  1.0  0.2424
  C  C222  1  0.824900  0.895200  0.571600  1.0  -0.1652
  C  C223  1  0.781600  0.850500  0.592500  1.0  -0.0396
  C  C224  1  0.905400  0.013200  0.522300  1.0  0.4754
  C  C225  1  0.201700  0.566500  0.166600  1.0  0.7272
  C  C226  1  0.152500  0.547500  0.216300  1.0  -0.1526
  C  C227  1  0.148100  0.579700  0.274800  1.0  -0.0376
  C  C228  1  0.100500  0.562100  0.321100  1.0  -0.1492
  C  C229  1  0.058500  0.511000  0.307900  1.0  0.2176
  C  C230  1  0.064400  0.478900  0.248700  1.0  -0.1701
  C  C231  1  0.109500  0.496100  0.204500  1.0  -0.0969
  C  C232  1  0.984000  0.517700  0.404800  1.0  0.636
  C  C233  1  0.298300  0.433500  0.666667  1.0  0.7266
  C  C234  1  0.347500  0.452500  0.716300  1.0  -0.1526
  C  C235  1  0.351900  0.420300  0.774800  1.0  -0.0379
  C  C236  1  0.399500  0.437900  0.821100  1.0  -0.1493
  C  C237  1  0.441500  0.489000  0.807900  1.0  0.2184
  C  C238  1  0.435600  0.521100  0.748700  1.0  -0.1672
  C  C239  1  0.390500  0.503900  0.704500  1.0  -0.0962
  C  C240  1  0.516000  0.482300  0.904800  1.0  0.6359
  C  C241  1  0.798300  0.066500  0.333400  1.0  0.7261
  C  C242  1  0.847500  0.047500  0.283700  1.0  -0.1525
  C  C243  1  0.851900  0.079700  0.225200  1.0  -0.0366
  C  C244  1  0.899500  0.062100  0.178900  1.0  -0.1487
  C  C245  1  0.941500  0.011000  0.192100  1.0  0.2178
  C  C246  1  0.935600  0.978900  0.251300  1.0  -0.1687
  C  C247  1  0.890500  0.996100  0.295500  1.0  -0.0974
  C  C248  1  0.016000  0.017700  0.095200  1.0  0.6352
  C  C249  1  0.701700  0.933500  0.833400  1.0  0.7275
  C  C250  1  0.652500  0.952500  0.783700  1.0  -0.1533
  C  C251  1  0.648100  0.920300  0.725200  1.0  -0.0388
  C  C252  1  0.600500  0.937900  0.678900  1.0  -0.1492
  C  C253  1  0.558500  0.989000  0.692100  1.0  0.2185
  C  C254  1  0.564400  0.021100  0.751300  1.0  -0.1692
  C  C255  1  0.609500  0.003900  0.795500  1.0  -0.0964
  C  C256  1  0.484000  0.982300  0.595200  1.0  0.6356
  C  C257  1  0.166600  0.201700  0.566500  1.0  0.7244
  C  C258  1  0.216300  0.152500  0.547500  1.0  -0.1469
  C  C259  1  0.274800  0.148100  0.579700  1.0  -0.0385
  C  C260  1  0.321100  0.100500  0.562100  1.0  -0.1479
  C  C261  1  0.307900  0.058500  0.511000  1.0  0.2185
  C  C262  1  0.248700  0.064400  0.478900  1.0  -0.1703
  C  C263  1  0.204500  0.109500  0.496100  1.0  -0.0933
  C  C264  1  0.404800  0.984000  0.517700  1.0  0.6092
  C  C265  1  0.666667  0.298300  0.433500  1.0  0.7233
  C  C266  1  0.716300  0.347500  0.452500  1.0  -0.1483
  C  C267  1  0.774800  0.351900  0.420300  1.0  -0.0387
  C  C268  1  0.821100  0.399500  0.437900  1.0  -0.1474
  C  C269  1  0.807900  0.441500  0.489000  1.0  0.2184
  C  C270  1  0.748700  0.435600  0.521100  1.0  -0.17
  C  C271  1  0.704500  0.390500  0.503900  1.0  -0.0943
  C  C272  1  0.904800  0.516000  0.482300  1.0  0.6095
  C  C273  1  0.333400  0.798300  0.066500  1.0  0.7269
  C  C274  1  0.283700  0.847500  0.047500  1.0  -0.1474
  C  C275  1  0.225200  0.851900  0.079700  1.0  -0.0386
  C  C276  1  0.178900  0.899500  0.062100  1.0  -0.1496
  C  C277  1  0.192100  0.941500  0.011000  1.0  0.2182
  C  C278  1  0.251300  0.935600  0.978900  1.0  -0.1684
  C  C279  1  0.295500  0.890500  0.996100  1.0  -0.0946
  C  C280  1  0.095200  0.016000  0.017700  1.0  0.6069
  C  C281  1  0.833400  0.701700  0.933500  1.0  0.7255
  C  C282  1  0.783700  0.652500  0.952500  1.0  -0.1473
  C  C283  1  0.725200  0.648100  0.920300  1.0  -0.0373
  C  C284  1  0.678900  0.600500  0.937900  1.0  -0.149
  C  C285  1  0.692100  0.558500  0.989000  1.0  0.2181
  C  C286  1  0.751300  0.564400  0.021100  1.0  -0.1664
  C  C287  1  0.795500  0.609500  0.003900  1.0  -0.0937
  C  C288  1  0.595200  0.484000  0.982300  1.0  0.6075
  C  C289  1  0.566500  0.166600  0.201700  1.0  0.7279
  C  C290  1  0.547500  0.216300  0.152500  1.0  -0.1501
  C  C291  1  0.579700  0.274800  0.148100  1.0  -0.0379
  C  C292  1  0.562100  0.321100  0.100500  1.0  -0.1477
  C  C293  1  0.511000  0.307900  0.058500  1.0  0.2178
  C  C294  1  0.478900  0.248700  0.064400  1.0  -0.1677
  C  C295  1  0.496100  0.204500  0.109500  1.0  -0.0895
  C  C296  1  0.517700  0.404800  0.984000  1.0  0.6355
  C  C297  1  0.433500  0.666667  0.298300  1.0  0.73
  C  C298  1  0.452500  0.716300  0.347500  1.0  -0.1504
  C  C299  1  0.420300  0.774800  0.351900  1.0  -0.0365
  C  C300  1  0.437900  0.821100  0.399500  1.0  -0.1476
  C  C301  1  0.489000  0.807900  0.441500  1.0  0.2177
  C  C302  1  0.521100  0.748700  0.435600  1.0  -0.1654
  C  C303  1  0.503900  0.704500  0.390500  1.0  -0.0914
  C  C304  1  0.482300  0.904800  0.516000  1.0  0.6335
  C  C305  1  0.066500  0.333400  0.798300  1.0  0.7298
  C  C306  1  0.047500  0.283700  0.847500  1.0  -0.1502
  C  C307  1  0.079700  0.225200  0.851900  1.0  -0.0369
  C  C308  1  0.062100  0.178900  0.899500  1.0  -0.1483
  C  C309  1  0.011000  0.192100  0.941500  1.0  0.2179
  C  C310  1  0.978900  0.251300  0.935600  1.0  -0.1683
  C  C311  1  0.996100  0.295500  0.890500  1.0  -0.09
  C  C312  1  0.017700  0.095200  0.016000  1.0  0.6356
  C  C313  1  0.933500  0.833400  0.701700  1.0  0.729
  C  C314  1  0.952500  0.783700  0.652500  1.0  -0.1515
  C  C315  1  0.920300  0.725200  0.648100  1.0  -0.0376
  C  C316  1  0.937900  0.678900  0.600500  1.0  -0.1482
  C  C317  1  0.989000  0.692100  0.558500  1.0  0.2185
  C  C318  1  0.021100  0.751300  0.564400  1.0  -0.1662
  C  C319  1  0.003900  0.795500  0.609500  1.0  -0.0907
  C  C320  1  0.982300  0.595200  0.484000  1.0  0.6346
  N  N321  1  0.996300  0.650700  0.013000  1.0  -0.3307
  N  N322  1  0.988800  0.574500  0.932000  1.0  -0.5821
  N  N323  1  0.503700  0.349300  0.513000  1.0  -0.3301
  N  N324  1  0.511200  0.425500  0.432000  1.0  -0.5816
  N  N325  1  0.003700  0.150700  0.487000  1.0  -0.3306
  N  N326  1  0.011200  0.074500  0.568000  1.0  -0.5817
  N  N327  1  0.496300  0.849300  0.987000  1.0  -0.3315
  N  N328  1  0.488800  0.925500  0.068000  1.0  -0.5826
  N  N329  1  0.013000  0.996300  0.650700  1.0  -0.3304
  N  N330  1  0.932000  0.988800  0.574500  1.0  -0.5811
  N  N331  1  0.513000  0.503700  0.349300  1.0  -0.3299
  N  N332  1  0.432000  0.511200  0.425500  1.0  -0.5808
  N  N333  1  0.487000  0.003700  0.150700  1.0  -0.3294
  N  N334  1  0.568000  0.011200  0.074500  1.0  -0.5807
  N  N335  1  0.987000  0.496300  0.849300  1.0  -0.33
  N  N336  1  0.068000  0.488800  0.925500  1.0  -0.5806
  N  N337  1  0.650700  0.013000  0.996300  1.0  -0.332
  N  N338  1  0.574500  0.932000  0.988800  1.0  -0.5833
  N  N339  1  0.349300  0.513000  0.503700  1.0  -0.3338
  N  N340  1  0.425500  0.432000  0.511200  1.0  -0.5846
  N  N341  1  0.150700  0.487000  0.003700  1.0  -0.3313
  N  N342  1  0.074500  0.568000  0.011200  1.0  -0.5832
  N  N343  1  0.849300  0.987000  0.496300  1.0  -0.3332
  N  N344  1  0.925500  0.068000  0.488800  1.0  -0.584
  N  N345  1  0.008100  0.490100  0.351300  1.0  -0.3901
  N  N346  1  0.011700  0.571600  0.429400  1.0  -0.5633
  N  N347  1  0.491900  0.509900  0.851300  1.0  -0.3899
  N  N348  1  0.488300  0.428400  0.929400  1.0  -0.5663
  N  N349  1  0.991900  0.990100  0.148700  1.0  -0.3913
  N  N350  1  0.988300  0.071600  0.070600  1.0  -0.5659
  N  N351  1  0.508100  0.009900  0.648700  1.0  -0.3898
  N  N352  1  0.511700  0.928400  0.570600  1.0  -0.5641
  N  N353  1  0.351300  0.008100  0.490100  1.0  -0.3916
  N  N354  1  0.429400  0.011700  0.571600  1.0  -0.5657
  N  N355  1  0.851300  0.491900  0.509900  1.0  -0.3898
  N  N356  1  0.929400  0.488300  0.428400  1.0  -0.5662
  N  N357  1  0.148700  0.991900  0.990100  1.0  -0.3909
  N  N358  1  0.070600  0.988300  0.071600  1.0  -0.5658
  N  N359  1  0.648700  0.508100  0.009900  1.0  -0.3899
  N  N360  1  0.570600  0.511700  0.928400  1.0  -0.5654
  N  N361  1  0.490100  0.351300  0.008100  1.0  -0.3913
  N  N362  1  0.571600  0.429400  0.011700  1.0  -0.5647
  N  N363  1  0.509900  0.851300  0.491900  1.0  -0.3899
  N  N364  1  0.428400  0.929400  0.488300  1.0  -0.5638
  N  N365  1  0.990100  0.148700  0.991900  1.0  -0.3913
  N  N366  1  0.071600  0.070600  0.988300  1.0  -0.5634
  N  N367  1  0.009900  0.648700  0.508100  1.0  -0.3898
  N  N368  1  0.928400  0.570600  0.511700  1.0  -0.5644
  O  O369  1  0.133400  0.810100  0.242500  1.0  -0.6175
  O  O370  1  0.058700  0.881500  0.211700  1.0  -0.5881
  O  O371  1  0.366600  0.189900  0.742500  1.0  -0.6181
  O  O372  1  0.441300  0.118500  0.711700  1.0  -0.5876
  O  O373  1  0.866600  0.310100  0.257500  1.0  -0.6186
  O  O374  1  0.941300  0.381500  0.288300  1.0  -0.5864
  O  O375  1  0.633400  0.689900  0.757500  1.0  -0.618
  O  O376  1  0.558700  0.618500  0.788300  1.0  -0.5872
  O  O377  1  0.242500  0.133400  0.810100  1.0  -0.6196
  O  O378  1  0.211700  0.058700  0.881500  1.0  -0.5905
  O  O379  1  0.742500  0.366600  0.189900  1.0  -0.6211
  O  O380  1  0.711700  0.441300  0.118500  1.0  -0.5889
  O  O381  1  0.257500  0.866600  0.310100  1.0  -0.6202
  O  O382  1  0.288300  0.941300  0.381500  1.0  -0.5905
  O  O383  1  0.757500  0.633400  0.689900  1.0  -0.6191
  O  O384  1  0.788300  0.558700  0.618500  1.0  -0.5897
  O  O385  1  0.810100  0.242500  0.133400  1.0  -0.619
  O  O386  1  0.881500  0.211700  0.058700  1.0  -0.5939
  O  O387  1  0.189900  0.742500  0.366600  1.0  -0.6201
  O  O388  1  0.118500  0.711700  0.441300  1.0  -0.5945
  O  O389  1  0.310100  0.257500  0.866600  1.0  -0.6198
  O  O390  1  0.381500  0.288300  0.941300  1.0  -0.5938
  O  O391  1  0.689900  0.757500  0.633400  1.0  -0.6204
  O  O392  1  0.618500  0.788300  0.558700  1.0  -0.5946
  O  O393  1  0.235300  0.617800  0.180400  1.0  -0.7658
  O  O394  1  0.208600  0.534200  0.116000  1.0  -0.5767
  O  O395  1  0.264700  0.382200  0.680400  1.0  -0.7716
  O  O396  1  0.291400  0.465800  0.616000  1.0  -0.5778
  O  O397  1  0.764700  0.117800  0.319600  1.0  -0.766
  O  O398  1  0.791400  0.034200  0.384000  1.0  -0.5809
  O  O399  1  0.735300  0.882200  0.819600  1.0  -0.7641
  O  O400  1  0.708600  0.965800  0.884000  1.0  -0.577
  O  O401  1  0.180400  0.235300  0.617800  1.0  -0.7711
  O  O402  1  0.116000  0.208600  0.534200  1.0  -0.579
  O  O403  1  0.680400  0.264700  0.382200  1.0  -0.777
  O  O404  1  0.616000  0.291400  0.465800  1.0  -0.5802
  O  O405  1  0.319600  0.764700  0.117800  1.0  -0.7712
  O  O406  1  0.384000  0.791400  0.034200  1.0  -0.5847
  O  O407  1  0.819600  0.735300  0.882200  1.0  -0.7704
  O  O408  1  0.884000  0.708600  0.965800  1.0  -0.5795
  O  O409  1  0.617800  0.180400  0.235300  1.0  -0.7663
  O  O410  1  0.534200  0.116000  0.208600  1.0  -0.5774
  O  O411  1  0.382200  0.680400  0.264700  1.0  -0.7759
  O  O412  1  0.465800  0.616000  0.291400  1.0  -0.5803
  O  O413  1  0.117800  0.319600  0.764700  1.0  -0.7677
  O  O414  1  0.034200  0.384000  0.791400  1.0  -0.5806
  O  O415  1  0.882200  0.819600  0.735300  1.0  -0.766
  O  O416  1  0.965800  0.884000  0.708600  1.0  -0.5781
