# generated using pymatgen
data_TbH15C24(NO)6
_symmetry_space_group_name_H-M   'P 1'
_cell_length_a   20.43910000
_cell_length_b   20.43910000
_cell_length_c   20.43910000
_cell_angle_alpha   90.00000000
_cell_angle_beta   90.00000000
_cell_angle_gamma   90.00000000
_symmetry_Int_Tables_number   1
_chemical_formula_structural   TbH15C24(NO)6
_chemical_formula_sum   'Tb8 H120 C192 N48 O48'
_cell_volume   8538.57319095
_cell_formula_units_Z   8
loop_
 _symmetry_equiv_pos_site_id
 _symmetry_equiv_pos_as_xyz
  1  'x, y, z'
loop_
 _atom_site_type_symbol
 _atom_site_label
 _atom_site_symmetry_multiplicity
 _atom_site_fract_x
 _atom_site_fract_y
 _atom_site_fract_z
 _atom_site_occupancy
 _atom_site_charge
  Tb  Tb1  1  0.154660  0.845340  0.345340  1.0  2.0224
  Tb  Tb2  1  0.345340  0.154660  0.845340  1.0  2.0232
  Tb  Tb3  1  0.845340  0.345340  0.154660  1.0  2.0343
  Tb  Tb4  1  0.654660  0.654660  0.654660  1.0  2.0329
  Tb  Tb5  1  0.333220  0.666780  0.166780  1.0  1.8502
  Tb  Tb6  1  0.166780  0.333220  0.666780  1.0  1.849
  Tb  Tb7  1  0.666780  0.166780  0.333220  1.0  1.8499
  Tb  Tb8  1  0.833220  0.833220  0.833220  1.0  1.852
  H  H9  1  0.958000  0.662300  0.996500  1.0  0.306
  H  H10  1  0.992900  0.837400  0.117900  1.0  0.0979
  H  H11  1  0.955400  0.763500  0.041400  1.0  0.1108
  H  H12  1  0.092900  0.633500  0.102100  1.0  0.1083
  H  H13  1  0.126600  0.707600  0.179900  1.0  0.0865
  H  H14  1  0.542000  0.337700  0.496500  1.0  0.3053
  H  H15  1  0.507100  0.162600  0.617900  1.0  0.0981
  H  H16  1  0.544600  0.236500  0.541400  1.0  0.11
  H  H17  1  0.407100  0.366500  0.602100  1.0  0.1086
  H  H18  1  0.373400  0.292400  0.679900  1.0  0.0866
  H  H19  1  0.042000  0.162300  0.503500  1.0  0.3048
  H  H20  1  0.007100  0.337400  0.382100  1.0  0.098
  H  H21  1  0.044600  0.263500  0.458600  1.0  0.1099
  H  H22  1  0.907100  0.133500  0.397900  1.0  0.108
  H  H23  1  0.873400  0.207600  0.320100  1.0  0.0863
  H  H24  1  0.458000  0.837700  0.003500  1.0  0.3056
  H  H25  1  0.492900  0.662600  0.882100  1.0  0.0978
  H  H26  1  0.455400  0.736500  0.958600  1.0  0.1105
  H  H27  1  0.592900  0.866500  0.897900  1.0  0.1084
  H  H28  1  0.626600  0.792400  0.820100  1.0  0.0862
  H  H29  1  0.996500  0.958000  0.662300  1.0  0.3068
  H  H30  1  0.117900  0.992900  0.837400  1.0  0.0984
  H  H31  1  0.041400  0.955400  0.763500  1.0  0.1118
  H  H32  1  0.102100  0.092900  0.633500  1.0  0.1089
  H  H33  1  0.179900  0.126600  0.707600  1.0  0.0861
  H  H34  1  0.496500  0.542000  0.337700  1.0  0.3059
  H  H35  1  0.617900  0.507100  0.162600  1.0  0.098
  H  H36  1  0.541400  0.544600  0.236500  1.0  0.1125
  H  H37  1  0.602100  0.407100  0.366500  1.0  0.1086
  H  H38  1  0.679900  0.373400  0.292400  1.0  0.0861
  H  H39  1  0.503500  0.042000  0.162300  1.0  0.3067
  H  H40  1  0.382100  0.007100  0.337400  1.0  0.0982
  H  H41  1  0.458600  0.044600  0.263500  1.0  0.112
  H  H42  1  0.397900  0.907100  0.133500  1.0  0.1087
  H  H43  1  0.320100  0.873400  0.207600  1.0  0.0861
  H  H44  1  0.003500  0.458000  0.837700  1.0  0.3063
  H  H45  1  0.882100  0.492900  0.662600  1.0  0.0989
  H  H46  1  0.958600  0.455400  0.736500  1.0  0.1115
  H  H47  1  0.897900  0.592900  0.866500  1.0  0.1084
  H  H48  1  0.820100  0.626600  0.792400  1.0  0.0862
  H  H49  1  0.662300  0.996500  0.958000  1.0  0.3058
  H  H50  1  0.837400  0.117900  0.992900  1.0  0.0994
  H  H51  1  0.763500  0.041400  0.955400  1.0  0.1108
  H  H52  1  0.633500  0.102100  0.092900  1.0  0.1075
  H  H53  1  0.707600  0.179900  0.126600  1.0  0.0856
  H  H54  1  0.337700  0.496500  0.542000  1.0  0.3059
  H  H55  1  0.162600  0.617900  0.507100  1.0  0.0989
  H  H56  1  0.236500  0.541400  0.544600  1.0  0.1115
  H  H57  1  0.366500  0.602100  0.407100  1.0  0.1077
  H  H58  1  0.292400  0.679900  0.373400  1.0  0.086
  H  H59  1  0.162300  0.503500  0.042000  1.0  0.3059
  H  H60  1  0.337400  0.382100  0.007100  1.0  0.0988
  H  H61  1  0.263500  0.458600  0.044600  1.0  0.111
  H  H62  1  0.133500  0.397900  0.907100  1.0  0.1079
  H  H63  1  0.207600  0.320100  0.873400  1.0  0.0859
  H  H64  1  0.837700  0.003500  0.458000  1.0  0.3055
  H  H65  1  0.662600  0.882100  0.492900  1.0  0.0996
  H  H66  1  0.736500  0.958600  0.455400  1.0  0.1114
  H  H67  1  0.866500  0.897900  0.592900  1.0  0.1074
  H  H68  1  0.792400  0.820100  0.626600  1.0  0.0861
  H  H69  1  0.991000  0.452100  0.339800  1.0  0.2669
  H  H70  1  0.177900  0.614500  0.285000  1.0  0.0884
  H  H71  1  0.098700  0.584600  0.362400  1.0  0.1024
  H  H72  1  0.035800  0.442400  0.239600  1.0  0.11
  H  H73  1  0.113900  0.473100  0.163300  1.0  0.1068
  H  H74  1  0.509000  0.547900  0.839800  1.0  0.2678
  H  H75  1  0.322100  0.385500  0.785000  1.0  0.0883
  H  H76  1  0.401300  0.415400  0.862400  1.0  0.1027
  H  H77  1  0.464200  0.557600  0.739600  1.0  0.1099
  H  H78  1  0.386100  0.526900  0.663300  1.0  0.1071
  H  H79  1  0.009000  0.952100  0.160200  1.0  0.2672
  H  H80  1  0.822100  0.114500  0.215000  1.0  0.0885
  H  H81  1  0.901300  0.084600  0.137600  1.0  0.1033
  H  H82  1  0.964200  0.942400  0.260400  1.0  0.1098
  H  H83  1  0.886100  0.973100  0.336700  1.0  0.107
  H  H84  1  0.491000  0.047900  0.660200  1.0  0.2678
  H  H85  1  0.677900  0.885500  0.715000  1.0  0.0886
  H  H86  1  0.598700  0.915400  0.637600  1.0  0.1027
  H  H87  1  0.535800  0.057600  0.760400  1.0  0.1099
  H  H88  1  0.613900  0.026900  0.836700  1.0  0.1068
  H  H89  1  0.339800  0.991000  0.452100  1.0  0.2669
  H  H90  1  0.285000  0.177900  0.614500  1.0  0.088
  H  H91  1  0.362400  0.098700  0.584600  1.0  0.1025
  H  H92  1  0.239600  0.035800  0.442400  1.0  0.11
  H  H93  1  0.163300  0.113900  0.473100  1.0  0.1071
  H  H94  1  0.839800  0.509000  0.547900  1.0  0.267
  H  H95  1  0.785000  0.322100  0.385500  1.0  0.0884
  H  H96  1  0.862400  0.401300  0.415400  1.0  0.103
  H  H97  1  0.739600  0.464200  0.557600  1.0  0.1103
  H  H98  1  0.663300  0.386100  0.526900  1.0  0.107
  H  H99  1  0.160200  0.009000  0.952100  1.0  0.2661
  H  H100  1  0.215000  0.822100  0.114500  1.0  0.0886
  H  H101  1  0.137600  0.901300  0.084600  1.0  0.1022
  H  H102  1  0.260400  0.964200  0.942400  1.0  0.1095
  H  H103  1  0.336700  0.886100  0.973100  1.0  0.1067
  H  H104  1  0.660200  0.491000  0.047900  1.0  0.2658
  H  H105  1  0.715000  0.677900  0.885500  1.0  0.0886
  H  H106  1  0.637600  0.598700  0.915400  1.0  0.1027
  H  H107  1  0.760400  0.535800  0.057600  1.0  0.1092
  H  H108  1  0.836700  0.613900  0.026900  1.0  0.107
  H  H109  1  0.452100  0.339800  0.991000  1.0  0.2657
  H  H110  1  0.614500  0.285000  0.177900  1.0  0.0888
  H  H111  1  0.584600  0.362400  0.098700  1.0  0.1033
  H  H112  1  0.442400  0.239600  0.035800  1.0  0.1089
  H  H113  1  0.473100  0.163300  0.113900  1.0  0.1058
  H  H114  1  0.547900  0.839800  0.509000  1.0  0.267
  H  H115  1  0.385500  0.785000  0.322100  1.0  0.0889
  H  H116  1  0.415400  0.862400  0.401300  1.0  0.1034
  H  H117  1  0.557600  0.739600  0.464200  1.0  0.1078
  H  H118  1  0.526900  0.663300  0.386100  1.0  0.1062
  H  H119  1  0.952100  0.160200  0.009000  1.0  0.2655
  H  H120  1  0.114500  0.215000  0.822100  1.0  0.0886
  H  H121  1  0.084600  0.137600  0.901300  1.0  0.1028
  H  H122  1  0.942400  0.260400  0.964200  1.0  0.1087
  H  H123  1  0.973100  0.336700  0.886100  1.0  0.1061
  H  H124  1  0.047900  0.660200  0.491000  1.0  0.2669
  H  H125  1  0.885500  0.715000  0.677900  1.0  0.089
  H  H126  1  0.915400  0.637600  0.598700  1.0  0.1026
  H  H127  1  0.057600  0.760400  0.535800  1.0  0.1091
  H  H128  1  0.026900  0.836700  0.613900  1.0  0.1065
  C  C129  1  0.086300  0.828900  0.206300  1.0  0.72
  C  C130  1  0.063800  0.781000  0.156500  1.0  -0.1253
  C  C131  1  0.013200  0.795700  0.114900  1.0  -0.0561
  C  C132  1  0.990900  0.751900  0.069100  1.0  -0.2125
  C  C133  1  0.020100  0.690600  0.063000  1.0  0.2424
  C  C134  1  0.071900  0.674800  0.105200  1.0  -0.1626
  C  C135  1  0.092100  0.719200  0.150900  1.0  -0.0215
  C  C136  1  0.021500  0.594500  0.987300  1.0  0.3471
  C  C137  1  0.413700  0.171100  0.706300  1.0  0.7207
  C  C138  1  0.436200  0.219000  0.656500  1.0  -0.1236
  C  C139  1  0.486800  0.204300  0.614900  1.0  -0.0559
  C  C140  1  0.509100  0.248100  0.569100  1.0  -0.2118
  C  C141  1  0.479900  0.309400  0.563000  1.0  0.2418
  C  C142  1  0.428100  0.325200  0.605200  1.0  -0.162
  C  C143  1  0.407900  0.280800  0.650900  1.0  -0.0199
  C  C144  1  0.478500  0.405500  0.487300  1.0  0.3472
  C  C145  1  0.913700  0.328900  0.293700  1.0  0.7216
  C  C146  1  0.936200  0.281000  0.343500  1.0  -0.1231
  C  C147  1  0.986800  0.295700  0.385100  1.0  -0.0544
  C  C148  1  0.009100  0.251900  0.430900  1.0  -0.2107
  C  C149  1  0.979900  0.190600  0.437000  1.0  0.2416
  C  C150  1  0.928100  0.174800  0.394800  1.0  -0.1629
  C  C151  1  0.907900  0.219200  0.349100  1.0  -0.0199
  C  C152  1  0.978500  0.094500  0.512700  1.0  0.3464
  C  C153  1  0.586300  0.671100  0.793700  1.0  0.7207
  C  C154  1  0.563800  0.719000  0.843500  1.0  -0.1252
  C  C155  1  0.513200  0.704300  0.885100  1.0  -0.0566
  C  C156  1  0.490900  0.748100  0.930900  1.0  -0.2128
  C  C157  1  0.520100  0.809400  0.937000  1.0  0.2421
  C  C158  1  0.571900  0.825200  0.894800  1.0  -0.162
  C  C159  1  0.592100  0.780800  0.849100  1.0  -0.0209
  C  C160  1  0.521500  0.905500  0.012700  1.0  0.3466
  C  C161  1  0.206300  0.086300  0.828900  1.0  0.712
  C  C162  1  0.156500  0.063800  0.781000  1.0  -0.1253
  C  C163  1  0.114900  0.013200  0.795700  1.0  -0.0626
  C  C164  1  0.069100  0.990900  0.751900  1.0  -0.2156
  C  C165  1  0.063000  0.020100  0.690600  1.0  0.2418
  C  C166  1  0.105200  0.071900  0.674800  1.0  -0.1641
  C  C167  1  0.150900  0.092100  0.719200  1.0  -0.021
  C  C168  1  0.987300  0.021500  0.594500  1.0  0.3551
  C  C169  1  0.706300  0.413700  0.171100  1.0  0.7104
  C  C170  1  0.656500  0.436200  0.219000  1.0  -0.1248
  C  C171  1  0.614900  0.486800  0.204300  1.0  -0.0616
  C  C172  1  0.569100  0.509100  0.248100  1.0  -0.214
  C  C173  1  0.563000  0.479900  0.309400  1.0  0.2428
  C  C174  1  0.605200  0.428100  0.325200  1.0  -0.1647
  C  C175  1  0.650900  0.407900  0.280800  1.0  -0.0217
  C  C176  1  0.487300  0.478500  0.405500  1.0  0.3559
  C  C177  1  0.293700  0.913700  0.328900  1.0  0.7105
  C  C178  1  0.343500  0.936200  0.281000  1.0  -0.1261
  C  C179  1  0.385100  0.986800  0.295700  1.0  -0.061
  C  C180  1  0.430900  0.009100  0.251900  1.0  -0.2123
  C  C181  1  0.437000  0.979900  0.190600  1.0  0.2422
  C  C182  1  0.394800  0.928100  0.174800  1.0  -0.1639
  C  C183  1  0.349100  0.907900  0.219200  1.0  -0.0213
  C  C184  1  0.512700  0.978500  0.094500  1.0  0.3546
  C  C185  1  0.793700  0.586300  0.671100  1.0  0.7109
  C  C186  1  0.843500  0.563800  0.719000  1.0  -0.1269
  C  C187  1  0.885100  0.513200  0.704300  1.0  -0.0628
  C  C188  1  0.930900  0.490900  0.748100  1.0  -0.2134
  C  C189  1  0.937000  0.520100  0.809400  1.0  0.2416
  C  C190  1  0.894800  0.571900  0.825200  1.0  -0.1644
  C  C191  1  0.849100  0.592100  0.780800  1.0  -0.0203
  C  C192  1  0.012700  0.521500  0.905500  1.0  0.3557
  C  C193  1  0.828900  0.206300  0.086300  1.0  0.7103
  C  C194  1  0.781000  0.156500  0.063800  1.0  -0.1192
  C  C195  1  0.795700  0.114900  0.013200  1.0  -0.0586
  C  C196  1  0.751900  0.069100  0.990900  1.0  -0.2136
  C  C197  1  0.690600  0.063000  0.020100  1.0  0.2418
  C  C198  1  0.674800  0.105200  0.071900  1.0  -0.1636
  C  C199  1  0.719200  0.150900  0.092100  1.0  -0.0199
  C  C200  1  0.594500  0.987300  0.021500  1.0  0.3454
  C  C201  1  0.171100  0.706300  0.413700  1.0  0.7117
  C  C202  1  0.219000  0.656500  0.436200  1.0  -0.1188
  C  C203  1  0.204300  0.614900  0.486800  1.0  -0.0591
  C  C204  1  0.248100  0.569100  0.509100  1.0  -0.2153
  C  C205  1  0.309400  0.563000  0.479900  1.0  0.2421
  C  C206  1  0.325200  0.605200  0.428100  1.0  -0.163
  C  C207  1  0.280800  0.650900  0.407900  1.0  -0.0201
  C  C208  1  0.405500  0.487300  0.478500  1.0  0.3473
  C  C209  1  0.328900  0.293700  0.913700  1.0  0.7108
  C  C210  1  0.281000  0.343500  0.936200  1.0  -0.1204
  C  C211  1  0.295700  0.385100  0.986800  1.0  -0.0584
  C  C212  1  0.251900  0.430900  0.009100  1.0  -0.2126
  C  C213  1  0.190600  0.437000  0.979900  1.0  0.242
  C  C214  1  0.174800  0.394800  0.928100  1.0  -0.1636
  C  C215  1  0.219200  0.349100  0.907900  1.0  -0.021
  C  C216  1  0.094500  0.512700  0.978500  1.0  0.3461
  C  C217  1  0.671100  0.793700  0.586300  1.0  0.711
  C  C218  1  0.719000  0.843500  0.563800  1.0  -0.12
  C  C219  1  0.704300  0.885100  0.513200  1.0  -0.0593
  C  C220  1  0.748100  0.930900  0.490900  1.0  -0.2136
  C  C221  1  0.809400  0.937000  0.520100  1.0  0.2423
  C  C222  1  0.825200  0.894800  0.571900  1.0  -0.1627
  C  C223  1  0.780800  0.849100  0.592100  1.0  -0.0202
  C  C224  1  0.905500  0.012700  0.521500  1.0  0.3468
  C  C225  1  0.202700  0.567800  0.166700  1.0  0.7494
  C  C226  1  0.153600  0.547900  0.216600  1.0  -0.1483
  C  C227  1  0.148600  0.579600  0.275500  1.0  -0.0171
  C  C228  1  0.101500  0.561900  0.322000  1.0  -0.1799
  C  C229  1  0.059000  0.510700  0.308200  1.0  0.2566
  C  C230  1  0.064400  0.477800  0.249000  1.0  -0.1602
  C  C231  1  0.110800  0.496000  0.203700  1.0  -0.0563
  C  C232  1  0.984800  0.517200  0.405600  1.0  0.6194
  C  C233  1  0.297300  0.432200  0.666667  1.0  0.7492
  C  C234  1  0.346400  0.452100  0.716600  1.0  -0.1484
  C  C235  1  0.351400  0.420400  0.775500  1.0  -0.0179
  C  C236  1  0.398500  0.438100  0.822000  1.0  -0.1802
  C  C237  1  0.441000  0.489300  0.808200  1.0  0.2565
  C  C238  1  0.435600  0.522200  0.749000  1.0  -0.1604
  C  C239  1  0.389200  0.504000  0.703700  1.0  -0.0564
  C  C240  1  0.515200  0.482800  0.905600  1.0  0.6192
  C  C241  1  0.797300  0.067800  0.333333  1.0  0.7487
  C  C242  1  0.846400  0.047900  0.283400  1.0  -0.1487
  C  C243  1  0.851400  0.079600  0.224500  1.0  -0.0158
  C  C244  1  0.898500  0.061900  0.178000  1.0  -0.1791
  C  C245  1  0.941000  0.010700  0.191800  1.0  0.256
  C  C246  1  0.935600  0.977800  0.251000  1.0  -0.161
  C  C247  1  0.889200  0.996000  0.296300  1.0  -0.0569
  C  C248  1  0.015200  0.017200  0.094400  1.0  0.6193
  C  C249  1  0.702700  0.932200  0.833300  1.0  0.7498
  C  C250  1  0.653600  0.952100  0.783400  1.0  -0.1483
  C  C251  1  0.648600  0.920400  0.724500  1.0  -0.0176
  C  C252  1  0.601500  0.938100  0.678000  1.0  -0.1801
  C  C253  1  0.559000  0.989300  0.691800  1.0  0.2572
  C  C254  1  0.564400  0.022200  0.751000  1.0  -0.1601
  C  C255  1  0.610800  0.004000  0.796300  1.0  -0.0565
  C  C256  1  0.484800  0.982800  0.594400  1.0  0.6195
  C  C257  1  0.166700  0.202700  0.567800  1.0  0.7505
  C  C258  1  0.216600  0.153600  0.547900  1.0  -0.1442
  C  C259  1  0.275500  0.148600  0.579600  1.0  -0.0182
  C  C260  1  0.322000  0.101500  0.561900  1.0  -0.1787
  C  C261  1  0.308200  0.059000  0.510700  1.0  0.2572
  C  C262  1  0.249000  0.064400  0.477800  1.0  -0.1619
  C  C263  1  0.203700  0.110800  0.496000  1.0  -0.0552
  C  C264  1  0.405600  0.984800  0.517200  1.0  0.5971
  C  C265  1  0.666667  0.297300  0.432200  1.0  0.7485
  C  C266  1  0.716600  0.346400  0.452100  1.0  -0.1456
  C  C267  1  0.775500  0.351400  0.420400  1.0  -0.017
  C  C268  1  0.822000  0.398500  0.438100  1.0  -0.1789
  C  C269  1  0.808200  0.441000  0.489300  1.0  0.257
  C  C270  1  0.749000  0.435600  0.522200  1.0  -0.1612
  C  C271  1  0.703700  0.389200  0.504000  1.0  -0.0553
  C  C272  1  0.905600  0.515200  0.482800  1.0  0.5973
  C  C273  1  0.333333  0.797300  0.067800  1.0  0.7497
  C  C274  1  0.283400  0.846400  0.047900  1.0  -0.1454
  C  C275  1  0.224500  0.851400  0.079600  1.0  -0.0182
  C  C276  1  0.178000  0.898500  0.061900  1.0  -0.1795
  C  C277  1  0.191800  0.941000  0.010700  1.0  0.2573
  C  C278  1  0.251000  0.935600  0.977800  1.0  -0.1616
  C  C279  1  0.296300  0.889200  0.996000  1.0  -0.0558
  C  C280  1  0.094400  0.015200  0.017200  1.0  0.5956
  C  C281  1  0.833300  0.702700  0.932200  1.0  0.7513
  C  C282  1  0.783400  0.653600  0.952100  1.0  -0.1452
  C  C283  1  0.724500  0.648600  0.920400  1.0  -0.0174
  C  C284  1  0.678000  0.601500  0.938100  1.0  -0.1799
  C  C285  1  0.691800  0.559000  0.989300  1.0  0.2573
  C  C286  1  0.751000  0.564400  0.022200  1.0  -0.1598
  C  C287  1  0.796300  0.610800  0.004000  1.0  -0.0544
  C  C288  1  0.594400  0.484800  0.982800  1.0  0.5958
  C  C289  1  0.567800  0.166700  0.202700  1.0  0.7519
  C  C290  1  0.547900  0.216600  0.153600  1.0  -0.1465
  C  C291  1  0.579600  0.275500  0.148600  1.0  -0.0188
  C  C292  1  0.561900  0.322000  0.101500  1.0  -0.1816
  C  C293  1  0.510700  0.308200  0.059000  1.0  0.2569
  C  C294  1  0.477800  0.249000  0.064400  1.0  -0.1607
  C  C295  1  0.496000  0.203700  0.110800  1.0  -0.0507
  C  C296  1  0.517200  0.405600  0.984800  1.0  0.6196
  C  C297  1  0.432200  0.666667  0.297300  1.0  0.7527
  C  C298  1  0.452100  0.716600  0.346400  1.0  -0.147
  C  C299  1  0.420400  0.775500  0.351400  1.0  -0.0179
  C  C300  1  0.438100  0.822000  0.398500  1.0  -0.1801
  C  C301  1  0.489300  0.808200  0.441000  1.0  0.2565
  C  C302  1  0.522200  0.749000  0.435600  1.0  -0.1594
  C  C303  1  0.504000  0.703700  0.389200  1.0  -0.0525
  C  C304  1  0.482800  0.905600  0.515200  1.0  0.618
  C  C305  1  0.067800  0.333333  0.797300  1.0  0.753
  C  C306  1  0.047900  0.283400  0.846400  1.0  -0.1463
  C  C307  1  0.079600  0.224500  0.851400  1.0  -0.0182
  C  C308  1  0.061900  0.178000  0.898500  1.0  -0.182
  C  C309  1  0.010700  0.191800  0.941000  1.0  0.2567
  C  C310  1  0.977800  0.251000  0.935600  1.0  -0.1608
  C  C311  1  0.996000  0.296300  0.889200  1.0  -0.0522
  C  C312  1  0.017200  0.094400  0.015200  1.0  0.6195
  C  C313  1  0.932200  0.833300  0.702700  1.0  0.7538
  C  C314  1  0.952100  0.783400  0.653600  1.0  -0.1476
  C  C315  1  0.920400  0.724500  0.648600  1.0  -0.0179
  C  C316  1  0.938100  0.678000  0.601500  1.0  -0.181
  C  C317  1  0.989300  0.691800  0.559000  1.0  0.2571
  C  C318  1  0.022200  0.751000  0.564400  1.0  -0.1601
  C  C319  1  0.004000  0.796300  0.610800  1.0  -0.051
  C  C320  1  0.982800  0.594400  0.484800  1.0  0.6188
  N  N321  1  0.995700  0.650000  0.013300  1.0  -0.3945
  N  N322  1  0.987700  0.574100  0.932800  1.0  -0.6025
  N  N323  1  0.504300  0.350000  0.513300  1.0  -0.3946
  N  N324  1  0.512300  0.425900  0.432800  1.0  -0.6033
  N  N325  1  0.004300  0.150000  0.486700  1.0  -0.3941
  N  N326  1  0.012300  0.074100  0.567200  1.0  -0.6024
  N  N327  1  0.495700  0.850000  0.986700  1.0  -0.3944
  N  N328  1  0.487700  0.925900  0.067200  1.0  -0.6029
  N  N329  1  0.013300  0.995700  0.650000  1.0  -0.3946
  N  N330  1  0.932800  0.987700  0.574100  1.0  -0.6029
  N  N331  1  0.513300  0.504300  0.350000  1.0  -0.395
  N  N332  1  0.432800  0.512300  0.425900  1.0  -0.6024
  N  N333  1  0.486700  0.004300  0.150000  1.0  -0.3942
  N  N334  1  0.567200  0.012300  0.074100  1.0  -0.6032
  N  N335  1  0.986700  0.495700  0.850000  1.0  -0.3941
  N  N336  1  0.067200  0.487700  0.925900  1.0  -0.6034
  N  N337  1  0.650000  0.013300  0.995700  1.0  -0.3965
  N  N338  1  0.574100  0.932800  0.987700  1.0  -0.6051
  N  N339  1  0.350000  0.513300  0.504300  1.0  -0.3971
  N  N340  1  0.425900  0.432800  0.512300  1.0  -0.605
  N  N341  1  0.150000  0.486700  0.004300  1.0  -0.3947
  N  N342  1  0.074100  0.567200  0.012300  1.0  -0.6048
  N  N343  1  0.850000  0.986700  0.495700  1.0  -0.3968
  N  N344  1  0.925900  0.067200  0.487700  1.0  -0.6044
  N  N345  1  0.009200  0.489600  0.350700  1.0  -0.3777
  N  N346  1  0.012600  0.570900  0.430600  1.0  -0.562
  N  N347  1  0.490800  0.510400  0.850700  1.0  -0.3772
  N  N348  1  0.487400  0.429100  0.930600  1.0  -0.5646
  N  N349  1  0.990800  0.989600  0.149300  1.0  -0.3779
  N  N350  1  0.987400  0.070900  0.069400  1.0  -0.564
  N  N351  1  0.509200  0.010400  0.649300  1.0  -0.3773
  N  N352  1  0.512600  0.929100  0.569400  1.0  -0.5621
  N  N353  1  0.350700  0.009200  0.489600  1.0  -0.3805
  N  N354  1  0.430600  0.012600  0.570900  1.0  -0.5633
  N  N355  1  0.850700  0.490800  0.510400  1.0  -0.3798
  N  N356  1  0.930600  0.487400  0.429100  1.0  -0.5635
  N  N357  1  0.149300  0.990800  0.989600  1.0  -0.3797
  N  N358  1  0.069400  0.987400  0.070900  1.0  -0.564
  N  N359  1  0.649300  0.509200  0.010400  1.0  -0.3789
  N  N360  1  0.569400  0.512600  0.929100  1.0  -0.5639
  N  N361  1  0.489600  0.350700  0.009200  1.0  -0.3784
  N  N362  1  0.570900  0.430600  0.012600  1.0  -0.5635
  N  N363  1  0.510400  0.850700  0.490800  1.0  -0.3781
  N  N364  1  0.429100  0.930600  0.487400  1.0  -0.5613
  N  N365  1  0.989600  0.149300  0.990800  1.0  -0.3785
  N  N366  1  0.070900  0.069400  0.987400  1.0  -0.5621
  N  N367  1  0.010400  0.649300  0.509200  1.0  -0.378
  N  N368  1  0.929100  0.569400  0.512600  1.0  -0.563
  O  O369  1  0.134200  0.811100  0.242400  1.0  -0.6343
  O  O370  1  0.058600  0.883250  0.211600  1.0  -0.5922
  O  O371  1  0.365800  0.188900  0.742400  1.0  -0.6344
  O  O372  1  0.441400  0.116750  0.711600  1.0  -0.5921
  O  O373  1  0.865800  0.311100  0.257600  1.0  -0.6342
  O  O374  1  0.941400  0.383250  0.288400  1.0  -0.5921
  O  O375  1  0.634200  0.688900  0.757600  1.0  -0.6337
  O  O376  1  0.558600  0.616750  0.788400  1.0  -0.5916
  O  O377  1  0.242400  0.134200  0.811100  1.0  -0.6341
  O  O378  1  0.211600  0.058600  0.883250  1.0  -0.596
  O  O379  1  0.742400  0.365800  0.188900  1.0  -0.6358
  O  O380  1  0.711600  0.441400  0.116750  1.0  -0.5944
  O  O381  1  0.257600  0.865800  0.311100  1.0  -0.6336
  O  O382  1  0.288400  0.941400  0.383250  1.0  -0.5955
  O  O383  1  0.757600  0.634200  0.688900  1.0  -0.6335
  O  O384  1  0.788400  0.558600  0.616750  1.0  -0.5938
  O  O385  1  0.811100  0.242400  0.134200  1.0  -0.6356
  O  O386  1  0.883250  0.211600  0.058600  1.0  -0.5992
  O  O387  1  0.188900  0.742400  0.365800  1.0  -0.6351
  O  O388  1  0.116750  0.711600  0.441400  1.0  -0.5991
  O  O389  1  0.311100  0.257600  0.865800  1.0  -0.6344
  O  O390  1  0.383250  0.288400  0.941400  1.0  -0.5973
  O  O391  1  0.688900  0.757600  0.634200  1.0  -0.6361
  O  O392  1  0.616750  0.788400  0.558600  1.0  -0.5975
  O  O393  1  0.236050  0.619310  0.180380  1.0  -0.7351
  O  O394  1  0.209840  0.535000  0.115680  1.0  -0.5601
  O  O395  1  0.263950  0.380690  0.680380  1.0  -0.7336
  O  O396  1  0.290160  0.465000  0.615680  1.0  -0.5543
  O  O397  1  0.763950  0.119310  0.319620  1.0  -0.7351
  O  O398  1  0.790160  0.035000  0.384320  1.0  -0.5536
  O  O399  1  0.736050  0.880690  0.819620  1.0  -0.7342
  O  O400  1  0.709840  0.965000  0.884320  1.0  -0.5593
  O  O401  1  0.180380  0.236050  0.619310  1.0  -0.7362
  O  O402  1  0.115680  0.209840  0.535000  1.0  -0.5596
  O  O403  1  0.680380  0.263950  0.380690  1.0  -0.7358
  O  O404  1  0.615680  0.290160  0.465000  1.0  -0.5556
  O  O405  1  0.319620  0.763950  0.119310  1.0  -0.7368
  O  O406  1  0.384320  0.790160  0.035000  1.0  -0.5565
  O  O407  1  0.819620  0.736050  0.880690  1.0  -0.7357
  O  O408  1  0.884320  0.709840  0.965000  1.0  -0.5609
  O  O409  1  0.619310  0.180380  0.236050  1.0  -0.7352
  O  O410  1  0.535000  0.115680  0.209840  1.0  -0.5618
  O  O411  1  0.380690  0.680380  0.263950  1.0  -0.737
  O  O412  1  0.465000  0.615680  0.290160  1.0  -0.5544
  O  O413  1  0.119310  0.319620  0.763950  1.0  -0.7378
  O  O414  1  0.035000  0.384320  0.790160  1.0  -0.5531
  O  O415  1  0.880690  0.819620  0.736050  1.0  -0.7346
  O  O416  1  0.965000  0.884320  0.709840  1.0  -0.5618
