# generated using pymatgen
data_ErH15C24(NO)6
_symmetry_space_group_name_H-M   'P 1'
_cell_length_a   20.38640000
_cell_length_b   20.38640000
_cell_length_c   20.38640000
_cell_angle_alpha   90.00000000
_cell_angle_beta   90.00000000
_cell_angle_gamma   90.00000000
_symmetry_Int_Tables_number   1
_chemical_formula_structural   ErH15C24(NO)6
_chemical_formula_sum   'Er8 H120 C192 N48 O48'
_cell_volume   8472.69598904
_cell_formula_units_Z   8
loop_
 _symmetry_equiv_pos_site_id
 _symmetry_equiv_pos_as_xyz
  1  'x, y, z'
loop_
 _atom_site_type_symbol
 _atom_site_label
 _atom_site_symmetry_multiplicity
 _atom_site_fract_x
 _atom_site_fract_y
 _atom_site_fract_z
 _atom_site_occupancy
 _atom_site_charge
  Er  Er1  1  0.154990  0.845010  0.345010  1.0  1.5636
  Er  Er2  1  0.345010  0.154990  0.845010  1.0  1.5639
  Er  Er3  1  0.845010  0.345010  0.154990  1.0  1.5668
  Er  Er4  1  0.654990  0.654990  0.654990  1.0  1.5635
  Er  Er5  1  0.333260  0.666740  0.166740  1.0  1.4568
  Er  Er6  1  0.166740  0.333260  0.666740  1.0  1.458
  Er  Er7  1  0.666740  0.166740  0.333260  1.0  1.4571
  Er  Er8  1  0.833260  0.833260  0.833260  1.0  1.4601
  H  H9  1  0.958600  0.663500  0.995700  1.0  0.3066
  H  H10  1  0.991700  0.838100  0.118700  1.0  0.108
  H  H11  1  0.957800  0.765000  0.040000  1.0  0.1043
  H  H12  1  0.092000  0.633600  0.102200  1.0  0.1066
  H  H13  1  0.126900  0.707800  0.181000  1.0  0.0957
  H  H14  1  0.541400  0.336500  0.495700  1.0  0.3059
  H  H15  1  0.508300  0.161900  0.618700  1.0  0.1075
  H  H16  1  0.542200  0.235000  0.540000  1.0  0.1035
  H  H17  1  0.408000  0.366400  0.602200  1.0  0.1064
  H  H18  1  0.373100  0.292200  0.681000  1.0  0.0956
  H  H19  1  0.041400  0.163500  0.504300  1.0  0.3053
  H  H20  1  0.008300  0.338100  0.381300  1.0  0.1078
  H  H21  1  0.042200  0.265000  0.460000  1.0  0.1039
  H  H22  1  0.908000  0.133600  0.397800  1.0  0.1062
  H  H23  1  0.873100  0.207800  0.319000  1.0  0.0951
  H  H24  1  0.458600  0.836500  0.004300  1.0  0.3062
  H  H25  1  0.491700  0.661900  0.881300  1.0  0.1074
  H  H26  1  0.457800  0.735000  0.960000  1.0  0.1039
  H  H27  1  0.592000  0.866400  0.897800  1.0  0.1062
  H  H28  1  0.626900  0.792200  0.819000  1.0  0.0951
  H  H29  1  0.995700  0.958600  0.663500  1.0  0.3078
  H  H30  1  0.118700  0.991700  0.838100  1.0  0.1074
  H  H31  1  0.040000  0.957800  0.765000  1.0  0.105
  H  H32  1  0.102200  0.092000  0.633600  1.0  0.1067
  H  H33  1  0.181000  0.126900  0.707800  1.0  0.0949
  H  H34  1  0.495700  0.541400  0.336500  1.0  0.3064
  H  H35  1  0.618700  0.508300  0.161900  1.0  0.1075
  H  H36  1  0.540000  0.542200  0.235000  1.0  0.1051
  H  H37  1  0.602200  0.408000  0.366400  1.0  0.1066
  H  H38  1  0.681000  0.373100  0.292200  1.0  0.0949
  H  H39  1  0.504300  0.041400  0.163500  1.0  0.3076
  H  H40  1  0.381300  0.008300  0.338100  1.0  0.1076
  H  H41  1  0.460000  0.042200  0.265000  1.0  0.1054
  H  H42  1  0.397800  0.908000  0.133600  1.0  0.1067
  H  H43  1  0.319000  0.873100  0.207800  1.0  0.0947
  H  H44  1  0.004300  0.458600  0.836500  1.0  0.3074
  H  H45  1  0.881300  0.491700  0.661900  1.0  0.1073
  H  H46  1  0.960000  0.457800  0.735000  1.0  0.105
  H  H47  1  0.897800  0.592000  0.866400  1.0  0.1063
  H  H48  1  0.819000  0.626900  0.792200  1.0  0.0951
  H  H49  1  0.663500  0.995700  0.958600  1.0  0.3063
  H  H50  1  0.838100  0.118700  0.991700  1.0  0.108
  H  H51  1  0.765000  0.040000  0.957800  1.0  0.1038
  H  H52  1  0.633600  0.102200  0.092000  1.0  0.1059
  H  H53  1  0.707800  0.181000  0.126900  1.0  0.0946
  H  H54  1  0.336500  0.495700  0.541400  1.0  0.3064
  H  H55  1  0.161900  0.618700  0.508300  1.0  0.1087
  H  H56  1  0.235000  0.540000  0.542200  1.0  0.1046
  H  H57  1  0.366400  0.602200  0.408000  1.0  0.106
  H  H58  1  0.292200  0.681000  0.373100  1.0  0.0946
  H  H59  1  0.163500  0.504300  0.041400  1.0  0.3064
  H  H60  1  0.338100  0.381300  0.008300  1.0  0.108
  H  H61  1  0.265000  0.460000  0.042200  1.0  0.1046
  H  H62  1  0.133600  0.397800  0.908000  1.0  0.1062
  H  H63  1  0.207800  0.319000  0.873100  1.0  0.0944
  H  H64  1  0.836500  0.004300  0.458600  1.0  0.3063
  H  H65  1  0.661900  0.881300  0.491700  1.0  0.1091
  H  H66  1  0.735000  0.960000  0.457800  1.0  0.1046
  H  H67  1  0.866400  0.897800  0.592000  1.0  0.1059
  H  H68  1  0.792200  0.819000  0.626900  1.0  0.095
  H  H69  1  0.991300  0.452200  0.339800  1.0  0.2641
  H  H70  1  0.178100  0.615600  0.285100  1.0  0.0902
  H  H71  1  0.099500  0.584700  0.362300  1.0  0.107
  H  H72  1  0.036000  0.443700  0.238400  1.0  0.1029
  H  H73  1  0.113400  0.473800  0.162500  1.0  0.1143
  H  H74  1  0.508700  0.547800  0.839800  1.0  0.2654
  H  H75  1  0.321900  0.384400  0.785100  1.0  0.09
  H  H76  1  0.400500  0.415300  0.862300  1.0  0.1074
  H  H77  1  0.464000  0.556300  0.738400  1.0  0.1028
  H  H78  1  0.386600  0.526200  0.662500  1.0  0.1147
  H  H79  1  0.008700  0.952200  0.160200  1.0  0.2646
  H  H80  1  0.821900  0.115600  0.214900  1.0  0.0904
  H  H81  1  0.900500  0.084700  0.137700  1.0  0.1069
  H  H82  1  0.964000  0.943700  0.261600  1.0  0.1029
  H  H83  1  0.886600  0.973800  0.337500  1.0  0.1142
  H  H84  1  0.491300  0.047800  0.660200  1.0  0.2653
  H  H85  1  0.678100  0.884400  0.714900  1.0  0.0904
  H  H86  1  0.599500  0.915300  0.637700  1.0  0.1069
  H  H87  1  0.536000  0.056300  0.761600  1.0  0.1028
  H  H88  1  0.613400  0.026200  0.837500  1.0  0.1145
  H  H89  1  0.339800  0.991300  0.452200  1.0  0.2649
  H  H90  1  0.285100  0.178100  0.615600  1.0  0.0904
  H  H91  1  0.362300  0.099500  0.584700  1.0  0.1071
  H  H92  1  0.238400  0.036000  0.443700  1.0  0.103
  H  H93  1  0.162500  0.113400  0.473800  1.0  0.1143
  H  H94  1  0.839800  0.508700  0.547800  1.0  0.2652
  H  H95  1  0.785100  0.321900  0.384400  1.0  0.0905
  H  H96  1  0.862300  0.400500  0.415300  1.0  0.1073
  H  H97  1  0.738400  0.464000  0.556300  1.0  0.103
  H  H98  1  0.662500  0.386600  0.526200  1.0  0.1149
  H  H99  1  0.160200  0.008700  0.952200  1.0  0.2643
  H  H100  1  0.214900  0.821900  0.115600  1.0  0.0905
  H  H101  1  0.137700  0.900500  0.084700  1.0  0.1072
  H  H102  1  0.261600  0.964000  0.943700  1.0  0.1027
  H  H103  1  0.337500  0.886600  0.973800  1.0  0.1138
  H  H104  1  0.660200  0.491300  0.047800  1.0  0.2651
  H  H105  1  0.714900  0.678100  0.884400  1.0  0.0906
  H  H106  1  0.637700  0.599500  0.915300  1.0  0.1074
  H  H107  1  0.761600  0.536000  0.056300  1.0  0.1027
  H  H108  1  0.837500  0.613400  0.026200  1.0  0.1148
  H  H109  1  0.452200  0.339800  0.991300  1.0  0.2656
  H  H110  1  0.615600  0.285100  0.178100  1.0  0.0908
  H  H111  1  0.584700  0.362300  0.099500  1.0  0.1076
  H  H112  1  0.443700  0.238400  0.036000  1.0  0.1026
  H  H113  1  0.473800  0.162500  0.113400  1.0  0.1136
  H  H114  1  0.547800  0.839800  0.508700  1.0  0.2656
  H  H115  1  0.384400  0.785100  0.321900  1.0  0.0907
  H  H116  1  0.415300  0.862300  0.400500  1.0  0.1076
  H  H117  1  0.556300  0.738400  0.464000  1.0  0.1018
  H  H118  1  0.526200  0.662500  0.386600  1.0  0.1137
  H  H119  1  0.952200  0.160200  0.008700  1.0  0.2655
  H  H120  1  0.115600  0.214900  0.821900  1.0  0.0907
  H  H121  1  0.084700  0.137700  0.900500  1.0  0.1074
  H  H122  1  0.943700  0.261600  0.964000  1.0  0.1023
  H  H123  1  0.973800  0.337500  0.886600  1.0  0.1139
  H  H124  1  0.047800  0.660200  0.491300  1.0  0.2655
  H  H125  1  0.884400  0.714900  0.678100  1.0  0.0908
  H  H126  1  0.915300  0.637700  0.599500  1.0  0.1075
  H  H127  1  0.056300  0.761600  0.536000  1.0  0.1022
  H  H128  1  0.026200  0.837500  0.613400  1.0  0.1137
  C  C129  1  0.086800  0.830000  0.206700  1.0  0.7358
  C  C130  1  0.064500  0.781800  0.156600  1.0  -0.144
  C  C131  1  0.013000  0.796800  0.115000  1.0  -0.0595
  C  C132  1  0.992400  0.753100  0.068800  1.0  -0.161
  C  C133  1  0.020800  0.691700  0.063100  1.0  0.2526
  C  C134  1  0.071700  0.675400  0.105300  1.0  -0.1373
  C  C135  1  0.092600  0.719700  0.151700  1.0  -0.0328
  C  C136  1  0.021800  0.594900  0.986900  1.0  0.5454
  C  C137  1  0.413200  0.170000  0.706700  1.0  0.7364
  C  C138  1  0.435500  0.218200  0.656600  1.0  -0.1443
  C  C139  1  0.487000  0.203200  0.615000  1.0  -0.0602
  C  C140  1  0.507600  0.246900  0.568800  1.0  -0.1611
  C  C141  1  0.479200  0.308300  0.563100  1.0  0.2526
  C  C142  1  0.428300  0.324600  0.605300  1.0  -0.1366
  C  C143  1  0.407400  0.280300  0.651700  1.0  -0.0318
  C  C144  1  0.478200  0.405100  0.486900  1.0  0.5448
  C  C145  1  0.913200  0.330000  0.293300  1.0  0.7367
  C  C146  1  0.935500  0.281800  0.343400  1.0  -0.1441
  C  C147  1  0.987000  0.296800  0.385000  1.0  -0.06
  C  C148  1  0.007600  0.253100  0.431200  1.0  -0.1613
  C  C149  1  0.979200  0.191700  0.436900  1.0  0.2522
  C  C150  1  0.928300  0.175400  0.394700  1.0  -0.1377
  C  C151  1  0.907400  0.219700  0.348300  1.0  -0.0313
  C  C152  1  0.978200  0.094900  0.513100  1.0  0.5447
  C  C153  1  0.586800  0.670000  0.793300  1.0  0.7373
  C  C154  1  0.564500  0.718200  0.843400  1.0  -0.1439
  C  C155  1  0.513000  0.703200  0.885000  1.0  -0.0584
  C  C156  1  0.492400  0.746900  0.931200  1.0  -0.1604
  C  C157  1  0.520800  0.808300  0.936900  1.0  0.2525
  C  C158  1  0.571700  0.824600  0.894700  1.0  -0.1367
  C  C159  1  0.592600  0.780300  0.848300  1.0  -0.0314
  C  C160  1  0.521800  0.905100  0.013100  1.0  0.5449
  C  C161  1  0.206700  0.086800  0.830000  1.0  0.7278
  C  C162  1  0.156600  0.064500  0.781800  1.0  -0.1459
  C  C163  1  0.115000  0.013000  0.796800  1.0  -0.064
  C  C164  1  0.068800  0.992400  0.753100  1.0  -0.1623
  C  C165  1  0.063100  0.020800  0.691700  1.0  0.2527
  C  C166  1  0.105300  0.071700  0.675400  1.0  -0.1376
  C  C167  1  0.151700  0.092600  0.719700  1.0  -0.0319
  C  C168  1  0.986900  0.021800  0.594900  1.0  0.5585
  C  C169  1  0.706700  0.413200  0.170000  1.0  0.7261
  C  C170  1  0.656600  0.435500  0.218200  1.0  -0.1456
  C  C171  1  0.615000  0.487000  0.203200  1.0  -0.0626
  C  C172  1  0.568800  0.507600  0.246900  1.0  -0.1625
  C  C173  1  0.563100  0.479200  0.308300  1.0  0.253
  C  C174  1  0.605300  0.428300  0.324600  1.0  -0.1383
  C  C175  1  0.651700  0.407400  0.280300  1.0  -0.0322
  C  C176  1  0.486900  0.478200  0.405100  1.0  0.5586
  C  C177  1  0.293300  0.913200  0.330000  1.0  0.7272
  C  C178  1  0.343400  0.935500  0.281800  1.0  -0.1443
  C  C179  1  0.385000  0.987000  0.296800  1.0  -0.0639
  C  C180  1  0.431200  0.007600  0.253100  1.0  -0.1608
  C  C181  1  0.436900  0.979200  0.191700  1.0  0.2531
  C  C182  1  0.394700  0.928300  0.175400  1.0  -0.1376
  C  C183  1  0.348300  0.907400  0.219700  1.0  -0.0317
  C  C184  1  0.513100  0.978200  0.094900  1.0  0.5583
  C  C185  1  0.793300  0.586800  0.670000  1.0  0.7279
  C  C186  1  0.843400  0.564500  0.718200  1.0  -0.1446
  C  C187  1  0.885000  0.513000  0.703200  1.0  -0.0629
  C  C188  1  0.931200  0.492400  0.746900  1.0  -0.1621
  C  C189  1  0.936900  0.520800  0.808300  1.0  0.2523
  C  C190  1  0.894700  0.571700  0.824600  1.0  -0.1378
  C  C191  1  0.848300  0.592600  0.780300  1.0  -0.0313
  C  C192  1  0.013100  0.521800  0.905100  1.0  0.5585
  C  C193  1  0.830000  0.206700  0.086800  1.0  0.7282
  C  C194  1  0.781800  0.156600  0.064500  1.0  -0.1404
  C  C195  1  0.796800  0.115000  0.013000  1.0  -0.0616
  C  C196  1  0.753100  0.068800  0.992400  1.0  -0.1614
  C  C197  1  0.691700  0.063100  0.020800  1.0  0.2529
  C  C198  1  0.675400  0.105300  0.071700  1.0  -0.1365
  C  C199  1  0.719700  0.151700  0.092600  1.0  -0.0305
  C  C200  1  0.594900  0.986900  0.021800  1.0  0.5567
  C  C201  1  0.170000  0.706700  0.413200  1.0  0.7293
  C  C202  1  0.218200  0.656600  0.435500  1.0  -0.1397
  C  C203  1  0.203200  0.615000  0.487000  1.0  -0.0626
  C  C204  1  0.246900  0.568800  0.507600  1.0  -0.1628
  C  C205  1  0.308300  0.563100  0.479200  1.0  0.2531
  C  C206  1  0.324600  0.605300  0.428300  1.0  -0.1354
  C  C207  1  0.280300  0.651700  0.407400  1.0  -0.0307
  C  C208  1  0.405100  0.486900  0.478200  1.0  0.558
  C  C209  1  0.330000  0.293300  0.913200  1.0  0.7284
  C  C210  1  0.281800  0.343400  0.935500  1.0  -0.141
  C  C211  1  0.296800  0.385000  0.987000  1.0  -0.0626
  C  C212  1  0.253100  0.431200  0.007600  1.0  -0.1613
  C  C213  1  0.191700  0.436900  0.979200  1.0  0.2529
  C  C214  1  0.175400  0.394700  0.928300  1.0  -0.1364
  C  C215  1  0.219700  0.348300  0.907400  1.0  -0.0316
  C  C216  1  0.094900  0.513100  0.978200  1.0  0.5572
  C  C217  1  0.670000  0.793300  0.586800  1.0  0.7291
  C  C218  1  0.718200  0.843400  0.564500  1.0  -0.1413
  C  C219  1  0.703200  0.885000  0.513000  1.0  -0.0607
  C  C220  1  0.746900  0.931200  0.492400  1.0  -0.1623
  C  C221  1  0.808300  0.936900  0.520800  1.0  0.2534
  C  C222  1  0.824600  0.894700  0.571700  1.0  -0.135
  C  C223  1  0.780300  0.848300  0.592600  1.0  -0.0309
  C  C224  1  0.905100  0.013100  0.521800  1.0  0.5581
  C  C225  1  0.204200  0.568300  0.166600  1.0  0.7279
  C  C226  1  0.154600  0.548600  0.216400  1.0  -0.1369
  C  C227  1  0.149200  0.580300  0.275400  1.0  -0.0041
  C  C228  1  0.102100  0.562100  0.321600  1.0  -0.1547
  C  C229  1  0.058600  0.510500  0.308300  1.0  0.2464
  C  C230  1  0.064900  0.478900  0.248300  1.0  -0.1278
  C  C231  1  0.110800  0.496500  0.203000  1.0  -0.1005
  C  C232  1  0.983900  0.517800  0.404800  1.0  0.599
  C  C233  1  0.295800  0.431700  0.666667  1.0  0.7286
  C  C234  1  0.345400  0.451400  0.716400  1.0  -0.1369
  C  C235  1  0.350800  0.419700  0.775400  1.0  -0.0044
  C  C236  1  0.397900  0.437900  0.821600  1.0  -0.1547
  C  C237  1  0.441400  0.489500  0.808300  1.0  0.2463
  C  C238  1  0.435100  0.521100  0.748300  1.0  -0.1277
  C  C239  1  0.389200  0.503500  0.703000  1.0  -0.1012
  C  C240  1  0.516100  0.482200  0.904800  1.0  0.5988
  C  C241  1  0.795800  0.068300  0.333400  1.0  0.7281
  C  C242  1  0.845400  0.048600  0.283600  1.0  -0.1369
  C  C243  1  0.850800  0.080300  0.224600  1.0  -0.0036
  C  C244  1  0.897900  0.062100  0.178400  1.0  -0.1534
  C  C245  1  0.941400  0.010500  0.191700  1.0  0.2459
  C  C246  1  0.935100  0.978900  0.251700  1.0  -0.1275
  C  C247  1  0.889200  0.996500  0.297000  1.0  -0.1003
  C  C248  1  0.016100  0.017800  0.095200  1.0  0.5987
  C  C249  1  0.704200  0.931700  0.833400  1.0  0.728
  C  C250  1  0.654600  0.951400  0.783600  1.0  -0.1376
  C  C251  1  0.649200  0.919700  0.724600  1.0  -0.0039
  C  C252  1  0.602100  0.937900  0.678400  1.0  -0.1549
  C  C253  1  0.558600  0.989500  0.691700  1.0  0.2469
  C  C254  1  0.564900  0.021100  0.751700  1.0  -0.1271
  C  C255  1  0.610800  0.003500  0.797000  1.0  -0.1012
  C  C256  1  0.483900  0.982200  0.595200  1.0  0.5988
  C  C257  1  0.166600  0.204200  0.568300  1.0  0.7295
  C  C258  1  0.216400  0.154600  0.548600  1.0  -0.1318
  C  C259  1  0.275400  0.149200  0.580300  1.0  -0.0041
  C  C260  1  0.321600  0.102100  0.562100  1.0  -0.1529
  C  C261  1  0.308300  0.058600  0.510500  1.0  0.2466
  C  C262  1  0.248300  0.064900  0.478900  1.0  -0.1278
  C  C263  1  0.203000  0.110800  0.496500  1.0  -0.1009
  C  C264  1  0.404800  0.983900  0.517800  1.0  0.5986
  C  C265  1  0.666667  0.295800  0.431700  1.0  0.7282
  C  C266  1  0.716400  0.345400  0.451400  1.0  -0.1344
  C  C267  1  0.775400  0.350800  0.419700  1.0  -0.0039
  C  C268  1  0.821600  0.397900  0.437900  1.0  -0.1536
  C  C269  1  0.808300  0.441400  0.489500  1.0  0.2464
  C  C270  1  0.748300  0.435100  0.521100  1.0  -0.127
  C  C271  1  0.703000  0.389200  0.503500  1.0  -0.1009
  C  C272  1  0.904800  0.516100  0.482200  1.0  0.599
  C  C273  1  0.333400  0.795800  0.068300  1.0  0.7287
  C  C274  1  0.283600  0.845400  0.048600  1.0  -0.1338
  C  C275  1  0.224600  0.850800  0.080300  1.0  -0.0042
  C  C276  1  0.178400  0.897900  0.062100  1.0  -0.1537
  C  C277  1  0.191700  0.941400  0.010500  1.0  0.2463
  C  C278  1  0.251700  0.935100  0.978900  1.0  -0.1266
  C  C279  1  0.297000  0.889200  0.996500  1.0  -0.1014
  C  C280  1  0.095200  0.016100  0.017800  1.0  0.599
  C  C281  1  0.833400  0.704200  0.931700  1.0  0.7294
  C  C282  1  0.783600  0.654600  0.951400  1.0  -0.1329
  C  C283  1  0.724600  0.649200  0.919700  1.0  -0.0038
  C  C284  1  0.678400  0.602100  0.937900  1.0  -0.1543
  C  C285  1  0.691700  0.558600  0.989500  1.0  0.2458
  C  C286  1  0.751700  0.564900  0.021100  1.0  -0.1244
  C  C287  1  0.797000  0.610800  0.003500  1.0  -0.0994
  C  C288  1  0.595200  0.483900  0.982200  1.0  0.599
  C  C289  1  0.568300  0.166600  0.204200  1.0  0.7342
  C  C290  1  0.548600  0.216400  0.154600  1.0  -0.1354
  C  C291  1  0.580300  0.275400  0.149200  1.0  -0.0046
  C  C292  1  0.562100  0.321600  0.102100  1.0  -0.1522
  C  C293  1  0.510500  0.308300  0.058600  1.0  0.246
  C  C294  1  0.478900  0.248300  0.064900  1.0  -0.1266
  C  C295  1  0.496500  0.203000  0.110800  1.0  -0.0947
  C  C296  1  0.517800  0.404800  0.983900  1.0  0.5989
  C  C297  1  0.431700  0.666667  0.295800  1.0  0.7364
  C  C298  1  0.451400  0.716400  0.345400  1.0  -0.1358
  C  C299  1  0.419700  0.775400  0.350800  1.0  -0.0041
  C  C300  1  0.437900  0.821600  0.397900  1.0  -0.1525
  C  C301  1  0.489500  0.808300  0.441400  1.0  0.2457
  C  C302  1  0.521100  0.748300  0.435100  1.0  -0.1248
  C  C303  1  0.503500  0.703000  0.389200  1.0  -0.0952
  C  C304  1  0.482200  0.904800  0.516100  1.0  0.5983
  C  C305  1  0.068300  0.333400  0.795800  1.0  0.7359
  C  C306  1  0.048600  0.283600  0.845400  1.0  -0.1353
  C  C307  1  0.080300  0.224600  0.850800  1.0  -0.0041
  C  C308  1  0.062100  0.178400  0.897900  1.0  -0.1533
  C  C309  1  0.010500  0.191700  0.941400  1.0  0.2464
  C  C310  1  0.978900  0.251700  0.935100  1.0  -0.1256
  C  C311  1  0.996500  0.297000  0.889200  1.0  -0.0974
  C  C312  1  0.017800  0.095200  0.016100  1.0  0.5986
  C  C313  1  0.931700  0.833400  0.704200  1.0  0.7359
  C  C314  1  0.951400  0.783600  0.654600  1.0  -0.1365
  C  C315  1  0.919700  0.724600  0.649200  1.0  -0.0039
  C  C316  1  0.937900  0.678400  0.602100  1.0  -0.1539
  C  C317  1  0.989500  0.691700  0.558600  1.0  0.2461
  C  C318  1  0.021100  0.751700  0.564900  1.0  -0.1253
  C  C319  1  0.003500  0.797000  0.610800  1.0  -0.0955
  C  C320  1  0.982200  0.595200  0.483900  1.0  0.5981
  N  N321  1  0.996100  0.650900  0.012800  1.0  -0.3925
  N  N322  1  0.988300  0.574600  0.932500  1.0  -0.6049
  N  N323  1  0.503900  0.349100  0.512800  1.0  -0.3918
  N  N324  1  0.511700  0.425400  0.432500  1.0  -0.6051
  N  N325  1  0.003900  0.150900  0.487200  1.0  -0.3917
  N  N326  1  0.011700  0.074600  0.567500  1.0  -0.6048
  N  N327  1  0.496100  0.849100  0.987200  1.0  -0.3928
  N  N328  1  0.488300  0.925400  0.067500  1.0  -0.6054
  N  N329  1  0.012800  0.996100  0.650900  1.0  -0.3914
  N  N330  1  0.932500  0.988300  0.574600  1.0  -0.6051
  N  N331  1  0.512800  0.503900  0.349100  1.0  -0.392
  N  N332  1  0.432500  0.511700  0.425400  1.0  -0.6051
  N  N333  1  0.487200  0.003900  0.150900  1.0  -0.3914
  N  N334  1  0.567500  0.011700  0.074600  1.0  -0.6058
  N  N335  1  0.987200  0.496100  0.849100  1.0  -0.3916
  N  N336  1  0.067500  0.488300  0.925400  1.0  -0.606
  N  N337  1  0.650900  0.012800  0.996100  1.0  -0.3933
  N  N338  1  0.574600  0.932500  0.988300  1.0  -0.6065
  N  N339  1  0.349100  0.512800  0.503900  1.0  -0.3934
  N  N340  1  0.425400  0.432500  0.511700  1.0  -0.607
  N  N341  1  0.150900  0.487200  0.003900  1.0  -0.3915
  N  N342  1  0.074600  0.567500  0.011700  1.0  -0.6064
  N  N343  1  0.849100  0.987200  0.496100  1.0  -0.3934
  N  N344  1  0.925400  0.067500  0.488300  1.0  -0.6063
  N  N345  1  0.009200  0.490000  0.350400  1.0  -0.3873
  N  N346  1  0.011800  0.571100  0.430700  1.0  -0.5703
  N  N347  1  0.490800  0.510000  0.850400  1.0  -0.3863
  N  N348  1  0.488200  0.428900  0.930700  1.0  -0.5718
  N  N349  1  0.990800  0.990000  0.149600  1.0  -0.3869
  N  N350  1  0.988200  0.071100  0.069300  1.0  -0.5709
  N  N351  1  0.509200  0.010000  0.649600  1.0  -0.387
  N  N352  1  0.511800  0.928900  0.569300  1.0  -0.57
  N  N353  1  0.350400  0.009200  0.490000  1.0  -0.3901
  N  N354  1  0.430700  0.011800  0.571100  1.0  -0.5686
  N  N355  1  0.850400  0.490800  0.510000  1.0  -0.3896
  N  N356  1  0.930700  0.488200  0.428900  1.0  -0.5692
  N  N357  1  0.149600  0.990800  0.990000  1.0  -0.388
  N  N358  1  0.069300  0.988200  0.071100  1.0  -0.57
  N  N359  1  0.649600  0.509200  0.010000  1.0  -0.3886
  N  N360  1  0.569300  0.511800  0.928900  1.0  -0.5702
  N  N361  1  0.490000  0.350400  0.009200  1.0  -0.3875
  N  N362  1  0.571100  0.430700  0.011800  1.0  -0.5721
  N  N363  1  0.510000  0.850400  0.490800  1.0  -0.3871
  N  N364  1  0.428900  0.930700  0.488200  1.0  -0.5706
  N  N365  1  0.990000  0.149600  0.990800  1.0  -0.3879
  N  N366  1  0.071100  0.069300  0.988200  1.0  -0.5699
  N  N367  1  0.010000  0.649600  0.509200  1.0  -0.3871
  N  N368  1  0.928900  0.569300  0.511800  1.0  -0.5717
  O  O369  1  0.134600  0.812300  0.243200  1.0  -0.6242
  O  O370  1  0.058500  0.883900  0.211900  1.0  -0.5855
  O  O371  1  0.365400  0.187700  0.743200  1.0  -0.6241
  O  O372  1  0.441500  0.116100  0.711900  1.0  -0.5846
  O  O373  1  0.865400  0.312300  0.256800  1.0  -0.6251
  O  O374  1  0.941500  0.383900  0.288100  1.0  -0.5842
  O  O375  1  0.634600  0.687700  0.756800  1.0  -0.6243
  O  O376  1  0.558500  0.616100  0.788100  1.0  -0.5836
  O  O377  1  0.243200  0.134600  0.812300  1.0  -0.625
  O  O378  1  0.211900  0.058500  0.883900  1.0  -0.5855
  O  O379  1  0.743200  0.365400  0.187700  1.0  -0.6262
  O  O380  1  0.711900  0.441500  0.116100  1.0  -0.5848
  O  O381  1  0.256800  0.865400  0.312300  1.0  -0.6255
  O  O382  1  0.288100  0.941500  0.383900  1.0  -0.5856
  O  O383  1  0.756800  0.634600  0.687700  1.0  -0.6257
  O  O384  1  0.788100  0.558500  0.616100  1.0  -0.5844
  O  O385  1  0.812300  0.243200  0.134600  1.0  -0.6253
  O  O386  1  0.883900  0.211900  0.058500  1.0  -0.5892
  O  O387  1  0.187700  0.743200  0.365400  1.0  -0.6262
  O  O388  1  0.116100  0.711900  0.441500  1.0  -0.5885
  O  O389  1  0.312300  0.256800  0.865400  1.0  -0.6252
  O  O390  1  0.383900  0.288100  0.941500  1.0  -0.5892
  O  O391  1  0.687700  0.756800  0.634600  1.0  -0.6264
  O  O392  1  0.616100  0.788100  0.558500  1.0  -0.5887
  O  O393  1  0.237700  0.619000  0.180500  1.0  -0.7315
  O  O394  1  0.211700  0.535600  0.115300  1.0  -0.5673
  O  O395  1  0.262300  0.381000  0.680500  1.0  -0.7305
  O  O396  1  0.288300  0.464400  0.615300  1.0  -0.5674
  O  O397  1  0.762300  0.119000  0.319500  1.0  -0.7312
  O  O398  1  0.788300  0.035600  0.384700  1.0  -0.5672
  O  O399  1  0.737700  0.881000  0.819500  1.0  -0.7307
  O  O400  1  0.711700  0.964400  0.884700  1.0  -0.5666
  O  O401  1  0.180500  0.237700  0.619000  1.0  -0.7316
  O  O402  1  0.115300  0.211700  0.535600  1.0  -0.5682
  O  O403  1  0.680500  0.262300  0.381000  1.0  -0.7332
  O  O404  1  0.615300  0.288300  0.464400  1.0  -0.5692
  O  O405  1  0.319500  0.762300  0.119000  1.0  -0.7322
  O  O406  1  0.384700  0.788300  0.035600  1.0  -0.5699
  O  O407  1  0.819500  0.737700  0.881000  1.0  -0.7324
  O  O408  1  0.884700  0.711700  0.964400  1.0  -0.5692
  O  O409  1  0.619000  0.180500  0.237700  1.0  -0.73
  O  O410  1  0.535600  0.115300  0.211700  1.0  -0.5686
  O  O411  1  0.381000  0.680500  0.262300  1.0  -0.7313
  O  O412  1  0.464400  0.615300  0.288300  1.0  -0.568
  O  O413  1  0.119000  0.319500  0.762300  1.0  -0.731
  O  O414  1  0.035600  0.384700  0.788300  1.0  -0.5674
  O  O415  1  0.881000  0.819500  0.737700  1.0  -0.7304
  O  O416  1  0.964400  0.884700  0.711700  1.0  -0.5685
