# generated using pymatgen
data_DyH15C24(NO)6
_symmetry_space_group_name_H-M   'P 1'
_cell_length_a   20.40320000
_cell_length_b   20.40320000
_cell_length_c   20.40320000
_cell_angle_alpha   90.00000000
_cell_angle_beta   90.00000000
_cell_angle_gamma   90.00000000
_symmetry_Int_Tables_number   1
_chemical_formula_structural   DyH15C24(NO)6
_chemical_formula_sum   'Dy8 H120 C192 N48 O48'
_cell_volume   8493.65976272
_cell_formula_units_Z   8
loop_
 _symmetry_equiv_pos_site_id
 _symmetry_equiv_pos_as_xyz
  1  'x, y, z'
loop_
 _atom_site_type_symbol
 _atom_site_label
 _atom_site_symmetry_multiplicity
 _atom_site_fract_x
 _atom_site_fract_y
 _atom_site_fract_z
 _atom_site_occupancy
 _atom_site_charge
  Dy  Dy1  1  0.154170  0.845830  0.345830  1.0  2.0069
  Dy  Dy2  1  0.345830  0.154170  0.845830  1.0  2.0075
  Dy  Dy3  1  0.845830  0.345830  0.154170  1.0  2.0193
  Dy  Dy4  1  0.654170  0.654170  0.654170  1.0  2.0169
  Dy  Dy5  1  0.333333  0.666667  0.166670  1.0  1.9126
  Dy  Dy6  1  0.166670  0.333333  0.666667  1.0  1.9114
  Dy  Dy7  1  0.666667  0.166670  0.333333  1.0  1.9118
  Dy  Dy8  1  0.833330  0.833330  0.833330  1.0  1.9145
  H  H9  1  0.960700  0.665500  0.994100  1.0  0.2933
  H  H10  1  0.992700  0.837800  0.118700  1.0  0.096
  H  H11  1  0.959100  0.765800  0.039400  1.0  0.0978
  H  H12  1  0.094100  0.634700  0.100900  1.0  0.0926
  H  H13  1  0.127600  0.707900  0.180300  1.0  0.0861
  H  H14  1  0.539300  0.334500  0.494100  1.0  0.2936
  H  H15  1  0.507300  0.162200  0.618700  1.0  0.096
  H  H16  1  0.540900  0.234200  0.539400  1.0  0.0973
  H  H17  1  0.405900  0.365300  0.600900  1.0  0.0923
  H  H18  1  0.372400  0.292100  0.680300  1.0  0.086
  H  H19  1  0.039300  0.165500  0.505900  1.0  0.2931
  H  H20  1  0.007300  0.337800  0.381300  1.0  0.096
  H  H21  1  0.040900  0.265800  0.460600  1.0  0.0975
  H  H22  1  0.905900  0.134700  0.399100  1.0  0.0923
  H  H23  1  0.872400  0.207900  0.319700  1.0  0.0854
  H  H24  1  0.460700  0.834500  0.005900  1.0  0.2931
  H  H25  1  0.492700  0.662200  0.881300  1.0  0.096
  H  H26  1  0.459100  0.734200  0.960600  1.0  0.0978
  H  H27  1  0.594100  0.865300  0.899100  1.0  0.0922
  H  H28  1  0.627600  0.792100  0.819700  1.0  0.0854
  H  H29  1  0.994100  0.960700  0.665500  1.0  0.2957
  H  H30  1  0.118700  0.992700  0.837800  1.0  0.0961
  H  H31  1  0.039400  0.959100  0.765800  1.0  0.0985
  H  H32  1  0.100900  0.094100  0.634700  1.0  0.0919
  H  H33  1  0.180300  0.127600  0.707900  1.0  0.0854
  H  H34  1  0.494100  0.539300  0.334500  1.0  0.2943
  H  H35  1  0.618700  0.507300  0.162200  1.0  0.0961
  H  H36  1  0.539400  0.540900  0.234200  1.0  0.0989
  H  H37  1  0.600900  0.405900  0.365300  1.0  0.0928
  H  H38  1  0.680300  0.372400  0.292100  1.0  0.0855
  H  H39  1  0.505900  0.039300  0.165500  1.0  0.2935
  H  H40  1  0.381300  0.007300  0.337800  1.0  0.096
  H  H41  1  0.460600  0.040900  0.265800  1.0  0.0985
  H  H42  1  0.399100  0.905900  0.134700  1.0  0.0921
  H  H43  1  0.319700  0.872400  0.207900  1.0  0.0853
  H  H44  1  0.005900  0.460700  0.834500  1.0  0.2948
  H  H45  1  0.881300  0.492700  0.662200  1.0  0.0959
  H  H46  1  0.960600  0.459100  0.734200  1.0  0.0986
  H  H47  1  0.899100  0.594100  0.865300  1.0  0.0926
  H  H48  1  0.819700  0.627600  0.792100  1.0  0.0856
  H  H49  1  0.665500  0.994100  0.960700  1.0  0.2943
  H  H50  1  0.837800  0.118700  0.992700  1.0  0.0959
  H  H51  1  0.765800  0.039400  0.959100  1.0  0.0973
  H  H52  1  0.634700  0.100900  0.094100  1.0  0.0923
  H  H53  1  0.707900  0.180300  0.127600  1.0  0.0849
  H  H54  1  0.334500  0.494100  0.539300  1.0  0.295
  H  H55  1  0.162200  0.618700  0.507300  1.0  0.0959
  H  H56  1  0.234200  0.539400  0.540900  1.0  0.0983
  H  H57  1  0.365300  0.600900  0.405900  1.0  0.0921
  H  H58  1  0.292100  0.680300  0.372400  1.0  0.085
  H  H59  1  0.165500  0.505900  0.039300  1.0  0.2939
  H  H60  1  0.337800  0.381300  0.007300  1.0  0.0957
  H  H61  1  0.265800  0.460600  0.040900  1.0  0.0978
  H  H62  1  0.134700  0.399100  0.905900  1.0  0.0925
  H  H63  1  0.207900  0.319700  0.872400  1.0  0.0848
  H  H64  1  0.834500  0.005900  0.460700  1.0  0.2939
  H  H65  1  0.662200  0.881300  0.492700  1.0  0.0961
  H  H66  1  0.734200  0.960600  0.459100  1.0  0.0981
  H  H67  1  0.865300  0.899100  0.594100  1.0  0.0926
  H  H68  1  0.792100  0.819700  0.627600  1.0  0.0853
  H  H69  1  0.989300  0.453200  0.338300  1.0  0.2631
  H  H70  1  0.177200  0.615500  0.284000  1.0  0.0842
  H  H71  1  0.097100  0.586000  0.360800  1.0  0.0918
  H  H72  1  0.034000  0.443500  0.237900  1.0  0.1043
  H  H73  1  0.114600  0.472000  0.163700  1.0  0.0903
  H  H74  1  0.510700  0.546800  0.838300  1.0  0.2635
  H  H75  1  0.322800  0.384500  0.784000  1.0  0.084
  H  H76  1  0.402900  0.414000  0.860800  1.0  0.092
  H  H77  1  0.466000  0.556500  0.737900  1.0  0.1044
  H  H78  1  0.385400  0.528000  0.663700  1.0  0.0905
  H  H79  1  0.010700  0.953200  0.161700  1.0  0.2638
  H  H80  1  0.822800  0.115500  0.216000  1.0  0.0843
  H  H81  1  0.902900  0.086000  0.139200  1.0  0.0918
  H  H82  1  0.966000  0.943500  0.262100  1.0  0.104
  H  H83  1  0.885400  0.972000  0.336300  1.0  0.0908
  H  H84  1  0.489300  0.046800  0.661700  1.0  0.2633
  H  H85  1  0.677200  0.884500  0.716000  1.0  0.0843
  H  H86  1  0.597100  0.914000  0.639200  1.0  0.0919
  H  H87  1  0.534000  0.056500  0.762100  1.0  0.1044
  H  H88  1  0.614600  0.028000  0.836300  1.0  0.0907
  H  H89  1  0.338300  0.989300  0.453200  1.0  0.2635
  H  H90  1  0.284000  0.177200  0.615500  1.0  0.084
  H  H91  1  0.360800  0.097100  0.586000  1.0  0.0913
  H  H92  1  0.237900  0.034000  0.443500  1.0  0.1043
  H  H93  1  0.163700  0.114600  0.472000  1.0  0.0904
  H  H94  1  0.838300  0.510700  0.546800  1.0  0.2635
  H  H95  1  0.784000  0.322800  0.384500  1.0  0.0846
  H  H96  1  0.860800  0.402900  0.414000  1.0  0.0911
  H  H97  1  0.737900  0.466000  0.556500  1.0  0.1044
  H  H98  1  0.663700  0.385400  0.528000  1.0  0.0908
  H  H99  1  0.161700  0.010700  0.953200  1.0  0.2633
  H  H100  1  0.216000  0.822800  0.115500  1.0  0.0843
  H  H101  1  0.139200  0.902900  0.086000  1.0  0.0908
  H  H102  1  0.262100  0.966000  0.943500  1.0  0.1039
  H  H103  1  0.336300  0.885400  0.972000  1.0  0.0899
  H  H104  1  0.661700  0.489300  0.046800  1.0  0.2633
  H  H105  1  0.716000  0.677200  0.884500  1.0  0.0847
  H  H106  1  0.639200  0.597100  0.914000  1.0  0.0911
  H  H107  1  0.762100  0.534000  0.056500  1.0  0.1037
  H  H108  1  0.836300  0.614600  0.028000  1.0  0.0907
  H  H109  1  0.453200  0.338300  0.989300  1.0  0.2617
  H  H110  1  0.615500  0.284000  0.177200  1.0  0.0843
  H  H111  1  0.586000  0.360800  0.097100  1.0  0.0917
  H  H112  1  0.443500  0.237900  0.034000  1.0  0.1031
  H  H113  1  0.472000  0.163700  0.114600  1.0  0.0898
  H  H114  1  0.546800  0.838300  0.510700  1.0  0.2634
  H  H115  1  0.384500  0.784000  0.322800  1.0  0.0847
  H  H116  1  0.414000  0.860800  0.402900  1.0  0.0916
  H  H117  1  0.556500  0.737900  0.466000  1.0  0.1019
  H  H118  1  0.528000  0.663700  0.385400  1.0  0.0899
  H  H119  1  0.953200  0.161700  0.010700  1.0  0.2619
  H  H120  1  0.115500  0.216000  0.822800  1.0  0.0844
  H  H121  1  0.086000  0.139200  0.902900  1.0  0.0915
  H  H122  1  0.943500  0.262100  0.966000  1.0  0.1032
  H  H123  1  0.972000  0.336300  0.885400  1.0  0.0902
  H  H124  1  0.046800  0.661700  0.489300  1.0  0.2634
  H  H125  1  0.884500  0.716000  0.677200  1.0  0.0844
  H  H126  1  0.914000  0.639200  0.597100  1.0  0.0915
  H  H127  1  0.056500  0.762100  0.534000  1.0  0.1031
  H  H128  1  0.028000  0.836300  0.614600  1.0  0.0899
  C  C129  1  0.087200  0.829300  0.206800  1.0  0.7195
  C  C130  1  0.065100  0.781500  0.156200  1.0  -0.1547
  C  C131  1  0.013900  0.796600  0.114700  1.0  -0.0697
  C  C132  1  0.993500  0.753600  0.068300  1.0  -0.1752
  C  C133  1  0.021800  0.691900  0.062200  1.0  0.248
  C  C134  1  0.073100  0.676100  0.104500  1.0  -0.1483
  C  C135  1  0.093500  0.719900  0.151000  1.0  -0.0325
  C  C136  1  0.023200  0.596500  0.985300  1.0  0.5624
  C  C137  1  0.412800  0.170700  0.706800  1.0  0.7197
  C  C138  1  0.434900  0.218500  0.656200  1.0  -0.1548
  C  C139  1  0.486100  0.203400  0.614700  1.0  -0.0703
  C  C140  1  0.506500  0.246400  0.568300  1.0  -0.1745
  C  C141  1  0.478200  0.308100  0.562200  1.0  0.248
  C  C142  1  0.426900  0.323900  0.604500  1.0  -0.1464
  C  C143  1  0.406500  0.280100  0.651000  1.0  -0.0321
  C  C144  1  0.476800  0.403500  0.485300  1.0  0.5616
  C  C145  1  0.912800  0.329300  0.293200  1.0  0.7206
  C  C146  1  0.934900  0.281500  0.343800  1.0  -0.1539
  C  C147  1  0.986100  0.296600  0.385300  1.0  -0.0706
  C  C148  1  0.006500  0.253600  0.431700  1.0  -0.1747
  C  C149  1  0.978200  0.191900  0.437800  1.0  0.2476
  C  C150  1  0.926900  0.176100  0.395500  1.0  -0.1475
  C  C151  1  0.906500  0.219900  0.349000  1.0  -0.0313
  C  C152  1  0.976800  0.096500  0.514700  1.0  0.5615
  C  C153  1  0.587200  0.670700  0.793200  1.0  0.7211
  C  C154  1  0.565100  0.718500  0.843800  1.0  -0.1541
  C  C155  1  0.513900  0.703400  0.885300  1.0  -0.0684
  C  C156  1  0.493500  0.746400  0.931700  1.0  -0.1747
  C  C157  1  0.521800  0.808100  0.937800  1.0  0.2479
  C  C158  1  0.573100  0.823900  0.895500  1.0  -0.147
  C  C159  1  0.593500  0.780100  0.849000  1.0  -0.0311
  C  C160  1  0.523200  0.903500  0.014700  1.0  0.5617
  C  C161  1  0.206800  0.087200  0.829300  1.0  0.7098
  C  C162  1  0.156200  0.065100  0.781500  1.0  -0.1548
  C  C163  1  0.114700  0.013900  0.796600  1.0  -0.0756
  C  C164  1  0.068300  0.993500  0.753600  1.0  -0.1762
  C  C165  1  0.062200  0.021800  0.691900  1.0  0.2481
  C  C166  1  0.104500  0.073100  0.676100  1.0  -0.1482
  C  C167  1  0.151000  0.093500  0.719900  1.0  -0.0338
  C  C168  1  0.985300  0.023200  0.596500  1.0  0.5822
  C  C169  1  0.706800  0.412800  0.170700  1.0  0.7081
  C  C170  1  0.656200  0.434900  0.218500  1.0  -0.1539
  C  C171  1  0.614700  0.486100  0.203400  1.0  -0.0741
  C  C172  1  0.568300  0.506500  0.246400  1.0  -0.1761
  C  C173  1  0.562200  0.478200  0.308100  1.0  0.2486
  C  C174  1  0.604500  0.426900  0.323900  1.0  -0.1482
  C  C175  1  0.651000  0.406500  0.280100  1.0  -0.0342
  C  C176  1  0.485300  0.476800  0.403500  1.0  0.5823
  C  C177  1  0.293200  0.912800  0.329300  1.0  0.7092
  C  C178  1  0.343800  0.934900  0.281500  1.0  -0.1538
  C  C179  1  0.385300  0.986100  0.296600  1.0  -0.0738
  C  C180  1  0.431700  0.006500  0.253600  1.0  -0.1741
  C  C181  1  0.437800  0.978200  0.191900  1.0  0.2479
  C  C182  1  0.395500  0.926900  0.176100  1.0  -0.1479
  C  C183  1  0.349000  0.906500  0.219900  1.0  -0.0326
  C  C184  1  0.514700  0.976800  0.096500  1.0  0.582
  C  C185  1  0.793200  0.587200  0.670700  1.0  0.7096
  C  C186  1  0.843800  0.565100  0.718500  1.0  -0.1549
  C  C187  1  0.885300  0.513900  0.703400  1.0  -0.0761
  C  C188  1  0.931700  0.493500  0.746400  1.0  -0.1735
  C  C189  1  0.937800  0.521800  0.808100  1.0  0.2472
  C  C190  1  0.895500  0.573100  0.823900  1.0  -0.148
  C  C191  1  0.849000  0.593500  0.780100  1.0  -0.0325
  C  C192  1  0.014700  0.523200  0.903500  1.0  0.5823
  C  C193  1  0.829300  0.206800  0.087200  1.0  0.7102
  C  C194  1  0.781500  0.156200  0.065100  1.0  -0.15
  C  C195  1  0.796600  0.114700  0.013900  1.0  -0.0733
  C  C196  1  0.753600  0.068300  0.993500  1.0  -0.1738
  C  C197  1  0.691900  0.062200  0.021800  1.0  0.248
  C  C198  1  0.676100  0.104500  0.073100  1.0  -0.147
  C  C199  1  0.719900  0.151000  0.093500  1.0  -0.0311
  C  C200  1  0.596500  0.985300  0.023200  1.0  0.5612
  C  C201  1  0.170700  0.706800  0.412800  1.0  0.7121
  C  C202  1  0.218500  0.656200  0.434900  1.0  -0.1507
  C  C203  1  0.203400  0.614700  0.486100  1.0  -0.0738
  C  C204  1  0.246400  0.568300  0.506500  1.0  -0.1772
  C  C205  1  0.308100  0.562200  0.478200  1.0  0.2479
  C  C206  1  0.323900  0.604500  0.426900  1.0  -0.1474
  C  C207  1  0.280100  0.651000  0.406500  1.0  -0.0305
  C  C208  1  0.403500  0.485300  0.476800  1.0  0.5623
  C  C209  1  0.329300  0.293200  0.912800  1.0  0.711
  C  C210  1  0.281500  0.343800  0.934900  1.0  -0.1522
  C  C211  1  0.296600  0.385300  0.986100  1.0  -0.0733
  C  C212  1  0.253600  0.431700  0.006500  1.0  -0.1744
  C  C213  1  0.191900  0.437800  0.978200  1.0  0.2478
  C  C214  1  0.176100  0.395500  0.926900  1.0  -0.1471
  C  C215  1  0.219900  0.349000  0.906500  1.0  -0.0321
  C  C216  1  0.096500  0.514700  0.976800  1.0  0.5614
  C  C217  1  0.670700  0.793200  0.587200  1.0  0.7119
  C  C218  1  0.718500  0.843800  0.565100  1.0  -0.1518
  C  C219  1  0.703400  0.885300  0.513900  1.0  -0.0736
  C  C220  1  0.746400  0.931700  0.493500  1.0  -0.1758
  C  C221  1  0.808100  0.937800  0.521800  1.0  0.2485
  C  C222  1  0.823900  0.895500  0.573100  1.0  -0.1469
  C  C223  1  0.780100  0.849000  0.593500  1.0  -0.0317
  C  C224  1  0.903500  0.014700  0.523200  1.0  0.5623
  C  C225  1  0.203600  0.567600  0.166300  1.0  0.7163
  C  C226  1  0.153900  0.547600  0.216300  1.0  -0.153
  C  C227  1  0.148300  0.580300  0.274600  1.0  -0.0257
  C  C228  1  0.100600  0.562500  0.320700  1.0  -0.1499
  C  C229  1  0.058200  0.510600  0.307900  1.0  0.2313
  C  C230  1  0.063500  0.478100  0.248000  1.0  -0.1848
  C  C231  1  0.110900  0.495600  0.203600  1.0  -0.0659
  C  C232  1  0.983400  0.518600  0.404000  1.0  0.6289
  C  C233  1  0.296400  0.432400  0.666300  1.0  0.717
  C  C234  1  0.346100  0.452400  0.716300  1.0  -0.1532
  C  C235  1  0.351700  0.419700  0.774600  1.0  -0.0258
  C  C236  1  0.399400  0.437500  0.820700  1.0  -0.1501
  C  C237  1  0.441800  0.489400  0.807900  1.0  0.2316
  C  C238  1  0.436500  0.521900  0.748000  1.0  -0.1848
  C  C239  1  0.389100  0.504400  0.703600  1.0  -0.0665
  C  C240  1  0.516600  0.481400  0.904000  1.0  0.629
  C  C241  1  0.796400  0.067600  0.333700  1.0  0.7169
  C  C242  1  0.846100  0.047600  0.283700  1.0  -0.154
  C  C243  1  0.851700  0.080300  0.225400  1.0  -0.0245
  C  C244  1  0.899400  0.062500  0.179300  1.0  -0.1489
  C  C245  1  0.941800  0.010600  0.192100  1.0  0.2312
  C  C246  1  0.936500  0.978100  0.252000  1.0  -0.185
  C  C247  1  0.889100  0.995600  0.296400  1.0  -0.0663
  C  C248  1  0.016600  0.018600  0.096000  1.0  0.6286
  C  C249  1  0.703600  0.932400  0.833700  1.0  0.7163
  C  C250  1  0.653900  0.952400  0.783700  1.0  -0.1536
  C  C251  1  0.648300  0.919700  0.725400  1.0  -0.0259
  C  C252  1  0.600600  0.937500  0.679300  1.0  -0.1496
  C  C253  1  0.558200  0.989400  0.692100  1.0  0.2319
  C  C254  1  0.563500  0.021900  0.752000  1.0  -0.1836
  C  C255  1  0.610900  0.004400  0.796400  1.0  -0.0671
  C  C256  1  0.483400  0.981400  0.596000  1.0  0.6291
  C  C257  1  0.166300  0.203600  0.567600  1.0  0.7182
  C  C258  1  0.216300  0.153900  0.547600  1.0  -0.1492
  C  C259  1  0.274600  0.148300  0.580300  1.0  -0.0248
  C  C260  1  0.320700  0.100600  0.562500  1.0  -0.1488
  C  C261  1  0.307900  0.058200  0.510600  1.0  0.2311
  C  C262  1  0.248000  0.063500  0.478100  1.0  -0.1864
  C  C263  1  0.203600  0.110900  0.495600  1.0  -0.0633
  C  C264  1  0.404000  0.983400  0.518600  1.0  0.6029
  C  C265  1  0.666300  0.296400  0.432400  1.0  0.7177
  C  C266  1  0.716300  0.346100  0.452400  1.0  -0.1505
  C  C267  1  0.774600  0.351700  0.419700  1.0  -0.0242
  C  C268  1  0.820700  0.399400  0.437500  1.0  -0.1486
  C  C269  1  0.807900  0.441800  0.489400  1.0  0.2309
  C  C270  1  0.748000  0.436500  0.521900  1.0  -0.1853
  C  C271  1  0.703600  0.389100  0.504400  1.0  -0.0646
  C  C272  1  0.904000  0.516600  0.481400  1.0  0.6034
  C  C273  1  0.333700  0.796400  0.067600  1.0  0.717
  C  C274  1  0.283700  0.846100  0.047600  1.0  -0.1504
  C  C275  1  0.225400  0.851700  0.080300  1.0  -0.0252
  C  C276  1  0.179300  0.899400  0.062500  1.0  -0.1493
  C  C277  1  0.192100  0.941800  0.010600  1.0  0.2315
  C  C278  1  0.252000  0.936500  0.978100  1.0  -0.1868
  C  C279  1  0.296400  0.889100  0.995600  1.0  -0.0645
  C  C280  1  0.096000  0.016600  0.018600  1.0  0.6021
  C  C281  1  0.833700  0.703600  0.932400  1.0  0.7182
  C  C282  1  0.783700  0.653900  0.952400  1.0  -0.1499
  C  C283  1  0.725400  0.648300  0.919700  1.0  -0.0252
  C  C284  1  0.679300  0.600600  0.937500  1.0  -0.1493
  C  C285  1  0.692100  0.558200  0.989400  1.0  0.231
  C  C286  1  0.752000  0.563500  0.021900  1.0  -0.1846
  C  C287  1  0.796400  0.610900  0.004400  1.0  -0.0636
  C  C288  1  0.596000  0.483400  0.981400  1.0  0.602
  C  C289  1  0.567600  0.166300  0.203600  1.0  0.7211
  C  C290  1  0.547600  0.216300  0.153900  1.0  -0.1503
  C  C291  1  0.580300  0.274600  0.148300  1.0  -0.0272
  C  C292  1  0.562500  0.320700  0.100600  1.0  -0.148
  C  C293  1  0.510600  0.307900  0.058200  1.0  0.2301
  C  C294  1  0.478100  0.248000  0.063500  1.0  -0.1842
  C  C295  1  0.495600  0.203600  0.110900  1.0  -0.0598
  C  C296  1  0.518600  0.404000  0.983400  1.0  0.6291
  C  C297  1  0.432400  0.666300  0.296400  1.0  0.7221
  C  C298  1  0.452400  0.716300  0.346100  1.0  -0.1524
  C  C299  1  0.419700  0.774600  0.351700  1.0  -0.0263
  C  C300  1  0.437500  0.820700  0.399400  1.0  -0.1478
  C  C301  1  0.489400  0.807900  0.441800  1.0  0.2307
  C  C302  1  0.521900  0.748000  0.436500  1.0  -0.1839
  C  C303  1  0.504400  0.703600  0.389100  1.0  -0.0611
  C  C304  1  0.481400  0.904000  0.516600  1.0  0.6277
  C  C305  1  0.067600  0.333700  0.796400  1.0  0.7216
  C  C306  1  0.047600  0.283700  0.846100  1.0  -0.1515
  C  C307  1  0.080300  0.225400  0.851700  1.0  -0.0263
  C  C308  1  0.062500  0.179300  0.899400  1.0  -0.1492
  C  C309  1  0.010600  0.192100  0.941800  1.0  0.2303
  C  C310  1  0.978100  0.252000  0.936500  1.0  -0.1837
  C  C311  1  0.995600  0.296400  0.889100  1.0  -0.0612
  C  C312  1  0.018600  0.096000  0.016600  1.0  0.6291
  C  C313  1  0.932400  0.833700  0.703600  1.0  0.7233
  C  C314  1  0.952400  0.783700  0.653900  1.0  -0.1517
  C  C315  1  0.919700  0.725400  0.648300  1.0  -0.0261
  C  C316  1  0.937500  0.679300  0.600600  1.0  -0.1489
  C  C317  1  0.989400  0.692100  0.558200  1.0  0.2312
  C  C318  1  0.021900  0.752000  0.563500  1.0  -0.1839
  C  C319  1  0.004400  0.796400  0.610900  1.0  -0.0604
  C  C320  1  0.981400  0.596000  0.483400  1.0  0.6285
  N  N321  1  0.997900  0.652300  0.011600  1.0  -0.4032
  N  N322  1  0.989600  0.576000  0.931200  1.0  -0.6249
  N  N323  1  0.502100  0.347700  0.511600  1.0  -0.4044
  N  N324  1  0.510400  0.424000  0.431200  1.0  -0.6249
  N  N325  1  0.002100  0.152300  0.488400  1.0  -0.4036
  N  N326  1  0.010400  0.076000  0.568800  1.0  -0.6243
  N  N327  1  0.497900  0.847700  0.988400  1.0  -0.4037
  N  N328  1  0.489600  0.924000  0.068800  1.0  -0.6249
  N  N329  1  0.011600  0.997900  0.652300  1.0  -0.4041
  N  N330  1  0.931200  0.989600  0.576000  1.0  -0.6247
  N  N331  1  0.511600  0.502100  0.347700  1.0  -0.4032
  N  N332  1  0.431200  0.510400  0.424000  1.0  -0.6256
  N  N333  1  0.488400  0.002100  0.152300  1.0  -0.4045
  N  N334  1  0.568800  0.010400  0.076000  1.0  -0.6253
  N  N335  1  0.988400  0.497900  0.847700  1.0  -0.4051
  N  N336  1  0.068800  0.489600  0.924000  1.0  -0.6261
  N  N337  1  0.652300  0.011600  0.997900  1.0  -0.4058
  N  N338  1  0.576000  0.931200  0.989600  1.0  -0.6269
  N  N339  1  0.347700  0.511600  0.502100  1.0  -0.4049
  N  N340  1  0.424000  0.431200  0.510400  1.0  -0.6271
  N  N341  1  0.152300  0.488400  0.002100  1.0  -0.4043
  N  N342  1  0.076000  0.568800  0.010400  1.0  -0.6262
  N  N343  1  0.847700  0.988400  0.497900  1.0  -0.4049
  N  N344  1  0.924000  0.068800  0.489600  1.0  -0.6261
  N  N345  1  0.008000  0.490400  0.349500  1.0  -0.3844
  N  N346  1  0.011300  0.572000  0.429400  1.0  -0.5858
  N  N347  1  0.492000  0.509600  0.849500  1.0  -0.3842
  N  N348  1  0.488700  0.428000  0.929400  1.0  -0.5878
  N  N349  1  0.992000  0.990400  0.150500  1.0  -0.3849
  N  N350  1  0.988700  0.072000  0.070600  1.0  -0.5869
  N  N351  1  0.508000  0.009600  0.650500  1.0  -0.3836
  N  N352  1  0.511300  0.928000  0.570600  1.0  -0.5857
  N  N353  1  0.349500  0.008000  0.490400  1.0  -0.3882
  N  N354  1  0.429400  0.011300  0.572000  1.0  -0.586
  N  N355  1  0.849500  0.492000  0.509600  1.0  -0.3857
  N  N356  1  0.929400  0.488700  0.428000  1.0  -0.5863
  N  N357  1  0.150500  0.992000  0.990400  1.0  -0.3875
  N  N358  1  0.070600  0.988700  0.072000  1.0  -0.5864
  N  N359  1  0.650500  0.508000  0.009600  1.0  -0.3856
  N  N360  1  0.570600  0.511300  0.928000  1.0  -0.5866
  N  N361  1  0.490400  0.349500  0.008000  1.0  -0.3858
  N  N362  1  0.572000  0.429400  0.011300  1.0  -0.5861
  N  N363  1  0.509600  0.849500  0.492000  1.0  -0.386
  N  N364  1  0.428000  0.929400  0.488700  1.0  -0.5846
  N  N365  1  0.990400  0.150500  0.992000  1.0  -0.3856
  N  N366  1  0.072000  0.070600  0.988700  1.0  -0.5846
  N  N367  1  0.009600  0.650500  0.508000  1.0  -0.3854
  N  N368  1  0.928000  0.570600  0.511300  1.0  -0.5854
  O  O369  1  0.134400  0.811000  0.243930  1.0  -0.6252
  O  O370  1  0.059400  0.883580  0.212000  1.0  -0.5916
  O  O371  1  0.365600  0.189000  0.743930  1.0  -0.6253
  O  O372  1  0.440600  0.116420  0.712000  1.0  -0.5918
  O  O373  1  0.865600  0.311000  0.256070  1.0  -0.6258
  O  O374  1  0.940600  0.383580  0.288000  1.0  -0.591
  O  O375  1  0.634400  0.689000  0.756070  1.0  -0.6247
  O  O376  1  0.559400  0.616420  0.788000  1.0  -0.5901
  O  O377  1  0.243930  0.134400  0.811000  1.0  -0.6263
  O  O378  1  0.212000  0.059400  0.883580  1.0  -0.5918
  O  O379  1  0.743930  0.365600  0.189000  1.0  -0.6268
  O  O380  1  0.712000  0.440600  0.116420  1.0  -0.591
  O  O381  1  0.256070  0.865600  0.311000  1.0  -0.6268
  O  O382  1  0.288000  0.940600  0.383580  1.0  -0.5916
  O  O383  1  0.756070  0.634400  0.689000  1.0  -0.627
  O  O384  1  0.788000  0.559400  0.616420  1.0  -0.5905
  O  O385  1  0.811000  0.243930  0.134400  1.0  -0.6268
  O  O386  1  0.883580  0.212000  0.059400  1.0  -0.5954
  O  O387  1  0.189000  0.743930  0.365600  1.0  -0.6278
  O  O388  1  0.116420  0.712000  0.440600  1.0  -0.5941
  O  O389  1  0.311000  0.256070  0.865600  1.0  -0.6266
  O  O390  1  0.383580  0.288000  0.940600  1.0  -0.5959
  O  O391  1  0.689000  0.756070  0.634400  1.0  -0.6277
  O  O392  1  0.616420  0.788000  0.559400  1.0  -0.5947
  O  O393  1  0.236920  0.618150  0.180250  1.0  -0.7431
  O  O394  1  0.211080  0.534300  0.115630  1.0  -0.5892
  O  O395  1  0.263080  0.381850  0.680250  1.0  -0.7437
  O  O396  1  0.288920  0.465700  0.615630  1.0  -0.588
  O  O397  1  0.763080  0.118150  0.319750  1.0  -0.7453
  O  O398  1  0.788920  0.034300  0.384370  1.0  -0.5875
  O  O399  1  0.736920  0.881850  0.819750  1.0  -0.7428
  O  O400  1  0.711080  0.965700  0.884370  1.0  -0.5879
  O  O401  1  0.180250  0.236920  0.618150  1.0  -0.7446
  O  O402  1  0.115630  0.211080  0.534300  1.0  -0.5875
  O  O403  1  0.680250  0.263080  0.381850  1.0  -0.7453
  O  O404  1  0.615630  0.288920  0.465700  1.0  -0.5886
  O  O405  1  0.319750  0.763080  0.118150  1.0  -0.7452
  O  O406  1  0.384370  0.788920  0.034300  1.0  -0.5895
  O  O407  1  0.819750  0.736920  0.881850  1.0  -0.7449
  O  O408  1  0.884370  0.711080  0.965700  1.0  -0.5882
  O  O409  1  0.618150  0.180250  0.236920  1.0  -0.7434
  O  O410  1  0.534300  0.115630  0.211080  1.0  -0.5856
  O  O411  1  0.381850  0.680250  0.263080  1.0  -0.7436
  O  O412  1  0.465700  0.615630  0.288920  1.0  -0.5863
  O  O413  1  0.118150  0.319750  0.763080  1.0  -0.7444
  O  O414  1  0.034300  0.384370  0.788920  1.0  -0.5845
  O  O415  1  0.881850  0.819750  0.736920  1.0  -0.7434
  O  O416  1  0.965700  0.884370  0.711080  1.0  -0.586
