# generated using pymatgen
data_GdH15C24(NO)6
_symmetry_space_group_name_H-M   'P 1'
_cell_length_a   20.42500000
_cell_length_b   20.42500000
_cell_length_c   20.42500000
_cell_angle_alpha   90.00000000
_cell_angle_beta   90.00000000
_cell_angle_gamma   90.00000000
_symmetry_Int_Tables_number   1
_chemical_formula_structural   GdH15C24(NO)6
_chemical_formula_sum   'Gd8 H120 C192 N48 O48'
_cell_volume   8520.91426563
_cell_formula_units_Z   8
loop_
 _symmetry_equiv_pos_site_id
 _symmetry_equiv_pos_as_xyz
  1  'x, y, z'
loop_
 _atom_site_type_symbol
 _atom_site_label
 _atom_site_symmetry_multiplicity
 _atom_site_fract_x
 _atom_site_fract_y
 _atom_site_fract_z
 _atom_site_occupancy
 _atom_site_charge
  Gd  Gd1  1  0.152520  0.847480  0.347480  1.0  1.9972
  Gd  Gd2  1  0.347480  0.152520  0.847480  1.0  1.9972
  Gd  Gd3  1  0.847480  0.347480  0.152520  1.0  2.0078
  Gd  Gd4  1  0.652520  0.652520  0.652520  1.0  2.0063
  Gd  Gd5  1  0.333840  0.666160  0.166160  1.0  1.7451
  Gd  Gd6  1  0.166160  0.333840  0.666160  1.0  1.7459
  Gd  Gd7  1  0.666160  0.166160  0.333840  1.0  1.7462
  Gd  Gd8  1  0.833840  0.833840  0.833840  1.0  1.7473
  H  H9  1  0.963300  0.670300  0.990700  1.0  0.28
  H  H10  1  0.997800  0.839500  0.117100  1.0  0.1009
  H  H11  1  0.960600  0.767700  0.039300  1.0  0.1145
  H  H12  1  0.095200  0.635200  0.100300  1.0  0.0996
  H  H13  1  0.127600  0.706200  0.179400  1.0  0.0965
  H  H14  1  0.536700  0.329700  0.490700  1.0  0.2796
  H  H15  1  0.502200  0.160500  0.617100  1.0  0.1006
  H  H16  1  0.539400  0.232300  0.539300  1.0  0.1144
  H  H17  1  0.404800  0.364800  0.600300  1.0  0.0992
  H  H18  1  0.372400  0.293800  0.679400  1.0  0.0966
  H  H19  1  0.036700  0.170300  0.509300  1.0  0.2793
  H  H20  1  0.002200  0.339500  0.382900  1.0  0.1003
  H  H21  1  0.039400  0.267700  0.460700  1.0  0.1147
  H  H22  1  0.904800  0.135200  0.399700  1.0  0.0995
  H  H23  1  0.872400  0.206200  0.320600  1.0  0.096
  H  H24  1  0.463300  0.829700  0.009300  1.0  0.28
  H  H25  1  0.497800  0.660500  0.882900  1.0  0.1008
  H  H26  1  0.460600  0.732300  0.960700  1.0  0.1142
  H  H27  1  0.595200  0.864800  0.899700  1.0  0.0989
  H  H28  1  0.627600  0.793800  0.820600  1.0  0.0958
  H  H29  1  0.990700  0.963300  0.670300  1.0  0.2827
  H  H30  1  0.117100  0.997800  0.839500  1.0  0.1011
  H  H31  1  0.039300  0.960600  0.767700  1.0  0.1147
  H  H32  1  0.100300  0.095200  0.635200  1.0  0.0992
  H  H33  1  0.179400  0.127600  0.706200  1.0  0.0961
  H  H34  1  0.490700  0.536700  0.329700  1.0  0.2814
  H  H35  1  0.617100  0.502200  0.160500  1.0  0.1011
  H  H36  1  0.539300  0.539400  0.232300  1.0  0.1161
  H  H37  1  0.600300  0.404800  0.364800  1.0  0.1003
  H  H38  1  0.679400  0.372400  0.293800  1.0  0.0961
  H  H39  1  0.509300  0.036700  0.170300  1.0  0.2813
  H  H40  1  0.382900  0.002200  0.339500  1.0  0.1006
  H  H41  1  0.460700  0.039400  0.267700  1.0  0.1148
  H  H42  1  0.399700  0.904800  0.135200  1.0  0.0994
  H  H43  1  0.320600  0.872400  0.206200  1.0  0.0961
  H  H44  1  0.009300  0.463300  0.829700  1.0  0.2821
  H  H45  1  0.882900  0.497800  0.660500  1.0  0.101
  H  H46  1  0.960700  0.460600  0.732300  1.0  0.115
  H  H47  1  0.899700  0.595200  0.864800  1.0  0.0998
  H  H48  1  0.820600  0.627600  0.793800  1.0  0.0964
  H  H49  1  0.670300  0.990700  0.963300  1.0  0.281
  H  H50  1  0.839500  0.117100  0.997800  1.0  0.1014
  H  H51  1  0.767700  0.039300  0.960600  1.0  0.1144
  H  H52  1  0.635200  0.100300  0.095200  1.0  0.0993
  H  H53  1  0.706200  0.179400  0.127600  1.0  0.096
  H  H54  1  0.329700  0.490700  0.536700  1.0  0.2814
  H  H55  1  0.160500  0.617100  0.502200  1.0  0.101
  H  H56  1  0.232300  0.539300  0.539400  1.0  0.1153
  H  H57  1  0.364800  0.600300  0.404800  1.0  0.0991
  H  H58  1  0.293800  0.679400  0.372400  1.0  0.0959
  H  H59  1  0.170300  0.509300  0.036700  1.0  0.2807
  H  H60  1  0.339500  0.382900  0.002200  1.0  0.101
  H  H61  1  0.267700  0.460700  0.039400  1.0  0.1145
  H  H62  1  0.135200  0.399700  0.904800  1.0  0.0994
  H  H63  1  0.206200  0.320600  0.872400  1.0  0.0958
  H  H64  1  0.829700  0.009300  0.463300  1.0  0.2795
  H  H65  1  0.660500  0.882900  0.497800  1.0  0.1013
  H  H66  1  0.732300  0.960700  0.460600  1.0  0.1151
  H  H67  1  0.864800  0.899700  0.595200  1.0  0.0995
  H  H68  1  0.793800  0.820600  0.627600  1.0  0.0961
  H  H69  1  0.986900  0.454800  0.337100  1.0  0.279
  H  H70  1  0.175800  0.613900  0.282700  1.0  0.09
  H  H71  1  0.096400  0.586800  0.358500  1.0  0.1176
  H  H72  1  0.033000  0.443400  0.236700  1.0  0.1172
  H  H73  1  0.113200  0.472000  0.163000  1.0  0.1
  H  H74  1  0.513100  0.545200  0.837100  1.0  0.2794
  H  H75  1  0.324200  0.386100  0.782700  1.0  0.0901
  H  H76  1  0.403600  0.413200  0.858500  1.0  0.1174
  H  H77  1  0.467000  0.556600  0.736700  1.0  0.1175
  H  H78  1  0.386800  0.528000  0.663000  1.0  0.1004
  H  H79  1  0.013100  0.954800  0.162900  1.0  0.2787
  H  H80  1  0.824200  0.113900  0.217300  1.0  0.0902
  H  H81  1  0.903600  0.086800  0.141500  1.0  0.117
  H  H82  1  0.967000  0.943400  0.263300  1.0  0.1165
  H  H83  1  0.886800  0.972000  0.337000  1.0  0.1002
  H  H84  1  0.486900  0.045200  0.662900  1.0  0.2796
  H  H85  1  0.675800  0.886100  0.717300  1.0  0.0903
  H  H86  1  0.596400  0.913200  0.641500  1.0  0.117
  H  H87  1  0.533000  0.056600  0.763300  1.0  0.1171
  H  H88  1  0.613200  0.028000  0.837000  1.0  0.1001
  H  H89  1  0.337100  0.986900  0.454800  1.0  0.2779
  H  H90  1  0.282700  0.175800  0.613900  1.0  0.0902
  H  H91  1  0.358500  0.096400  0.586800  1.0  0.1171
  H  H92  1  0.236700  0.033000  0.443400  1.0  0.1165
  H  H93  1  0.163000  0.113200  0.472000  1.0  0.0996
  H  H94  1  0.837100  0.513100  0.545200  1.0  0.2797
  H  H95  1  0.782700  0.324200  0.386100  1.0  0.0906
  H  H96  1  0.858500  0.403600  0.413200  1.0  0.117
  H  H97  1  0.736700  0.467000  0.556600  1.0  0.117
  H  H98  1  0.663000  0.386800  0.528000  1.0  0.1002
  H  H99  1  0.162900  0.013100  0.954800  1.0  0.2787
  H  H100  1  0.217300  0.824200  0.113900  1.0  0.0907
  H  H101  1  0.141500  0.903600  0.086800  1.0  0.117
  H  H102  1  0.263300  0.967000  0.943400  1.0  0.1162
  H  H103  1  0.337000  0.886800  0.972000  1.0  0.0994
  H  H104  1  0.662900  0.486900  0.045200  1.0  0.2796
  H  H105  1  0.717300  0.675800  0.886100  1.0  0.0906
  H  H106  1  0.641500  0.596400  0.913200  1.0  0.1169
  H  H107  1  0.763300  0.533000  0.056600  1.0  0.1166
  H  H108  1  0.837000  0.613200  0.028000  1.0  0.1
  H  H109  1  0.454800  0.337100  0.986900  1.0  0.2779
  H  H110  1  0.613900  0.282700  0.175800  1.0  0.0905
  H  H111  1  0.586800  0.358500  0.096400  1.0  0.1174
  H  H112  1  0.443400  0.236700  0.033000  1.0  0.1162
  H  H113  1  0.472000  0.163000  0.113200  1.0  0.0988
  H  H114  1  0.545200  0.837100  0.513100  1.0  0.278
  H  H115  1  0.386100  0.782700  0.324200  1.0  0.0907
  H  H116  1  0.413200  0.858500  0.403600  1.0  0.1174
  H  H117  1  0.556600  0.736700  0.467000  1.0  0.1154
  H  H118  1  0.528000  0.663000  0.386800  1.0  0.0989
  H  H119  1  0.954800  0.162900  0.013100  1.0  0.2788
  H  H120  1  0.113900  0.217300  0.824200  1.0  0.0904
  H  H121  1  0.086800  0.141500  0.903600  1.0  0.1172
  H  H122  1  0.943400  0.263300  0.967000  1.0  0.1162
  H  H123  1  0.972000  0.337000  0.886800  1.0  0.0993
  H  H124  1  0.045200  0.662900  0.486900  1.0  0.278
  H  H125  1  0.886100  0.717300  0.675800  1.0  0.0907
  H  H126  1  0.913200  0.641500  0.596400  1.0  0.1171
  H  H127  1  0.056600  0.763300  0.533000  1.0  0.1164
  H  H128  1  0.028000  0.837000  0.613200  1.0  0.0987
  C  C129  1  0.087600  0.828000  0.209000  1.0  0.7674
  C  C130  1  0.066100  0.781400  0.156100  1.0  -0.1358
  C  C131  1  0.017300  0.797400  0.114000  1.0  -0.0273
  C  C132  1  0.995300  0.755000  0.067500  1.0  -0.2113
  C  C133  1  0.023800  0.692200  0.060700  1.0  0.2371
  C  C134  1  0.074300  0.676600  0.103700  1.0  -0.1583
  C  C135  1  0.093900  0.718900  0.149900  1.0  -0.0393
  C  C136  1  0.025200  0.597900  0.983500  1.0  0.3288
  C  C137  1  0.412400  0.172000  0.709000  1.0  0.7677
  C  C138  1  0.433900  0.218600  0.656100  1.0  -0.1334
  C  C139  1  0.482700  0.202600  0.614000  1.0  -0.0285
  C  C140  1  0.504700  0.245000  0.567500  1.0  -0.2121
  C  C141  1  0.476200  0.307800  0.560700  1.0  0.237
  C  C142  1  0.425700  0.323400  0.603700  1.0  -0.1582
  C  C143  1  0.406100  0.281100  0.649900  1.0  -0.0385
  C  C144  1  0.474800  0.402100  0.483500  1.0  0.3289
  C  C145  1  0.912400  0.328000  0.291000  1.0  0.7686
  C  C146  1  0.933900  0.281400  0.343900  1.0  -0.1336
  C  C147  1  0.982700  0.297400  0.386000  1.0  -0.0284
  C  C148  1  0.004700  0.255000  0.432500  1.0  -0.2122
  C  C149  1  0.976200  0.192200  0.439300  1.0  0.2366
  C  C150  1  0.925700  0.176600  0.396300  1.0  -0.1588
  C  C151  1  0.906100  0.218900  0.350100  1.0  -0.0384
  C  C152  1  0.974800  0.097900  0.516500  1.0  0.3285
  C  C153  1  0.587600  0.672000  0.791000  1.0  0.7679
  C  C154  1  0.566100  0.718600  0.843900  1.0  -0.1351
  C  C155  1  0.517300  0.702600  0.886000  1.0  -0.0274
  C  C156  1  0.495300  0.745000  0.932500  1.0  -0.2133
  C  C157  1  0.523800  0.807800  0.939300  1.0  0.2365
  C  C158  1  0.574300  0.823400  0.896300  1.0  -0.1577
  C  C159  1  0.593900  0.781100  0.850100  1.0  -0.0385
  C  C160  1  0.525200  0.902100  0.016500  1.0  0.3287
  C  C161  1  0.209000  0.087600  0.828000  1.0  0.758
  C  C162  1  0.156100  0.066100  0.781400  1.0  -0.1375
  C  C163  1  0.114000  0.017300  0.797400  1.0  -0.0365
  C  C164  1  0.067500  0.995300  0.755000  1.0  -0.2157
  C  C165  1  0.060700  0.023800  0.692200  1.0  0.2372
  C  C166  1  0.103700  0.074300  0.676600  1.0  -0.1597
  C  C167  1  0.149900  0.093900  0.718900  1.0  -0.0395
  C  C168  1  0.983500  0.025200  0.597900  1.0  0.3359
  C  C169  1  0.709000  0.412400  0.172000  1.0  0.7567
  C  C170  1  0.656100  0.433900  0.218600  1.0  -0.1376
  C  C171  1  0.614000  0.482700  0.202600  1.0  -0.0357
  C  C172  1  0.567500  0.504700  0.245000  1.0  -0.2151
  C  C173  1  0.560700  0.476200  0.307800  1.0  0.2378
  C  C174  1  0.603700  0.425700  0.323400  1.0  -0.1588
  C  C175  1  0.649900  0.406100  0.281100  1.0  -0.0396
  C  C176  1  0.483500  0.474800  0.402100  1.0  0.3362
  C  C177  1  0.291000  0.912400  0.328000  1.0  0.7585
  C  C178  1  0.343900  0.933900  0.281400  1.0  -0.1372
  C  C179  1  0.386000  0.982700  0.297400  1.0  -0.0361
  C  C180  1  0.432500  0.004700  0.255000  1.0  -0.2136
  C  C181  1  0.439300  0.976200  0.192200  1.0  0.2369
  C  C182  1  0.396300  0.925700  0.176600  1.0  -0.1598
  C  C183  1  0.350100  0.906100  0.218900  1.0  -0.0395
  C  C184  1  0.516500  0.974800  0.097900  1.0  0.3358
  C  C185  1  0.791000  0.587600  0.672000  1.0  0.7587
  C  C186  1  0.843900  0.566100  0.718600  1.0  -0.1381
  C  C187  1  0.886000  0.517300  0.702600  1.0  -0.0362
  C  C188  1  0.932500  0.495300  0.745000  1.0  -0.2137
  C  C189  1  0.939300  0.523800  0.807800  1.0  0.2367
  C  C190  1  0.896300  0.574300  0.823400  1.0  -0.1592
  C  C191  1  0.850100  0.593900  0.781100  1.0  -0.0392
  C  C192  1  0.016500  0.525200  0.902100  1.0  0.336
  C  C193  1  0.828000  0.209000  0.087600  1.0  0.7562
  C  C194  1  0.781400  0.156100  0.066100  1.0  -0.132
  C  C195  1  0.797400  0.114000  0.017300  1.0  -0.0309
  C  C196  1  0.755000  0.067500  0.995300  1.0  -0.2132
  C  C197  1  0.692200  0.060700  0.023800  1.0  0.2372
  C  C198  1  0.676600  0.103700  0.074300  1.0  -0.1592
  C  C199  1  0.718900  0.149900  0.093900  1.0  -0.0384
  C  C200  1  0.597900  0.983500  0.025200  1.0  0.3296
  C  C201  1  0.172000  0.709000  0.412400  1.0  0.7557
  C  C202  1  0.218600  0.656100  0.433900  1.0  -0.1308
  C  C203  1  0.202600  0.614000  0.482700  1.0  -0.0312
  C  C204  1  0.245000  0.567500  0.504700  1.0  -0.215
  C  C205  1  0.307800  0.560700  0.476200  1.0  0.2367
  C  C206  1  0.323400  0.603700  0.425700  1.0  -0.1577
  C  C207  1  0.281100  0.649900  0.406100  1.0  -0.0383
  C  C208  1  0.402100  0.483500  0.474800  1.0  0.3304
  C  C209  1  0.328000  0.291000  0.912400  1.0  0.7557
  C  C210  1  0.281400  0.343900  0.933900  1.0  -0.132
  C  C211  1  0.297400  0.386000  0.982700  1.0  -0.0317
  C  C212  1  0.255000  0.432500  0.004700  1.0  -0.2128
  C  C213  1  0.192200  0.439300  0.976200  1.0  0.237
  C  C214  1  0.176600  0.396300  0.925700  1.0  -0.16
  C  C215  1  0.218900  0.350100  0.906100  1.0  -0.0386
  C  C216  1  0.097900  0.516500  0.974800  1.0  0.3298
  C  C217  1  0.672000  0.791000  0.587600  1.0  0.7558
  C  C218  1  0.718600  0.843900  0.566100  1.0  -0.1315
  C  C219  1  0.702600  0.886000  0.517300  1.0  -0.0308
  C  C220  1  0.745000  0.932500  0.495300  1.0  -0.2135
  C  C221  1  0.807800  0.939300  0.523800  1.0  0.2373
  C  C222  1  0.823400  0.896300  0.574300  1.0  -0.1581
  C  C223  1  0.781100  0.850100  0.593900  1.0  -0.0379
  C  C224  1  0.902100  0.016500  0.525200  1.0  0.3304
  C  C225  1  0.203100  0.565500  0.166600  1.0  0.7317
  C  C226  1  0.152500  0.546100  0.215100  1.0  -0.1718
  C  C227  1  0.146600  0.578900  0.273400  1.0  -0.0196
  C  C228  1  0.099700  0.562700  0.318900  1.0  -0.1807
  C  C229  1  0.057200  0.510800  0.306600  1.0  0.2386
  C  C230  1  0.062400  0.478000  0.246800  1.0  -0.1954
  C  C231  1  0.109700  0.495400  0.203000  1.0  -0.0459
  C  C232  1  0.982000  0.519100  0.402500  1.0  0.6182
  C  C233  1  0.296900  0.434500  0.666667  1.0  0.7312
  C  C234  1  0.347500  0.453900  0.715100  1.0  -0.1727
  C  C235  1  0.353400  0.421100  0.773400  1.0  -0.0215
  C  C236  1  0.400300  0.437300  0.818900  1.0  -0.1808
  C  C237  1  0.442800  0.489200  0.806600  1.0  0.2389
  C  C238  1  0.437600  0.522000  0.746800  1.0  -0.194
  C  C239  1  0.390300  0.504600  0.703000  1.0  -0.0463
  C  C240  1  0.518000  0.480900  0.902500  1.0  0.6182
  C  C241  1  0.796900  0.065500  0.333400  1.0  0.7317
  C  C242  1  0.847500  0.046100  0.284900  1.0  -0.173
  C  C243  1  0.853400  0.078900  0.226600  1.0  -0.0189
  C  C244  1  0.900300  0.062700  0.181100  1.0  -0.1796
  C  C245  1  0.942800  0.010800  0.193400  1.0  0.2382
  C  C246  1  0.937600  0.978000  0.253200  1.0  -0.1952
  C  C247  1  0.890300  0.995400  0.297000  1.0  -0.0454
  C  C248  1  0.018000  0.019100  0.097500  1.0  0.6186
  C  C249  1  0.703100  0.934500  0.833400  1.0  0.7318
  C  C250  1  0.652500  0.953900  0.784900  1.0  -0.1726
  C  C251  1  0.646600  0.921100  0.726600  1.0  -0.0201
  C  C252  1  0.599700  0.937300  0.681100  1.0  -0.1809
  C  C253  1  0.557200  0.989200  0.693400  1.0  0.2392
  C  C254  1  0.562400  0.022000  0.753200  1.0  -0.1954
  C  C255  1  0.609700  0.004600  0.797000  1.0  -0.0444
  C  C256  1  0.482000  0.980900  0.597500  1.0  0.618
  C  C257  1  0.166600  0.203100  0.565500  1.0  0.7327
  C  C258  1  0.215100  0.152500  0.546100  1.0  -0.1668
  C  C259  1  0.273400  0.146600  0.578900  1.0  -0.0193
  C  C260  1  0.318900  0.099700  0.562700  1.0  -0.1791
  C  C261  1  0.306600  0.057200  0.510800  1.0  0.2392
  C  C262  1  0.246800  0.062400  0.478000  1.0  -0.1955
  C  C263  1  0.203000  0.109700  0.495400  1.0  -0.0425
  C  C264  1  0.402500  0.982000  0.519100  1.0  0.5934
  C  C265  1  0.666667  0.296900  0.434500  1.0  0.7295
  C  C266  1  0.715100  0.347500  0.453900  1.0  -0.1675
  C  C267  1  0.773400  0.353400  0.421100  1.0  -0.0201
  C  C268  1  0.818900  0.400300  0.437300  1.0  -0.1792
  C  C269  1  0.806600  0.442800  0.489200  1.0  0.2391
  C  C270  1  0.746800  0.437600  0.522000  1.0  -0.1959
  C  C271  1  0.703000  0.390300  0.504600  1.0  -0.0434
  C  C272  1  0.902500  0.518000  0.480900  1.0  0.5942
  C  C273  1  0.333400  0.796900  0.065500  1.0  0.7307
  C  C274  1  0.284900  0.847500  0.046100  1.0  -0.167
  C  C275  1  0.226600  0.853400  0.078900  1.0  -0.0194
  C  C276  1  0.181100  0.900300  0.062700  1.0  -0.1794
  C  C277  1  0.193400  0.942800  0.010800  1.0  0.2383
  C  C278  1  0.253200  0.937600  0.978000  1.0  -0.1939
  C  C279  1  0.297000  0.890300  0.995400  1.0  -0.0447
  C  C280  1  0.097500  0.018000  0.019100  1.0  0.5926
  C  C281  1  0.833400  0.703100  0.934500  1.0  0.7319
  C  C282  1  0.784900  0.652500  0.953900  1.0  -0.1659
  C  C283  1  0.726600  0.646600  0.921100  1.0  -0.0187
  C  C284  1  0.681100  0.599700  0.937300  1.0  -0.1795
  C  C285  1  0.693400  0.557200  0.989200  1.0  0.2379
  C  C286  1  0.753200  0.562400  0.022000  1.0  -0.1923
  C  C287  1  0.797000  0.609700  0.004600  1.0  -0.0435
  C  C288  1  0.597500  0.482000  0.980900  1.0  0.593
  C  C289  1  0.565500  0.166600  0.203100  1.0  0.738
  C  C290  1  0.546100  0.215100  0.152500  1.0  -0.1683
  C  C291  1  0.578900  0.273400  0.146600  1.0  -0.0206
  C  C292  1  0.562700  0.318900  0.099700  1.0  -0.1791
  C  C293  1  0.510800  0.306600  0.057200  1.0  0.238
  C  C294  1  0.478000  0.246800  0.062400  1.0  -0.1954
  C  C295  1  0.495400  0.203000  0.109700  1.0  -0.0377
  C  C296  1  0.519100  0.402500  0.982000  1.0  0.6188
  C  C297  1  0.434500  0.666667  0.296900  1.0  0.7379
  C  C298  1  0.453900  0.715100  0.347500  1.0  -0.1683
  C  C299  1  0.421100  0.773400  0.353400  1.0  -0.0206
  C  C300  1  0.437300  0.818900  0.400300  1.0  -0.1786
  C  C301  1  0.489200  0.806600  0.442800  1.0  0.2378
  C  C302  1  0.522000  0.746800  0.437600  1.0  -0.194
  C  C303  1  0.504600  0.703000  0.390300  1.0  -0.0409
  C  C304  1  0.480900  0.902500  0.518000  1.0  0.6174
  C  C305  1  0.065500  0.333400  0.796900  1.0  0.7375
  C  C306  1  0.046100  0.284900  0.847500  1.0  -0.1673
  C  C307  1  0.078900  0.226600  0.853400  1.0  -0.0197
  C  C308  1  0.062700  0.181100  0.900300  1.0  -0.1802
  C  C309  1  0.010800  0.193400  0.942800  1.0  0.2382
  C  C310  1  0.978000  0.253200  0.937600  1.0  -0.1952
  C  C311  1  0.995400  0.297000  0.890300  1.0  -0.0385
  C  C312  1  0.019100  0.097500  0.018000  1.0  0.6174
  C  C313  1  0.934500  0.833400  0.703100  1.0  0.7401
  C  C314  1  0.953900  0.784900  0.652500  1.0  -0.1697
  C  C315  1  0.921100  0.726600  0.646600  1.0  -0.0197
  C  C316  1  0.937300  0.681100  0.599700  1.0  -0.1802
  C  C317  1  0.989200  0.693400  0.557200  1.0  0.2384
  C  C318  1  0.022000  0.753200  0.562400  1.0  -0.1936
  C  C319  1  0.004600  0.797000  0.609700  1.0  -0.0393
  C  C320  1  0.980900  0.597500  0.482000  1.0  0.6166
  N  N321  1  0.999200  0.655600  0.009200  1.0  -0.345
  N  N322  1  0.991500  0.578000  0.929400  1.0  -0.5837
  N  N323  1  0.500800  0.344400  0.509200  1.0  -0.3445
  N  N324  1  0.508500  0.422000  0.429400  1.0  -0.584
  N  N325  1  0.000800  0.155600  0.490800  1.0  -0.3444
  N  N326  1  0.008500  0.078000  0.570600  1.0  -0.5838
  N  N327  1  0.499200  0.844400  0.990800  1.0  -0.3452
  N  N328  1  0.491500  0.922000  0.070600  1.0  -0.5838
  N  N329  1  0.009200  0.999200  0.655600  1.0  -0.3427
  N  N330  1  0.929400  0.991500  0.578000  1.0  -0.5835
  N  N331  1  0.509200  0.500800  0.344400  1.0  -0.3425
  N  N332  1  0.429400  0.508500  0.422000  1.0  -0.5842
  N  N333  1  0.490800  0.000800  0.155600  1.0  -0.3427
  N  N334  1  0.570600  0.008500  0.078000  1.0  -0.5845
  N  N335  1  0.990800  0.499200  0.844400  1.0  -0.3431
  N  N336  1  0.070600  0.491500  0.922000  1.0  -0.5838
  N  N337  1  0.655600  0.009200  0.999200  1.0  -0.3462
  N  N338  1  0.578000  0.929400  0.991500  1.0  -0.5857
  N  N339  1  0.344400  0.509200  0.500800  1.0  -0.344
  N  N340  1  0.422000  0.429400  0.508500  1.0  -0.5866
  N  N341  1  0.155600  0.490800  0.000800  1.0  -0.3437
  N  N342  1  0.078000  0.570600  0.008500  1.0  -0.5859
  N  N343  1  0.844400  0.990800  0.499200  1.0  -0.345
  N  N344  1  0.922000  0.070600  0.491500  1.0  -0.5856
  N  N345  1  0.006200  0.491600  0.348500  1.0  -0.3733
  N  N346  1  0.010400  0.573000  0.427700  1.0  -0.5584
  N  N347  1  0.493800  0.508400  0.848500  1.0  -0.3724
  N  N348  1  0.489600  0.427000  0.927700  1.0  -0.56
  N  N349  1  0.993800  0.991600  0.151500  1.0  -0.3726
  N  N350  1  0.989600  0.073000  0.072300  1.0  -0.5593
  N  N351  1  0.506200  0.008400  0.651500  1.0  -0.3725
  N  N352  1  0.510400  0.927000  0.572300  1.0  -0.5584
  N  N353  1  0.348500  0.006200  0.491600  1.0  -0.3756
  N  N354  1  0.427700  0.010400  0.573000  1.0  -0.5573
  N  N355  1  0.848500  0.493800  0.508400  1.0  -0.3747
  N  N356  1  0.927700  0.489600  0.427000  1.0  -0.5578
  N  N357  1  0.151500  0.993800  0.991600  1.0  -0.3741
  N  N358  1  0.072300  0.989600  0.073000  1.0  -0.557
  N  N359  1  0.651500  0.506200  0.008400  1.0  -0.3749
  N  N360  1  0.572300  0.510400  0.927000  1.0  -0.5564
  N  N361  1  0.491600  0.348500  0.006200  1.0  -0.3734
  N  N362  1  0.573000  0.427700  0.010400  1.0  -0.5587
  N  N363  1  0.508400  0.848500  0.493800  1.0  -0.3731
  N  N364  1  0.427000  0.927700  0.489600  1.0  -0.5579
  N  N365  1  0.991600  0.151500  0.993800  1.0  -0.3733
  N  N366  1  0.073000  0.072300  0.989600  1.0  -0.5574
  N  N367  1  0.008400  0.651500  0.506200  1.0  -0.3728
  N  N368  1  0.927000  0.572300  0.510400  1.0  -0.5592
  O  O369  1  0.133200  0.808400  0.245000  1.0  -0.5904
  O  O370  1  0.062500  0.882200  0.214400  1.0  -0.597
  O  O371  1  0.366800  0.191600  0.745000  1.0  -0.5901
  O  O372  1  0.437500  0.117800  0.714400  1.0  -0.5959
  O  O373  1  0.866800  0.308400  0.255000  1.0  -0.5903
  O  O374  1  0.937500  0.382200  0.285600  1.0  -0.5968
  O  O375  1  0.633200  0.691600  0.755000  1.0  -0.5899
  O  O376  1  0.562500  0.617800  0.785600  1.0  -0.5968
  O  O377  1  0.245000  0.133200  0.808400  1.0  -0.591
  O  O378  1  0.214400  0.062500  0.882200  1.0  -0.5957
  O  O379  1  0.745000  0.366800  0.191600  1.0  -0.591
  O  O380  1  0.714400  0.437500  0.117800  1.0  -0.5955
  O  O381  1  0.255000  0.866800  0.308400  1.0  -0.5905
  O  O382  1  0.285600  0.937500  0.382200  1.0  -0.5961
  O  O383  1  0.755000  0.633200  0.691600  1.0  -0.5903
  O  O384  1  0.785600  0.562500  0.617800  1.0  -0.5959
  O  O385  1  0.808400  0.245000  0.133200  1.0  -0.5886
  O  O386  1  0.882200  0.214400  0.062500  1.0  -0.6008
  O  O387  1  0.191600  0.745000  0.366800  1.0  -0.5909
  O  O388  1  0.117800  0.714400  0.437500  1.0  -0.5999
  O  O389  1  0.308400  0.255000  0.866800  1.0  -0.5918
  O  O390  1  0.382200  0.285600  0.937500  1.0  -0.602
  O  O391  1  0.691600  0.755000  0.633200  1.0  -0.5914
  O  O392  1  0.617800  0.785600  0.562500  1.0  -0.6014
  O  O393  1  0.235500  0.617200  0.178800  1.0  -0.6928
  O  O394  1  0.209900  0.532000  0.115600  1.0  -0.6265
  O  O395  1  0.264500  0.382800  0.678800  1.0  -0.6913
  O  O396  1  0.290100  0.468000  0.615600  1.0  -0.6269
  O  O397  1  0.764500  0.117200  0.321200  1.0  -0.6942
  O  O398  1  0.790100  0.032000  0.384400  1.0  -0.6261
  O  O399  1  0.735500  0.882800  0.821200  1.0  -0.6916
  O  O400  1  0.709900  0.968000  0.884400  1.0  -0.6261
  O  O401  1  0.178800  0.235500  0.617200  1.0  -0.6972
  O  O402  1  0.115600  0.209900  0.532000  1.0  -0.6308
  O  O403  1  0.678800  0.264500  0.382800  1.0  -0.6934
  O  O404  1  0.615600  0.290100  0.468000  1.0  -0.6344
  O  O405  1  0.321200  0.764500  0.117200  1.0  -0.694
  O  O406  1  0.384400  0.790100  0.032000  1.0  -0.6336
  O  O407  1  0.821200  0.735500  0.882800  1.0  -0.6959
  O  O408  1  0.884400  0.709900  0.968000  1.0  -0.6308
  O  O409  1  0.617200  0.178800  0.235500  1.0  -0.6955
  O  O410  1  0.532000  0.115600  0.209900  1.0  -0.6263
  O  O411  1  0.382800  0.678800  0.264500  1.0  -0.6944
  O  O412  1  0.468000  0.615600  0.290100  1.0  -0.6274
  O  O413  1  0.117200  0.321200  0.764500  1.0  -0.6958
  O  O414  1  0.032000  0.384400  0.790100  1.0  -0.6265
  O  O415  1  0.882800  0.821200  0.735500  1.0  -0.6959
  O  O416  1  0.968000  0.884400  0.709900  1.0  -0.6259
