# generated using pymatgen
data_Ca(C2O)4
_symmetry_space_group_name_H-M   'P 1'
_cell_length_a   12.45450000
_cell_length_b   10.20800000
_cell_length_c   6.70130000
_cell_angle_alpha   107.47000000
_cell_angle_beta   104.43200000
_cell_angle_gamma   66.76100000
_symmetry_Int_Tables_number   1
_chemical_formula_structural   Ca(C2O)4
_chemical_formula_sum   'Ca2 C16 O8'
_cell_volume   738.38141641
_cell_formula_units_Z   2
loop_
 _symmetry_equiv_pos_site_id
 _symmetry_equiv_pos_as_xyz
  1  'x, y, z'
loop_
 _atom_site_type_symbol
 _atom_site_label
 _atom_site_symmetry_multiplicity
 _atom_site_fract_x
 _atom_site_fract_y
 _atom_site_fract_z
 _atom_site_occupancy
 _atom_site_charge
  Ca  Ca1  1  0.444200  0.109400  0.771500  1.0  1.5845
  Ca  Ca2  1  0.555800  0.890600  0.228500  1.0  1.5839
  C  C3  1  0.513000  0.786100  0.656700  1.0  0.705
  C  C4  1  0.220200  0.058400  0.629200  1.0  0.6749
  C  C5  1  0.109900  0.037500  0.564300  1.0  -0.0366
  C  C6  1  0.514500  0.636300  0.577900  1.0  -0.0397
  C  C7  1  0.931000  0.019100  0.647600  1.0  0.0076
  C  C8  1  0.539800  0.549200  0.718800  1.0  -0.0448
  C  C9  1  0.048200  0.040700  0.718300  1.0  -0.1196
  C  C10  1  0.538800  0.401500  0.640900  1.0  -0.0638
  C  C11  1  0.487000  0.213900  0.343300  1.0  0.7051
  C  C12  1  0.779800  0.941600  0.370800  1.0  0.6744
  C  C13  1  0.890100  0.962500  0.435700  1.0  -0.0365
  C  C14  1  0.485500  0.363700  0.422100  1.0  -0.0402
  C  C15  1  0.069000  0.980900  0.352400  1.0  0.0113
  C  C16  1  0.460200  0.450800  0.281200  1.0  -0.0434
  C  C17  1  0.951800  0.959300  0.281700  1.0  -0.1211
  C  C18  1  0.461200  0.598500  0.359100  1.0  -0.0592
  O  O19  1  0.258700  0.089100  0.501400  1.0  -0.6296
  O  O20  1  0.524400  0.844800  0.845200  1.0  -0.7276
  O  O21  1  0.262100  0.078300  0.819800  1.0  -0.6171
  O  O22  1  0.509700  0.859000  0.539800  1.0  -0.6974
  O  O23  1  0.741300  0.910900  0.498600  1.0  -0.6293
  O  O24  1  0.475600  0.155200  0.154800  1.0  -0.7302
  O  O25  1  0.737900  0.921700  0.180200  1.0  -0.6146
  O  O26  1  0.490300  0.141000  0.460200  1.0  -0.6958
