# generated using pymatgen
data_CdH68C80(NO)8
_symmetry_space_group_name_H-M   'P 1'
_cell_length_a   12.78320000
_cell_length_b   12.78320000
_cell_length_c   32.53450000
_cell_angle_alpha   90.00000000
_cell_angle_beta   90.00000000
_cell_angle_gamma   90.00000000
_symmetry_Int_Tables_number   1
_chemical_formula_structural   CdH68C80(NO)8
_chemical_formula_sum   'Cd2 H136 C160 N16 O16'
_cell_volume   5316.46922478
_cell_formula_units_Z   2
loop_
 _symmetry_equiv_pos_site_id
 _symmetry_equiv_pos_as_xyz
  1  'x, y, z'
loop_
 _atom_site_type_symbol
 _atom_site_label
 _atom_site_symmetry_multiplicity
 _atom_site_fract_x
 _atom_site_fract_y
 _atom_site_fract_z
 _atom_site_occupancy
 _atom_site_charge
  Cd  Cd1  1  0.750000  0.750000  0.750000  1.0  0.9408
  Cd  Cd2  1  0.250000  0.250000  0.250000  1.0  0.9408
  H  H3  1  0.973100  0.078000  0.877500  1.0  0.1006
  H  H4  1  0.019800  0.191100  0.880500  1.0  0.1089
  H  H5  1  0.899500  0.175600  0.873500  1.0  0.1007
  H  H6  1  0.022000  0.041600  0.968700  1.0  0.0944
  H  H7  1  0.096000  0.130700  0.952800  1.0  0.0891
  H  H8  1  0.064200  0.038900  0.923400  1.0  0.0822
  H  H9  1  0.794100  0.117800  0.937300  1.0  0.09
  H  H10  1  0.861000  0.087300  0.975900  1.0  0.0897
  H  H11  1  0.863700  0.016800  0.936500  1.0  0.089
  H  H12  1  0.398300  0.555600  0.783700  1.0  0.1042
  H  H13  1  0.269600  0.518000  0.831400  1.0  0.0999
  H  H14  1  0.412800  0.695800  0.913900  1.0  0.106
  H  H15  1  0.541700  0.731400  0.866600  1.0  0.084
  H  H16  1  0.068000  0.309200  0.911800  1.0  0.0965
  H  H17  1  0.849500  0.238800  0.995400  1.0  0.1093
  H  H18  1  0.248100  0.699800  0.944900  1.0  0.2841
  H  H19  1  0.193500  0.440100  0.889000  1.0  0.3058
  H  H20  1  0.526900  0.422000  0.877500  1.0  0.1021
  H  H21  1  0.480200  0.308900  0.880500  1.0  0.1079
  H  H22  1  0.600500  0.324400  0.873500  1.0  0.1013
  H  H23  1  0.478000  0.458400  0.968700  1.0  0.0937
  H  H24  1  0.404000  0.369300  0.952800  1.0  0.0909
  H  H25  1  0.435800  0.461100  0.923400  1.0  0.0833
  H  H26  1  0.705900  0.382200  0.937300  1.0  0.091
  H  H27  1  0.639000  0.412700  0.975900  1.0  0.0905
  H  H28  1  0.636300  0.483200  0.936500  1.0  0.092
  H  H29  1  0.101700  0.944400  0.783700  1.0  0.1046
  H  H30  1  0.230400  0.982000  0.831400  1.0  0.1019
  H  H31  1  0.087200  0.804200  0.913900  1.0  0.1053
  H  H32  1  0.958300  0.768600  0.866600  1.0  0.0838
  H  H33  1  0.432000  0.190800  0.911800  1.0  0.0964
  H  H34  1  0.650500  0.261200  0.995400  1.0  0.1102
  H  H35  1  0.251900  0.800200  0.944900  1.0  0.2814
  H  H36  1  0.306500  0.059900  0.889000  1.0  0.3051
  H  H37  1  0.922000  0.473100  0.377500  1.0  0.1015
  H  H38  1  0.808900  0.519800  0.380500  1.0  0.1114
  H  H39  1  0.824400  0.399500  0.373500  1.0  0.1022
  H  H40  1  0.958400  0.522000  0.468700  1.0  0.0943
  H  H41  1  0.869300  0.596000  0.452800  1.0  0.0902
  H  H42  1  0.961100  0.564200  0.423400  1.0  0.0824
  H  H43  1  0.882200  0.294100  0.437300  1.0  0.0932
  H  H44  1  0.912700  0.361000  0.475900  1.0  0.0912
  H  H45  1  0.983200  0.363700  0.436500  1.0  0.0898
  H  H46  1  0.444400  0.898300  0.283700  1.0  0.1046
  H  H47  1  0.482000  0.769600  0.331400  1.0  0.1009
  H  H48  1  0.304200  0.912800  0.413900  1.0  0.1053
  H  H49  1  0.268600  0.041700  0.366600  1.0  0.0837
  H  H50  1  0.690800  0.568000  0.411800  1.0  0.0952
  H  H51  1  0.761200  0.349500  0.495400  1.0  0.1101
  H  H52  1  0.300200  0.748100  0.444900  1.0  0.2817
  H  H53  1  0.559900  0.693500  0.389000  1.0  0.3045
  H  H54  1  0.578000  0.026900  0.377500  1.0  0.1014
  H  H55  1  0.691100  0.980200  0.380500  1.0  0.1115
  H  H56  1  0.675600  0.100500  0.373500  1.0  0.103
  H  H57  1  0.541600  0.978000  0.468700  1.0  0.0943
  H  H58  1  0.630700  0.904000  0.452800  1.0  0.0893
  H  H59  1  0.538900  0.935800  0.423400  1.0  0.0827
  H  H60  1  0.617800  0.205900  0.437300  1.0  0.0917
  H  H61  1  0.587300  0.139000  0.475900  1.0  0.0905
  H  H62  1  0.516800  0.136300  0.436500  1.0  0.0896
  H  H63  1  0.055600  0.601700  0.283700  1.0  0.1042
  H  H64  1  0.018000  0.730400  0.331400  1.0  0.1008
  H  H65  1  0.195800  0.587200  0.413900  1.0  0.1054
  H  H66  1  0.231400  0.458300  0.366600  1.0  0.0838
  H  H67  1  0.809200  0.932000  0.411800  1.0  0.0954
  H  H68  1  0.738800  0.150500  0.495400  1.0  0.1094
  H  H69  1  0.199800  0.751900  0.444900  1.0  0.2822
  H  H70  1  0.940100  0.806500  0.389000  1.0  0.3046
  H  H71  1  0.026900  0.922000  0.122500  1.0  0.1013
  H  H72  1  0.980200  0.808900  0.119500  1.0  0.1118
  H  H73  1  0.100500  0.824400  0.126500  1.0  0.0998
  H  H74  1  0.978000  0.958400  0.031300  1.0  0.0937
  H  H75  1  0.904000  0.869300  0.047200  1.0  0.0901
  H  H76  1  0.935800  0.961100  0.076600  1.0  0.0831
  H  H77  1  0.205900  0.882200  0.062700  1.0  0.0895
  H  H78  1  0.139000  0.912700  0.024100  1.0  0.0899
  H  H79  1  0.136300  0.983200  0.063500  1.0  0.091
  H  H80  1  0.601700  0.444400  0.216300  1.0  0.1042
  H  H81  1  0.730400  0.482000  0.168600  1.0  0.101
  H  H82  1  0.587200  0.304200  0.086100  1.0  0.1064
  H  H83  1  0.458300  0.268600  0.133400  1.0  0.0839
  H  H84  1  0.932000  0.690800  0.088200  1.0  0.0976
  H  H85  1  0.150500  0.761200  0.004600  1.0  0.1107
  H  H86  1  0.751900  0.300200  0.055100  1.0  0.2822
  H  H87  1  0.806500  0.559900  0.111000  1.0  0.3046
  H  H88  1  0.473100  0.578000  0.122500  1.0  0.1016
  H  H89  1  0.519800  0.691100  0.119500  1.0  0.1113
  H  H90  1  0.399500  0.675600  0.126500  1.0  0.1007
  H  H91  1  0.522000  0.541600  0.031300  1.0  0.0932
  H  H92  1  0.596000  0.630700  0.047200  1.0  0.0899
  H  H93  1  0.564200  0.538900  0.076600  1.0  0.0825
  H  H94  1  0.294100  0.617800  0.062700  1.0  0.0909
  H  H95  1  0.361000  0.587300  0.024100  1.0  0.0903
  H  H96  1  0.363700  0.516800  0.063500  1.0  0.0906
  H  H97  1  0.898300  0.055600  0.216300  1.0  0.1046
  H  H98  1  0.769600  0.018000  0.168600  1.0  0.1014
  H  H99  1  0.912800  0.195800  0.086100  1.0  0.1064
  H  H100  1  0.041700  0.231400  0.133400  1.0  0.0845
  H  H101  1  0.568000  0.809200  0.088200  1.0  0.0972
  H  H102  1  0.349500  0.738800  0.004600  1.0  0.1098
  H  H103  1  0.748100  0.199800  0.055100  1.0  0.2843
  H  H104  1  0.693500  0.940100  0.111000  1.0  0.3052
  H  H105  1  0.078000  0.526900  0.622500  1.0  0.1023
  H  H106  1  0.191100  0.480200  0.619500  1.0  0.1141
  H  H107  1  0.175600  0.600500  0.626500  1.0  0.1012
  H  H108  1  0.041600  0.478000  0.531300  1.0  0.0935
  H  H109  1  0.130700  0.404000  0.547200  1.0  0.0887
  H  H110  1  0.038900  0.435800  0.576600  1.0  0.083
  H  H111  1  0.117800  0.705900  0.562700  1.0  0.0912
  H  H112  1  0.087300  0.639000  0.524100  1.0  0.0918
  H  H113  1  0.016800  0.636300  0.563500  1.0  0.0902
  H  H114  1  0.555600  0.101700  0.716300  1.0  0.1043
  H  H115  1  0.518000  0.230400  0.668600  1.0  0.1011
  H  H116  1  0.695800  0.087200  0.586100  1.0  0.1057
  H  H117  1  0.731400  0.958300  0.633400  1.0  0.084
  H  H118  1  0.309200  0.432000  0.588200  1.0  0.0967
  H  H119  1  0.238800  0.650500  0.504600  1.0  0.1098
  H  H120  1  0.699800  0.251900  0.555100  1.0  0.2828
  H  H121  1  0.440100  0.306500  0.611000  1.0  0.3042
  H  H122  1  0.422000  0.973100  0.622500  1.0  0.103
  H  H123  1  0.308900  0.019800  0.619500  1.0  0.1145
  H  H124  1  0.324400  0.899500  0.626500  1.0  0.1026
  H  H125  1  0.458400  0.022000  0.531300  1.0  0.0939
  H  H126  1  0.369300  0.096000  0.547200  1.0  0.0911
  H  H127  1  0.461100  0.064200  0.576600  1.0  0.0826
  H  H128  1  0.382200  0.794100  0.562700  1.0  0.0928
  H  H129  1  0.412700  0.861000  0.524100  1.0  0.091
  H  H130  1  0.483200  0.863700  0.563500  1.0  0.0895
  H  H131  1  0.944400  0.398300  0.716300  1.0  0.1045
  H  H132  1  0.982000  0.269600  0.668600  1.0  0.1005
  H  H133  1  0.804200  0.412800  0.586100  1.0  0.1067
  H  H134  1  0.768600  0.541700  0.633400  1.0  0.0839
  H  H135  1  0.190800  0.068000  0.588200  1.0  0.0965
  H  H136  1  0.261200  0.849500  0.504600  1.0  0.1106
  H  H137  1  0.800200  0.248100  0.555100  1.0  0.2824
  H  H138  1  0.059900  0.193500  0.611000  1.0  0.3047
  C  C139  1  0.569700  0.675000  0.791000  1.0  0.6898
  C  C140  1  0.958100  0.253900  0.951210  1.0  0.0278
  C  C141  1  0.944200  0.147200  0.930800  1.0  0.1883
  C  C142  1  0.960500  0.148000  0.886900  1.0  -0.3759
  C  C143  1  0.040800  0.083500  0.945300  1.0  -0.3573
  C  C144  1  0.858700  0.087400  0.946400  1.0  -0.3424
  C  C145  1  0.483500  0.649900  0.820620  1.0  -0.154
  C  C146  1  0.401400  0.584500  0.809890  1.0  -0.0999
  C  C147  1  0.324100  0.562600  0.838540  1.0  -0.1595
  C  C148  1  0.326200  0.604400  0.876450  1.0  0.0248
  C  C149  1  0.409000  0.667800  0.887590  1.0  -0.1723
  C  C150  1  0.486000  0.688800  0.859010  1.0  -0.0375
  C  C151  1  0.244200  0.578900  0.906720  1.0  0.3568
  C  C152  1  0.140800  0.589000  0.959850  1.0  0.1417
  C  C153  1  0.123100  0.496100  0.939720  1.0  0.1402
  C  C154  1  0.047700  0.422300  0.954300  1.0  -0.067
  C  C155  1  0.030600  0.326100  0.935380  1.0  -0.1332
  C  C156  1  0.900400  0.284000  0.985320  1.0  -0.1617
  C  C157  1  0.915900  0.378900  0.004870  1.0  -0.0481
  C  C158  1  0.991300  0.450500  0.989810  1.0  -0.001
  C  C159  1  0.930300  0.825000  0.791000  1.0  0.6899
  C  C160  1  0.541900  0.246100  0.951210  1.0  0.0259
  C  C161  1  0.555800  0.352800  0.930800  1.0  0.1872
  C  C162  1  0.539500  0.352000  0.886900  1.0  -0.3765
  C  C163  1  0.459200  0.416500  0.945300  1.0  -0.3586
  C  C164  1  0.641300  0.412600  0.946400  1.0  -0.3403
  C  C165  1  0.016500  0.850100  0.820620  1.0  -0.1541
  C  C166  1  0.098600  0.915500  0.809890  1.0  -0.1019
  C  C167  1  0.175900  0.937400  0.838540  1.0  -0.1609
  C  C168  1  0.173800  0.895600  0.876450  1.0  0.0227
  C  C169  1  0.091000  0.832200  0.887590  1.0  -0.1714
  C  C170  1  0.014000  0.811200  0.859010  1.0  -0.0397
  C  C171  1  0.255800  0.921100  0.906720  1.0  0.3554
  C  C172  1  0.359200  0.911000  0.959850  1.0  0.141
  C  C173  1  0.376900  0.003900  0.939720  1.0  0.1412
  C  C174  1  0.452300  0.077700  0.954300  1.0  -0.0668
  C  C175  1  0.469400  0.173900  0.935380  1.0  -0.1321
  C  C176  1  0.599600  0.216000  0.985320  1.0  -0.1618
  C  C177  1  0.584100  0.121100  0.004870  1.0  -0.0497
  C  C178  1  0.508700  0.049500  0.989810  1.0  -0.0006
  C  C179  1  0.325000  0.069700  0.291000  1.0  0.6899
  C  C180  1  0.746100  0.458100  0.451210  1.0  0.0247
  C  C181  1  0.852800  0.444200  0.430800  1.0  0.1876
  C  C182  1  0.852000  0.460500  0.386900  1.0  -0.376
  C  C183  1  0.916500  0.540800  0.445300  1.0  -0.3583
  C  C184  1  0.912600  0.358700  0.446400  1.0  -0.3417
  C  C185  1  0.350100  0.983500  0.320620  1.0  -0.1526
  C  C186  1  0.415500  0.901400  0.309890  1.0  -0.1021
  C  C187  1  0.437400  0.824100  0.338540  1.0  -0.1634
  C  C188  1  0.395600  0.826200  0.376450  1.0  0.0242
  C  C189  1  0.332200  0.909000  0.387590  1.0  -0.1735
  C  C190  1  0.311200  0.986000  0.359010  1.0  -0.0385
  C  C191  1  0.421100  0.744200  0.406720  1.0  0.3554
  C  C192  1  0.411000  0.640800  0.459850  1.0  0.1422
  C  C193  1  0.503900  0.623100  0.439720  1.0  0.1402
  C  C194  1  0.577700  0.547700  0.454300  1.0  -0.0667
  C  C195  1  0.673900  0.530600  0.435380  1.0  -0.1321
  C  C196  1  0.716000  0.400400  0.485320  1.0  -0.1619
  C  C197  1  0.621100  0.415900  0.504870  1.0  -0.0489
  C  C198  1  0.549500  0.491300  0.489810  1.0  -0.0012
  C  C199  1  0.175000  0.430300  0.291000  1.0  0.6902
  C  C200  1  0.753900  0.041900  0.451210  1.0  0.0256
  C  C201  1  0.647200  0.055800  0.430800  1.0  0.1879
  C  C202  1  0.648000  0.039500  0.386900  1.0  -0.3759
  C  C203  1  0.583500  0.959200  0.445300  1.0  -0.3577
  C  C204  1  0.587400  0.141300  0.446400  1.0  -0.3418
  C  C205  1  0.149900  0.516500  0.320620  1.0  -0.1539
  C  C206  1  0.084500  0.598600  0.309890  1.0  -0.1021
  C  C207  1  0.062600  0.675900  0.338540  1.0  -0.1606
  C  C208  1  0.104400  0.673800  0.376450  1.0  0.0245
  C  C209  1  0.167800  0.591000  0.387590  1.0  -0.1742
  C  C210  1  0.188800  0.514000  0.359010  1.0  -0.039
  C  C211  1  0.078900  0.755800  0.406720  1.0  0.3557
  C  C212  1  0.089000  0.859200  0.459850  1.0  0.1414
  C  C213  1  0.996100  0.876900  0.439720  1.0  0.1398
  C  C214  1  0.922300  0.952300  0.454300  1.0  -0.0669
  C  C215  1  0.826100  0.969400  0.435380  1.0  -0.1337
  C  C216  1  0.784000  0.099600  0.485320  1.0  -0.1638
  C  C217  1  0.878900  0.084100  0.504870  1.0  -0.0475
  C  C218  1  0.950500  0.008700  0.489810  1.0  -0.0011
  C  C219  1  0.430300  0.325000  0.209000  1.0  0.6904
  C  C220  1  0.041900  0.746100  0.048790  1.0  0.0255
  C  C221  1  0.055800  0.852800  0.069200  1.0  0.1858
  C  C222  1  0.039500  0.852000  0.113100  1.0  -0.3744
  C  C223  1  0.959200  0.916500  0.054700  1.0  -0.3587
  C  C224  1  0.141300  0.912600  0.053600  1.0  -0.3389
  C  C225  1  0.516500  0.350100  0.179380  1.0  -0.1556
  C  C226  1  0.598600  0.415500  0.190110  1.0  -0.1022
  C  C227  1  0.675900  0.437400  0.161460  1.0  -0.1595
  C  C228  1  0.673800  0.395600  0.123550  1.0  0.027
  C  C229  1  0.591000  0.332200  0.112410  1.0  -0.1711
  C  C230  1  0.514000  0.311200  0.140990  1.0  -0.0395
  C  C231  1  0.755800  0.421100  0.093280  1.0  0.3543
  C  C232  1  0.859200  0.411000  0.040150  1.0  0.1412
  C  C233  1  0.876900  0.503900  0.060280  1.0  0.1407
  C  C234  1  0.952300  0.577700  0.045700  1.0  -0.0669
  C  C235  1  0.969400  0.673900  0.064620  1.0  -0.1326
  C  C236  1  0.099600  0.716000  0.014680  1.0  -0.1616
  C  C237  1  0.084100  0.621100  0.995130  1.0  -0.0499
  C  C238  1  0.008700  0.549500  0.010190  1.0  -0.0005
  C  C239  1  0.069700  0.175000  0.209000  1.0  0.6913
  C  C240  1  0.458100  0.753900  0.048790  1.0  0.0278
  C  C241  1  0.444200  0.647200  0.069200  1.0  0.1859
  C  C242  1  0.460500  0.648000  0.113100  1.0  -0.3753
  C  C243  1  0.540800  0.583500  0.054700  1.0  -0.3568
  C  C244  1  0.358700  0.587400  0.053600  1.0  -0.3416
  C  C245  1  0.983500  0.149900  0.179380  1.0  -0.1553
  C  C246  1  0.901400  0.084500  0.190110  1.0  -0.1004
  C  C247  1  0.824100  0.062600  0.161460  1.0  -0.161
  C  C248  1  0.826200  0.104400  0.123550  1.0  0.0268
  C  C249  1  0.909000  0.167800  0.112410  1.0  -0.1728
  C  C250  1  0.986000  0.188800  0.140990  1.0  -0.0375
  C  C251  1  0.744200  0.078900  0.093280  1.0  0.3549
  C  C252  1  0.640800  0.089000  0.040150  1.0  0.1413
  C  C253  1  0.623100  0.996100  0.060280  1.0  0.14
  C  C254  1  0.547700  0.922300  0.045700  1.0  -0.0671
  C  C255  1  0.530600  0.826100  0.064620  1.0  -0.1333
  C  C256  1  0.400400  0.784000  0.014680  1.0  -0.1613
  C  C257  1  0.415900  0.878900  0.995130  1.0  -0.0486
  C  C258  1  0.491300  0.950500  0.010190  1.0  -0.0011
  C  C259  1  0.675000  0.930300  0.709000  1.0  0.6914
  C  C260  1  0.253900  0.541900  0.548790  1.0  0.0248
  C  C261  1  0.147200  0.555800  0.569200  1.0  0.1861
  C  C262  1  0.148000  0.539500  0.613100  1.0  -0.3746
  C  C263  1  0.083500  0.459200  0.554700  1.0  -0.3569
  C  C264  1  0.087400  0.641300  0.553600  1.0  -0.3413
  C  C265  1  0.649900  0.016500  0.679380  1.0  -0.1543
  C  C266  1  0.584500  0.098600  0.690110  1.0  -0.1031
  C  C267  1  0.562600  0.175900  0.661460  1.0  -0.1629
  C  C268  1  0.604400  0.173800  0.623550  1.0  0.0277
  C  C269  1  0.667800  0.091000  0.612410  1.0  -0.1738
  C  C270  1  0.688800  0.014000  0.640990  1.0  -0.0377
  C  C271  1  0.578900  0.255800  0.593280  1.0  0.3542
  C  C272  1  0.589000  0.359200  0.540150  1.0  0.1417
  C  C273  1  0.496100  0.376900  0.560280  1.0  0.1395
  C  C274  1  0.422300  0.452300  0.545700  1.0  -0.067
  C  C275  1  0.326100  0.469400  0.564620  1.0  -0.134
  C  C276  1  0.284000  0.599600  0.514680  1.0  -0.163
  C  C277  1  0.378900  0.584100  0.495130  1.0  -0.048
  C  C278  1  0.450500  0.508700  0.510190  1.0  -0.001
  C  C279  1  0.825000  0.569700  0.709000  1.0  0.6904
  C  C280  1  0.246100  0.958100  0.548790  1.0  0.0248
  C  C281  1  0.352800  0.944200  0.569200  1.0  0.1857
  C  C282  1  0.352000  0.960500  0.613100  1.0  -0.3747
  C  C283  1  0.416500  0.040800  0.554700  1.0  -0.3583
  C  C284  1  0.412600  0.858700  0.553600  1.0  -0.3406
  C  C285  1  0.850100  0.483500  0.679380  1.0  -0.1545
  C  C286  1  0.915500  0.401400  0.690110  1.0  -0.1014
  C  C287  1  0.937400  0.324100  0.661460  1.0  -0.1611
  C  C288  1  0.895600  0.326200  0.623550  1.0  0.0283
  C  C289  1  0.832200  0.409000  0.612410  1.0  -0.1742
  C  C290  1  0.811200  0.486000  0.640990  1.0  -0.0388
  C  C291  1  0.921100  0.244200  0.593280  1.0  0.354
  C  C292  1  0.911000  0.140800  0.540150  1.0  0.1419
  C  C293  1  0.003900  0.123100  0.560280  1.0  0.1399
  C  C294  1  0.077700  0.047700  0.545700  1.0  -0.0667
  C  C295  1  0.173900  0.030600  0.564620  1.0  -0.1331
  C  C296  1  0.216000  0.900400  0.514680  1.0  -0.1615
  C  C297  1  0.121100  0.915900  0.495130  1.0  -0.0494
  C  C298  1  0.049500  0.991300  0.510190  1.0  -0.0013
  N  N299  1  0.220200  0.640700  0.938740  1.0  -0.3396
  N  N300  1  0.188900  0.490400  0.906420  1.0  -0.2702
  N  N301  1  0.279800  0.859300  0.938740  1.0  -0.3391
  N  N302  1  0.311100  0.009600  0.906420  1.0  -0.2679
  N  N303  1  0.359300  0.720200  0.438740  1.0  -0.3395
  N  N304  1  0.509600  0.688900  0.406420  1.0  -0.2687
  N  N305  1  0.140700  0.779800  0.438740  1.0  -0.3399
  N  N306  1  0.990400  0.811100  0.406420  1.0  -0.2675
  N  N307  1  0.779800  0.359300  0.061260  1.0  -0.3382
  N  N308  1  0.811100  0.509600  0.093580  1.0  -0.2668
  N  N309  1  0.720200  0.140700  0.061260  1.0  -0.3388
  N  N310  1  0.688900  0.990400  0.093580  1.0  -0.2686
  N  N311  1  0.640700  0.279800  0.561260  1.0  -0.3392
  N  N312  1  0.490400  0.311100  0.593580  1.0  -0.2676
  N  N313  1  0.859300  0.220200  0.561260  1.0  -0.3383
  N  N314  1  0.009600  0.188900  0.593580  1.0  -0.2678
  O  O315  1  0.638200  0.731300  0.801160  1.0  -0.5574
  O  O316  1  0.567900  0.637600  0.756440  1.0  -0.564
  O  O317  1  0.861800  0.768700  0.801160  1.0  -0.5582
  O  O318  1  0.932100  0.862400  0.756440  1.0  -0.5646
  O  O319  1  0.268700  0.138200  0.301160  1.0  -0.557
  O  O320  1  0.362400  0.067900  0.256440  1.0  -0.5622
  O  O321  1  0.231300  0.361800  0.301160  1.0  -0.5576
  O  O322  1  0.137600  0.432100  0.256440  1.0  -0.5634
  O  O323  1  0.361800  0.268700  0.198840  1.0  -0.5592
  O  O324  1  0.432100  0.362400  0.243560  1.0  -0.5637
  O  O325  1  0.138200  0.231300  0.198840  1.0  -0.558
  O  O326  1  0.067900  0.137600  0.243560  1.0  -0.564
  O  O327  1  0.731300  0.861800  0.698840  1.0  -0.5586
  O  O328  1  0.637600  0.932100  0.743560  1.0  -0.5636
  O  O329  1  0.768700  0.638200  0.698840  1.0  -0.5574
  O  O330  1  0.862400  0.567900  0.743560  1.0  -0.5624
