# generated using pymatgen
data_Na2ZnH4(C6O5)2
_symmetry_space_group_name_H-M   'P 1'
_cell_length_a   29.00700000
_cell_length_b   29.00700000
_cell_length_c   16.17500000
_cell_angle_alpha   90.00000000
_cell_angle_beta   90.00000000
_cell_angle_gamma   120.00000000
_symmetry_Int_Tables_number   1
_chemical_formula_structural   Na2ZnH4(C6O5)2
_chemical_formula_sum   'Na36 Zn18 H72 C216 O180'
_cell_volume   11786.38304064
_cell_formula_units_Z   18
loop_
 _symmetry_equiv_pos_site_id
 _symmetry_equiv_pos_as_xyz
  1  'x, y, z'
loop_
 _atom_site_type_symbol
 _atom_site_label
 _atom_site_symmetry_multiplicity
 _atom_site_fract_x
 _atom_site_fract_y
 _atom_site_fract_z
 _atom_site_occupancy
 _atom_site_charge
  Na  Na1  1  0.998360  0.331690  0.916670  1.0  0.9141
  Na  Na2  1  0.854260  0.187600  0.916670  1.0  0.9641
  Na  Na3  1  0.665020  0.665020  0.250000  1.0  0.9147
  Na  Na4  1  0.520930  0.520930  0.250000  1.0  0.9641
  Na  Na5  1  0.668310  0.666667  0.916670  1.0  0.9132
  Na  Na6  1  0.812400  0.666667  0.916670  1.0  0.9636
  Na  Na7  1  0.334980  0.000000  0.250000  1.0  0.9133
  Na  Na8  1  0.479070  0.000000  0.250000  1.0  0.9635
  Na  Na9  1  0.333333  0.001640  0.916670  1.0  0.913
  Na  Na10  1  0.333333  0.145740  0.916670  1.0  0.9645
  Na  Na11  1  0.000000  0.334980  0.250000  1.0  0.9136
  Na  Na12  1  0.000000  0.479070  0.250000  1.0  0.9645
  Na  Na13  1  0.331690  0.998360  0.583330  1.0  0.9141
  Na  Na14  1  0.187600  0.854260  0.583330  1.0  0.9641
  Na  Na15  1  0.666667  0.668310  0.583330  1.0  0.9136
  Na  Na16  1  0.666667  0.812400  0.583330  1.0  0.9647
  Na  Na17  1  0.001640  0.333333  0.583330  1.0  0.9129
  Na  Na18  1  0.145740  0.333333  0.583330  1.0  0.9636
  Na  Na19  1  0.001640  0.668310  0.083330  1.0  0.9127
  Na  Na20  1  0.145740  0.812400  0.083330  1.0  0.9656
  Na  Na21  1  0.331690  0.333333  0.083330  1.0  0.9134
  Na  Na22  1  0.187600  0.333333  0.083330  1.0  0.965
  Na  Na23  1  0.666667  0.998360  0.083330  1.0  0.9132
  Na  Na24  1  0.666667  0.854260  0.083330  1.0  0.965
  Na  Na25  1  0.668310  0.001640  0.416670  1.0  0.9127
  Na  Na26  1  0.812400  0.145740  0.416670  1.0  0.9656
  Na  Na27  1  0.334980  0.334980  0.750000  1.0  0.9132
  Na  Na28  1  0.479070  0.479070  0.750000  1.0  0.9656
  Na  Na29  1  0.333333  0.331690  0.416670  1.0  0.9136
  Na  Na30  1  0.333333  0.187600  0.416670  1.0  0.965
  Na  Na31  1  0.000000  0.665020  0.750000  1.0  0.9136
  Na  Na32  1  0.000000  0.520930  0.750000  1.0  0.965
  Na  Na33  1  0.998360  0.666667  0.416670  1.0  0.9128
  Na  Na34  1  0.854260  0.666667  0.416670  1.0  0.9648
  Na  Na35  1  0.665020  0.000000  0.750000  1.0  0.9133
  Na  Na36  1  0.520930  0.000000  0.750000  1.0  0.9649
  Zn  Zn37  1  0.066480  0.333333  0.083330  1.0  1.1069
  Zn  Zn38  1  0.666667  0.733140  0.083330  1.0  1.1089
  Zn  Zn39  1  0.333333  0.066480  0.416670  1.0  1.109
  Zn  Zn40  1  0.266860  0.933520  0.083330  1.0  1.1095
  Zn  Zn41  1  0.600190  0.600190  0.750000  1.0  1.1095
  Zn  Zn42  1  0.000000  0.399810  0.750000  1.0  1.109
  Zn  Zn43  1  0.733140  0.666667  0.416670  1.0  1.1069
  Zn  Zn44  1  0.399810  0.000000  0.750000  1.0  1.1069
  Zn  Zn45  1  0.933520  0.266860  0.416670  1.0  1.1095
  Zn  Zn46  1  0.933520  0.666667  0.916670  1.0  1.1061
  Zn  Zn47  1  0.600190  0.000000  0.250000  1.0  1.1061
  Zn  Zn48  1  0.266860  0.333333  0.583330  1.0  1.1061
  Zn  Zn49  1  0.333333  0.266860  0.916670  1.0  1.1079
  Zn  Zn50  1  0.000000  0.600190  0.250000  1.0  1.1079
  Zn  Zn51  1  0.733140  0.066480  0.916670  1.0  1.1075
  Zn  Zn52  1  0.399810  0.399810  0.250000  1.0  1.1076
  Zn  Zn53  1  0.666667  0.933520  0.583330  1.0  1.108
  Zn  Zn54  1  0.066480  0.733140  0.583330  1.0  1.1076
  H  H55  1  0.852400  0.096200  0.224000  1.0  0.1453
  H  H56  1  0.940100  0.181000  0.234700  1.0  0.134
  H  H57  1  0.519070  0.429530  0.557330  1.0  0.1441
  H  H58  1  0.606770  0.514330  0.568030  1.0  0.134
  H  H59  1  0.185730  0.762870  0.890670  1.0  0.1441
  H  H60  1  0.273430  0.847670  0.901370  1.0  0.1338
  H  H61  1  0.903800  0.756200  0.224000  1.0  0.1459
  H  H62  1  0.819000  0.759100  0.234700  1.0  0.1356
  H  H63  1  0.570470  0.089530  0.557330  1.0  0.1442
  H  H64  1  0.485670  0.092430  0.568030  1.0  0.1357
  H  H65  1  0.237130  0.422870  0.890670  1.0  0.1442
  H  H66  1  0.152330  0.425770  0.901370  1.0  0.1355
  H  H67  1  0.243800  0.147600  0.224000  1.0  0.1446
  H  H68  1  0.240900  0.059900  0.234700  1.0  0.1346
  H  H69  1  0.910470  0.480930  0.557330  1.0  0.1446
  H  H70  1  0.907570  0.393230  0.568030  1.0  0.1346
  H  H71  1  0.577130  0.814270  0.890670  1.0  0.1446
  H  H72  1  0.574230  0.726570  0.901370  1.0  0.1346
  H  H73  1  0.096200  0.852400  0.276000  1.0  0.1457
  H  H74  1  0.181000  0.940100  0.265300  1.0  0.1339
  H  H75  1  0.762870  0.185730  0.609330  1.0  0.1443
  H  H76  1  0.847670  0.273430  0.598630  1.0  0.1337
  H  H77  1  0.429530  0.519070  0.942670  1.0  0.1443
  H  H78  1  0.514330  0.606770  0.931970  1.0  0.1338
  H  H79  1  0.756200  0.903800  0.276000  1.0  0.1457
  H  H80  1  0.759100  0.819000  0.265300  1.0  0.1332
  H  H81  1  0.422870  0.237130  0.609330  1.0  0.1443
  H  H82  1  0.425770  0.152330  0.598630  1.0  0.1331
  H  H83  1  0.089530  0.570470  0.942670  1.0  0.1443
  H  H84  1  0.092430  0.485670  0.931970  1.0  0.1333
  H  H85  1  0.147600  0.243800  0.276000  1.0  0.1443
  H  H86  1  0.059900  0.240900  0.265300  1.0  0.1348
  H  H87  1  0.814270  0.577130  0.609330  1.0  0.1443
  H  H88  1  0.726570  0.574230  0.598630  1.0  0.1348
  H  H89  1  0.480930  0.910470  0.942670  1.0  0.1443
  H  H90  1  0.393230  0.907570  0.931970  1.0  0.1348
  H  H91  1  0.147600  0.903800  0.776000  1.0  0.1463
  H  H92  1  0.059900  0.819000  0.765300  1.0  0.1328
  H  H93  1  0.814270  0.237130  0.109330  1.0  0.1452
  H  H94  1  0.726570  0.152330  0.098630  1.0  0.1326
  H  H95  1  0.480930  0.570470  0.442670  1.0  0.1452
  H  H96  1  0.393230  0.485670  0.431970  1.0  0.1327
  H  H97  1  0.096200  0.243800  0.776000  1.0  0.1463
  H  H98  1  0.181000  0.240900  0.765300  1.0  0.1351
  H  H99  1  0.762870  0.577130  0.109330  1.0  0.1447
  H  H100  1  0.847670  0.574230  0.098630  1.0  0.135
  H  H101  1  0.429530  0.910470  0.442670  1.0  0.1446
  H  H102  1  0.514330  0.907570  0.431970  1.0  0.1352
  H  H103  1  0.756200  0.852400  0.776000  1.0  0.1433
  H  H104  1  0.759100  0.940100  0.765300  1.0  0.1333
  H  H105  1  0.422870  0.185730  0.109330  1.0  0.1433
  H  H106  1  0.425770  0.273430  0.098630  1.0  0.1333
  H  H107  1  0.089530  0.519070  0.442670  1.0  0.1433
  H  H108  1  0.092430  0.606770  0.431970  1.0  0.1333
  H  H109  1  0.903800  0.147600  0.724000  1.0  0.1439
  H  H110  1  0.819000  0.059900  0.734700  1.0  0.1335
  H  H111  1  0.570470  0.480930  0.057330  1.0  0.143
  H  H112  1  0.485670  0.393230  0.068030  1.0  0.1335
  H  H113  1  0.237130  0.814270  0.390670  1.0  0.143
  H  H114  1  0.152330  0.726570  0.401370  1.0  0.1333
  H  H115  1  0.243800  0.096200  0.724000  1.0  0.1463
  H  H116  1  0.240900  0.181000  0.734700  1.0  0.1341
  H  H117  1  0.910470  0.429530  0.057330  1.0  0.1456
  H  H118  1  0.907570  0.514330  0.068030  1.0  0.1342
  H  H119  1  0.577130  0.762870  0.390670  1.0  0.1456
  H  H120  1  0.574230  0.847670  0.401370  1.0  0.134
  H  H121  1  0.852400  0.756200  0.724000  1.0  0.1452
  H  H122  1  0.940100  0.759100  0.734700  1.0  0.1357
  H  H123  1  0.519070  0.089530  0.057330  1.0  0.1453
  H  H124  1  0.606770  0.092430  0.068030  1.0  0.1357
  H  H125  1  0.185730  0.422870  0.390670  1.0  0.1452
  H  H126  1  0.273430  0.425770  0.401370  1.0  0.1357
  C  C127  1  0.964180  0.250990  0.089900  1.0  0.6775
  C  C128  1  0.795660  0.088220  0.067500  1.0  0.7219
  C  C129  1  0.846260  0.124300  0.109900  1.0  0.0649
  C  C130  1  0.867500  0.123190  0.184700  1.0  -0.1373
  C  C131  1  0.916430  0.170600  0.190600  1.0  -0.1262
  C  C132  1  0.922950  0.198530  0.120200  1.0  0.0533
  C  C133  1  0.630850  0.584320  0.423230  1.0  0.6761
  C  C134  1  0.462330  0.421550  0.400830  1.0  0.722
  C  C135  1  0.512930  0.457630  0.443230  1.0  0.0649
  C  C136  1  0.534170  0.456520  0.518030  1.0  -0.1488
  C  C137  1  0.583100  0.503930  0.523930  1.0  -0.1261
  C  C138  1  0.589620  0.531860  0.453530  1.0  0.0534
  C  C139  1  0.297510  0.917660  0.756570  1.0  0.6776
  C  C140  1  0.128990  0.754890  0.734170  1.0  0.7219
  C  C141  1  0.179590  0.790970  0.776570  1.0  0.0649
  C  C142  1  0.200830  0.789860  0.851370  1.0  -0.1488
  C  C143  1  0.249760  0.837270  0.857270  1.0  -0.1262
  C  C144  1  0.256280  0.865200  0.786870  1.0  0.0533
  C  C145  1  0.749010  0.713190  0.089900  1.0  0.6781
  C  C146  1  0.911780  0.707440  0.067500  1.0  0.7169
  C  C147  1  0.875700  0.721960  0.109900  1.0  0.0634
  C  C148  1  0.876810  0.744310  0.184700  1.0  -0.1367
  C  C149  1  0.829400  0.745830  0.190600  1.0  -0.1287
  C  C150  1  0.801470  0.724420  0.120200  1.0  0.0528
  C  C151  1  0.415680  0.046520  0.423230  1.0  0.678
  C  C152  1  0.578450  0.040770  0.400830  1.0  0.7169
  C  C153  1  0.542370  0.055290  0.443230  1.0  0.0634
  C  C154  1  0.543480  0.077640  0.518030  1.0  -0.1485
  C  C155  1  0.496070  0.079160  0.523930  1.0  -0.1287
  C  C156  1  0.468140  0.057750  0.453530  1.0  0.0528
  C  C157  1  0.082340  0.379860  0.756570  1.0  0.6781
  C  C158  1  0.245110  0.374110  0.734170  1.0  0.7169
  C  C159  1  0.209030  0.388630  0.776570  1.0  0.0634
  C  C160  1  0.210140  0.410980  0.851370  1.0  -0.1485
  C  C161  1  0.162730  0.412500  0.857270  1.0  -0.1287
  C  C162  1  0.134800  0.391090  0.786870  1.0  0.0528
  C  C163  1  0.286810  0.035820  0.089900  1.0  0.6762
  C  C164  1  0.292560  0.204340  0.067500  1.0  0.7234
  C  C165  1  0.278040  0.153740  0.109900  1.0  0.0662
  C  C166  1  0.255690  0.132500  0.184700  1.0  -0.1488
  C  C167  1  0.254170  0.083570  0.190600  1.0  -0.1301
  C  C168  1  0.275580  0.077050  0.120200  1.0  0.0532
  C  C169  1  0.953480  0.369150  0.423230  1.0  0.6764
  C  C170  1  0.959230  0.537670  0.400830  1.0  0.7234
  C  C171  1  0.944710  0.487070  0.443230  1.0  0.0662
  C  C172  1  0.922360  0.465830  0.518030  1.0  -0.1488
  C  C173  1  0.920840  0.416900  0.523930  1.0  -0.1299
  C  C174  1  0.942250  0.410380  0.453530  1.0  0.0532
  C  C175  1  0.620140  0.702490  0.756570  1.0  0.6763
  C  C176  1  0.625890  0.871010  0.734170  1.0  0.7234
  C  C177  1  0.611370  0.820410  0.776570  1.0  0.0662
  C  C178  1  0.589020  0.799170  0.851370  1.0  -0.1488
  C  C179  1  0.587500  0.750240  0.857270  1.0  -0.1301
  C  C180  1  0.608910  0.743720  0.786870  1.0  0.0532
  C  C181  1  0.250990  0.964180  0.410100  1.0  0.6766
  C  C182  1  0.088220  0.795660  0.432500  1.0  0.7242
  C  C183  1  0.124300  0.846260  0.390100  1.0  0.0661
  C  C184  1  0.123190  0.867500  0.315300  1.0  -0.1365
  C  C185  1  0.170600  0.916430  0.309400  1.0  -0.1276
  C  C186  1  0.198530  0.922950  0.379800  1.0  0.0535
  C  C187  1  0.917660  0.297510  0.743430  1.0  0.6768
  C  C188  1  0.754890  0.128990  0.765830  1.0  0.7242
  C  C189  1  0.790970  0.179590  0.723430  1.0  0.0661
  C  C190  1  0.789860  0.200830  0.648630  1.0  -0.1476
  C  C191  1  0.837270  0.249760  0.642730  1.0  -0.1277
  C  C192  1  0.865200  0.256280  0.713130  1.0  0.0535
  C  C193  1  0.584320  0.630850  0.076770  1.0  0.6753
  C  C194  1  0.421550  0.462330  0.099170  1.0  0.7242
  C  C195  1  0.457630  0.512930  0.056770  1.0  0.066
  C  C196  1  0.456520  0.534170  0.981970  1.0  -0.1476
  C  C197  1  0.503930  0.583100  0.976070  1.0  -0.1279
  C  C198  1  0.531860  0.589620  0.046470  1.0  0.0536
  C  C199  1  0.713190  0.749010  0.410100  1.0  0.6782
  C  C200  1  0.707440  0.911780  0.432500  1.0  0.7219
  C  C201  1  0.721960  0.875700  0.390100  1.0  0.0652
  C  C202  1  0.744310  0.876810  0.315300  1.0  -0.1368
  C  C203  1  0.745830  0.829400  0.309400  1.0  -0.1249
  C  C204  1  0.724420  0.801470  0.379800  1.0  0.0549
  C  C205  1  0.379860  0.082340  0.743430  1.0  0.6783
  C  C206  1  0.374110  0.245110  0.765830  1.0  0.7219
  C  C207  1  0.388630  0.209030  0.723430  1.0  0.0652
  C  C208  1  0.410980  0.210140  0.648630  1.0  -0.1479
  C  C209  1  0.412500  0.162730  0.642730  1.0  -0.1249
  C  C210  1  0.391090  0.134800  0.713130  1.0  0.0549
  C  C211  1  0.046520  0.415680  0.076770  1.0  0.6782
  C  C212  1  0.040770  0.578450  0.099170  1.0  0.7218
  C  C213  1  0.055290  0.542370  0.056770  1.0  0.0653
  C  C214  1  0.077640  0.543480  0.981970  1.0  -0.1479
  C  C215  1  0.079160  0.496070  0.976070  1.0  -0.1247
  C  C216  1  0.057750  0.468140  0.046470  1.0  0.0549
  C  C217  1  0.035820  0.286810  0.410100  1.0  0.6783
  C  C218  1  0.204340  0.292560  0.432500  1.0  0.7187
  C  C219  1  0.153740  0.278040  0.390100  1.0  0.064
  C  C220  1  0.132500  0.255690  0.315300  1.0  -0.1483
  C  C221  1  0.083570  0.254170  0.309400  1.0  -0.1281
  C  C222  1  0.077050  0.275580  0.379800  1.0  0.0525
  C  C223  1  0.702490  0.620140  0.743430  1.0  0.6784
  C  C224  1  0.871010  0.625890  0.765830  1.0  0.7187
  C  C225  1  0.820410  0.611370  0.723430  1.0  0.064
  C  C226  1  0.799170  0.589020  0.648630  1.0  -0.1483
  C  C227  1  0.750240  0.587500  0.642730  1.0  -0.1281
  C  C228  1  0.743720  0.608910  0.713130  1.0  0.0525
  C  C229  1  0.369150  0.953480  0.076770  1.0  0.6785
  C  C230  1  0.537670  0.959230  0.099170  1.0  0.7187
  C  C231  1  0.487070  0.944710  0.056770  1.0  0.064
  C  C232  1  0.465830  0.922360  0.981970  1.0  -0.1484
  C  C233  1  0.416900  0.920840  0.976070  1.0  -0.1278
  C  C234  1  0.410380  0.942250  0.046470  1.0  0.0525
  C  C235  1  0.035820  0.749010  0.910100  1.0  0.6778
  C  C236  1  0.204340  0.911780  0.932500  1.0  0.7223
  C  C237  1  0.153740  0.875700  0.890100  1.0  0.0642
  C  C238  1  0.132500  0.876810  0.815300  1.0  -0.137
  C  C239  1  0.083570  0.829400  0.809400  1.0  -0.1249
  C  C240  1  0.077050  0.801470  0.879800  1.0  0.0544
  C  C241  1  0.702490  0.082340  0.243430  1.0  0.6779
  C  C242  1  0.871010  0.245110  0.265830  1.0  0.7223
  C  C243  1  0.820410  0.209030  0.223430  1.0  0.0642
  C  C244  1  0.799170  0.210140  0.148630  1.0  -0.1485
  C  C245  1  0.750240  0.162730  0.142730  1.0  -0.1249
  C  C246  1  0.743720  0.134800  0.213130  1.0  0.0544
  C  C247  1  0.369150  0.415680  0.576770  1.0  0.6764
  C  C248  1  0.537670  0.578450  0.599170  1.0  0.7224
  C  C249  1  0.487070  0.542370  0.556770  1.0  0.0642
  C  C250  1  0.465830  0.543480  0.481970  1.0  -0.1485
  C  C251  1  0.416900  0.496070  0.476070  1.0  -0.1251
  C  C252  1  0.410380  0.468140  0.546470  1.0  0.0545
  C  C253  1  0.250990  0.286810  0.910100  1.0  0.6789
  C  C254  1  0.088220  0.292560  0.932500  1.0  0.7183
  C  C255  1  0.124300  0.278040  0.890100  1.0  0.064
  C  C256  1  0.123190  0.255690  0.815300  1.0  -0.1381
  C  C257  1  0.170600  0.254170  0.809400  1.0  -0.1272
  C  C258  1  0.198530  0.275580  0.879800  1.0  0.0525
  C  C259  1  0.917660  0.620140  0.243430  1.0  0.679
  C  C260  1  0.754890  0.625890  0.265830  1.0  0.7183
  C  C261  1  0.790970  0.611370  0.223430  1.0  0.064
  C  C262  1  0.789860  0.589020  0.148630  1.0  -0.1478
  C  C263  1  0.837270  0.587500  0.142730  1.0  -0.1272
  C  C264  1  0.865200  0.608910  0.213130  1.0  0.0525
  C  C265  1  0.584320  0.953480  0.576770  1.0  0.6789
  C  C266  1  0.421550  0.959230  0.599170  1.0  0.7183
  C  C267  1  0.457630  0.944710  0.556770  1.0  0.064
  C  C268  1  0.456520  0.922360  0.481970  1.0  -0.1478
  C  C269  1  0.503930  0.920840  0.476070  1.0  -0.127
  C  C270  1  0.531860  0.942250  0.546470  1.0  0.0525
  C  C271  1  0.713190  0.964180  0.910100  1.0  0.6781
  C  C272  1  0.707440  0.795660  0.932500  1.0  0.7218
  C  C273  1  0.721960  0.846260  0.890100  1.0  0.0651
  C  C274  1  0.744310  0.867500  0.815300  1.0  -0.1491
  C  C275  1  0.745830  0.916430  0.809400  1.0  -0.1268
  C  C276  1  0.724420  0.922950  0.879800  1.0  0.0542
  C  C277  1  0.379860  0.297510  0.243430  1.0  0.6782
  C  C278  1  0.374110  0.128990  0.265830  1.0  0.7218
  C  C279  1  0.388630  0.179590  0.223430  1.0  0.0651
  C  C280  1  0.410980  0.200830  0.148630  1.0  -0.1491
  C  C281  1  0.412500  0.249760  0.142730  1.0  -0.1268
  C  C282  1  0.391090  0.256280  0.213130  1.0  0.0542
  C  C283  1  0.046520  0.630850  0.576770  1.0  0.6782
  C  C284  1  0.040770  0.462330  0.599170  1.0  0.7218
  C  C285  1  0.055290  0.512930  0.556770  1.0  0.0651
  C  C286  1  0.077640  0.534170  0.481970  1.0  -0.1491
  C  C287  1  0.079160  0.583100  0.476070  1.0  -0.1265
  C  C288  1  0.057750  0.589620  0.546470  1.0  0.0543
  C  C289  1  0.749010  0.035820  0.589900  1.0  0.6771
  C  C290  1  0.911780  0.204340  0.567500  1.0  0.7212
  C  C291  1  0.875700  0.153740  0.609900  1.0  0.0635
  C  C292  1  0.876810  0.132500  0.684700  1.0  -0.139
  C  C293  1  0.829400  0.083570  0.690600  1.0  -0.1285
  C  C294  1  0.801470  0.077050  0.620200  1.0  0.0531
  C  C295  1  0.415680  0.369150  0.923230  1.0  0.6758
  C  C296  1  0.578450  0.537670  0.900830  1.0  0.7212
  C  C297  1  0.542370  0.487070  0.943230  1.0  0.0634
  C  C298  1  0.543480  0.465830  0.018030  1.0  -0.15
  C  C299  1  0.496070  0.416900  0.023930  1.0  -0.1284
  C  C300  1  0.468140  0.410380  0.953530  1.0  0.0532
  C  C301  1  0.082340  0.702490  0.256570  1.0  0.6773
  C  C302  1  0.245110  0.871010  0.234170  1.0  0.7212
  C  C303  1  0.209030  0.820410  0.276570  1.0  0.0635
  C  C304  1  0.210140  0.799170  0.351370  1.0  -0.15
  C  C305  1  0.162730  0.750240  0.357270  1.0  -0.1285
  C  C306  1  0.134800  0.743720  0.286870  1.0  0.0531
  C  C307  1  0.286810  0.250990  0.589900  1.0  0.6775
  C  C308  1  0.292560  0.088220  0.567500  1.0  0.7223
  C  C309  1  0.278040  0.124300  0.609900  1.0  0.0632
  C  C310  1  0.255690  0.123190  0.684700  1.0  -0.137
  C  C311  1  0.254170  0.170600  0.690600  1.0  -0.1269
  C  C312  1  0.275580  0.198530  0.620200  1.0  0.0538
  C  C313  1  0.953480  0.584320  0.923230  1.0  0.6775
  C  C314  1  0.959230  0.421550  0.900830  1.0  0.7222
  C  C315  1  0.944710  0.457630  0.943230  1.0  0.0632
  C  C316  1  0.922360  0.456520  0.018030  1.0  -0.148
  C  C317  1  0.920840  0.503930  0.023930  1.0  -0.1269
  C  C318  1  0.942250  0.531860  0.953530  1.0  0.0538
  C  C319  1  0.620140  0.917660  0.256570  1.0  0.6776
  C  C320  1  0.625890  0.754890  0.234170  1.0  0.7223
  C  C321  1  0.611370  0.790970  0.276570  1.0  0.0632
  C  C322  1  0.589020  0.789860  0.351370  1.0  -0.148
  C  C323  1  0.587500  0.837270  0.357270  1.0  -0.1269
  C  C324  1  0.608910  0.865200  0.286870  1.0  0.0538
  C  C325  1  0.964180  0.713190  0.589900  1.0  0.6781
  C  C326  1  0.795660  0.707440  0.567500  1.0  0.7161
  C  C327  1  0.846260  0.721960  0.609900  1.0  0.0633
  C  C328  1  0.867500  0.744310  0.684700  1.0  -0.1489
  C  C329  1  0.916430  0.745830  0.690600  1.0  -0.1272
  C  C330  1  0.922950  0.724420  0.620200  1.0  0.0526
  C  C331  1  0.630850  0.046520  0.923230  1.0  0.6782
  C  C332  1  0.462330  0.040770  0.900830  1.0  0.716
  C  C333  1  0.512930  0.055290  0.943230  1.0  0.0633
  C  C334  1  0.534170  0.077640  0.018030  1.0  -0.1489
  C  C335  1  0.583100  0.079160  0.023930  1.0  -0.1268
  C  C336  1  0.589620  0.057750  0.953530  1.0  0.0526
  C  C337  1  0.297510  0.379860  0.256570  1.0  0.6782
  C  C338  1  0.128990  0.374110  0.234170  1.0  0.7161
  C  C339  1  0.179590  0.388630  0.276570  1.0  0.0633
  C  C340  1  0.200830  0.410980  0.351370  1.0  -0.1489
  C  C341  1  0.249760  0.412500  0.357270  1.0  -0.1272
  C  C342  1  0.256280  0.391090  0.286870  1.0  0.0526
  O  O343  1  0.004660  0.275810  0.138810  1.0  -0.6765
  O  O344  1  0.959070  0.267540  0.022360  1.0  -0.7159
  O  O345  1  0.792710  0.102280  0.993220  1.0  -0.6469
  O  O346  1  0.761190  0.048670  0.103970  1.0  -0.6275
  O  O347  1  0.879850  0.170640  0.069430  1.0  -0.3457
  O  O348  1  0.671330  0.609140  0.472140  1.0  -0.6765
  O  O349  1  0.625740  0.600870  0.355690  1.0  -0.7159
  O  O350  1  0.459380  0.435610  0.326550  1.0  -0.6469
  O  O351  1  0.427860  0.382000  0.437300  1.0  -0.6275
  O  O352  1  0.546520  0.503970  0.402760  1.0  -0.3457
  O  O353  1  0.337990  0.942480  0.805480  1.0  -0.6765
  O  O354  1  0.292400  0.934210  0.689030  1.0  -0.7159
  O  O355  1  0.126040  0.768950  0.659890  1.0  -0.6468
  O  O356  1  0.094520  0.715340  0.770640  1.0  -0.6275
  O  O357  1  0.213180  0.837310  0.736100  1.0  -0.3457
  O  O358  1  0.724190  0.728850  0.138810  1.0  -0.6779
  O  O359  1  0.732460  0.691530  0.022360  1.0  -0.7184
  O  O360  1  0.897720  0.690430  0.993220  1.0  -0.6463
  O  O361  1  0.951330  0.712520  0.103970  1.0  -0.6291
  O  O362  1  0.829360  0.709210  0.069430  1.0  -0.3492
  O  O363  1  0.390860  0.062180  0.472140  1.0  -0.6779
  O  O364  1  0.399130  0.024860  0.355690  1.0  -0.7184
  O  O365  1  0.564390  0.023760  0.326550  1.0  -0.6463
  O  O366  1  0.618000  0.045850  0.437300  1.0  -0.6291
  O  O367  1  0.496030  0.042540  0.402760  1.0  -0.3492
  O  O368  1  0.057520  0.395520  0.805480  1.0  -0.6779
  O  O369  1  0.065790  0.358200  0.689030  1.0  -0.7184
  O  O370  1  0.231050  0.357100  0.659890  1.0  -0.6462
  O  O371  1  0.284660  0.379190  0.770640  1.0  -0.6292
  O  O372  1  0.162690  0.375880  0.736100  1.0  -0.3492
  O  O373  1  0.271150  0.995340  0.138810  1.0  -0.6798
  O  O374  1  0.308470  0.040930  0.022360  1.0  -0.7168
  O  O375  1  0.309570  0.207290  0.993220  1.0  -0.6462
  O  O376  1  0.287480  0.238810  0.103970  1.0  -0.6299
  O  O377  1  0.290790  0.120150  0.069430  1.0  -0.3458
  O  O378  1  0.937820  0.328670  0.472140  1.0  -0.6799
  O  O379  1  0.975140  0.374260  0.355690  1.0  -0.7168
  O  O380  1  0.976240  0.540620  0.326550  1.0  -0.6462
  O  O381  1  0.954150  0.572140  0.437300  1.0  -0.6298
  O  O382  1  0.957460  0.453480  0.402760  1.0  -0.3458
  O  O383  1  0.604480  0.662010  0.805480  1.0  -0.6798
  O  O384  1  0.641800  0.707600  0.689030  1.0  -0.7169
  O  O385  1  0.642900  0.873960  0.659890  1.0  -0.6462
  O  O386  1  0.620810  0.905480  0.770640  1.0  -0.6299
  O  O387  1  0.624120  0.786820  0.736100  1.0  -0.3458
  O  O388  1  0.275810  0.004660  0.361190  1.0  -0.6798
  O  O389  1  0.267540  0.959070  0.477640  1.0  -0.7136
  O  O390  1  0.102280  0.792710  0.506780  1.0  -0.6478
  O  O391  1  0.048670  0.761190  0.396030  1.0  -0.6299
  O  O392  1  0.170640  0.879850  0.430570  1.0  -0.345
  O  O393  1  0.942480  0.337990  0.694520  1.0  -0.6798
  O  O394  1  0.934210  0.292400  0.810970  1.0  -0.7136
  O  O395  1  0.768950  0.126040  0.840110  1.0  -0.6477
  O  O396  1  0.715340  0.094520  0.729360  1.0  -0.6299
  O  O397  1  0.837310  0.213180  0.763900  1.0  -0.345
  O  O398  1  0.609140  0.671330  0.027860  1.0  -0.6798
  O  O399  1  0.600870  0.625740  0.144310  1.0  -0.7137
  O  O400  1  0.435610  0.459380  0.173450  1.0  -0.6478
  O  O401  1  0.382000  0.427860  0.062700  1.0  -0.6299
  O  O402  1  0.503970  0.546520  0.097240  1.0  -0.345
  O  O403  1  0.728850  0.724190  0.361190  1.0  -0.678
  O  O404  1  0.691530  0.732460  0.477640  1.0  -0.7131
  O  O405  1  0.690430  0.897720  0.506780  1.0  -0.6465
  O  O406  1  0.712520  0.951330  0.396030  1.0  -0.627
  O  O407  1  0.709210  0.829360  0.430570  1.0  -0.3437
  O  O408  1  0.395520  0.057520  0.694520  1.0  -0.6779
  O  O409  1  0.358200  0.065790  0.810970  1.0  -0.7131
  O  O410  1  0.357100  0.231050  0.840110  1.0  -0.6464
  O  O411  1  0.379190  0.284660  0.729360  1.0  -0.627
  O  O412  1  0.375880  0.162690  0.763900  1.0  -0.3437
  O  O413  1  0.062180  0.390860  0.027860  1.0  -0.678
  O  O414  1  0.024860  0.399130  0.144310  1.0  -0.7131
  O  O415  1  0.023760  0.564390  0.173450  1.0  -0.6465
  O  O416  1  0.045850  0.618000  0.062700  1.0  -0.627
  O  O417  1  0.042540  0.496030  0.097240  1.0  -0.3437
  O  O418  1  0.995340  0.271150  0.361190  1.0  -0.6781
  O  O419  1  0.040930  0.308470  0.477640  1.0  -0.7159
  O  O420  1  0.207290  0.309570  0.506780  1.0  -0.6466
  O  O421  1  0.238810  0.287480  0.396030  1.0  -0.6286
  O  O422  1  0.120150  0.290790  0.430570  1.0  -0.3459
  O  O423  1  0.662010  0.604480  0.694520  1.0  -0.6781
  O  O424  1  0.707600  0.641800  0.810970  1.0  -0.716
  O  O425  1  0.873960  0.642900  0.840110  1.0  -0.6466
  O  O426  1  0.905480  0.620810  0.729360  1.0  -0.6285
  O  O427  1  0.786820  0.624120  0.763900  1.0  -0.3459
  O  O428  1  0.328670  0.937820  0.027860  1.0  -0.6782
  O  O429  1  0.374260  0.975140  0.144310  1.0  -0.7159
  O  O430  1  0.540620  0.976240  0.173450  1.0  -0.6466
  O  O431  1  0.572140  0.954150  0.062700  1.0  -0.6284
  O  O432  1  0.453480  0.957460  0.097240  1.0  -0.3459
  O  O433  1  0.995340  0.724190  0.861190  1.0  -0.6794
  O  O434  1  0.040930  0.732460  0.977640  1.0  -0.7124
  O  O435  1  0.207290  0.897720  0.006780  1.0  -0.6454
  O  O436  1  0.238810  0.951330  0.896030  1.0  -0.6285
  O  O437  1  0.120150  0.829360  0.930570  1.0  -0.3447
  O  O438  1  0.662010  0.057520  0.194520  1.0  -0.6794
  O  O439  1  0.707600  0.065790  0.310970  1.0  -0.7124
  O  O440  1  0.873960  0.231050  0.340110  1.0  -0.6453
  O  O441  1  0.905480  0.284660  0.229360  1.0  -0.6285
  O  O442  1  0.786820  0.162690  0.263900  1.0  -0.3447
  O  O443  1  0.328670  0.390860  0.527860  1.0  -0.6794
  O  O444  1  0.374260  0.399130  0.644310  1.0  -0.7124
  O  O445  1  0.540620  0.564390  0.673450  1.0  -0.6454
  O  O446  1  0.572140  0.618000  0.562700  1.0  -0.6284
  O  O447  1  0.453480  0.496030  0.597240  1.0  -0.3447
  O  O448  1  0.275810  0.271150  0.861190  1.0  -0.6777
  O  O449  1  0.267540  0.308470  0.977640  1.0  -0.716
  O  O450  1  0.102280  0.309570  0.006780  1.0  -0.6453
  O  O451  1  0.048670  0.287480  0.896030  1.0  -0.6285
  O  O452  1  0.170640  0.290790  0.930570  1.0  -0.3449
  O  O453  1  0.942480  0.604480  0.194520  1.0  -0.6777
  O  O454  1  0.934210  0.641800  0.310970  1.0  -0.716
  O  O455  1  0.768950  0.642900  0.340110  1.0  -0.6453
  O  O456  1  0.715340  0.620810  0.229360  1.0  -0.6285
  O  O457  1  0.837310  0.624120  0.263900  1.0  -0.3449
  O  O458  1  0.609140  0.937820  0.527860  1.0  -0.6777
  O  O459  1  0.600870  0.975140  0.644310  1.0  -0.716
  O  O460  1  0.435610  0.976240  0.673450  1.0  -0.6453
  O  O461  1  0.382000  0.954150  0.562700  1.0  -0.6285
  O  O462  1  0.503970  0.957460  0.597240  1.0  -0.3449
  O  O463  1  0.728850  0.004660  0.861190  1.0  -0.6796
  O  O464  1  0.691530  0.959070  0.977640  1.0  -0.7134
  O  O465  1  0.690430  0.792710  0.006780  1.0  -0.6466
  O  O466  1  0.712520  0.761190  0.896030  1.0  -0.6298
  O  O467  1  0.709210  0.879850  0.930570  1.0  -0.3439
  O  O468  1  0.395520  0.337990  0.194520  1.0  -0.6796
  O  O469  1  0.358200  0.292400  0.310970  1.0  -0.7135
  O  O470  1  0.357100  0.126040  0.340110  1.0  -0.6467
  O  O471  1  0.379190  0.094520  0.229360  1.0  -0.6298
  O  O472  1  0.375880  0.213180  0.263900  1.0  -0.3439
  O  O473  1  0.062180  0.671330  0.527860  1.0  -0.6796
  O  O474  1  0.024860  0.625740  0.644310  1.0  -0.7134
  O  O475  1  0.023760  0.459380  0.673450  1.0  -0.6466
  O  O476  1  0.045850  0.427860  0.562700  1.0  -0.6297
  O  O477  1  0.042540  0.546520  0.597240  1.0  -0.3439
  O  O478  1  0.724190  0.995340  0.638810  1.0  -0.6793
  O  O479  1  0.732460  0.040930  0.522360  1.0  -0.7172
  O  O480  1  0.897720  0.207290  0.493220  1.0  -0.6456
  O  O481  1  0.951330  0.238810  0.603970  1.0  -0.6307
  O  O482  1  0.829360  0.120150  0.569430  1.0  -0.3462
  O  O483  1  0.390860  0.328670  0.972140  1.0  -0.6793
  O  O484  1  0.399130  0.374260  0.855690  1.0  -0.7172
  O  O485  1  0.564390  0.540620  0.826550  1.0  -0.6456
  O  O486  1  0.618000  0.572140  0.937300  1.0  -0.6306
  O  O487  1  0.496030  0.453480  0.902760  1.0  -0.3462
  O  O488  1  0.057520  0.662010  0.305480  1.0  -0.6793
  O  O489  1  0.065790  0.707600  0.189030  1.0  -0.7172
  O  O490  1  0.231050  0.873960  0.159890  1.0  -0.6455
  O  O491  1  0.284660  0.905480  0.270640  1.0  -0.6307
  O  O492  1  0.162690  0.786820  0.236100  1.0  -0.3462
  O  O493  1  0.271150  0.275810  0.638810  1.0  -0.6784
  O  O494  1  0.308470  0.267540  0.522360  1.0  -0.7154
  O  O495  1  0.309570  0.102280  0.493220  1.0  -0.6451
  O  O496  1  0.287480  0.048670  0.603970  1.0  -0.6279
  O  O497  1  0.290790  0.170640  0.569430  1.0  -0.3449
  O  O498  1  0.937820  0.609140  0.972140  1.0  -0.6784
  O  O499  1  0.975140  0.600870  0.855690  1.0  -0.7154
  O  O500  1  0.976240  0.435610  0.826550  1.0  -0.6451
  O  O501  1  0.954150  0.382000  0.937300  1.0  -0.6278
  O  O502  1  0.957460  0.503970  0.902760  1.0  -0.3449
  O  O503  1  0.604480  0.942480  0.305480  1.0  -0.6784
  O  O504  1  0.641800  0.934210  0.189030  1.0  -0.7154
  O  O505  1  0.642900  0.768950  0.159890  1.0  -0.6451
  O  O506  1  0.620810  0.715340  0.270640  1.0  -0.6279
  O  O507  1  0.624120  0.837310  0.236100  1.0  -0.3449
  O  O508  1  0.004660  0.728850  0.638810  1.0  -0.6778
  O  O509  1  0.959070  0.691530  0.522360  1.0  -0.7181
  O  O510  1  0.792710  0.690430  0.493220  1.0  -0.6448
  O  O511  1  0.761190  0.712520  0.603970  1.0  -0.6287
  O  O512  1  0.879850  0.709210  0.569430  1.0  -0.349
  O  O513  1  0.671330  0.062180  0.972140  1.0  -0.6778
  O  O514  1  0.625740  0.024860  0.855690  1.0  -0.718
  O  O515  1  0.459380  0.023760  0.826550  1.0  -0.6448
  O  O516  1  0.427860  0.045850  0.937300  1.0  -0.6286
  O  O517  1  0.546520  0.042540  0.902760  1.0  -0.349
  O  O518  1  0.337990  0.395520  0.305480  1.0  -0.6778
  O  O519  1  0.292400  0.358200  0.189030  1.0  -0.7181
  O  O520  1  0.126040  0.357100  0.159890  1.0  -0.6448
  O  O521  1  0.094520  0.379190  0.270640  1.0  -0.6287
  O  O522  1  0.213180  0.375880  0.236100  1.0  -0.349
