# generated using pymatgen
data_ZnH5C6(N2O)2
_symmetry_space_group_name_H-M   'P 1'
_cell_length_a   13.39300000
_cell_length_b   13.39300000
_cell_length_c   27.33800000
_cell_angle_alpha   90.00000000
_cell_angle_beta   90.00000000
_cell_angle_gamma   90.00000000
_symmetry_Int_Tables_number   1
_chemical_formula_structural   ZnH5C6(N2O)2
_chemical_formula_sum   'Zn16 H80 C96 N64 O32'
_cell_volume   4903.68401076
_cell_formula_units_Z   16
loop_
 _symmetry_equiv_pos_site_id
 _symmetry_equiv_pos_as_xyz
  1  'x, y, z'
loop_
 _atom_site_type_symbol
 _atom_site_label
 _atom_site_symmetry_multiplicity
 _atom_site_fract_x
 _atom_site_fract_y
 _atom_site_fract_z
 _atom_site_occupancy
 _atom_site_charge
  Zn  Zn1  1  0.911170  0.022890  0.446640  1.0  0.8677
  Zn  Zn2  1  0.588830  0.477110  0.446640  1.0  0.8675
  Zn  Zn3  1  0.477110  0.911170  0.446640  1.0  0.8682
  Zn  Zn4  1  0.022890  0.588830  0.446640  1.0  0.8686
  Zn  Zn5  1  0.088830  0.522890  0.053360  1.0  0.8677
  Zn  Zn6  1  0.411170  0.977110  0.053360  1.0  0.8677
  Zn  Zn7  1  0.522890  0.411170  0.053360  1.0  0.8686
  Zn  Zn8  1  0.977110  0.088830  0.053360  1.0  0.8687
  Zn  Zn9  1  0.088830  0.977110  0.553360  1.0  0.8679
  Zn  Zn10  1  0.411170  0.522890  0.553360  1.0  0.8677
  Zn  Zn11  1  0.522890  0.088830  0.553360  1.0  0.8689
  Zn  Zn12  1  0.977110  0.411170  0.553360  1.0  0.8682
  Zn  Zn13  1  0.911170  0.477110  0.946640  1.0  0.8675
  Zn  Zn14  1  0.588830  0.022890  0.946640  1.0  0.8677
  Zn  Zn15  1  0.477110  0.588830  0.946640  1.0  0.8683
  Zn  Zn16  1  0.022890  0.911170  0.946640  1.0  0.8686
  H  H17  1  0.103500  0.202400  0.193400  1.0  0.3151
  H  H18  1  0.121600  0.221800  0.246300  1.0  0.295
  H  H19  1  0.751600  0.102500  0.524900  1.0  0.0773
  H  H20  1  0.702800  0.925100  0.414900  1.0  0.081
  H  H21  1  0.034500  0.141700  0.308500  1.0  0.1079
  H  H22  1  0.396500  0.297600  0.193400  1.0  0.3149
  H  H23  1  0.378400  0.278200  0.246300  1.0  0.2936
  H  H24  1  0.748400  0.397500  0.524900  1.0  0.0775
  H  H25  1  0.797200  0.574900  0.414900  1.0  0.081
  H  H26  1  0.465500  0.358300  0.308500  1.0  0.1077
  H  H27  1  0.297600  0.103500  0.193400  1.0  0.315
  H  H28  1  0.278200  0.121600  0.246300  1.0  0.2928
  H  H29  1  0.397500  0.751600  0.524900  1.0  0.0771
  H  H30  1  0.574900  0.702800  0.414900  1.0  0.0813
  H  H31  1  0.358300  0.034500  0.308500  1.0  0.1078
  H  H32  1  0.202400  0.396500  0.193400  1.0  0.3148
  H  H33  1  0.221800  0.378400  0.246300  1.0  0.2939
  H  H34  1  0.102500  0.748400  0.524900  1.0  0.0775
  H  H35  1  0.925100  0.797200  0.414900  1.0  0.0813
  H  H36  1  0.141700  0.465500  0.308500  1.0  0.1074
  H  H37  1  0.896500  0.702400  0.306600  1.0  0.3139
  H  H38  1  0.878400  0.721800  0.253700  1.0  0.2933
  H  H39  1  0.248400  0.602500  0.975100  1.0  0.0769
  H  H40  1  0.297200  0.425100  0.085100  1.0  0.0809
  H  H41  1  0.965500  0.641700  0.191500  1.0  0.1078
  H  H42  1  0.603500  0.797600  0.306600  1.0  0.3157
  H  H43  1  0.621600  0.778200  0.253700  1.0  0.2944
  H  H44  1  0.251600  0.897500  0.975100  1.0  0.0773
  H  H45  1  0.202800  0.074900  0.085100  1.0  0.0807
  H  H46  1  0.534500  0.858300  0.191500  1.0  0.1073
  H  H47  1  0.702400  0.603500  0.306600  1.0  0.3151
  H  H48  1  0.721800  0.621600  0.253700  1.0  0.2932
  H  H49  1  0.602500  0.251600  0.975100  1.0  0.0769
  H  H50  1  0.425100  0.202800  0.085100  1.0  0.0808
  H  H51  1  0.641700  0.534500  0.191500  1.0  0.1074
  H  H52  1  0.797600  0.896500  0.306600  1.0  0.3144
  H  H53  1  0.778200  0.878400  0.253700  1.0  0.2932
  H  H54  1  0.897500  0.248400  0.975100  1.0  0.0768
  H  H55  1  0.074900  0.297200  0.085100  1.0  0.0813
  H  H56  1  0.858300  0.965500  0.191500  1.0  0.1077
  H  H57  1  0.896500  0.797600  0.806600  1.0  0.3146
  H  H58  1  0.878400  0.778200  0.753700  1.0  0.2936
  H  H59  1  0.248400  0.897500  0.475100  1.0  0.0769
  H  H60  1  0.297200  0.074900  0.585100  1.0  0.0807
  H  H61  1  0.965500  0.858300  0.691500  1.0  0.1076
  H  H62  1  0.603500  0.702400  0.806600  1.0  0.315
  H  H63  1  0.621600  0.721800  0.753700  1.0  0.2941
  H  H64  1  0.251600  0.602500  0.475100  1.0  0.0772
  H  H65  1  0.202800  0.425100  0.585100  1.0  0.0809
  H  H66  1  0.534500  0.641700  0.691500  1.0  0.1075
  H  H67  1  0.702400  0.896500  0.806600  1.0  0.3147
  H  H68  1  0.721800  0.878400  0.753700  1.0  0.2938
  H  H69  1  0.602500  0.248400  0.475100  1.0  0.077
  H  H70  1  0.425100  0.297200  0.585100  1.0  0.0809
  H  H71  1  0.641700  0.965500  0.691500  1.0  0.1073
  H  H72  1  0.797600  0.603500  0.806600  1.0  0.3146
  H  H73  1  0.778200  0.621600  0.753700  1.0  0.2929
  H  H74  1  0.897500  0.251600  0.475100  1.0  0.0768
  H  H75  1  0.074900  0.202800  0.585100  1.0  0.0811
  H  H76  1  0.858300  0.534500  0.691500  1.0  0.1077
  H  H77  1  0.103500  0.297600  0.693400  1.0  0.3154
  H  H78  1  0.121600  0.278200  0.746300  1.0  0.2953
  H  H79  1  0.751600  0.397500  0.024900  1.0  0.0776
  H  H80  1  0.702800  0.574900  0.914900  1.0  0.0808
  H  H81  1  0.034500  0.358300  0.808500  1.0  0.1076
  H  H82  1  0.396500  0.202400  0.693400  1.0  0.3146
  H  H83  1  0.378400  0.221800  0.746300  1.0  0.2934
  H  H84  1  0.748400  0.102500  0.024900  1.0  0.0773
  H  H85  1  0.797200  0.925100  0.914900  1.0  0.0811
  H  H86  1  0.465500  0.141700  0.808500  1.0  0.108
  H  H87  1  0.297600  0.396500  0.693400  1.0  0.3151
  H  H88  1  0.278200  0.378400  0.746300  1.0  0.2935
  H  H89  1  0.397500  0.748400  0.024900  1.0  0.0773
  H  H90  1  0.574900  0.797200  0.914900  1.0  0.0815
  H  H91  1  0.358300  0.465500  0.808500  1.0  0.1077
  H  H92  1  0.202400  0.103500  0.693400  1.0  0.3148
  H  H93  1  0.221800  0.121600  0.746300  1.0  0.2933
  H  H94  1  0.102500  0.751600  0.024900  1.0  0.0772
  H  H95  1  0.925100  0.702800  0.914900  1.0  0.0812
  H  H96  1  0.141700  0.034500  0.808500  1.0  0.1077
  C  C97  1  0.720000  0.060700  0.502490  1.0  0.2351
  C  C98  1  0.693600  0.964200  0.442680  1.0  0.2363
  C  C99  1  0.912500  0.016600  0.352880  1.0  0.6525
  C  C100  1  0.929700  0.035300  0.299940  1.0  -0.1625
  C  C101  1  0.999600  0.105600  0.285000  1.0  -0.1393
  C  C102  1  0.018800  0.123400  0.235330  1.0  0.2515
  C  C103  1  0.780000  0.439300  0.502490  1.0  0.2357
  C  C104  1  0.806400  0.535800  0.442680  1.0  0.2363
  C  C105  1  0.587500  0.483400  0.352880  1.0  0.6522
  C  C106  1  0.570300  0.464700  0.299940  1.0  -0.1633
  C  C107  1  0.500400  0.394400  0.285000  1.0  -0.1402
  C  C108  1  0.481200  0.376600  0.235330  1.0  0.2507
  C  C109  1  0.439300  0.720000  0.502490  1.0  0.2349
  C  C110  1  0.535800  0.693600  0.442680  1.0  0.2353
  C  C111  1  0.483400  0.912500  0.352880  1.0  0.6535
  C  C112  1  0.464700  0.929700  0.299940  1.0  -0.163
  C  C113  1  0.394400  0.999600  0.285000  1.0  -0.142
  C  C114  1  0.376600  0.018800  0.235330  1.0  0.2526
  C  C115  1  0.060700  0.780000  0.502490  1.0  0.2343
  C  C116  1  0.964200  0.806400  0.442680  1.0  0.2356
  C  C117  1  0.016600  0.587500  0.352880  1.0  0.6538
  C  C118  1  0.035300  0.570300  0.299940  1.0  -0.1628
  C  C119  1  0.105600  0.500400  0.285000  1.0  -0.1411
  C  C120  1  0.123400  0.481200  0.235330  1.0  0.2518
  C  C121  1  0.280000  0.560700  0.997510  1.0  0.2363
  C  C122  1  0.306400  0.464200  0.057320  1.0  0.2371
  C  C123  1  0.087500  0.516600  0.147120  1.0  0.6479
  C  C124  1  0.070300  0.535300  0.200060  1.0  -0.1624
  C  C125  1  0.000400  0.605600  0.215000  1.0  -0.1389
  C  C126  1  0.981200  0.623400  0.264670  1.0  0.2539
  C  C127  1  0.220000  0.939300  0.997510  1.0  0.2361
  C  C128  1  0.193600  0.035800  0.057320  1.0  0.2369
  C  C129  1  0.412500  0.983400  0.147120  1.0  0.6464
  C  C130  1  0.429700  0.964700  0.200060  1.0  -0.1632
  C  C131  1  0.499600  0.894400  0.215000  1.0  -0.1386
  C  C132  1  0.518800  0.876600  0.264670  1.0  0.2538
  C  C133  1  0.560700  0.220000  0.997510  1.0  0.235
  C  C134  1  0.464200  0.193600  0.057320  1.0  0.2361
  C  C135  1  0.516600  0.412500  0.147120  1.0  0.6482
  C  C136  1  0.535300  0.429700  0.200060  1.0  -0.1627
  C  C137  1  0.605600  0.499600  0.215000  1.0  -0.1408
  C  C138  1  0.623400  0.518800  0.264670  1.0  0.2541
  C  C139  1  0.939300  0.280000  0.997510  1.0  0.2361
  C  C140  1  0.035800  0.306400  0.057320  1.0  0.236
  C  C141  1  0.983400  0.087500  0.147120  1.0  0.6485
  C  C142  1  0.964700  0.070300  0.200060  1.0  -0.1632
  C  C143  1  0.894400  0.000400  0.215000  1.0  -0.1417
  C  C144  1  0.876600  0.981200  0.264670  1.0  0.2552
  C  C145  1  0.280000  0.939300  0.497510  1.0  0.2369
  C  C146  1  0.306400  0.035800  0.557320  1.0  0.2368
  C  C147  1  0.087500  0.983400  0.647120  1.0  0.6526
  C  C148  1  0.070300  0.964700  0.700060  1.0  -0.1632
  C  C149  1  0.000400  0.894400  0.715000  1.0  -0.1394
  C  C150  1  0.981200  0.876600  0.764670  1.0  0.2506
  C  C151  1  0.220000  0.560700  0.497510  1.0  0.2356
  C  C152  1  0.193600  0.464200  0.557320  1.0  0.2372
  C  C153  1  0.412500  0.516600  0.647120  1.0  0.653
  C  C154  1  0.429700  0.535300  0.700060  1.0  -0.1622
  C  C155  1  0.499600  0.605600  0.715000  1.0  -0.1389
  C  C156  1  0.518800  0.623400  0.764670  1.0  0.2513
  C  C157  1  0.560700  0.280000  0.497510  1.0  0.2348
  C  C158  1  0.464200  0.306400  0.557320  1.0  0.2362
  C  C159  1  0.516600  0.087500  0.647120  1.0  0.6541
  C  C160  1  0.535300  0.070300  0.700060  1.0  -0.1629
  C  C161  1  0.605600  0.000400  0.715000  1.0  -0.1411
  C  C162  1  0.623400  0.981200  0.764670  1.0  0.2517
  C  C163  1  0.939300  0.220000  0.497510  1.0  0.2362
  C  C164  1  0.035800  0.193600  0.557320  1.0  0.236
  C  C165  1  0.983400  0.412500  0.647120  1.0  0.6542
  C  C166  1  0.964700  0.429700  0.700060  1.0  -0.1632
  C  C167  1  0.894400  0.499600  0.715000  1.0  -0.1411
  C  C168  1  0.876600  0.518800  0.764670  1.0  0.2526
  C  C169  1  0.720000  0.439300  0.002490  1.0  0.2355
  C  C170  1  0.693600  0.535800  0.942680  1.0  0.2363
  C  C171  1  0.912500  0.483400  0.852880  1.0  0.6463
  C  C172  1  0.929700  0.464700  0.799940  1.0  -0.1632
  C  C173  1  0.999600  0.394400  0.785000  1.0  -0.1392
  C  C174  1  0.018800  0.376600  0.735330  1.0  0.254
  C  C175  1  0.780000  0.060700  0.002490  1.0  0.2353
  C  C176  1  0.806400  0.964200  0.942680  1.0  0.2364
  C  C177  1  0.587500  0.016600  0.852880  1.0  0.6469
  C  C178  1  0.570300  0.035300  0.799940  1.0  -0.1627
  C  C179  1  0.500400  0.105600  0.785000  1.0  -0.14
  C  C180  1  0.481200  0.123400  0.735330  1.0  0.2539
  C  C181  1  0.439300  0.780000  0.002490  1.0  0.2352
  C  C182  1  0.535800  0.806400  0.942680  1.0  0.2351
  C  C183  1  0.483400  0.587500  0.852880  1.0  0.6478
  C  C184  1  0.464700  0.570300  0.799940  1.0  -0.1631
  C  C185  1  0.394400  0.500400  0.785000  1.0  -0.1428
  C  C186  1  0.376600  0.481200  0.735330  1.0  0.2551
  C  C187  1  0.060700  0.720000  0.002490  1.0  0.234
  C  C188  1  0.964200  0.693600  0.942680  1.0  0.2358
  C  C189  1  0.016600  0.912500  0.852880  1.0  0.6475
  C  C190  1  0.035300  0.929700  0.799940  1.0  -0.1626
  C  C191  1  0.105600  0.999600  0.785000  1.0  -0.1413
  C  C192  1  0.123400  0.018800  0.735330  1.0  0.2542
  N  N193  1  0.767200  0.016100  0.464690  1.0  -0.4474
  N  N194  1  0.624000  0.038300  0.504050  1.0  -0.2769
  N  N195  1  0.607300  0.975300  0.465080  1.0  -0.2383
  N  N196  1  0.089900  0.190700  0.223600  1.0  -0.6454
  N  N197  1  0.732800  0.483900  0.464690  1.0  -0.448
  N  N198  1  0.876000  0.461700  0.504050  1.0  -0.2763
  N  N199  1  0.892700  0.524700  0.465080  1.0  -0.238
  N  N200  1  0.410100  0.309300  0.223600  1.0  -0.6458
  N  N201  1  0.483900  0.767200  0.464690  1.0  -0.4468
  N  N202  1  0.461700  0.624000  0.504050  1.0  -0.2775
  N  N203  1  0.524700  0.607300  0.465080  1.0  -0.2383
  N  N204  1  0.309300  0.089900  0.223600  1.0  -0.644
  N  N205  1  0.016100  0.732800  0.464690  1.0  -0.4469
  N  N206  1  0.038300  0.876000  0.504050  1.0  -0.2763
  N  N207  1  0.975300  0.892700  0.465080  1.0  -0.2379
  N  N208  1  0.190700  0.410100  0.223600  1.0  -0.6453
  N  N209  1  0.232800  0.516100  0.035310  1.0  -0.4486
  N  N210  1  0.376000  0.538300  0.995950  1.0  -0.276
  N  N211  1  0.392700  0.475300  0.034920  1.0  -0.238
  N  N212  1  0.910100  0.690700  0.276400  1.0  -0.6462
  N  N213  1  0.267200  0.983900  0.035310  1.0  -0.4476
  N  N214  1  0.124000  0.961700  0.995950  1.0  -0.2763
  N  N215  1  0.107300  0.024700  0.034920  1.0  -0.2381
  N  N216  1  0.589900  0.809300  0.276400  1.0  -0.6462
  N  N217  1  0.516100  0.267200  0.035310  1.0  -0.4471
  N  N218  1  0.538300  0.124000  0.995950  1.0  -0.2765
  N  N219  1  0.475300  0.107300  0.034920  1.0  -0.2386
  N  N220  1  0.690700  0.589900  0.276400  1.0  -0.645
  N  N221  1  0.983900  0.232800  0.035310  1.0  -0.4471
  N  N222  1  0.961700  0.376000  0.995950  1.0  -0.2767
  N  N223  1  0.024700  0.392700  0.034920  1.0  -0.2376
  N  N224  1  0.809300  0.910100  0.276400  1.0  -0.6457
  N  N225  1  0.232800  0.983900  0.535310  1.0  -0.4485
  N  N226  1  0.376000  0.961700  0.495950  1.0  -0.2765
  N  N227  1  0.392700  0.024700  0.534920  1.0  -0.2379
  N  N228  1  0.910100  0.809300  0.776400  1.0  -0.6459
  N  N229  1  0.267200  0.516100  0.535310  1.0  -0.4477
  N  N230  1  0.124000  0.538300  0.495950  1.0  -0.2759
  N  N231  1  0.107300  0.475300  0.534920  1.0  -0.2384
  N  N232  1  0.589900  0.690700  0.776400  1.0  -0.6459
  N  N233  1  0.516100  0.232800  0.535310  1.0  -0.447
  N  N234  1  0.538300  0.376000  0.495950  1.0  -0.2758
  N  N235  1  0.475300  0.392700  0.534920  1.0  -0.2377
  N  N236  1  0.690700  0.910100  0.776400  1.0  -0.6456
  N  N237  1  0.983900  0.267200  0.535310  1.0  -0.4471
  N  N238  1  0.961700  0.124000  0.495950  1.0  -0.2776
  N  N239  1  0.024700  0.107300  0.534920  1.0  -0.2382
  N  N240  1  0.809300  0.589900  0.776400  1.0  -0.6445
  N  N241  1  0.767200  0.483900  0.964690  1.0  -0.4472
  N  N242  1  0.624000  0.461700  0.004050  1.0  -0.277
  N  N243  1  0.607300  0.524700  0.965080  1.0  -0.238
  N  N244  1  0.089900  0.309300  0.723600  1.0  -0.6464
  N  N245  1  0.732800  0.016100  0.964690  1.0  -0.4482
  N  N246  1  0.876000  0.038300  0.004050  1.0  -0.276
  N  N247  1  0.892700  0.975300  0.965080  1.0  -0.238
  N  N248  1  0.410100  0.190700  0.723600  1.0  -0.6455
  N  N249  1  0.483900  0.732800  0.964690  1.0  -0.4471
  N  N250  1  0.461700  0.876000  0.004050  1.0  -0.2769
  N  N251  1  0.524700  0.892700  0.965080  1.0  -0.2378
  N  N252  1  0.309300  0.410100  0.723600  1.0  -0.6451
  N  N253  1  0.016100  0.767200  0.964690  1.0  -0.4468
  N  N254  1  0.038300  0.624000  0.004050  1.0  -0.2768
  N  N255  1  0.975300  0.607300  0.965080  1.0  -0.2386
  N  N256  1  0.190700  0.089900  0.723600  1.0  -0.6448
  O  O257  1  0.860600  0.945600  0.367190  1.0  -0.5964
  O  O258  1  0.953300  0.076700  0.383320  1.0  -0.611
  O  O259  1  0.639400  0.554400  0.367190  1.0  -0.5951
  O  O260  1  0.546700  0.423300  0.383320  1.0  -0.6101
  O  O261  1  0.554400  0.860600  0.367190  1.0  -0.5956
  O  O262  1  0.423300  0.953300  0.383320  1.0  -0.6099
  O  O263  1  0.945600  0.639400  0.367190  1.0  -0.5951
  O  O264  1  0.076700  0.546700  0.383320  1.0  -0.6107
  O  O265  1  0.139400  0.445600  0.132810  1.0  -0.5968
  O  O266  1  0.046700  0.576700  0.116680  1.0  -0.6109
  O  O267  1  0.360600  0.054400  0.132810  1.0  -0.5979
  O  O268  1  0.453300  0.923300  0.116680  1.0  -0.6105
  O  O269  1  0.445600  0.360600  0.132810  1.0  -0.5966
  O  O270  1  0.576700  0.453300  0.116680  1.0  -0.6108
  O  O271  1  0.054400  0.139400  0.132810  1.0  -0.5966
  O  O272  1  0.923300  0.046700  0.116680  1.0  -0.609
  O  O273  1  0.139400  0.054400  0.632810  1.0  -0.5956
  O  O274  1  0.046700  0.923300  0.616680  1.0  -0.6094
  O  O275  1  0.360600  0.445600  0.632810  1.0  -0.5966
  O  O276  1  0.453300  0.576700  0.616680  1.0  -0.6115
  O  O277  1  0.445600  0.139400  0.632810  1.0  -0.5952
  O  O278  1  0.576700  0.046700  0.616680  1.0  -0.6108
  O  O279  1  0.054400  0.360600  0.632810  1.0  -0.596
  O  O280  1  0.923300  0.453300  0.616680  1.0  -0.6102
  O  O281  1  0.860600  0.554400  0.867190  1.0  -0.5973
  O  O282  1  0.953300  0.423300  0.883320  1.0  -0.6109
  O  O283  1  0.639400  0.945600  0.867190  1.0  -0.5964
  O  O284  1  0.546700  0.076700  0.883320  1.0  -0.61
  O  O285  1  0.554400  0.639400  0.867190  1.0  -0.5962
  O  O286  1  0.423300  0.546700  0.883320  1.0  -0.6088
  O  O287  1  0.945600  0.860600  0.867190  1.0  -0.5964
  O  O288  1  0.076700  0.953300  0.883320  1.0  -0.6107
