# generated using pymatgen
data_ZnH4C6N3O2
_symmetry_space_group_name_H-M   'P 1'
_cell_length_a   13.36500000
_cell_length_b   13.36500000
_cell_length_c   27.42900000
_cell_angle_alpha   90.00000000
_cell_angle_beta   90.00000000
_cell_angle_gamma   90.00000000
_symmetry_Int_Tables_number   1
_chemical_formula_structural   ZnH4C6N3O2
_chemical_formula_sum   'Zn16 H64 C96 N48 O32'
_cell_volume   4899.45643853
_cell_formula_units_Z   16
loop_
 _symmetry_equiv_pos_site_id
 _symmetry_equiv_pos_as_xyz
  1  'x, y, z'
loop_
 _atom_site_type_symbol
 _atom_site_label
 _atom_site_symmetry_multiplicity
 _atom_site_fract_x
 _atom_site_fract_y
 _atom_site_fract_z
 _atom_site_occupancy
 _atom_site_charge
  Zn  Zn1  1  0.587750  0.023480  0.053320  1.0  0.8733
  Zn  Zn2  1  0.912250  0.476520  0.053320  1.0  0.8734
  Zn  Zn3  1  0.476520  0.587750  0.053320  1.0  0.8733
  Zn  Zn4  1  0.023480  0.912250  0.053320  1.0  0.8736
  Zn  Zn5  1  0.412250  0.523480  0.446680  1.0  0.8731
  Zn  Zn6  1  0.087750  0.976520  0.446680  1.0  0.8732
  Zn  Zn7  1  0.523480  0.087750  0.446680  1.0  0.8732
  Zn  Zn8  1  0.976520  0.412250  0.446680  1.0  0.8732
  Zn  Zn9  1  0.412250  0.976520  0.946680  1.0  0.873
  Zn  Zn10  1  0.087750  0.523480  0.946680  1.0  0.8732
  Zn  Zn11  1  0.523480  0.412250  0.946680  1.0  0.8734
  Zn  Zn12  1  0.976520  0.087750  0.946680  1.0  0.8732
  Zn  Zn13  1  0.587750  0.476520  0.553320  1.0  0.8735
  Zn  Zn14  1  0.912250  0.023480  0.553320  1.0  0.8732
  Zn  Zn15  1  0.476520  0.912250  0.553320  1.0  0.8733
  Zn  Zn16  1  0.023480  0.587750  0.553320  1.0  0.8734
  H  H17  1  0.433300  0.168100  0.274100  1.0  0.1004
  H  H18  1  0.465300  0.143200  0.191700  1.0  0.1063
  H  H19  1  0.600200  0.252900  0.025300  1.0  0.0795
  H  H20  1  0.429700  0.202500  0.913400  1.0  0.0891
  H  H21  1  0.066700  0.331900  0.274100  1.0  0.1002
  H  H22  1  0.034700  0.356800  0.191700  1.0  0.106
  H  H23  1  0.899800  0.247100  0.025300  1.0  0.0795
  H  H24  1  0.070300  0.297500  0.913400  1.0  0.0893
  H  H25  1  0.331900  0.433300  0.274100  1.0  0.0998
  H  H26  1  0.356800  0.465300  0.191700  1.0  0.1059
  H  H27  1  0.247100  0.600200  0.025300  1.0  0.0794
  H  H28  1  0.297500  0.429700  0.913400  1.0  0.0892
  H  H29  1  0.168100  0.066700  0.274100  1.0  0.0998
  H  H30  1  0.143200  0.034700  0.191700  1.0  0.1062
  H  H31  1  0.252900  0.899800  0.025300  1.0  0.0796
  H  H32  1  0.202500  0.070300  0.913400  1.0  0.0893
  H  H33  1  0.566700  0.668100  0.225900  1.0  0.1003
  H  H34  1  0.534700  0.643200  0.308300  1.0  0.1064
  H  H35  1  0.399800  0.752900  0.474700  1.0  0.0792
  H  H36  1  0.570300  0.702500  0.586600  1.0  0.0899
  H  H37  1  0.933300  0.831900  0.225900  1.0  0.1003
  H  H38  1  0.965300  0.856800  0.308300  1.0  0.1065
  H  H39  1  0.100200  0.747100  0.474700  1.0  0.0793
  H  H40  1  0.929700  0.797500  0.586600  1.0  0.0898
  H  H41  1  0.668100  0.933300  0.225900  1.0  0.1002
  H  H42  1  0.643200  0.965300  0.308300  1.0  0.1058
  H  H43  1  0.752900  0.100200  0.474700  1.0  0.0793
  H  H44  1  0.702500  0.929700  0.586600  1.0  0.09
  H  H45  1  0.831900  0.566700  0.225900  1.0  0.1005
  H  H46  1  0.856800  0.534700  0.308300  1.0  0.1061
  H  H47  1  0.747100  0.399800  0.474700  1.0  0.0787
  H  H48  1  0.797500  0.570300  0.586600  1.0  0.0897
  H  H49  1  0.566700  0.831900  0.725900  1.0  0.1003
  H  H50  1  0.534700  0.856800  0.808300  1.0  0.1062
  H  H51  1  0.399800  0.747100  0.974700  1.0  0.0791
  H  H52  1  0.570300  0.797500  0.086600  1.0  0.0901
  H  H53  1  0.933300  0.668100  0.725900  1.0  0.1007
  H  H54  1  0.965300  0.643200  0.808300  1.0  0.1063
  H  H55  1  0.100200  0.752900  0.974700  1.0  0.0792
  H  H56  1  0.929700  0.702500  0.086600  1.0  0.0897
  H  H57  1  0.668100  0.566700  0.725900  1.0  0.0999
  H  H58  1  0.643200  0.534700  0.808300  1.0  0.106
  H  H59  1  0.752900  0.399800  0.974700  1.0  0.0791
  H  H60  1  0.702500  0.570300  0.086600  1.0  0.0899
  H  H61  1  0.831900  0.933300  0.725900  1.0  0.1001
  H  H62  1  0.856800  0.965300  0.808300  1.0  0.1062
  H  H63  1  0.747100  0.100200  0.974700  1.0  0.0791
  H  H64  1  0.797500  0.929700  0.086600  1.0  0.0898
  H  H65  1  0.433300  0.331900  0.774100  1.0  0.1
  H  H66  1  0.465300  0.356800  0.691700  1.0  0.1061
  H  H67  1  0.600200  0.247100  0.525300  1.0  0.0797
  H  H68  1  0.429700  0.297500  0.413400  1.0  0.0891
  H  H69  1  0.066700  0.168100  0.774100  1.0  0.1002
  H  H70  1  0.034700  0.143200  0.691700  1.0  0.1064
  H  H71  1  0.899800  0.252900  0.525300  1.0  0.0794
  H  H72  1  0.070300  0.202500  0.413400  1.0  0.0892
  H  H73  1  0.331900  0.066700  0.774100  1.0  0.1002
  H  H74  1  0.356800  0.034700  0.691700  1.0  0.106
  H  H75  1  0.247100  0.899800  0.525300  1.0  0.0793
  H  H76  1  0.297500  0.070300  0.413400  1.0  0.0892
  H  H77  1  0.168100  0.433300  0.774100  1.0  0.1
  H  H78  1  0.143200  0.465300  0.691700  1.0  0.106
  H  H79  1  0.252900  0.600200  0.525300  1.0  0.0795
  H  H80  1  0.202500  0.429700  0.413400  1.0  0.0894
  C  C81  1  0.481700  0.122100  0.264460  1.0  -0.0729
  C  C82  1  0.499800  0.106300  0.215050  1.0  -0.0574
  C  C83  1  0.570000  0.035100  0.200790  1.0  -0.1383
  C  C84  1  0.588500  0.015300  0.147540  1.0  0.6827
  C  C85  1  0.559500  0.221000  0.002600  1.0  0.245
  C  C86  1  0.466900  0.193700  0.941810  1.0  0.2425
  C  C87  1  0.018300  0.377900  0.264460  1.0  -0.0728
  C  C88  1  0.000200  0.393700  0.215050  1.0  -0.0573
  C  C89  1  0.930000  0.464900  0.200790  1.0  -0.1387
  C  C90  1  0.911500  0.484700  0.147540  1.0  0.6821
  C  C91  1  0.940500  0.279000  0.002600  1.0  0.2461
  C  C92  1  0.033100  0.306300  0.941810  1.0  0.2414
  C  C93  1  0.377900  0.481700  0.264460  1.0  -0.073
  C  C94  1  0.393700  0.499800  0.215050  1.0  -0.0564
  C  C95  1  0.464900  0.570000  0.200790  1.0  -0.1399
  C  C96  1  0.484700  0.588500  0.147540  1.0  0.6828
  C  C97  1  0.279000  0.559500  0.002600  1.0  0.2463
  C  C98  1  0.306300  0.466900  0.941810  1.0  0.2412
  C  C99  1  0.122100  0.018300  0.264460  1.0  -0.0731
  C  C100  1  0.106300  0.000200  0.215050  1.0  -0.0562
  C  C101  1  0.035100  0.930000  0.200790  1.0  -0.1393
  C  C102  1  0.015300  0.911500  0.147540  1.0  0.683
  C  C103  1  0.221000  0.940500  0.002600  1.0  0.2467
  C  C104  1  0.193700  0.033100  0.941810  1.0  0.2418
  C  C105  1  0.518300  0.622100  0.235540  1.0  -0.0729
  C  C106  1  0.500200  0.606300  0.284950  1.0  -0.0574
  C  C107  1  0.430000  0.535100  0.299210  1.0  -0.139
  C  C108  1  0.411500  0.515300  0.352460  1.0  0.6824
  C  C109  1  0.440500  0.721000  0.497400  1.0  0.2472
  C  C110  1  0.533100  0.693700  0.558190  1.0  0.2417
  C  C111  1  0.981700  0.877900  0.235540  1.0  -0.0721
  C  C112  1  0.999800  0.893700  0.284950  1.0  -0.0573
  C  C113  1  0.070000  0.964900  0.299210  1.0  -0.1391
  C  C114  1  0.088500  0.984700  0.352460  1.0  0.6823
  C  C115  1  0.059500  0.779000  0.497400  1.0  0.246
  C  C116  1  0.966900  0.806300  0.558190  1.0  0.2416
  C  C117  1  0.622100  0.981700  0.235540  1.0  -0.0732
  C  C118  1  0.606300  0.999800  0.284950  1.0  -0.0567
  C  C119  1  0.535100  0.070000  0.299210  1.0  -0.1398
  C  C120  1  0.515300  0.088500  0.352460  1.0  0.6831
  C  C121  1  0.721000  0.059500  0.497400  1.0  0.247
  C  C122  1  0.693700  0.966900  0.558190  1.0  0.241
  C  C123  1  0.877900  0.518300  0.235540  1.0  -0.0738
  C  C124  1  0.893700  0.500200  0.284950  1.0  -0.0573
  C  C125  1  0.964900  0.430000  0.299210  1.0  -0.1402
  C  C126  1  0.984700  0.411500  0.352460  1.0  0.6827
  C  C127  1  0.779000  0.440500  0.497400  1.0  0.248
  C  C128  1  0.806300  0.533100  0.558190  1.0  0.2413
  C  C129  1  0.518300  0.877900  0.735540  1.0  -0.0731
  C  C130  1  0.500200  0.893700  0.784950  1.0  -0.0571
  C  C131  1  0.430000  0.964900  0.799210  1.0  -0.139
  C  C132  1  0.411500  0.984700  0.852460  1.0  0.6815
  C  C133  1  0.440500  0.779000  0.997400  1.0  0.2472
  C  C134  1  0.533100  0.806300  0.058190  1.0  0.2414
  C  C135  1  0.981700  0.622100  0.735540  1.0  -0.0729
  C  C136  1  0.999800  0.606300  0.784950  1.0  -0.0582
  C  C137  1  0.070000  0.535100  0.799210  1.0  -0.139
  C  C138  1  0.088500  0.515300  0.852460  1.0  0.6822
  C  C139  1  0.059500  0.721000  0.997400  1.0  0.2461
  C  C140  1  0.966900  0.693700  0.058190  1.0  0.2419
  C  C141  1  0.622100  0.518300  0.735540  1.0  -0.0734
  C  C142  1  0.606300  0.500200  0.784950  1.0  -0.0567
  C  C143  1  0.535100  0.430000  0.799210  1.0  -0.1397
  C  C144  1  0.515300  0.411500  0.852460  1.0  0.6826
  C  C145  1  0.721000  0.440500  0.997400  1.0  0.2475
  C  C146  1  0.693700  0.533100  0.058190  1.0  0.2413
  C  C147  1  0.877900  0.981700  0.735540  1.0  -0.0729
  C  C148  1  0.893700  0.999800  0.784950  1.0  -0.0567
  C  C149  1  0.964900  0.070000  0.799210  1.0  -0.1402
  C  C150  1  0.984700  0.088500  0.852460  1.0  0.6824
  C  C151  1  0.779000  0.059500  0.997400  1.0  0.2476
  C  C152  1  0.806300  0.966900  0.058190  1.0  0.241
  C  C153  1  0.481700  0.377900  0.764460  1.0  -0.0721
  C  C154  1  0.499800  0.393700  0.715050  1.0  -0.0573
  C  C155  1  0.570000  0.464900  0.700790  1.0  -0.1386
  C  C156  1  0.588500  0.484700  0.647540  1.0  0.6829
  C  C157  1  0.559500  0.279000  0.502600  1.0  0.2455
  C  C158  1  0.466900  0.306300  0.441810  1.0  0.2421
  C  C159  1  0.018300  0.122100  0.764460  1.0  -0.0727
  C  C160  1  0.000200  0.106300  0.715050  1.0  -0.0568
  C  C161  1  0.930000  0.035100  0.700790  1.0  -0.1385
  C  C162  1  0.911500  0.015300  0.647540  1.0  0.6829
  C  C163  1  0.940500  0.221000  0.502600  1.0  0.2456
  C  C164  1  0.033100  0.193700  0.441810  1.0  0.2418
  C  C165  1  0.377900  0.018300  0.764460  1.0  -0.0739
  C  C166  1  0.393700  0.000200  0.715050  1.0  -0.0565
  C  C167  1  0.464900  0.930000  0.700790  1.0  -0.14
  C  C168  1  0.484700  0.911500  0.647540  1.0  0.6831
  C  C169  1  0.279000  0.940500  0.502600  1.0  0.2467
  C  C170  1  0.306300  0.033100  0.441810  1.0  0.2418
  C  C171  1  0.122100  0.481700  0.764460  1.0  -0.0728
  C  C172  1  0.106300  0.499800  0.715050  1.0  -0.0567
  C  C173  1  0.035100  0.570000  0.700790  1.0  -0.1393
  C  C174  1  0.015300  0.588500  0.647540  1.0  0.6836
  C  C175  1  0.221000  0.559500  0.502600  1.0  0.2464
  C  C176  1  0.193700  0.466900  0.441810  1.0  0.2411
  N  N177  1  0.516100  0.267600  0.964540  1.0  -0.4407
  N  N178  1  0.477200  0.106800  0.964440  1.0  -0.2384
  N  N179  1  0.537400  0.124500  0.004040  1.0  -0.2597
  N  N180  1  0.983900  0.232400  0.964540  1.0  -0.4414
  N  N181  1  0.022800  0.393200  0.964440  1.0  -0.238
  N  N182  1  0.962600  0.375500  0.004040  1.0  -0.2604
  N  N183  1  0.232400  0.516100  0.964540  1.0  -0.4422
  N  N184  1  0.393200  0.477200  0.964440  1.0  -0.2367
  N  N185  1  0.375500  0.537400  0.004040  1.0  -0.2593
  N  N186  1  0.267600  0.983900  0.964540  1.0  -0.4416
  N  N187  1  0.106800  0.022800  0.964440  1.0  -0.238
  N  N188  1  0.124500  0.962600  0.004040  1.0  -0.2601
  N  N189  1  0.483900  0.767600  0.535460  1.0  -0.4415
  N  N190  1  0.522800  0.606800  0.535560  1.0  -0.2384
  N  N191  1  0.462600  0.624500  0.495960  1.0  -0.2608
  N  N192  1  0.016100  0.732400  0.535460  1.0  -0.4415
  N  N193  1  0.977200  0.893200  0.535560  1.0  -0.2386
  N  N194  1  0.037400  0.875500  0.495960  1.0  -0.2595
  N  N195  1  0.767600  0.016100  0.535460  1.0  -0.4421
  N  N196  1  0.606800  0.977200  0.535560  1.0  -0.2389
  N  N197  1  0.624500  0.037400  0.495960  1.0  -0.2593
  N  N198  1  0.732400  0.483900  0.535460  1.0  -0.4426
  N  N199  1  0.893200  0.522800  0.535560  1.0  -0.237
  N  N200  1  0.875500  0.462600  0.495960  1.0  -0.2597
  N  N201  1  0.483900  0.732400  0.035460  1.0  -0.4417
  N  N202  1  0.522800  0.893200  0.035560  1.0  -0.2386
  N  N203  1  0.462600  0.875500  0.995960  1.0  -0.2603
  N  N204  1  0.016100  0.767600  0.035460  1.0  -0.4414
  N  N205  1  0.977200  0.606800  0.035560  1.0  -0.2388
  N  N206  1  0.037400  0.624500  0.995960  1.0  -0.2596
  N  N207  1  0.767600  0.483900  0.035460  1.0  -0.442
  N  N208  1  0.606800  0.522800  0.035560  1.0  -0.2385
  N  N209  1  0.624500  0.462600  0.995960  1.0  -0.2594
  N  N210  1  0.732400  0.016100  0.035460  1.0  -0.4426
  N  N211  1  0.893200  0.977200  0.035560  1.0  -0.2372
  N  N212  1  0.875500  0.037400  0.995960  1.0  -0.2594
  N  N213  1  0.516100  0.232400  0.464540  1.0  -0.4413
  N  N214  1  0.477200  0.393200  0.464440  1.0  -0.2379
  N  N215  1  0.537400  0.375500  0.504040  1.0  -0.2598
  N  N216  1  0.983900  0.267600  0.464540  1.0  -0.4408
  N  N217  1  0.022800  0.106800  0.464440  1.0  -0.238
  N  N218  1  0.962600  0.124500  0.504040  1.0  -0.2605
  N  N219  1  0.232400  0.983900  0.464540  1.0  -0.4422
  N  N220  1  0.393200  0.022800  0.464440  1.0  -0.2365
  N  N221  1  0.375500  0.962600  0.504040  1.0  -0.2594
  N  N222  1  0.267600  0.516100  0.464540  1.0  -0.4416
  N  N223  1  0.106800  0.477200  0.464440  1.0  -0.2384
  N  N224  1  0.124500  0.537400  0.504040  1.0  -0.2601
  O  O225  1  0.549300  0.076070  0.116780  1.0  -0.6016
  O  O226  1  0.640220  0.942400  0.134670  1.0  -0.6101
  O  O227  1  0.950700  0.423930  0.116780  1.0  -0.6004
  O  O228  1  0.859780  0.557600  0.134670  1.0  -0.6102
  O  O229  1  0.423930  0.549300  0.116780  1.0  -0.5993
  O  O230  1  0.557600  0.640220  0.134670  1.0  -0.6107
  O  O231  1  0.076070  0.950700  0.116780  1.0  -0.6002
  O  O232  1  0.942400  0.859780  0.134670  1.0  -0.6099
  O  O233  1  0.450700  0.576070  0.383220  1.0  -0.599
  O  O234  1  0.359780  0.442400  0.365330  1.0  -0.6104
  O  O235  1  0.049300  0.923930  0.383220  1.0  -0.6001
  O  O236  1  0.140220  0.057600  0.365330  1.0  -0.6112
  O  O237  1  0.576070  0.049300  0.383220  1.0  -0.5987
  O  O238  1  0.442400  0.140220  0.365330  1.0  -0.6105
  O  O239  1  0.923930  0.450700  0.383220  1.0  -0.5992
  O  O240  1  0.057600  0.359780  0.365330  1.0  -0.6115
  O  O241  1  0.450700  0.923930  0.883220  1.0  -0.5997
  O  O242  1  0.359780  0.057600  0.865330  1.0  -0.6107
  O  O243  1  0.049300  0.576070  0.883220  1.0  -0.6003
  O  O244  1  0.140220  0.442400  0.865330  1.0  -0.6106
  O  O245  1  0.576070  0.450700  0.883220  1.0  -0.599
  O  O246  1  0.442400  0.359780  0.865330  1.0  -0.6107
  O  O247  1  0.923930  0.049300  0.883220  1.0  -0.5984
  O  O248  1  0.057600  0.140220  0.865330  1.0  -0.6109
  O  O249  1  0.549300  0.423930  0.616780  1.0  -0.601
  O  O250  1  0.640220  0.557600  0.634670  1.0  -0.611
  O  O251  1  0.950700  0.076070  0.616780  1.0  -0.6005
  O  O252  1  0.859780  0.942400  0.634670  1.0  -0.6097
  O  O253  1  0.423930  0.950700  0.616780  1.0  -0.6006
  O  O254  1  0.557600  0.859780  0.634670  1.0  -0.6112
  O  O255  1  0.076070  0.549300  0.616780  1.0  -0.6
  O  O256  1  0.942400  0.640220  0.634670  1.0  -0.6097
