# generated using pymatgen
data_Cu(C5N2)3
_symmetry_space_group_name_H-M   'P 1'
_cell_length_a   28.28200000
_cell_length_b   10.33700000
_cell_length_c   16.28500000
_cell_angle_alpha   90.00000000
_cell_angle_beta   90.00000000
_cell_angle_gamma   90.00000000
_symmetry_Int_Tables_number   1
_chemical_formula_structural   Cu(C5N2)3
_chemical_formula_sum   'Cu8 C120 N48'
_cell_volume   4760.93658869
_cell_formula_units_Z   8
loop_
 _symmetry_equiv_pos_site_id
 _symmetry_equiv_pos_as_xyz
  1  'x, y, z'
loop_
 _atom_site_type_symbol
 _atom_site_label
 _atom_site_symmetry_multiplicity
 _atom_site_fract_x
 _atom_site_fract_y
 _atom_site_fract_z
 _atom_site_occupancy
 _atom_site_charge
  Cu  Cu1  1  0.399140  0.182290  0.750000  1.0  0.5832
  Cu  Cu2  1  0.100860  0.317710  0.250000  1.0  0.5844
  Cu  Cu3  1  0.600860  0.182290  0.750000  1.0  0.5837
  Cu  Cu4  1  0.899140  0.317710  0.250000  1.0  0.5843
  Cu  Cu5  1  0.899140  0.682290  0.750000  1.0  0.5832
  Cu  Cu6  1  0.600860  0.817710  0.250000  1.0  0.5844
  Cu  Cu7  1  0.100860  0.682290  0.750000  1.0  0.5837
  Cu  Cu8  1  0.399140  0.817710  0.250000  1.0  0.5843
  C  C9  1  0.287600  0.233300  0.552800  1.0  -0.0264
  C  C10  1  0.245200  0.277800  0.583800  1.0  0.0326
  C  C11  1  0.293000  0.205300  0.468600  1.0  -0.0878
  C  C12  1  0.326300  0.212700  0.608500  1.0  0.3228
  C  C13  1  0.337500  0.163100  0.436500  1.0  0.3912
  C  C14  1  0.212400  0.266700  0.052800  1.0  -0.0264
  C  C15  1  0.254800  0.222200  0.083800  1.0  0.0322
  C  C16  1  0.207000  0.294700  0.968600  1.0  -0.0877
  C  C17  1  0.173700  0.287300  0.108500  1.0  0.3228
  C  C18  1  0.162500  0.336900  0.936500  1.0  0.3912
  C  C19  1  0.712400  0.233300  0.947200  1.0  -0.0246
  C  C20  1  0.754800  0.277800  0.916200  1.0  0.0352
  C  C21  1  0.707000  0.205300  0.031400  1.0  -0.0884
  C  C22  1  0.673700  0.212700  0.891500  1.0  0.3235
  C  C23  1  0.662500  0.163100  0.063500  1.0  0.3895
  C  C24  1  0.787600  0.266700  0.447200  1.0  -0.0247
  C  C25  1  0.745200  0.222200  0.416200  1.0  0.034
  C  C26  1  0.793000  0.294700  0.531400  1.0  -0.0885
  C  C27  1  0.826300  0.287300  0.391500  1.0  0.3226
  C  C28  1  0.837500  0.336900  0.563500  1.0  0.3907
  C  C29  1  0.212400  0.266700  0.447200  1.0  -0.0261
  C  C30  1  0.254800  0.222200  0.416200  1.0  0.0345
  C  C31  1  0.207000  0.294700  0.531400  1.0  -0.0888
  C  C32  1  0.173700  0.287300  0.391500  1.0  0.3236
  C  C33  1  0.162500  0.336900  0.563500  1.0  0.3913
  C  C34  1  0.287600  0.233300  0.947200  1.0  -0.0258
  C  C35  1  0.245200  0.277800  0.916200  1.0  0.0347
  C  C36  1  0.293000  0.205300  0.031400  1.0  -0.0886
  C  C37  1  0.326300  0.212700  0.891500  1.0  0.3229
  C  C38  1  0.337500  0.163100  0.063500  1.0  0.391
  C  C39  1  0.787600  0.266700  0.052800  1.0  -0.0276
  C  C40  1  0.745200  0.222200  0.083800  1.0  0.0321
  C  C41  1  0.793000  0.294700  0.968600  1.0  -0.0875
  C  C42  1  0.826300  0.287300  0.108500  1.0  0.3231
  C  C43  1  0.837500  0.336900  0.936500  1.0  0.3923
  C  C44  1  0.712400  0.233300  0.552800  1.0  -0.0273
  C  C45  1  0.754800  0.277800  0.583800  1.0  0.0326
  C  C46  1  0.707000  0.205300  0.468600  1.0  -0.0886
  C  C47  1  0.673700  0.212700  0.608500  1.0  0.3225
  C  C48  1  0.662500  0.163100  0.436500  1.0  0.3916
  C  C49  1  0.474800  0.798200  0.750000  1.0  -0.014
  C  C50  1  0.449800  0.683000  0.750000  1.0  -0.0126
  C  C51  1  0.475200  0.567700  0.750000  1.0  -0.0147
  C  C52  1  0.451100  0.920900  0.750000  1.0  0.3143
  C  C53  1  0.451300  0.445800  0.750000  1.0  0.3439
  C  C54  1  0.025200  0.701800  0.250000  1.0  -0.0139
  C  C55  1  0.050200  0.817000  0.250000  1.0  -0.004
  C  C56  1  0.024800  0.932300  0.250000  1.0  -0.0146
  C  C57  1  0.048900  0.579100  0.250000  1.0  0.3158
  C  C58  1  0.048700  0.054200  0.250000  1.0  0.3426
  C  C59  1  0.525200  0.798200  0.750000  1.0  -0.0086
  C  C60  1  0.550200  0.683000  0.750000  1.0  -0.0044
  C  C61  1  0.524800  0.567700  0.750000  1.0  -0.0163
  C  C62  1  0.548900  0.920900  0.750000  1.0  0.3152
  C  C63  1  0.548700  0.445800  0.750000  1.0  0.3437
  C  C64  1  0.974800  0.701800  0.250000  1.0  -0.0095
  C  C65  1  0.949800  0.817000  0.250000  1.0  -0.0125
  C  C66  1  0.975200  0.932300  0.250000  1.0  -0.0162
  C  C67  1  0.951100  0.579100  0.250000  1.0  0.3148
  C  C68  1  0.951300  0.054200  0.250000  1.0  0.3436
  C  C69  1  0.787600  0.733300  0.552800  1.0  -0.0264
  C  C70  1  0.745200  0.777800  0.583800  1.0  0.0326
  C  C71  1  0.793000  0.705300  0.468600  1.0  -0.0878
  C  C72  1  0.826300  0.712700  0.608500  1.0  0.3228
  C  C73  1  0.837500  0.663100  0.436500  1.0  0.3912
  C  C74  1  0.712400  0.766700  0.052800  1.0  -0.0264
  C  C75  1  0.754800  0.722200  0.083800  1.0  0.0322
  C  C76  1  0.707000  0.794700  0.968600  1.0  -0.0877
  C  C77  1  0.673700  0.787300  0.108500  1.0  0.3228
  C  C78  1  0.662500  0.836900  0.936500  1.0  0.3912
  C  C79  1  0.212400  0.733300  0.947200  1.0  -0.0246
  C  C80  1  0.254800  0.777800  0.916200  1.0  0.0352
  C  C81  1  0.207000  0.705300  0.031400  1.0  -0.0884
  C  C82  1  0.173700  0.712700  0.891500  1.0  0.3235
  C  C83  1  0.162500  0.663100  0.063500  1.0  0.3895
  C  C84  1  0.287600  0.766700  0.447200  1.0  -0.0247
  C  C85  1  0.245200  0.722200  0.416200  1.0  0.034
  C  C86  1  0.293000  0.794700  0.531400  1.0  -0.0885
  C  C87  1  0.326300  0.787300  0.391500  1.0  0.3226
  C  C88  1  0.337500  0.836900  0.563500  1.0  0.3907
  C  C89  1  0.712400  0.766700  0.447200  1.0  -0.0261
  C  C90  1  0.754800  0.722200  0.416200  1.0  0.0345
  C  C91  1  0.707000  0.794700  0.531400  1.0  -0.0888
  C  C92  1  0.673700  0.787300  0.391500  1.0  0.3236
  C  C93  1  0.662500  0.836900  0.563500  1.0  0.3913
  C  C94  1  0.787600  0.733300  0.947200  1.0  -0.0258
  C  C95  1  0.745200  0.777800  0.916200  1.0  0.0347
  C  C96  1  0.793000  0.705300  0.031400  1.0  -0.0886
  C  C97  1  0.826300  0.712700  0.891500  1.0  0.3229
  C  C98  1  0.837500  0.663100  0.063500  1.0  0.391
  C  C99  1  0.287600  0.766700  0.052800  1.0  -0.0276
  C  C100  1  0.245200  0.722200  0.083800  1.0  0.0321
  C  C101  1  0.293000  0.794700  0.968600  1.0  -0.0875
  C  C102  1  0.326300  0.787300  0.108500  1.0  0.3231
  C  C103  1  0.337500  0.836900  0.936500  1.0  0.3923
  C  C104  1  0.212400  0.733300  0.552800  1.0  -0.0273
  C  C105  1  0.254800  0.777800  0.583800  1.0  0.0326
  C  C106  1  0.207000  0.705300  0.468600  1.0  -0.0886
  C  C107  1  0.173700  0.712700  0.608500  1.0  0.3225
  C  C108  1  0.162500  0.663100  0.436500  1.0  0.3916
  C  C109  1  0.974800  0.298200  0.750000  1.0  -0.014
  C  C110  1  0.949800  0.183000  0.750000  1.0  -0.0126
  C  C111  1  0.975200  0.067700  0.750000  1.0  -0.0147
  C  C112  1  0.951100  0.420900  0.750000  1.0  0.3143
  C  C113  1  0.951300  0.945800  0.750000  1.0  0.3439
  C  C114  1  0.525200  0.201800  0.250000  1.0  -0.0139
  C  C115  1  0.550200  0.317000  0.250000  1.0  -0.004
  C  C116  1  0.524800  0.432300  0.250000  1.0  -0.0146
  C  C117  1  0.548900  0.079100  0.250000  1.0  0.3158
  C  C118  1  0.548700  0.554200  0.250000  1.0  0.3426
  C  C119  1  0.025200  0.298200  0.750000  1.0  -0.0086
  C  C120  1  0.050200  0.183000  0.750000  1.0  -0.0044
  C  C121  1  0.024800  0.067700  0.750000  1.0  -0.0163
  C  C122  1  0.048900  0.420900  0.750000  1.0  0.3152
  C  C123  1  0.048700  0.945800  0.750000  1.0  0.3437
  C  C124  1  0.474800  0.201800  0.250000  1.0  -0.0095
  C  C125  1  0.449800  0.317000  0.250000  1.0  -0.0125
  C  C126  1  0.475200  0.432300  0.250000  1.0  -0.0162
  C  C127  1  0.451100  0.079100  0.250000  1.0  0.3148
  C  C128  1  0.451300  0.554200  0.250000  1.0  0.3436
  N  N129  1  0.356200  0.194300  0.654000  1.0  -0.4358
  N  N130  1  0.373400  0.134000  0.411100  1.0  -0.4266
  N  N131  1  0.143800  0.305700  0.154000  1.0  -0.4366
  N  N132  1  0.126600  0.366000  0.911100  1.0  -0.4263
  N  N133  1  0.643800  0.194300  0.846000  1.0  -0.4357
  N  N134  1  0.626600  0.134000  0.088900  1.0  -0.4269
  N  N135  1  0.856200  0.305700  0.346000  1.0  -0.4362
  N  N136  1  0.873400  0.366000  0.588900  1.0  -0.4274
  N  N137  1  0.143800  0.305700  0.346000  1.0  -0.4363
  N  N138  1  0.126600  0.366000  0.588900  1.0  -0.4265
  N  N139  1  0.356200  0.194300  0.846000  1.0  -0.4356
  N  N140  1  0.373400  0.134000  0.088900  1.0  -0.4269
  N  N141  1  0.856200  0.305700  0.154000  1.0  -0.436
  N  N142  1  0.873400  0.366000  0.911100  1.0  -0.4271
  N  N143  1  0.643800  0.194300  0.654000  1.0  -0.4362
  N  N144  1  0.626600  0.134000  0.411100  1.0  -0.4261
  N  N145  1  0.435700  0.344300  0.750000  1.0  -0.398
  N  N146  1  0.433800  0.019900  0.750000  1.0  -0.3495
  N  N147  1  0.064300  0.155700  0.250000  1.0  -0.3991
  N  N148  1  0.066200  0.480100  0.250000  1.0  -0.3481
  N  N149  1  0.564300  0.344300  0.750000  1.0  -0.3979
  N  N150  1  0.566200  0.019900  0.750000  1.0  -0.3502
  N  N151  1  0.935700  0.155700  0.250000  1.0  -0.3991
  N  N152  1  0.933800  0.480100  0.250000  1.0  -0.3478
  N  N153  1  0.856200  0.694300  0.654000  1.0  -0.4358
  N  N154  1  0.873400  0.634000  0.411100  1.0  -0.4275
  N  N155  1  0.643800  0.805700  0.154000  1.0  -0.4366
  N  N156  1  0.626600  0.866000  0.911100  1.0  -0.4272
  N  N157  1  0.143800  0.694300  0.846000  1.0  -0.4357
  N  N158  1  0.126600  0.634000  0.088900  1.0  -0.4279
  N  N159  1  0.356200  0.805700  0.346000  1.0  -0.4362
  N  N160  1  0.373400  0.866000  0.588900  1.0  -0.4284
  N  N161  1  0.643800  0.805700  0.346000  1.0  -0.4363
  N  N162  1  0.626600  0.866000  0.588900  1.0  -0.4264
  N  N163  1  0.856200  0.694300  0.846000  1.0  -0.4356
  N  N164  1  0.873400  0.634000  0.088900  1.0  -0.4268
  N  N165  1  0.356200  0.805700  0.154000  1.0  -0.436
  N  N166  1  0.373400  0.866000  0.911100  1.0  -0.4271
  N  N167  1  0.143800  0.694300  0.654000  1.0  -0.4362
  N  N168  1  0.126600  0.634000  0.411100  1.0  -0.4262
  N  N169  1  0.935700  0.844300  0.750000  1.0  -0.398
  N  N170  1  0.933800  0.519900  0.750000  1.0  -0.3495
  N  N171  1  0.564300  0.655700  0.250000  1.0  -0.3991
  N  N172  1  0.566200  0.980100  0.250000  1.0  -0.3481
  N  N173  1  0.064300  0.844300  0.750000  1.0  -0.3979
  N  N174  1  0.066200  0.519900  0.750000  1.0  -0.3502
  N  N175  1  0.435700  0.655700  0.250000  1.0  -0.3991
  N  N176  1  0.433800  0.980100  0.250000  1.0  -0.3478
