# generated using pymatgen
data_Zn4H36C54N6O13
_symmetry_space_group_name_H-M   'P 1'
_cell_length_a   24.36000000
_cell_length_b   24.36000000
_cell_length_c   16.90900000
_cell_angle_alpha   90.00000000
_cell_angle_beta   90.00000000
_cell_angle_gamma   90.00000000
_symmetry_Int_Tables_number   1
_chemical_formula_structural   Zn4H36C54N6O13
_chemical_formula_sum   'Zn8 H72 C108 N12 O26'
_cell_volume   10033.96292640
_cell_formula_units_Z   2
loop_
 _symmetry_equiv_pos_site_id
 _symmetry_equiv_pos_as_xyz
  1  'x, y, z'
loop_
 _atom_site_type_symbol
 _atom_site_label
 _atom_site_symmetry_multiplicity
 _atom_site_fract_x
 _atom_site_fract_y
 _atom_site_fract_z
 _atom_site_occupancy
 _atom_site_charge
  Zn  Zn1  1  0.062680  0.009970  0.983360  1.0  1.1466
  Zn  Zn2  1  0.152010  0.922210  0.985540  1.0  1.1531
  Zn  Zn3  1  0.045200  0.904400  0.072510  1.0  1.1777
  Zn  Zn4  1  0.046080  0.902520  0.897940  1.0  1.1618
  Zn  Zn5  1  0.591720  0.509970  0.483410  1.0  1.1553
  Zn  Zn6  1  0.501400  0.423530  0.485580  1.0  1.1567
  Zn  Zn7  1  0.606850  0.402420  0.397770  1.0  1.1778
  Zn  Zn8  1  0.607860  0.404160  0.572690  1.0  1.1844
  H  H9  1  0.345970  0.216100  0.857350  1.0  0.1115
  H  H10  1  0.449960  0.327490  0.986190  1.0  0.1186
  H  H11  1  0.346370  0.214230  0.112170  1.0  0.1136
  H  H12  1  0.792420  0.667840  0.857490  1.0  0.1069
  H  H13  1  0.694280  0.550320  0.983560  1.0  0.1082
  H  H14  1  0.800640  0.658890  0.112340  1.0  0.1086
  H  H15  1  0.307780  0.716730  0.357340  1.0  0.1193
  H  H16  1  0.195050  0.819210  0.486330  1.0  0.1173
  H  H17  1  0.307330  0.714520  0.612290  1.0  0.1204
  H  H18  1  0.850580  0.156850  0.611990  1.0  0.1119
  H  H19  1  0.961770  0.052710  0.483860  1.0  0.1104
  H  H20  1  0.858980  0.165770  0.357100  1.0  0.1112
  H  H21  1  0.684800  0.245090  0.388490  1.0  0.1128
  H  H22  1  0.837380  0.254350  0.582010  1.0  0.1123
  H  H23  1  0.720220  0.159910  0.335570  1.0  0.2098
  H  H24  1  0.769850  0.121490  0.389630  1.0  0.2075
  H  H25  1  0.940740  0.959260  0.239710  1.0  0.1149
  H  H26  1  0.968560  0.157410  0.292960  1.0  0.113
  H  H27  1  0.886160  0.950200  0.358030  1.0  0.2162
  H  H28  1  0.863000  0.009560  0.410020  1.0  0.1811
  H  H29  1  0.947010  0.953350  0.721240  1.0  0.1212
  H  H30  1  0.957480  0.154670  0.681640  1.0  0.1098
  H  H31  1  0.896430  0.943020  0.599530  1.0  0.2181
  H  H32  1  0.869380  0.001530  0.549460  1.0  0.1844
  H  H33  1  0.300390  0.604360  0.521170  1.0  0.1123
  H  H34  1  0.492850  0.646470  0.447400  1.0  0.1109
  H  H35  1  0.401400  0.767280  0.444310  1.0  0.2017
  H  H36  1  0.469070  0.742060  0.426370  1.0  0.2043
  H  H37  1  0.299710  0.822820  0.679720  1.0  0.114
  H  H38  1  0.100350  0.800170  0.728000  1.0  0.1117
  H  H39  1  0.150150  0.723040  0.556720  1.0  0.1731
  H  H40  1  0.090990  0.747080  0.608370  1.0  0.2085
  H  H41  1  0.098790  0.802950  0.245980  1.0  0.1192
  H  H42  1  0.299000  0.822560  0.289920  1.0  0.1147
  H  H43  1  0.089790  0.750590  0.366350  1.0  0.2118
  H  H44  1  0.149090  0.725300  0.416360  1.0  0.1766
  H  H45  1  0.696680  0.653960  0.181920  1.0  0.1117
  H  H46  1  0.707460  0.452650  0.221430  1.0  0.1145
  H  H47  1  0.785300  0.501020  0.049940  1.0  0.1887
  H  H48  1  0.758090  0.442440  0.099630  1.0  0.2163
  H  H49  1  0.686620  0.656830  0.791980  1.0  0.1121
  H  H50  1  0.713270  0.458340  0.740170  1.0  0.1163
  H  H51  1  0.791220  0.508710  0.910230  1.0  0.1734
  H  H52  1  0.767520  0.449300  0.858870  1.0  0.2171
  H  H53  1  0.961420  0.747810  0.886170  1.0  0.1131
  H  H54  1  0.393360  0.359070  0.309280  1.0  0.109
  H  H55  1  0.506580  0.274840  0.097800  1.0  0.1084
  H  H56  1  0.310340  0.340130  0.234690  1.0  0.2047
  H  H57  1  0.312890  0.314680  0.135900  1.0  0.2171
  H  H58  1  0.394880  0.359210  0.661170  1.0  0.1083
  H  H59  1  0.507140  0.276880  0.875120  1.0  0.1075
  H  H60  1  0.311470  0.340090  0.734500  1.0  0.2032
  H  H61  1  0.313490  0.315910  0.833970  1.0  0.2147
  H  H62  1  0.232700  0.218450  0.950700  1.0  0.1139
  H  H63  1  0.285990  0.027170  0.015750  1.0  0.1126
  H  H64  1  0.401710  0.125020  0.019600  1.0  0.2052
  H  H65  1  0.380430  0.055760  0.035310  1.0  0.2026
  H  H66  1  0.764790  0.323710  0.584700  1.0  0.1132
  H  H67  1  0.998570  0.113360  0.800350  1.0  0.1128
  H  H68  1  0.368950  0.530750  0.520060  1.0  0.112
  H  H69  1  0.258080  0.863130  0.798950  1.0  0.1147
  H  H70  1  0.256860  0.862750  0.171100  1.0  0.1126
  H  H71  1  0.646750  0.615260  0.672430  1.0  0.1125
  H  H72  1  0.888690  0.678840  0.887440  1.0  0.112
  H  H73  1  0.550840  0.312570  0.214550  1.0  0.1171
  H  H74  1  0.655890  0.612620  0.300670  1.0  0.1142
  H  H75  1  0.887040  0.829490  0.084380  1.0  0.1201
  H  H76  1  0.008610  0.115900  0.173340  1.0  0.1142
  H  H77  1  0.552040  0.314570  0.758710  1.0  0.1126
  H  H78  1  0.162990  0.145990  0.950640  1.0  0.1136
  H  H79  1  0.759730  0.749630  0.082910  1.0  0.2128
  H  H80  1  0.800270  0.797620  0.136930  1.0  0.2161
  C  C81  1  0.340690  0.210810  0.984690  1.0  0.0489
  C  C82  1  0.360420  0.232810  0.912970  1.0  -0.129
  C  C83  1  0.399960  0.275080  0.912830  1.0  0.0338
  C  C84  1  0.419290  0.295240  0.985750  1.0  -0.0973
  C  C85  1  0.399870  0.274250  0.058140  1.0  0.0366
  C  C86  1  0.360740  0.231650  0.056960  1.0  -0.1308
  C  C87  1  0.800510  0.670300  0.985170  1.0  0.0184
  C  C88  1  0.779130  0.650100  0.913030  1.0  -0.1359
  C  C89  1  0.741770  0.606050  0.911860  1.0  0.0165
  C  C90  1  0.723870  0.583560  0.984050  1.0  -0.1177
  C  C91  1  0.744450  0.602720  0.056740  1.0  0.0507
  C  C92  1  0.783190  0.645580  0.056630  1.0  -0.1555
  C  C93  1  0.313190  0.711470  0.484760  1.0  0.0424
  C  C94  1  0.291870  0.731980  0.413010  1.0  -0.0972
  C  C95  1  0.248670  0.770430  0.412910  1.0  0.0357
  C  C96  1  0.228080  0.789390  0.485870  1.0  -0.1171
  C  C97  1  0.248830  0.769560  0.558230  1.0  0.0309
  C  C98  1  0.291540  0.730620  0.557050  1.0  -0.1131
  C  C99  1  0.848750  0.166250  0.484500  1.0  0.0087
  C  C100  1  0.868410  0.143920  0.556340  1.0  -0.1187
  C  C101  1  0.909390  0.103150  0.556720  1.0  0.0491
  C  C102  1  0.930940  0.084800  0.484160  1.0  -0.1262
  C  C103  1  0.912340  0.106510  0.411870  1.0  0.0276
  C  C104  1  0.872670  0.148450  0.412720  1.0  -0.1459
  C  C105  1  0.176220  0.036460  0.983620  1.0  0.6931
  C  C106  1  0.146490  0.865190  0.132020  1.0  0.7044
  C  C107  1  0.006900  0.006180  0.130460  1.0  0.7066
  C  C108  1  0.974940  0.834880  0.985960  1.0  0.7018
  C  C109  1  0.147860  0.864300  0.839660  1.0  0.7025
  C  C110  1  0.005750  0.002960  0.837340  1.0  0.7074
  C  C111  1  0.478610  0.538020  0.483730  1.0  0.6937
  C  C112  1  0.504380  0.366160  0.339340  1.0  0.6854
  C  C113  1  0.648620  0.502330  0.337500  1.0  0.7085
  C  C114  1  0.676550  0.333190  0.485810  1.0  0.6917
  C  C115  1  0.505840  0.366880  0.632310  1.0  0.6874
  C  C116  1  0.647610  0.505500  0.630350  1.0  0.7068
  C  C117  1  0.718430  0.247190  0.430350  1.0  -0.1238
  C  C118  1  0.719830  0.290040  0.485790  1.0  -0.0793
  C  C119  1  0.762610  0.291060  0.541330  1.0  -0.0993
  C  C120  1  0.804010  0.251040  0.539970  1.0  -0.1273
  C  C121  1  0.802990  0.207700  0.484730  1.0  -0.0237
  C  C122  1  0.758190  0.205160  0.430870  1.0  0.188
  C  C123  1  0.947120  0.002580  0.250930  1.0  -0.0951
  C  C124  1  0.978620  0.034030  0.197890  1.0  -0.124
  C  C125  1  0.984630  0.090490  0.212930  1.0  -0.0714
  C  C126  1  0.961700  0.114230  0.281310  1.0  -0.1223
  C  C127  1  0.931910  0.082190  0.335760  1.0  -0.0188
  C  C128  1  0.923180  0.026050  0.318470  1.0  0.1682
  C  C129  1  0.949560  0.997390  0.713050  1.0  -0.0688
  C  C130  1  0.976860  0.029890  0.769550  1.0  -0.1271
  C  C131  1  0.977970  0.087060  0.758110  1.0  -0.0652
  C  C132  1  0.954320  0.110720  0.690250  1.0  -0.1356
  C  C133  1  0.928770  0.077910  0.632400  1.0  -0.025
  C  C134  1  0.925090  0.020670  0.645670  1.0  0.1752
  C  C135  1  0.342290  0.614050  0.504860  1.0  -0.1402
  C  C136  1  0.356480  0.668110  0.484230  1.0  -0.0273
  C  C137  1  0.411520  0.679560  0.463130  1.0  0.1777
  C  C138  1  0.450830  0.637020  0.463390  1.0  -0.1093
  C  C139  1  0.436450  0.582760  0.483510  1.0  -0.1082
  C  C140  1  0.381550  0.571890  0.503950  1.0  -0.0865
  C  C141  1  0.256250  0.817000  0.690290  1.0  -0.1359
  C  C142  1  0.224050  0.788540  0.634530  1.0  -0.0282
  C  C143  1  0.167470  0.781380  0.650380  1.0  0.1859
  C  C144  1  0.143960  0.805380  0.717950  1.0  -0.1153
  C  C145  1  0.175650  0.835660  0.772270  1.0  -0.1351
  C  C146  1  0.232410  0.840160  0.758480  1.0  -0.0422
  C  C147  1  0.142570  0.807520  0.255140  1.0  -0.0721
  C  C148  1  0.174220  0.836830  0.199750  1.0  -0.128
  C  C149  1  0.231180  0.840530  0.212420  1.0  -0.066
  C  C150  1  0.255330  0.817420  0.280390  1.0  -0.1355
  C  C151  1  0.223270  0.789770  0.337140  1.0  -0.0378
  C  C152  1  0.166390  0.783470  0.322490  1.0  0.1869
  C  C153  1  0.699960  0.610010  0.190490  1.0  -0.1388
  C  C154  1  0.725430  0.577260  0.132490  1.0  -0.0234
  C  C155  1  0.729270  0.520010  0.145780  1.0  0.1898
  C  C156  1  0.704880  0.496680  0.213220  1.0  -0.1117
  C  C157  1  0.677620  0.529170  0.269770  1.0  -0.1336
  C  C158  1  0.676470  0.586330  0.258380  1.0  -0.0507
  C  C159  1  0.693320  0.613590  0.780650  1.0  -0.1353
  C  C160  1  0.722700  0.581540  0.835550  1.0  -0.0297
  C  C161  1  0.731130  0.525270  0.818640  1.0  0.1511
  C  C162  1  0.707190  0.501750  0.751100  1.0  -0.1022
  C  C163  1  0.676060  0.533250  0.697690  1.0  -0.1358
  C  C164  1  0.670450  0.589800  0.712300  1.0  -0.104
  C  C165  1  0.843420  0.758660  0.040440  1.0  0.181
  C  C166  1  0.843540  0.714590  0.985290  1.0  -0.0222
  C  C167  1  0.886880  0.711930  0.930110  1.0  -0.1296
  C  C168  1  0.928990  0.751150  0.929720  1.0  -0.103
  C  C169  1  0.930200  0.793250  0.986250  1.0  -0.0892
  C  C170  1  0.887440  0.796250  0.041800  1.0  -0.1419
  C  C171  1  0.418040  0.339950  0.263660  1.0  -0.1256
  C  C172  1  0.475570  0.338970  0.271550  1.0  -0.1342
  C  C173  1  0.506500  0.314410  0.210840  1.0  -0.0722
  C  C174  1  0.481130  0.292840  0.143520  1.0  -0.1485
  C  C175  1  0.423890  0.294920  0.134070  1.0  -0.0212
  C  C176  1  0.391930  0.318620  0.195470  1.0  0.1769
  C  C177  1  0.419380  0.340530  0.707360  1.0  -0.1486
  C  C178  1  0.476980  0.339930  0.700290  1.0  -0.123
  C  C179  1  0.507660  0.316040  0.761770  1.0  -0.0681
  C  C180  1  0.481900  0.294540  0.828890  1.0  -0.1563
  C  C181  1  0.424530  0.296140  0.837410  1.0  -0.0332
  C  C182  1  0.392900  0.319390  0.775330  1.0  0.1952
  C  C183  1  0.244830  0.176840  0.965070  1.0  -0.1222
  C  C184  1  0.299740  0.165260  0.984080  1.0  -0.0244
  C  C185  1  0.314440  0.110490  0.002450  1.0  0.1775
  C  C186  1  0.274120  0.068880  0.001590  1.0  -0.1459
  C  C187  1  0.218950  0.080680  0.983380  1.0  -0.1095
  C  C188  1  0.204930  0.135300  0.965230  1.0  -0.0781
  N  N189  1  0.750310  0.158950  0.379550  1.0  -0.4867
  N  N190  1  0.889070  0.992440  0.367780  1.0  -0.6029
  N  N191  1  0.895630  0.985610  0.592420  1.0  -0.4809
  N  N192  1  0.428470  0.734100  0.442600  1.0  -0.4543
  N  N193  1  0.133380  0.748900  0.599510  1.0  -0.4692
  N  N194  1  0.132300  0.751630  0.374190  1.0  -0.4847
  N  N195  1  0.758870  0.485030  0.092600  1.0  -0.4841
  N  N196  1  0.764950  0.491600  0.868250  1.0  -0.5299
  N  N197  1  0.797870  0.767940  0.092480  1.0  -0.5053
  N  N198  1  0.333540  0.324070  0.188200  1.0  -0.4526
  N  N199  1  0.334430  0.324610  0.781660  1.0  -0.4311
  N  N200  1  0.370070  0.096160  0.020990  1.0  -0.422
  O  O201  1  0.076840  0.935080  0.984840  1.0  -1.2636
  O  O202  1  0.125620  0.049690  0.981920  1.0  -0.6278
  O  O203  1  0.174090  0.884220  0.073920  1.0  -0.634
  O  O204  1  0.013200  0.954500  0.134290  1.0  -0.6237
  O  O205  1  0.190760  0.986170  0.985680  1.0  -0.6318
  O  O206  1  0.024930  0.033240  0.071270  1.0  -0.6261
  O  O207  1  0.094630  0.870940  0.134700  1.0  -0.6333
  O  O208  1  0.994970  0.850960  0.920580  1.0  -0.6203
  O  O209  1  0.175140  0.883780  0.897790  1.0  -0.6257
  O  O210  1  0.992310  0.854380  0.051010  1.0  -0.6226
  O  O211  1  0.096040  0.869670  0.836660  1.0  -0.6269
  O  O212  1  0.012700  0.951280  0.834870  1.0  -0.6297
  O  O213  1  0.023940  0.031070  0.895430  1.0  -0.6257
  O  O214  1  0.576660  0.435300  0.484890  1.0  -1.2751
  O  O215  1  0.529370  0.550590  0.481950  1.0  -0.6292
  O  O216  1  0.477680  0.385600  0.398010  1.0  -0.6251
  O  O217  1  0.641160  0.450720  0.334910  1.0  -0.6312
  O  O218  1  0.463440  0.487930  0.485850  1.0  -0.6376
  O  O219  1  0.630680  0.530570  0.395590  1.0  -0.6347
  O  O220  1  0.556280  0.370710  0.336020  1.0  -0.6338
  O  O221  1  0.659750  0.353040  0.550980  1.0  -0.6238
  O  O222  1  0.478830  0.385940  0.573700  1.0  -0.6318
  O  O223  1  0.656840  0.349820  0.420490  1.0  -0.6223
  O  O224  1  0.557790  0.371780  0.635370  1.0  -0.6346
  O  O225  1  0.640830  0.453880  0.634270  1.0  -0.6293
  O  O226  1  0.629760  0.532710  0.571200  1.0  -0.6302
