# generated using pymatgen
data_CuH14C20(NO)4
_symmetry_space_group_name_H-M   'P 1'
_cell_length_a   12.66500000
_cell_length_b   15.73760000
_cell_length_c   15.73760000
_cell_angle_alpha   80.68210000
_cell_angle_beta   66.27280000
_cell_angle_gamma   66.27280000
_symmetry_Int_Tables_number   1
_chemical_formula_structural   CuH14C20(NO)4
_chemical_formula_sum   'Cu4 H56 C80 N16 O16'
_cell_volume   2628.88762207
_cell_formula_units_Z   4
loop_
 _symmetry_equiv_pos_site_id
 _symmetry_equiv_pos_as_xyz
  1  'x, y, z'
loop_
 _atom_site_type_symbol
 _atom_site_label
 _atom_site_symmetry_multiplicity
 _atom_site_fract_x
 _atom_site_fract_y
 _atom_site_fract_z
 _atom_site_occupancy
 _atom_site_charge
  Cu  Cu1  1  0.000000  0.500000  0.500000  1.0  0.808
  Cu  Cu2  1  0.500000  0.000000  0.000000  1.0  0.808
  Cu  Cu3  1  0.500000  0.500000  0.000000  1.0  0.808
  Cu  Cu4  1  0.500000  0.000000  0.500000  1.0  0.808
  H  H5  1  0.383300  0.527300  0.850700  1.0  0.107
  H  H6  1  0.547700  0.292500  0.958700  1.0  0.1137
  H  H7  1  0.473300  0.253900  0.854900  1.0  0.1318
  H  H8  1  0.474900  0.294100  0.691300  1.0  0.1072
  H  H9  1  0.378000  0.310200  0.588200  1.0  0.0997
  H  H10  1  0.105600  0.538700  0.721700  1.0  0.1023
  H  H11  1  0.202600  0.524200  0.822600  1.0  0.1209
  H  H12  1  0.261300  0.972700  0.649300  1.0  0.1074
  H  H13  1  0.298900  0.207500  0.541300  1.0  0.1127
  H  H14  1  0.082100  0.246100  0.645100  1.0  0.1323
  H  H15  1  0.960300  0.205900  0.808700  1.0  0.1068
  H  H16  1  0.776400  0.189800  0.911800  1.0  0.0992
  H  H17  1  0.866000  0.961300  0.778300  1.0  0.1027
  H  H18  1  0.049400  0.975800  0.677400  1.0  0.1224
  H  H19  1  0.234000  0.149300  0.027300  1.0  0.1066
  H  H20  1  0.506400  0.041300  0.792500  1.0  0.114
  H  H21  1  0.328200  0.145100  0.753900  1.0  0.1306
  H  H22  1  0.166200  0.308700  0.794100  1.0  0.1071
  H  H23  1  0.966200  0.411800  0.810200  1.0  0.098
  H  H24  1  0.827300  0.278300  0.038700  1.0  0.103
  H  H25  1  0.025200  0.177400  0.024200  1.0  0.1214
  H  H26  1  0.910600  0.350700  0.472700  1.0  0.1048
  H  H27  1  0.840200  0.458700  0.707500  1.0  0.1126
  H  H28  1  0.727200  0.354900  0.746100  1.0  0.129
  H  H29  1  0.769000  0.191300  0.705900  1.0  0.1076
  H  H30  1  0.688200  0.088200  0.689800  1.0  0.0986
  H  H31  1  0.644300  0.221700  0.461300  1.0  0.1036
  H  H32  1  0.726800  0.322600  0.475800  1.0  0.1224
  H  H33  1  0.616700  0.472700  0.149300  1.0  0.1075
  H  H34  1  0.452300  0.707500  0.041300  1.0  0.1128
  H  H35  1  0.526700  0.746100  0.145100  1.0  0.1317
  H  H36  1  0.525100  0.705900  0.308700  1.0  0.1066
  H  H37  1  0.622000  0.689800  0.411800  1.0  0.0996
  H  H38  1  0.894400  0.461300  0.278300  1.0  0.1024
  H  H39  1  0.797400  0.475800  0.177400  1.0  0.1216
  H  H40  1  0.738700  0.027300  0.350700  1.0  0.1067
  H  H41  1  0.701100  0.792500  0.458700  1.0  0.1138
  H  H42  1  0.917900  0.753900  0.354900  1.0  0.1322
  H  H43  1  0.039700  0.794100  0.191300  1.0  0.1068
  H  H44  1  0.223600  0.810200  0.088200  1.0  0.099
  H  H45  1  0.134000  0.038700  0.221700  1.0  0.103
  H  H46  1  0.950600  0.024200  0.322600  1.0  0.1224
  H  H47  1  0.766000  0.850700  0.972700  1.0  0.1057
  H  H48  1  0.493600  0.958700  0.207500  1.0  0.1125
  H  H49  1  0.671800  0.854900  0.246100  1.0  0.1299
  H  H50  1  0.833800  0.691300  0.205900  1.0  0.1064
  H  H51  1  0.033800  0.588200  0.189800  1.0  0.0986
  H  H52  1  0.172700  0.721700  0.961300  1.0  0.1033
  H  H53  1  0.974800  0.822600  0.975800  1.0  0.1218
  H  H54  1  0.089400  0.649300  0.527300  1.0  0.1058
  H  H55  1  0.159800  0.541300  0.292500  1.0  0.1135
  H  H56  1  0.272800  0.645100  0.253900  1.0  0.1301
  H  H57  1  0.231000  0.808700  0.294100  1.0  0.1074
  H  H58  1  0.311800  0.911800  0.310200  1.0  0.0981
  H  H59  1  0.355700  0.778300  0.538700  1.0  0.1037
  H  H60  1  0.273200  0.677400  0.524200  1.0  0.1221
  C  C61  1  0.414300  0.464600  0.865200  1.0  0.1066
  C  C62  1  0.505000  0.335000  0.924000  1.0  0.0166
  C  C63  1  0.464000  0.312900  0.867100  1.0  -0.1021
  C  C64  1  0.346400  0.408400  0.765800  1.0  0.1816
  C  C65  1  0.400700  0.343500  0.696900  1.0  -0.1961
  C  C66  1  0.342100  0.353400  0.635400  1.0  -0.0143
  C  C67  1  0.233300  0.425200  0.643600  1.0  -0.1231
  C  C68  1  0.180400  0.489600  0.715000  1.0  -0.0295
  C  C69  1  0.237800  0.480900  0.775500  1.0  -0.1755
  C  C70  1  0.165900  0.434000  0.580200  1.0  0.6327
  C  C71  1  0.244100  0.035400  0.634800  1.0  0.1063
  C  C72  1  0.264000  0.165000  0.576000  1.0  0.0165
  C  C73  1  0.144000  0.187100  0.632900  1.0  -0.1015
  C  C74  1  0.020600  0.091600  0.734200  1.0  0.1826
  C  C75  1  0.941100  0.156500  0.803100  1.0  -0.1936
  C  C76  1  0.830900  0.146600  0.864600  1.0  -0.0124
  C  C77  1  0.802100  0.074800  0.856400  1.0  -0.1246
  C  C78  1  0.885000  0.010400  0.785000  1.0  -0.0318
  C  C79  1  0.994200  0.019100  0.724500  1.0  -0.177
  C  C80  1  0.680100  0.066000  0.919800  1.0  0.6298
  C  C81  1  0.279500  0.134800  0.964600  1.0  0.1067
  C  C82  1  0.429000  0.076000  0.835000  1.0  0.014
  C  C83  1  0.331100  0.132900  0.812900  1.0  -0.1005
  C  C84  1  0.112200  0.234200  0.908400  1.0  0.1816
  C  C85  1  0.097600  0.303100  0.843500  1.0  -0.1951
  C  C86  1  0.977500  0.364600  0.853400  1.0  -0.0114
  C  C87  1  0.876900  0.356400  0.925200  1.0  -0.1268
  C  C88  1  0.895400  0.285000  0.989600  1.0  -0.0285
  C  C89  1  0.013300  0.224500  0.980900  1.0  -0.1741
  C  C90  1  0.746100  0.419800  0.934000  1.0  0.6303
  C  C91  1  0.878900  0.365200  0.535400  1.0  0.1073
  C  C92  1  0.840000  0.424000  0.665000  1.0  0.0131
  C  C93  1  0.776900  0.367100  0.687100  1.0  -0.0989
  C  C94  1  0.754800  0.265800  0.591600  1.0  0.1804
  C  C95  1  0.744200  0.196900  0.656500  1.0  -0.1997
  C  C96  1  0.695500  0.135400  0.646600  1.0  -0.0133
  C  C97  1  0.658500  0.143600  0.574800  1.0  -0.1273
  C  C98  1  0.670000  0.215000  0.510400  1.0  -0.0252
  C  C99  1  0.718700  0.275500  0.519100  1.0  -0.1754
  C  C100  1  0.599900  0.080200  0.566000  1.0  0.6318
  C  C101  1  0.585700  0.535400  0.134800  1.0  0.1057
  C  C102  1  0.495000  0.665000  0.076000  1.0  0.0167
  C  C103  1  0.536000  0.687100  0.132900  1.0  -0.1019
  C  C104  1  0.653600  0.591600  0.234200  1.0  0.1829
  C  C105  1  0.599300  0.656500  0.303100  1.0  -0.1959
  C  C106  1  0.657900  0.646600  0.364600  1.0  -0.015
  C  C107  1  0.766700  0.574800  0.356400  1.0  -0.1236
  C  C108  1  0.819600  0.510400  0.285000  1.0  -0.0297
  C  C109  1  0.762200  0.519100  0.224500  1.0  -0.1759
  C  C110  1  0.834100  0.566000  0.419800  1.0  0.6319
  C  C111  1  0.755900  0.964600  0.365200  1.0  0.1068
  C  C112  1  0.736000  0.835000  0.424000  1.0  0.0157
  C  C113  1  0.856000  0.812900  0.367100  1.0  -0.101
  C  C114  1  0.979400  0.908400  0.265800  1.0  0.1813
  C  C115  1  0.058900  0.843500  0.196900  1.0  -0.1929
  C  C116  1  0.169100  0.853400  0.135400  1.0  -0.0126
  C  C117  1  0.197900  0.925200  0.143600  1.0  -0.1246
  C  C118  1  0.115000  0.989600  0.215000  1.0  -0.033
  C  C119  1  0.005800  0.980900  0.275500  1.0  -0.1767
  C  C120  1  0.319900  0.934000  0.080200  1.0  0.6315
  C  C121  1  0.720500  0.865200  0.035400  1.0  0.1076
  C  C122  1  0.571000  0.924000  0.165000  1.0  0.0137
  C  C123  1  0.668900  0.867100  0.187100  1.0  -0.0998
  C  C124  1  0.887800  0.765800  0.091600  1.0  0.1812
  C  C125  1  0.902400  0.696900  0.156500  1.0  -0.1937
  C  C126  1  0.022500  0.635400  0.146600  1.0  -0.0119
  C  C127  1  0.123100  0.643600  0.074800  1.0  -0.1283
  C  C128  1  0.104600  0.715000  0.010400  1.0  -0.0266
  C  C129  1  0.986700  0.775500  0.019100  1.0  -0.1743
  C  C130  1  0.253900  0.580200  0.066000  1.0  0.6311
  C  C131  1  0.121100  0.634800  0.464600  1.0  0.1063
  C  C132  1  0.160000  0.576000  0.335000  1.0  0.0121
  C  C133  1  0.223100  0.632900  0.312900  1.0  -0.0972
  C  C134  1  0.245200  0.734200  0.408400  1.0  0.1806
  C  C135  1  0.255800  0.803100  0.343500  1.0  -0.1985
  C  C136  1  0.304500  0.864600  0.353400  1.0  -0.0121
  C  C137  1  0.341500  0.856400  0.425200  1.0  -0.1266
  C  C138  1  0.330000  0.785000  0.489600  1.0  -0.0293
  C  C139  1  0.281300  0.724500  0.480900  1.0  -0.1761
  C  C140  1  0.400100  0.919800  0.434000  1.0  0.6318
  N  N141  1  0.474800  0.428700  0.923500  1.0  -0.3373
  N  N142  1  0.405400  0.395500  0.830700  1.0  0.0377
  N  N143  1  0.327000  0.071300  0.576500  1.0  -0.339
  N  N144  1  0.131600  0.104500  0.669300  1.0  0.0379
  N  N145  1  0.398300  0.076500  0.928700  1.0  -0.3372
  N  N146  1  0.236100  0.169300  0.895500  1.0  0.0386
  N  N147  1  0.903500  0.423500  0.571300  1.0  -0.3398
  N  N148  1  0.800900  0.330700  0.604500  1.0  0.0382
  N  N149  1  0.525200  0.571300  0.076500  1.0  -0.3376
  N  N150  1  0.594600  0.604500  0.169300  1.0  0.0372
  N  N151  1  0.673000  0.928700  0.423500  1.0  -0.3415
  N  N152  1  0.868400  0.895500  0.330700  1.0  0.0389
  N  N153  1  0.601700  0.923500  0.071300  1.0  -0.3382
  N  N154  1  0.763900  0.830700  0.104500  1.0  0.0394
  N  N155  1  0.096500  0.576500  0.428700  1.0  -0.3413
  N  N156  1  0.199100  0.669300  0.395500  1.0  0.0371
  O  O157  1  0.057700  0.491400  0.600200  1.0  -0.5767
  O  O158  1  0.227300  0.380800  0.510200  1.0  -0.6042
  O  O159  1  0.649300  0.008600  0.899800  1.0  -0.5778
  O  O160  1  0.618300  0.119200  0.989800  1.0  -0.6062
  O  O161  1  0.657900  0.399800  0.991400  1.0  -0.5775
  O  O162  1  0.737500  0.489800  0.880800  1.0  -0.5988
  O  O163  1  0.549100  0.100200  0.508600  1.0  -0.5773
  O  O164  1  0.608100  0.010200  0.619200  1.0  -0.5974
  O  O165  1  0.942300  0.508600  0.399800  1.0  -0.5771
  O  O166  1  0.772700  0.619200  0.489800  1.0  -0.6059
  O  O167  1  0.350700  0.991400  0.100200  1.0  -0.5772
  O  O168  1  0.381700  0.880800  0.010200  1.0  -0.6058
  O  O169  1  0.342100  0.600200  0.008600  1.0  -0.5768
  O  O170  1  0.262500  0.510200  0.119200  1.0  -0.5987
  O  O171  1  0.450900  0.899800  0.491400  1.0  -0.5797
  O  O172  1  0.391900  0.989800  0.380800  1.0  -0.598
