# generated using pymatgen
data_LaH6(C2O3)3
_symmetry_space_group_name_H-M   'P 1'
_cell_length_a   6.13080000
_cell_length_b   7.45800000
_cell_length_c   12.45700000
_cell_angle_alpha   74.66200000
_cell_angle_beta   88.83500000
_cell_angle_gamma   89.30400000
_symmetry_Int_Tables_number   1
_chemical_formula_structural   LaH6(C2O3)3
_chemical_formula_sum   'La2 H12 C12 O18'
_cell_volume   549.16353496
_cell_formula_units_Z   2
loop_
 _symmetry_equiv_pos_site_id
 _symmetry_equiv_pos_as_xyz
  1  'x, y, z'
loop_
 _atom_site_type_symbol
 _atom_site_label
 _atom_site_symmetry_multiplicity
 _atom_site_fract_x
 _atom_site_fract_y
 _atom_site_fract_z
 _atom_site_occupancy
 _atom_site_charge
  La  La1  1  0.403580  0.930560  0.446610  1.0  2.1409
  La  La2  1  0.251070  0.253890  0.849940  1.0  2.1559
  H  H3  1  0.869700  0.391300  0.586300  1.0  0.1023
  H  H4  1  0.980800  0.391700  0.417400  1.0  0.1028
  H  H5  1  0.779800  0.839100  0.714900  1.0  0.1135
  H  H6  1  0.671800  0.668500  0.888900  1.0  0.1068
  H  H7  1  0.659400  0.373800  0.074300  1.0  0.0786
  H  H8  1  0.939100  0.333400  0.215400  1.0  0.0911
  H  H9  1  0.093500  0.097700  0.658500  1.0  0.3975
  H  H10  1  0.269900  0.235800  0.389900  1.0  0.3301
  H  H11  1  0.550200  0.607500  0.636100  1.0  0.3973
  H  H12  1  0.358000  0.590100  0.915800  1.0  0.3726
  H  H13  1  0.532200  0.666000  0.114600  1.0  0.3452
  H  H14  1  0.881100  0.688200  0.173200  1.0  0.397
  C  C15  1  0.190100  0.474300  0.583100  1.0  0.689
  C  C16  1  0.012000  0.331400  0.583200  1.0  0.0212
  C  C17  1  0.032800  0.285200  0.475900  1.0  0.0669
  C  C18  1  0.902000  0.116200  0.471900  1.0  0.6715
  C  C19  1  0.461400  0.909400  0.718400  1.0  0.6
  C  C20  1  0.639000  0.777100  0.717800  1.0  0.0485
  C  C21  1  0.615500  0.622000  0.828300  1.0  0.0359
  C  C22  1  0.740300  0.458600  0.822500  1.0  0.6201
  C  C23  1  0.531100  0.357100  0.224900  1.0  0.679
  C  C24  1  0.666667  0.447500  0.128600  1.0  0.0196
  C  C25  1  0.905200  0.452100  0.161900  1.0  0.0631
  C  C26  1  0.067300  0.475800  0.057500  1.0  0.6768
  O  O27  1  0.196500  0.625500  0.501300  1.0  -0.6938
  O  O28  1  0.332700  0.434000  0.652500  1.0  -0.6158
  O  O29  1  0.031400  0.187800  0.677100  1.0  -0.6123
  O  O30  1  0.258700  0.254900  0.454100  1.0  -0.527
  O  O31  1  0.991100  0.987400  0.445000  1.0  -0.6482
  O  O32  1  0.698900  0.116900  0.490100  1.0  -0.6533
  O  O33  1  0.314700  0.943800  0.637800  1.0  -0.6506
  O  O34  1  0.446700  0.995800  0.801400  1.0  -0.6979
  O  O35  1  0.613300  0.712300  0.617900  1.0  -0.6091
  O  O36  1  0.386800  0.575300  0.851600  1.0  -0.5826
  O  O37  1  0.658900  0.296000  0.851600  1.0  -0.6613
  O  O38  1  0.956000  0.484800  0.797700  1.0  -0.6457
  O  O39  1  0.549800  0.190800  0.266600  1.0  -0.7152
  O  O40  1  0.416300  0.452000  0.272500  1.0  -0.6102
  O  O41  1  0.619900  0.628500  0.074700  1.0  -0.5531
  O  O42  1  0.922900  0.590000  0.215000  1.0  -0.5581
  O  O43  1  0.090000  0.328900  0.030800  1.0  -0.7141
  O  O44  1  0.131300  0.631100  0.014400  1.0  -0.5752
