# generated using pymatgen
data_Co5P3H9C18ClO18
_symmetry_space_group_name_H-M   'P 1'
_cell_length_a   13.80900000
_cell_length_b   13.80900000
_cell_length_c   30.00400000
_cell_angle_alpha   90.00000000
_cell_angle_beta   90.00000000
_cell_angle_gamma   120.00000000
_symmetry_Int_Tables_number   1
_chemical_formula_structural   Co5P3H9C18ClO18
_chemical_formula_sum   'Co20 P12 H36 C72 Cl4 O72'
_cell_volume   4954.89262693
_cell_formula_units_Z   4
loop_
 _symmetry_equiv_pos_site_id
 _symmetry_equiv_pos_as_xyz
  1  'x, y, z'
loop_
 _atom_site_type_symbol
 _atom_site_label
 _atom_site_symmetry_multiplicity
 _atom_site_fract_x
 _atom_site_fract_y
 _atom_site_fract_z
 _atom_site_occupancy
 _atom_site_charge
  Co  Co1  1  0.642260  0.097800  0.462950  1.0  1.0517
  Co  Co2  1  0.902200  0.544460  0.462950  1.0  1.0543
  Co  Co3  1  0.455540  0.357740  0.462950  1.0  1.0567
  Co  Co4  1  0.097800  0.642260  0.037050  1.0  1.0567
  Co  Co5  1  0.544460  0.902200  0.037050  1.0  1.053
  Co  Co6  1  0.357740  0.455540  0.037050  1.0  1.054
  Co  Co7  1  0.357740  0.902200  0.537050  1.0  1.0568
  Co  Co8  1  0.097800  0.455540  0.537050  1.0  1.055
  Co  Co9  1  0.544460  0.642260  0.537050  1.0  1.0532
  Co  Co10  1  0.902200  0.357740  0.962950  1.0  1.0534
  Co  Co11  1  0.455540  0.097800  0.962950  1.0  1.0558
  Co  Co12  1  0.642260  0.544460  0.962950  1.0  1.0555
  Co  Co13  1  0.666667  0.333333  0.425640  1.0  0.8784
  Co  Co14  1  0.666667  0.333333  0.564860  1.0  0.9696
  Co  Co15  1  0.333333  0.666667  0.074360  1.0  0.8788
  Co  Co16  1  0.333333  0.666667  0.935140  1.0  0.9682
  Co  Co17  1  0.333333  0.666667  0.574360  1.0  0.8788
  Co  Co18  1  0.333333  0.666667  0.435140  1.0  0.9682
  Co  Co19  1  0.666667  0.333333  0.925640  1.0  0.8784
  Co  Co20  1  0.666667  0.333333  0.064860  1.0  0.9696
  P  P21  1  0.477850  0.158840  0.501380  1.0  1.8778
  P  P22  1  0.841160  0.319010  0.501380  1.0  1.8819
  P  P23  1  0.680990  0.522150  0.501380  1.0  1.8847
  P  P24  1  0.158840  0.477850  0.998620  1.0  1.8829
  P  P25  1  0.319010  0.841160  0.998620  1.0  1.8778
  P  P26  1  0.522150  0.680990  0.998620  1.0  1.8819
  P  P27  1  0.522150  0.841160  0.498620  1.0  1.8816
  P  P28  1  0.158840  0.680990  0.498620  1.0  1.8779
  P  P29  1  0.319010  0.477850  0.498620  1.0  1.8828
  P  P30  1  0.841160  0.522150  0.001380  1.0  1.8843
  P  P31  1  0.680990  0.158840  0.001380  1.0  1.8817
  P  P32  1  0.477850  0.319010  0.001380  1.0  1.8776
  H  H33  1  0.552300  0.935600  0.333700  1.0  0.1238
  H  H34  1  0.719500  0.259200  0.299000  1.0  0.1255
  H  H35  1  0.686600  0.211800  0.225300  1.0  0.1343
  H  H36  1  0.064400  0.616700  0.333700  1.0  0.1244
  H  H37  1  0.740800  0.460300  0.299000  1.0  0.125
  H  H38  1  0.788200  0.474800  0.225300  1.0  0.1353
  H  H39  1  0.383300  0.447700  0.333700  1.0  0.1245
  H  H40  1  0.539700  0.280500  0.299000  1.0  0.1242
  H  H41  1  0.525200  0.313400  0.225300  1.0  0.1348
  H  H42  1  0.935600  0.552300  0.166300  1.0  0.1244
  H  H43  1  0.259200  0.719500  0.201000  1.0  0.1247
  H  H44  1  0.211800  0.686600  0.274700  1.0  0.1353
  H  H45  1  0.616700  0.064400  0.166300  1.0  0.1237
  H  H46  1  0.460300  0.740800  0.201000  1.0  0.1266
  H  H47  1  0.474800  0.788200  0.274700  1.0  0.1346
  H  H48  1  0.447700  0.383300  0.166300  1.0  0.124
  H  H49  1  0.280500  0.539700  0.201000  1.0  0.125
  H  H50  1  0.313400  0.525200  0.274700  1.0  0.1353
  H  H51  1  0.447700  0.064400  0.666300  1.0  0.124
  H  H52  1  0.280500  0.740800  0.701000  1.0  0.126
  H  H53  1  0.313400  0.788200  0.774700  1.0  0.1349
  H  H54  1  0.935600  0.383300  0.666300  1.0  0.1241
  H  H55  1  0.259200  0.539700  0.701000  1.0  0.1256
  H  H56  1  0.211800  0.525200  0.774700  1.0  0.135
  H  H57  1  0.616700  0.552300  0.666300  1.0  0.1244
  H  H58  1  0.460300  0.719500  0.701000  1.0  0.1248
  H  H59  1  0.474800  0.686600  0.774700  1.0  0.1351
  H  H60  1  0.064400  0.447700  0.833700  1.0  0.1244
  H  H61  1  0.740800  0.280500  0.799000  1.0  0.1243
  H  H62  1  0.788200  0.313400  0.725300  1.0  0.1344
  H  H63  1  0.383300  0.935600  0.833700  1.0  0.1238
  H  H64  1  0.539700  0.259200  0.799000  1.0  0.1265
  H  H65  1  0.525200  0.211800  0.725300  1.0  0.1346
  H  H66  1  0.552300  0.616700  0.833700  1.0  0.1243
  H  H67  1  0.719500  0.460300  0.799000  1.0  0.1248
  H  H68  1  0.686600  0.474800  0.725300  1.0  0.1349
  C  C69  1  0.638200  0.099900  0.323930  1.0  -0.1218
  C  C70  1  0.657700  0.132600  0.372290  1.0  0.7424
  C  C71  1  0.580500  0.990400  0.311760  1.0  -0.0146
  C  C72  1  0.679700  0.184300  0.290800  1.0  -0.0574
  C  C73  1  0.562400  0.958100  0.266680  1.0  0.0657
  C  C74  1  0.661400  0.155800  0.246800  1.0  -0.0626
  C  C75  1  0.900100  0.538300  0.323930  1.0  -0.1203
  C  C76  1  0.867400  0.525100  0.372290  1.0  0.7399
  C  C77  1  0.009600  0.590100  0.311760  1.0  -0.0162
  C  C78  1  0.815700  0.495400  0.290800  1.0  -0.0565
  C  C79  1  0.041900  0.604300  0.266680  1.0  0.067
  C  C80  1  0.844200  0.505600  0.246800  1.0  -0.0619
  C  C81  1  0.461700  0.361800  0.323930  1.0  -0.1211
  C  C82  1  0.474900  0.342300  0.372290  1.0  0.74
  C  C83  1  0.409900  0.419500  0.311760  1.0  -0.0172
  C  C84  1  0.504600  0.320300  0.290800  1.0  -0.055
  C  C85  1  0.395700  0.437600  0.266680  1.0  0.0654
  C  C86  1  0.494400  0.338600  0.246800  1.0  -0.0598
  C  C87  1  0.099900  0.638200  0.176070  1.0  -0.1215
  C  C88  1  0.132600  0.657700  0.127710  1.0  0.7423
  C  C89  1  0.990400  0.580500  0.188240  1.0  -0.0156
  C  C90  1  0.184300  0.679700  0.209200  1.0  -0.0529
  C  C91  1  0.958100  0.562400  0.233320  1.0  0.0666
  C  C92  1  0.155800  0.661400  0.253200  1.0  -0.0592
  C  C93  1  0.538300  0.900100  0.176070  1.0  -0.121
  C  C94  1  0.525100  0.867400  0.127710  1.0  0.7431
  C  C95  1  0.590100  0.009600  0.188240  1.0  -0.0155
  C  C96  1  0.495400  0.815700  0.209200  1.0  -0.0552
  C  C97  1  0.604300  0.041900  0.233320  1.0  0.0666
  C  C98  1  0.505600  0.844200  0.253200  1.0  -0.0588
  C  C99  1  0.361800  0.461700  0.176070  1.0  -0.1203
  C  C100  1  0.342300  0.474900  0.127710  1.0  0.7403
  C  C101  1  0.419500  0.409900  0.188240  1.0  -0.0155
  C  C102  1  0.320300  0.504600  0.209200  1.0  -0.0545
  C  C103  1  0.437600  0.395700  0.233320  1.0  0.0678
  C  C104  1  0.338600  0.494400  0.253200  1.0  -0.0602
  C  C105  1  0.361800  0.900100  0.676070  1.0  -0.1216
  C  C106  1  0.342300  0.867400  0.627710  1.0  0.7432
  C  C107  1  0.419500  0.009600  0.688240  1.0  -0.0166
  C  C108  1  0.320300  0.815700  0.709200  1.0  -0.0552
  C  C109  1  0.437600  0.041900  0.733320  1.0  0.0668
  C  C110  1  0.338600  0.844200  0.753200  1.0  -0.0612
  C  C111  1  0.099900  0.461700  0.676070  1.0  -0.1197
  C  C112  1  0.132600  0.474900  0.627710  1.0  0.7399
  C  C113  1  0.990400  0.409900  0.688240  1.0  -0.0162
  C  C114  1  0.184300  0.504600  0.709200  1.0  -0.0568
  C  C115  1  0.958100  0.395700  0.733320  1.0  0.0673
  C  C116  1  0.155800  0.494400  0.753200  1.0  -0.0614
  C  C117  1  0.538300  0.638200  0.676070  1.0  -0.1204
  C  C118  1  0.525100  0.657700  0.627710  1.0  0.7441
  C  C119  1  0.590100  0.580500  0.688240  1.0  -0.0159
  C  C120  1  0.495400  0.679700  0.709200  1.0  -0.055
  C  C121  1  0.604300  0.562400  0.733320  1.0  0.0667
  C  C122  1  0.505600  0.661400  0.753200  1.0  -0.0618
  C  C123  1  0.900100  0.361800  0.823930  1.0  -0.1211
  C  C124  1  0.867400  0.342300  0.872290  1.0  0.7434
  C  C125  1  0.009600  0.419500  0.811760  1.0  -0.0145
  C  C126  1  0.815700  0.320300  0.790800  1.0  -0.0545
  C  C127  1  0.041900  0.437600  0.766680  1.0  0.0654
  C  C128  1  0.844200  0.338600  0.746800  1.0  -0.0588
  C  C129  1  0.461700  0.099900  0.823930  1.0  -0.1207
  C  C130  1  0.474900  0.132600  0.872290  1.0  0.7409
  C  C131  1  0.409900  0.990400  0.811760  1.0  -0.0145
  C  C132  1  0.504600  0.184300  0.790800  1.0  -0.0548
  C  C133  1  0.395700  0.958100  0.766680  1.0  0.0657
  C  C134  1  0.494400  0.155800  0.746800  1.0  -0.0604
  C  C135  1  0.638200  0.538300  0.823930  1.0  -0.1196
  C  C136  1  0.657700  0.525100  0.872290  1.0  0.7397
  C  C137  1  0.580500  0.590100  0.811760  1.0  -0.0155
  C  C138  1  0.679700  0.495400  0.790800  1.0  -0.0564
  C  C139  1  0.562400  0.604300  0.766680  1.0  0.0665
  C  C140  1  0.661400  0.505600  0.746800  1.0  -0.0586
  Cl  Cl141  1  0.666667  0.333333  0.641540  1.0  -0.5017
  Cl  Cl142  1  0.333333  0.666667  0.858460  1.0  -0.5021
  Cl  Cl143  1  0.333333  0.666667  0.358460  1.0  -0.5021
  Cl  Cl144  1  0.666667  0.333333  0.141540  1.0  -0.5017
  O  O145  1  0.567500  0.189500  0.464680  1.0  -0.9026
  O  O146  1  0.700800  0.233400  0.382450  1.0  -0.6274
  O  O147  1  0.629700  0.054300  0.400010  1.0  -0.5652
  O  O148  1  0.400900  0.032700  0.500500  1.0  -0.7717
  O  O149  1  0.408300  0.213800  0.490640  1.0  -0.7043
  O  O150  1  0.535300  0.196500  0.546550  1.0  -0.7565
  O  O151  1  0.810500  0.378000  0.464680  1.0  -0.9031
  O  O152  1  0.766600  0.467400  0.382450  1.0  -0.626
  O  O153  1  0.945700  0.575400  0.400010  1.0  -0.5666
  O  O154  1  0.967300  0.368200  0.500500  1.0  -0.7684
  O  O155  1  0.786200  0.194500  0.490640  1.0  -0.705
  O  O156  1  0.803500  0.338800  0.546550  1.0  -0.7552
  O  O157  1  0.622000  0.432500  0.464680  1.0  -0.9013
  O  O158  1  0.532600  0.299200  0.382450  1.0  -0.6248
  O  O159  1  0.424600  0.370300  0.400010  1.0  -0.5629
  O  O160  1  0.631800  0.599100  0.500500  1.0  -0.7747
  O  O161  1  0.805500  0.591700  0.490640  1.0  -0.7044
  O  O162  1  0.661200  0.464700  0.546550  1.0  -0.7555
  O  O163  1  0.189500  0.567500  0.035320  1.0  -0.902
  O  O164  1  0.233400  0.700800  0.117550  1.0  -0.6253
  O  O165  1  0.054300  0.629700  0.099990  1.0  -0.5626
  O  O166  1  0.032700  0.400900  0.999500  1.0  -0.7734
  O  O167  1  0.213800  0.408300  0.009360  1.0  -0.7034
  O  O168  1  0.196500  0.535300  0.953450  1.0  -0.7541
  O  O169  1  0.378000  0.810500  0.035320  1.0  -0.9026
  O  O170  1  0.467400  0.766600  0.117550  1.0  -0.6286
  O  O171  1  0.575400  0.945700  0.099990  1.0  -0.566
  O  O172  1  0.368200  0.967300  0.999500  1.0  -0.7722
  O  O173  1  0.194500  0.786200  0.009360  1.0  -0.7045
  O  O174  1  0.338800  0.803500  0.953450  1.0  -0.7544
  O  O175  1  0.432500  0.622000  0.035320  1.0  -0.9036
  O  O176  1  0.299200  0.532600  0.117550  1.0  -0.6264
  O  O177  1  0.370300  0.424600  0.099990  1.0  -0.5647
  O  O178  1  0.599100  0.631800  0.999500  1.0  -0.7687
  O  O179  1  0.591700  0.805500  0.009360  1.0  -0.7047
  O  O180  1  0.464700  0.661200  0.953450  1.0  -0.7542
  O  O181  1  0.432500  0.810500  0.535320  1.0  -0.9029
  O  O182  1  0.299200  0.766600  0.617550  1.0  -0.6279
  O  O183  1  0.370300  0.945700  0.599990  1.0  -0.5676
  O  O184  1  0.599100  0.967300  0.499500  1.0  -0.7711
  O  O185  1  0.591700  0.786200  0.509360  1.0  -0.7034
  O  O186  1  0.464700  0.803500  0.453450  1.0  -0.7543
  O  O187  1  0.189500  0.622000  0.535320  1.0  -0.9037
  O  O188  1  0.233400  0.532600  0.617550  1.0  -0.6257
  O  O189  1  0.054300  0.424600  0.599990  1.0  -0.5643
  O  O190  1  0.032700  0.631800  0.499500  1.0  -0.769
  O  O191  1  0.213800  0.805500  0.509360  1.0  -0.7046
  O  O192  1  0.196500  0.661200  0.453450  1.0  -0.7548
  O  O193  1  0.378000  0.567500  0.535320  1.0  -0.9026
  O  O194  1  0.467400  0.700800  0.617550  1.0  -0.6248
  O  O195  1  0.575400  0.629700  0.599990  1.0  -0.5633
  O  O196  1  0.368200  0.400900  0.499500  1.0  -0.7736
  O  O197  1  0.194500  0.408300  0.509360  1.0  -0.7035
  O  O198  1  0.338800  0.535300  0.453450  1.0  -0.7534
  O  O199  1  0.810500  0.432500  0.964680  1.0  -0.9018
  O  O200  1  0.766600  0.299200  0.882450  1.0  -0.6252
  O  O201  1  0.945700  0.370300  0.900010  1.0  -0.5632
  O  O202  1  0.967300  0.599100  0.000500  1.0  -0.7754
  O  O203  1  0.786200  0.591700  0.990640  1.0  -0.7046
  O  O204  1  0.803500  0.464700  0.046550  1.0  -0.7554
  O  O205  1  0.622000  0.189500  0.964680  1.0  -0.9033
  O  O206  1  0.532600  0.233400  0.882450  1.0  -0.6287
  O  O207  1  0.424600  0.054300  0.900010  1.0  -0.5654
  O  O208  1  0.631800  0.032700  0.000500  1.0  -0.7708
  O  O209  1  0.805500  0.213800  0.990640  1.0  -0.7033
  O  O210  1  0.661200  0.196500  0.046550  1.0  -0.7556
  O  O211  1  0.567500  0.378000  0.964680  1.0  -0.9029
  O  O212  1  0.700800  0.467400  0.882450  1.0  -0.6254
  O  O213  1  0.629700  0.575400  0.900010  1.0  -0.5665
  O  O214  1  0.400900  0.368200  0.000500  1.0  -0.7681
  O  O215  1  0.408300  0.194500  0.990640  1.0  -0.7051
  O  O216  1  0.535300  0.338800  0.046550  1.0  -0.756
