# generated using pymatgen
data_CuH6(C3O)4
_symmetry_space_group_name_H-M   'P 1'
_cell_length_a   6.99940000
_cell_length_b   20.53900000
_cell_length_c   20.53900000
_cell_angle_alpha   90.00000000
_cell_angle_beta   90.00000000
_cell_angle_gamma   90.00000000
_symmetry_Int_Tables_number   1
_chemical_formula_structural   CuH6(C3O)4
_chemical_formula_sum   'Cu8 H48 C96 O32'
_cell_volume   2952.70053669
_cell_formula_units_Z   8
loop_
 _symmetry_equiv_pos_site_id
 _symmetry_equiv_pos_as_xyz
  1  'x, y, z'
loop_
 _atom_site_type_symbol
 _atom_site_label
 _atom_site_symmetry_multiplicity
 _atom_site_fract_x
 _atom_site_fract_y
 _atom_site_fract_z
 _atom_site_occupancy
 _atom_site_charge
  Cu  Cu1  1  0.663740  0.018970  0.023910  1.0  0.8924
  Cu  Cu2  1  0.663740  0.481030  0.476090  1.0  0.8921
  Cu  Cu3  1  0.163740  0.976090  0.518970  1.0  0.8932
  Cu  Cu4  1  0.163740  0.523910  0.981030  1.0  0.8936
  Cu  Cu5  1  0.336260  0.981030  0.976090  1.0  0.8918
  Cu  Cu6  1  0.336260  0.518970  0.523910  1.0  0.8922
  Cu  Cu7  1  0.836260  0.023910  0.481030  1.0  0.8933
  Cu  Cu8  1  0.836260  0.476090  0.018970  1.0  0.8926
  H  H9  1  0.067200  0.171700  0.028000  1.0  0.1264
  H  H10  1  0.975600  0.281900  0.028200  1.0  0.1192
  H  H11  1  0.456500  0.386700  0.907000  1.0  0.1049
  H  H12  1  0.727200  0.351800  0.854000  1.0  0.0933
  H  H13  1  0.825900  0.242300  0.860600  1.0  0.106
  H  H14  1  0.651000  0.168700  0.920900  1.0  0.1046
  H  H15  1  0.067200  0.328300  0.472000  1.0  0.126
  H  H16  1  0.975600  0.218100  0.471800  1.0  0.1196
  H  H17  1  0.456500  0.113300  0.593000  1.0  0.1044
  H  H18  1  0.727200  0.148200  0.646000  1.0  0.0934
  H  H19  1  0.825900  0.257700  0.639400  1.0  0.1062
  H  H20  1  0.651000  0.331300  0.579100  1.0  0.105
  H  H21  1  0.567200  0.972000  0.671700  1.0  0.1259
  H  H22  1  0.475600  0.971800  0.781900  1.0  0.1193
  H  H23  1  0.956500  0.093000  0.886700  1.0  0.106
  H  H24  1  0.227200  0.146000  0.851800  1.0  0.0948
  H  H25  1  0.325900  0.139400  0.742300  1.0  0.1066
  H  H26  1  0.151000  0.079100  0.668700  1.0  0.106
  H  H27  1  0.567200  0.528000  0.828300  1.0  0.1259
  H  H28  1  0.475600  0.528200  0.718100  1.0  0.1204
  H  H29  1  0.956500  0.407000  0.613300  1.0  0.1068
  H  H30  1  0.227200  0.354000  0.648200  1.0  0.0947
  H  H31  1  0.325900  0.360600  0.757700  1.0  0.1066
  H  H32  1  0.151000  0.420900  0.831300  1.0  0.1059
  H  H33  1  0.932800  0.828300  0.972000  1.0  0.1257
  H  H34  1  0.024400  0.718100  0.971800  1.0  0.1199
  H  H35  1  0.543500  0.613300  0.093000  1.0  0.1045
  H  H36  1  0.272800  0.648200  0.146000  1.0  0.0935
  H  H37  1  0.174100  0.757700  0.139400  1.0  0.106
  H  H38  1  0.349000  0.831300  0.079100  1.0  0.1048
  H  H39  1  0.932800  0.671700  0.528000  1.0  0.1263
  H  H40  1  0.024400  0.781900  0.528200  1.0  0.1194
  H  H41  1  0.543500  0.886700  0.407000  1.0  0.1048
  H  H42  1  0.272800  0.851800  0.354000  1.0  0.0934
  H  H43  1  0.174100  0.742300  0.360600  1.0  0.1058
  H  H44  1  0.349000  0.668700  0.420900  1.0  0.1045
  H  H45  1  0.432800  0.028000  0.328300  1.0  0.1257
  H  H46  1  0.524400  0.028200  0.218100  1.0  0.1201
  H  H47  1  0.043500  0.907000  0.113300  1.0  0.1067
  H  H48  1  0.772800  0.854000  0.148200  1.0  0.0947
  H  H49  1  0.674100  0.860600  0.257700  1.0  0.1064
  H  H50  1  0.849000  0.920900  0.331300  1.0  0.1055
  H  H51  1  0.432800  0.472000  0.171700  1.0  0.1259
  H  H52  1  0.524400  0.471800  0.281900  1.0  0.1192
  H  H53  1  0.043500  0.593000  0.386700  1.0  0.1059
  H  H54  1  0.772800  0.646000  0.351800  1.0  0.0948
  H  H55  1  0.674100  0.639400  0.242300  1.0  0.1063
  H  H56  1  0.849000  0.579100  0.168700  1.0  0.1059
  C  C57  1  0.322400  0.186000  0.984320  1.0  -0.0965
  C  C58  1  0.149300  0.203720  0.009760  1.0  -0.0861
  C  C59  1  0.093500  0.269660  0.008840  1.0  -0.049
  C  C60  1  0.206100  0.316770  0.980420  1.0  -0.151
  C  C61  1  0.493500  0.342280  0.910210  1.0  -0.1165
  C  C62  1  0.654300  0.321690  0.878780  1.0  -0.0563
  C  C63  1  0.713700  0.256100  0.882650  1.0  -0.0809
  C  C64  1  0.609600  0.212640  0.918090  1.0  -0.1231
  C  C65  1  0.439900  0.232020  0.950980  1.0  0.045
  C  C66  1  0.380000  0.298790  0.947670  1.0  0.0671
  C  C67  1  0.383100  0.116190  0.991900  1.0  0.6787
  C  C68  1  0.134800  0.385710  0.987370  1.0  0.6771
  C  C69  1  0.322400  0.314000  0.515680  1.0  -0.097
  C  C70  1  0.149300  0.296280  0.490240  1.0  -0.0835
  C  C71  1  0.093500  0.230340  0.491160  1.0  -0.0508
  C  C72  1  0.206100  0.183230  0.519580  1.0  -0.1518
  C  C73  1  0.493500  0.157720  0.589790  1.0  -0.1166
  C  C74  1  0.654300  0.178310  0.621220  1.0  -0.0559
  C  C75  1  0.713700  0.243900  0.617350  1.0  -0.0815
  C  C76  1  0.609600  0.287360  0.581910  1.0  -0.1231
  C  C77  1  0.439900  0.267980  0.549020  1.0  0.0448
  C  C78  1  0.380000  0.201210  0.552330  1.0  0.0666
  C  C79  1  0.383100  0.383810  0.508100  1.0  0.6789
  C  C80  1  0.134800  0.114290  0.512630  1.0  0.68
  C  C81  1  0.822400  0.015680  0.686000  1.0  -0.0995
  C  C82  1  0.649300  0.990240  0.703720  1.0  -0.0828
  C  C83  1  0.593500  0.991160  0.769660  1.0  -0.0492
  C  C84  1  0.706100  0.019580  0.816770  1.0  -0.1519
  C  C85  1  0.993500  0.089790  0.842280  1.0  -0.1152
  C  C86  1  0.154300  0.121220  0.821690  1.0  -0.0551
  C  C87  1  0.213700  0.117350  0.756100  1.0  -0.0809
  C  C88  1  0.109600  0.081910  0.712640  1.0  -0.1227
  C  C89  1  0.939900  0.049020  0.732020  1.0  0.0439
  C  C90  1  0.880000  0.052330  0.798790  1.0  0.0646
  C  C91  1  0.883100  0.008100  0.616190  1.0  0.6769
  C  C92  1  0.634800  0.012630  0.885710  1.0  0.6801
  C  C93  1  0.822400  0.484320  0.814000  1.0  -0.0998
  C  C94  1  0.649300  0.509760  0.796280  1.0  -0.0848
  C  C95  1  0.593500  0.508840  0.730340  1.0  -0.0478
  C  C96  1  0.706100  0.480420  0.683230  1.0  -0.1517
  C  C97  1  0.993500  0.410210  0.657720  1.0  -0.1141
  C  C98  1  0.154300  0.378780  0.678310  1.0  -0.0556
  C  C99  1  0.213700  0.382650  0.743900  1.0  -0.0817
  C  C100  1  0.109600  0.418090  0.787360  1.0  -0.122
  C  C101  1  0.939900  0.450980  0.767980  1.0  0.0439
  C  C102  1  0.880000  0.447670  0.701210  1.0  0.0652
  C  C103  1  0.883100  0.491900  0.883810  1.0  0.6768
  C  C104  1  0.634800  0.487370  0.614290  1.0  0.6808
  C  C105  1  0.677600  0.814000  0.015680  1.0  -0.0964
  C  C106  1  0.850700  0.796280  0.990240  1.0  -0.0853
  C  C107  1  0.906500  0.730340  0.991160  1.0  -0.0519
  C  C108  1  0.793900  0.683230  0.019580  1.0  -0.1517
  C  C109  1  0.506500  0.657720  0.089790  1.0  -0.1156
  C  C110  1  0.345700  0.678310  0.121220  1.0  -0.055
  C  C111  1  0.286300  0.743900  0.117350  1.0  -0.0826
  C  C112  1  0.390400  0.787360  0.081910  1.0  -0.1239
  C  C113  1  0.560100  0.767980  0.049020  1.0  0.0453
  C  C114  1  0.620000  0.701210  0.052330  1.0  0.0659
  C  C115  1  0.616900  0.883810  0.008100  1.0  0.6791
  C  C116  1  0.865200  0.614290  0.012630  1.0  0.6796
  C  C117  1  0.677600  0.686000  0.484320  1.0  -0.0962
  C  C118  1  0.850700  0.703720  0.509760  1.0  -0.0864
  C  C119  1  0.906500  0.769660  0.508840  1.0  -0.048
  C  C120  1  0.793900  0.816770  0.480420  1.0  -0.1511
  C  C121  1  0.506500  0.842280  0.410210  1.0  -0.1155
  C  C122  1  0.345700  0.821690  0.378780  1.0  -0.0557
  C  C123  1  0.286300  0.756100  0.382650  1.0  -0.0817
  C  C124  1  0.390400  0.712640  0.418090  1.0  -0.1238
  C  C125  1  0.560100  0.732020  0.450980  1.0  0.0455
  C  C126  1  0.620000  0.798790  0.447670  1.0  0.0666
  C  C127  1  0.616900  0.616190  0.491900  1.0  0.6788
  C  C128  1  0.865200  0.885710  0.487370  1.0  0.677
  C  C129  1  0.177600  0.984320  0.314000  1.0  -0.099
  C  C130  1  0.350700  0.009760  0.296280  1.0  -0.0847
  C  C131  1  0.406500  0.008840  0.230340  1.0  -0.0479
  C  C132  1  0.293900  0.980420  0.183230  1.0  -0.1517
  C  C133  1  0.006500  0.910210  0.157720  1.0  -0.1133
  C  C134  1  0.845700  0.878780  0.178310  1.0  -0.0548
  C  C135  1  0.786300  0.882650  0.243900  1.0  -0.0825
  C  C136  1  0.890400  0.918090  0.287360  1.0  -0.1223
  C  C137  1  0.060100  0.950980  0.267980  1.0  0.0442
  C  C138  1  0.120000  0.947670  0.201210  1.0  0.0648
  C  C139  1  0.116900  0.991900  0.383810  1.0  0.6768
  C  C140  1  0.365200  0.987370  0.114290  1.0  0.6808
  C  C141  1  0.177600  0.515680  0.186000  1.0  -0.0992
  C  C142  1  0.350700  0.490240  0.203720  1.0  -0.0846
  C  C143  1  0.406500  0.491160  0.269660  1.0  -0.0516
  C  C144  1  0.293900  0.519580  0.316770  1.0  -0.152
  C  C145  1  0.006500  0.589790  0.342280  1.0  -0.114
  C  C146  1  0.845700  0.621220  0.321690  1.0  -0.054
  C  C147  1  0.786300  0.617350  0.256100  1.0  -0.0822
  C  C148  1  0.890400  0.581910  0.212640  1.0  -0.1233
  C  C149  1  0.060100  0.549020  0.232020  1.0  0.0443
  C  C150  1  0.120000  0.552330  0.298790  1.0  0.0643
  C  C151  1  0.116900  0.508100  0.116190  1.0  0.6769
  C  C152  1  0.365200  0.512630  0.385710  1.0  0.6798
  O  O153  1  0.548400  0.105900  0.014880  1.0  -0.5744
  O  O154  1  0.265500  0.073440  0.975190  1.0  -0.5486
  O  O155  1  0.249200  0.432510  0.976180  1.0  -0.5629
  O  O156  1  0.965300  0.392590  0.005370  1.0  -0.57
  O  O157  1  0.548400  0.394100  0.485120  1.0  -0.5747
  O  O158  1  0.265500  0.426560  0.524810  1.0  -0.55
  O  O159  1  0.249200  0.067490  0.523820  1.0  -0.5634
  O  O160  1  0.965300  0.107410  0.494630  1.0  -0.5701
  O  O161  1  0.048400  0.985120  0.605900  1.0  -0.5724
  O  O162  1  0.765500  0.024810  0.573440  1.0  -0.5511
  O  O163  1  0.749200  0.023820  0.932510  1.0  -0.5638
  O  O164  1  0.465300  0.994630  0.892590  1.0  -0.5697
  O  O165  1  0.048400  0.514880  0.894100  1.0  -0.5747
  O  O166  1  0.765500  0.475190  0.926560  1.0  -0.55
  O  O167  1  0.749200  0.476180  0.567490  1.0  -0.5639
  O  O168  1  0.465300  0.505370  0.607410  1.0  -0.5705
  O  O169  1  0.451600  0.894100  0.985120  1.0  -0.5735
  O  O170  1  0.734500  0.926560  0.024810  1.0  -0.5496
  O  O171  1  0.750800  0.567490  0.023820  1.0  -0.5642
  O  O172  1  0.034700  0.607410  0.994630  1.0  -0.5723
  O  O173  1  0.451600  0.605900  0.514880  1.0  -0.5741
  O  O174  1  0.734500  0.573440  0.475190  1.0  -0.5481
  O  O175  1  0.750800  0.932510  0.476180  1.0  -0.564
  O  O176  1  0.034700  0.892590  0.505370  1.0  -0.5707
  O  O177  1  0.951600  0.014880  0.394100  1.0  -0.5733
  O  O178  1  0.234500  0.975190  0.426560  1.0  -0.5498
  O  O179  1  0.250800  0.976180  0.067490  1.0  -0.5642
  O  O180  1  0.534700  0.005370  0.107410  1.0  -0.5713
  O  O181  1  0.951600  0.485120  0.105900  1.0  -0.5721
  O  O182  1  0.234500  0.524810  0.073440  1.0  -0.5507
  O  O183  1  0.250800  0.523820  0.432510  1.0  -0.5638
  O  O184  1  0.534700  0.494630  0.392590  1.0  -0.5704
