# generated using pymatgen
data_ZnH14C18(NO2)2
_symmetry_space_group_name_H-M   'P 1'
_cell_length_a   13.73720000
_cell_length_b   14.77310000
_cell_length_c   21.07500000
_cell_angle_alpha   90.00000000
_cell_angle_beta   90.00000000
_cell_angle_gamma   90.00000000
_symmetry_Int_Tables_number   1
_chemical_formula_structural   ZnH14C18(NO2)2
_chemical_formula_sum   'Zn8 H112 C144 N16 O32'
_cell_volume   4276.98219292
_cell_formula_units_Z   8
loop_
 _symmetry_equiv_pos_site_id
 _symmetry_equiv_pos_as_xyz
  1  'x, y, z'
loop_
 _atom_site_type_symbol
 _atom_site_label
 _atom_site_symmetry_multiplicity
 _atom_site_fract_x
 _atom_site_fract_y
 _atom_site_fract_z
 _atom_site_occupancy
 _atom_site_charge
  Zn  Zn1  1  0.528770  0.097660  0.938390  1.0  0.894
  Zn  Zn2  1  0.471230  0.597660  0.561610  1.0  0.894
  Zn  Zn3  1  0.471230  0.902340  0.061610  1.0  0.8938
  Zn  Zn4  1  0.528770  0.402340  0.438390  1.0  0.8939
  Zn  Zn5  1  0.971230  0.902340  0.438390  1.0  0.8938
  Zn  Zn6  1  0.028770  0.402340  0.061610  1.0  0.8938
  Zn  Zn7  1  0.028770  0.097660  0.561610  1.0  0.894
  Zn  Zn8  1  0.971230  0.597660  0.938390  1.0  0.894
  H  H9  1  0.513400  0.365900  0.820100  1.0  0.1092
  H  H10  1  0.531600  0.222100  0.737000  1.0  0.1004
  H  H11  1  0.507900  0.410400  0.707500  1.0  0.097
  H  H12  1  0.529600  0.265800  0.625400  1.0  0.113
  H  H13  1  0.347000  0.030700  0.866500  1.0  0.0856
  H  H14  1  0.181000  0.027800  0.870400  1.0  0.1326
  H  H15  1  0.193200  0.172900  0.031800  1.0  0.1358
  H  H16  1  0.359600  0.173700  0.022600  1.0  0.0719
  H  H17  1  0.036400  0.129500  0.995100  1.0  0.1126
  H  H18  1  0.020600  0.044900  0.879000  1.0  0.1038
  H  H19  1  0.717500  0.148600  0.015000  1.0  0.0766
  H  H20  1  0.883100  0.141200  0.009700  1.0  0.1308
  H  H21  1  0.855100  0.014600  0.841300  1.0  0.127
  H  H22  1  0.689600  0.025700  0.852100  1.0  0.0896
  H  H23  1  0.486600  0.865900  0.679900  1.0  0.1102
  H  H24  1  0.468400  0.722100  0.763000  1.0  0.1009
  H  H25  1  0.492100  0.910400  0.792500  1.0  0.0969
  H  H26  1  0.470400  0.765800  0.874600  1.0  0.1143
  H  H27  1  0.653000  0.530700  0.633500  1.0  0.0854
  H  H28  1  0.819000  0.527800  0.629600  1.0  0.1329
  H  H29  1  0.806800  0.672900  0.468200  1.0  0.1363
  H  H30  1  0.640400  0.673700  0.477400  1.0  0.0723
  H  H31  1  0.963600  0.629500  0.504900  1.0  0.1126
  H  H32  1  0.979400  0.544900  0.621000  1.0  0.1039
  H  H33  1  0.282500  0.648600  0.485000  1.0  0.0771
  H  H34  1  0.116900  0.641200  0.490300  1.0  0.1315
  H  H35  1  0.144900  0.514600  0.658700  1.0  0.1266
  H  H36  1  0.310400  0.525700  0.647900  1.0  0.0902
  H  H37  1  0.486600  0.634100  0.179900  1.0  0.1123
  H  H38  1  0.468400  0.777900  0.263000  1.0  0.1007
  H  H39  1  0.492100  0.589600  0.292500  1.0  0.0972
  H  H40  1  0.470400  0.734200  0.374600  1.0  0.1123
  H  H41  1  0.653000  0.969300  0.133500  1.0  0.0854
  H  H42  1  0.819000  0.972200  0.129600  1.0  0.133
  H  H43  1  0.806800  0.827100  0.968200  1.0  0.1364
  H  H44  1  0.640400  0.826300  0.977400  1.0  0.0719
  H  H45  1  0.963600  0.870500  0.004900  1.0  0.1127
  H  H46  1  0.979400  0.955100  0.121000  1.0  0.1039
  H  H47  1  0.282500  0.851400  0.985000  1.0  0.0772
  H  H48  1  0.116900  0.858800  0.990300  1.0  0.1316
  H  H49  1  0.144900  0.985400  0.158700  1.0  0.1265
  H  H50  1  0.310400  0.974300  0.147900  1.0  0.0897
  H  H51  1  0.513400  0.134100  0.320100  1.0  0.1119
  H  H52  1  0.531600  0.277900  0.237000  1.0  0.1
  H  H53  1  0.507900  0.089600  0.207500  1.0  0.0969
  H  H54  1  0.529600  0.234200  0.125400  1.0  0.1111
  H  H55  1  0.347000  0.469300  0.366500  1.0  0.0853
  H  H56  1  0.181000  0.472200  0.370400  1.0  0.1327
  H  H57  1  0.193200  0.327100  0.531800  1.0  0.1356
  H  H58  1  0.359600  0.326300  0.522600  1.0  0.0722
  H  H59  1  0.036400  0.370500  0.495100  1.0  0.1128
  H  H60  1  0.020600  0.455100  0.379000  1.0  0.1037
  H  H61  1  0.717500  0.351400  0.515000  1.0  0.0767
  H  H62  1  0.883100  0.358800  0.509700  1.0  0.1313
  H  H63  1  0.855100  0.485400  0.341300  1.0  0.1266
  H  H64  1  0.689600  0.474300  0.352100  1.0  0.0895
  H  H65  1  0.986600  0.634100  0.320100  1.0  0.1116
  H  H66  1  0.968400  0.777900  0.237000  1.0  0.1006
  H  H67  1  0.992100  0.589600  0.207500  1.0  0.0968
  H  H68  1  0.970400  0.734200  0.125400  1.0  0.1116
  H  H69  1  0.153000  0.969300  0.366500  1.0  0.0854
  H  H70  1  0.319000  0.972200  0.370400  1.0  0.1325
  H  H71  1  0.306800  0.827100  0.531800  1.0  0.1364
  H  H72  1  0.140400  0.826300  0.522600  1.0  0.0721
  H  H73  1  0.463600  0.870500  0.495100  1.0  0.1128
  H  H74  1  0.479400  0.955100  0.379000  1.0  0.1037
  H  H75  1  0.782500  0.851400  0.515000  1.0  0.0768
  H  H76  1  0.616900  0.858800  0.509700  1.0  0.1315
  H  H77  1  0.644900  0.985400  0.341300  1.0  0.1266
  H  H78  1  0.810400  0.974300  0.352100  1.0  0.0893
  H  H79  1  0.013400  0.134100  0.179900  1.0  0.1125
  H  H80  1  0.031600  0.277900  0.263000  1.0  0.1001
  H  H81  1  0.007900  0.089600  0.292500  1.0  0.0971
  H  H82  1  0.029600  0.234200  0.374600  1.0  0.1122
  H  H83  1  0.847000  0.469300  0.133500  1.0  0.0853
  H  H84  1  0.681000  0.472200  0.129600  1.0  0.133
  H  H85  1  0.693200  0.327100  0.968200  1.0  0.1371
  H  H86  1  0.859600  0.326300  0.977400  1.0  0.072
  H  H87  1  0.536400  0.370500  0.004900  1.0  0.1128
  H  H88  1  0.520600  0.455100  0.121000  1.0  0.1039
  H  H89  1  0.217500  0.351400  0.985000  1.0  0.077
  H  H90  1  0.383100  0.358800  0.990300  1.0  0.1313
  H  H91  1  0.355100  0.485400  0.158700  1.0  0.1265
  H  H92  1  0.189600  0.474300  0.147900  1.0  0.0898
  H  H93  1  0.013400  0.365900  0.679900  1.0  0.1104
  H  H94  1  0.031600  0.222100  0.763000  1.0  0.1002
  H  H95  1  0.007900  0.410400  0.792500  1.0  0.0969
  H  H96  1  0.029600  0.265800  0.874600  1.0  0.1142
  H  H97  1  0.847000  0.030700  0.633500  1.0  0.0855
  H  H98  1  0.681000  0.027800  0.629600  1.0  0.1326
  H  H99  1  0.693200  0.172900  0.468200  1.0  0.1372
  H  H100  1  0.859600  0.173700  0.477400  1.0  0.0722
  H  H101  1  0.536400  0.129500  0.504900  1.0  0.1128
  H  H102  1  0.520600  0.044900  0.621000  1.0  0.1039
  H  H103  1  0.217500  0.148600  0.485000  1.0  0.0771
  H  H104  1  0.383100  0.141200  0.490300  1.0  0.1312
  H  H105  1  0.355100  0.014600  0.658700  1.0  0.1268
  H  H106  1  0.189600  0.025700  0.647900  1.0  0.0901
  H  H107  1  0.986600  0.865900  0.820100  1.0  0.109
  H  H108  1  0.968400  0.722100  0.737000  1.0  0.101
  H  H109  1  0.992100  0.910400  0.707500  1.0  0.097
  H  H110  1  0.970400  0.765800  0.625400  1.0  0.1135
  H  H111  1  0.153000  0.530700  0.866500  1.0  0.0855
  H  H112  1  0.319000  0.527800  0.870400  1.0  0.1326
  H  H113  1  0.306800  0.672900  0.031800  1.0  0.1364
  H  H114  1  0.140400  0.673700  0.022600  1.0  0.072
  H  H115  1  0.463600  0.629500  0.995100  1.0  0.1126
  H  H116  1  0.479400  0.544900  0.879000  1.0  0.1038
  H  H117  1  0.782500  0.648600  0.015000  1.0  0.0766
  H  H118  1  0.616900  0.641200  0.009700  1.0  0.1312
  H  H119  1  0.644900  0.514600  0.841300  1.0  0.1269
  H  H120  1  0.810400  0.525700  0.852100  1.0  0.0897
  C  C121  1  0.523300  0.235900  0.860940  1.0  0.6756
  C  C122  1  0.519200  0.304500  0.808920  1.0  -0.2677
  C  C123  1  0.523400  0.283400  0.747890  1.0  -0.0226
  C  C124  1  0.516200  0.349100  0.696800  1.0  -0.0144
  C  C125  1  0.520700  0.327000  0.636050  1.0  -0.2773
  C  C126  1  0.512400  0.393900  0.583760  1.0  0.6888
  C  C127  1  0.315600  0.059700  0.900500  1.0  0.1679
  C  C128  1  0.216200  0.057800  0.902300  1.0  -0.215
  C  C129  1  0.167600  0.100700  0.951700  1.0  0.1339
  C  C130  1  0.223200  0.143600  0.997380  1.0  -0.2051
  C  C131  1  0.323000  0.142900  0.991740  1.0  0.1775
  C  C132  1  0.061400  0.103200  0.957930  1.0  -0.0872
  C  C133  1  0.996600  0.071900  0.916260  1.0  -0.1199
  C  C134  1  0.746000  0.121000  0.979330  1.0  0.1684
  C  C135  1  0.845400  0.117000  0.976570  1.0  -0.2115
  C  C136  1  0.890700  0.076800  0.924290  1.0  0.1442
  C  C137  1  0.828800  0.042500  0.877520  1.0  -0.218
  C  C138  1  0.729400  0.049400  0.884350  1.0  0.172
  C  C139  1  0.476700  0.735900  0.639060  1.0  0.6764
  C  C140  1  0.480800  0.804500  0.691080  1.0  -0.2692
  C  C141  1  0.476600  0.783400  0.752110  1.0  -0.0226
  C  C142  1  0.483800  0.849100  0.803200  1.0  -0.0137
  C  C143  1  0.479300  0.827000  0.863950  1.0  -0.2771
  C  C144  1  0.487600  0.893900  0.916240  1.0  0.69
  C  C145  1  0.684400  0.559700  0.599500  1.0  0.1671
  C  C146  1  0.783800  0.557800  0.597700  1.0  -0.2154
  C  C147  1  0.832400  0.600700  0.548300  1.0  0.1341
  C  C148  1  0.776800  0.643600  0.502620  1.0  -0.2038
  C  C149  1  0.677000  0.642900  0.508260  1.0  0.1769
  C  C150  1  0.938600  0.603200  0.542070  1.0  -0.0872
  C  C151  1  0.003400  0.571900  0.583740  1.0  -0.1198
  C  C152  1  0.254000  0.621000  0.520670  1.0  0.1692
  C  C153  1  0.154600  0.617000  0.523430  1.0  -0.2119
  C  C154  1  0.109300  0.576800  0.575710  1.0  0.1453
  C  C155  1  0.171200  0.542500  0.622480  1.0  -0.2186
  C  C156  1  0.270600  0.549400  0.615650  1.0  0.1723
  C  C157  1  0.476700  0.764100  0.139060  1.0  0.6764
  C  C158  1  0.480800  0.695500  0.191080  1.0  -0.2692
  C  C159  1  0.476600  0.716600  0.252110  1.0  -0.0227
  C  C160  1  0.483800  0.650900  0.303200  1.0  -0.0145
  C  C161  1  0.479300  0.673000  0.363950  1.0  -0.2776
  C  C162  1  0.487600  0.606100  0.416240  1.0  0.6894
  C  C163  1  0.684400  0.940300  0.099500  1.0  0.1669
  C  C164  1  0.783800  0.942200  0.097700  1.0  -0.2147
  C  C165  1  0.832400  0.899300  0.048300  1.0  0.1335
  C  C166  1  0.776800  0.856400  0.002620  1.0  -0.2043
  C  C167  1  0.677000  0.857100  0.008260  1.0  0.1772
  C  C168  1  0.938600  0.896800  0.042070  1.0  -0.0873
  C  C169  1  0.003400  0.928100  0.083740  1.0  -0.1197
  C  C170  1  0.254000  0.879000  0.020670  1.0  0.1697
  C  C171  1  0.154600  0.883000  0.023430  1.0  -0.2119
  C  C172  1  0.109300  0.923200  0.075710  1.0  0.1455
  C  C173  1  0.171200  0.957500  0.122480  1.0  -0.2184
  C  C174  1  0.270600  0.950600  0.115650  1.0  0.172
  C  C175  1  0.523300  0.264100  0.360940  1.0  0.6756
  C  C176  1  0.519200  0.195500  0.308920  1.0  -0.2665
  C  C177  1  0.523400  0.216600  0.247890  1.0  -0.0226
  C  C178  1  0.516200  0.150900  0.196800  1.0  -0.0154
  C  C179  1  0.520700  0.173000  0.136050  1.0  -0.2771
  C  C180  1  0.512400  0.106100  0.083760  1.0  0.6886
  C  C181  1  0.315600  0.440300  0.400500  1.0  0.1681
  C  C182  1  0.216200  0.442200  0.402300  1.0  -0.2143
  C  C183  1  0.167600  0.399300  0.451700  1.0  0.134
  C  C184  1  0.223200  0.356400  0.497380  1.0  -0.2052
  C  C185  1  0.323000  0.357100  0.491740  1.0  0.1781
  C  C186  1  0.061400  0.396800  0.457930  1.0  -0.087
  C  C187  1  0.996600  0.428100  0.416260  1.0  -0.1195
  C  C188  1  0.746000  0.379000  0.479330  1.0  0.169
  C  C189  1  0.845400  0.383000  0.476570  1.0  -0.211
  C  C190  1  0.890700  0.423200  0.424290  1.0  0.1442
  C  C191  1  0.828800  0.457500  0.377520  1.0  -0.2178
  C  C192  1  0.729400  0.450600  0.384350  1.0  0.1721
  C  C193  1  0.976700  0.764100  0.360940  1.0  0.6758
  C  C194  1  0.980800  0.695500  0.308920  1.0  -0.2672
  C  C195  1  0.976600  0.716600  0.247890  1.0  -0.0229
  C  C196  1  0.983800  0.650900  0.196800  1.0  -0.0153
  C  C197  1  0.979300  0.673000  0.136050  1.0  -0.277
  C  C198  1  0.987600  0.606100  0.083760  1.0  0.6887
  C  C199  1  0.184400  0.940300  0.400500  1.0  0.1672
  C  C200  1  0.283800  0.942200  0.402300  1.0  -0.214
  C  C201  1  0.332400  0.899300  0.451700  1.0  0.134
  C  C202  1  0.276800  0.856400  0.497380  1.0  -0.2044
  C  C203  1  0.177000  0.857100  0.491740  1.0  0.1781
  C  C204  1  0.438600  0.896800  0.457930  1.0  -0.087
  C  C205  1  0.503400  0.928100  0.416260  1.0  -0.12
  C  C206  1  0.754000  0.879000  0.479330  1.0  0.1696
  C  C207  1  0.654600  0.883000  0.476570  1.0  -0.2115
  C  C208  1  0.609300  0.923200  0.424290  1.0  0.1446
  C  C209  1  0.671200  0.957500  0.377520  1.0  -0.2187
  C  C210  1  0.770600  0.950600  0.384350  1.0  0.172
  C  C211  1  0.023300  0.264100  0.139060  1.0  0.676
  C  C212  1  0.019200  0.195500  0.191080  1.0  -0.2687
  C  C213  1  0.023400  0.216600  0.252110  1.0  -0.0224
  C  C214  1  0.016200  0.150900  0.303200  1.0  -0.0145
  C  C215  1  0.020700  0.173000  0.363950  1.0  -0.2777
  C  C216  1  0.012400  0.106100  0.416240  1.0  0.6894
  C  C217  1  0.815600  0.440300  0.099500  1.0  0.1683
  C  C218  1  0.716200  0.442200  0.097700  1.0  -0.2156
  C  C219  1  0.667600  0.399300  0.048300  1.0  0.1336
  C  C220  1  0.723200  0.356400  0.002620  1.0  -0.2051
  C  C221  1  0.823000  0.357100  0.008260  1.0  0.1772
  C  C222  1  0.561400  0.396800  0.042070  1.0  -0.0876
  C  C223  1  0.496600  0.428100  0.083740  1.0  -0.1191
  C  C224  1  0.246000  0.379000  0.020670  1.0  0.169
  C  C225  1  0.345400  0.383000  0.023430  1.0  -0.2111
  C  C226  1  0.390700  0.423200  0.075710  1.0  0.1452
  C  C227  1  0.328800  0.457500  0.122480  1.0  -0.2169
  C  C228  1  0.229400  0.450600  0.115650  1.0  0.1713
  C  C229  1  0.023300  0.235900  0.639060  1.0  0.676
  C  C230  1  0.019200  0.304500  0.691080  1.0  -0.2691
  C  C231  1  0.023400  0.283400  0.752110  1.0  -0.0224
  C  C232  1  0.016200  0.349100  0.803200  1.0  -0.0136
  C  C233  1  0.020700  0.327000  0.863950  1.0  -0.2771
  C  C234  1  0.012400  0.393900  0.916240  1.0  0.69
  C  C235  1  0.815600  0.059700  0.599500  1.0  0.1684
  C  C236  1  0.716200  0.057800  0.597700  1.0  -0.2167
  C  C237  1  0.667600  0.100700  0.548300  1.0  0.1341
  C  C238  1  0.723200  0.143600  0.502620  1.0  -0.2046
  C  C239  1  0.823000  0.142900  0.508260  1.0  0.177
  C  C240  1  0.561400  0.103200  0.542070  1.0  -0.0877
  C  C241  1  0.496600  0.071900  0.583740  1.0  -0.1194
  C  C242  1  0.246000  0.121000  0.520670  1.0  0.1687
  C  C243  1  0.345400  0.117000  0.523430  1.0  -0.2115
  C  C244  1  0.390700  0.076800  0.575710  1.0  0.145
  C  C245  1  0.328800  0.042500  0.622480  1.0  -0.2169
  C  C246  1  0.229400  0.049400  0.615650  1.0  0.1715
  C  C247  1  0.976700  0.735900  0.860940  1.0  0.6759
  C  C248  1  0.980800  0.804500  0.808920  1.0  -0.268
  C  C249  1  0.976600  0.783400  0.747890  1.0  -0.0229
  C  C250  1  0.983800  0.849100  0.696800  1.0  -0.0145
  C  C251  1  0.979300  0.827000  0.636050  1.0  -0.2772
  C  C252  1  0.987600  0.893900  0.583760  1.0  0.6889
  C  C253  1  0.184400  0.559700  0.900500  1.0  0.167
  C  C254  1  0.283800  0.557800  0.902300  1.0  -0.2145
  C  C255  1  0.332400  0.600700  0.951700  1.0  0.1339
  C  C256  1  0.276800  0.643600  0.997380  1.0  -0.2044
  C  C257  1  0.177000  0.642900  0.991740  1.0  0.1775
  C  C258  1  0.438600  0.603200  0.957930  1.0  -0.087
  C  C259  1  0.503400  0.571900  0.916260  1.0  -0.1203
  C  C260  1  0.754000  0.621000  0.979330  1.0  0.169
  C  C261  1  0.654600  0.617000  0.976570  1.0  -0.2116
  C  C262  1  0.609300  0.576800  0.924290  1.0  0.1447
  C  C263  1  0.671200  0.542500  0.877520  1.0  -0.219
  C  C264  1  0.770600  0.549400  0.884350  1.0  0.1722
  N  N265  1  0.371440  0.100940  0.944910  1.0  -0.3286
  N  N266  1  0.686520  0.087910  0.934370  1.0  -0.3218
  N  N267  1  0.628560  0.600940  0.555090  1.0  -0.3278
  N  N268  1  0.313480  0.587910  0.565630  1.0  -0.3195
  N  N269  1  0.628560  0.899060  0.055090  1.0  -0.3275
  N  N270  1  0.313480  0.912090  0.065630  1.0  -0.3195
  N  N271  1  0.371440  0.399060  0.444910  1.0  -0.328
  N  N272  1  0.686520  0.412090  0.434370  1.0  -0.3215
  N  N273  1  0.128560  0.899060  0.444910  1.0  -0.3282
  N  N274  1  0.813480  0.912090  0.434370  1.0  -0.3198
  N  N275  1  0.871440  0.399060  0.055090  1.0  -0.3269
  N  N276  1  0.186520  0.412090  0.065630  1.0  -0.3212
  N  N277  1  0.871440  0.100940  0.555090  1.0  -0.3273
  N  N278  1  0.186520  0.087910  0.565630  1.0  -0.3211
  N  N279  1  0.128560  0.600940  0.944910  1.0  -0.3288
  N  N280  1  0.813480  0.587910  0.934370  1.0  -0.3203
  O  O281  1  0.525310  0.152670  0.846950  1.0  -0.619
  O  O282  1  0.525100  0.261860  0.916920  1.0  -0.6103
  O  O283  1  0.476730  0.469510  0.596230  1.0  -0.6
  O  O284  1  0.542490  0.367430  0.530340  1.0  -0.5955
  O  O285  1  0.474690  0.652670  0.653050  1.0  -0.6208
  O  O286  1  0.474900  0.761860  0.583080  1.0  -0.609
  O  O287  1  0.523270  0.969510  0.903770  1.0  -0.5997
  O  O288  1  0.457510  0.867430  0.969660  1.0  -0.5957
  O  O289  1  0.474690  0.847330  0.153050  1.0  -0.6207
  O  O290  1  0.474900  0.738140  0.083080  1.0  -0.609
  O  O291  1  0.523270  0.530490  0.403770  1.0  -0.5998
  O  O292  1  0.457510  0.632570  0.469660  1.0  -0.5964
  O  O293  1  0.525310  0.347330  0.346950  1.0  -0.6201
  O  O294  1  0.525100  0.238140  0.416920  1.0  -0.6102
  O  O295  1  0.476730  0.030490  0.096230  1.0  -0.6002
  O  O296  1  0.542490  0.132570  0.030340  1.0  -0.5958
  O  O297  1  0.974690  0.847330  0.346950  1.0  -0.6199
  O  O298  1  0.974900  0.738140  0.416920  1.0  -0.6097
  O  O299  1  0.023270  0.530490  0.096230  1.0  -0.6005
  O  O300  1  0.957510  0.632570  0.030340  1.0  -0.5959
  O  O301  1  0.025310  0.347330  0.153050  1.0  -0.6209
  O  O302  1  0.025100  0.238140  0.083080  1.0  -0.6095
  O  O303  1  0.976730  0.030490  0.403770  1.0  -0.5999
  O  O304  1  0.042490  0.132570  0.469660  1.0  -0.5963
  O  O305  1  0.025310  0.152670  0.653050  1.0  -0.6204
  O  O306  1  0.025100  0.261860  0.583080  1.0  -0.6095
  O  O307  1  0.976730  0.469510  0.903770  1.0  -0.5997
  O  O308  1  0.042490  0.367430  0.969660  1.0  -0.5957
  O  O309  1  0.974690  0.652670  0.846950  1.0  -0.6195
  O  O310  1  0.974900  0.761860  0.916920  1.0  -0.6098
  O  O311  1  0.023270  0.969510  0.596230  1.0  -0.6003
  O  O312  1  0.957510  0.867430  0.530340  1.0  -0.5955
