# generated using pymatgen
data_ZnH14C18(NO2)2
_symmetry_space_group_name_H-M   'P 1'
_cell_length_a   13.50000000
_cell_length_b   14.70200000
_cell_length_c   21.24500000
_cell_angle_alpha   90.00000000
_cell_angle_beta   90.00000000
_cell_angle_gamma   90.00000000
_symmetry_Int_Tables_number   1
_chemical_formula_structural   ZnH14C18(NO2)2
_chemical_formula_sum   'Zn8 H112 C144 N16 O32'
_cell_volume   4216.64386500
_cell_formula_units_Z   8
loop_
 _symmetry_equiv_pos_site_id
 _symmetry_equiv_pos_as_xyz
  1  'x, y, z'
loop_
 _atom_site_type_symbol
 _atom_site_label
 _atom_site_symmetry_multiplicity
 _atom_site_fract_x
 _atom_site_fract_y
 _atom_site_fract_z
 _atom_site_occupancy
 _atom_site_charge
  Zn  Zn1  1  0.501870  0.394810  0.568550  1.0  0.8953
  Zn  Zn2  1  0.498130  0.894810  0.931450  1.0  0.896
  Zn  Zn3  1  0.498130  0.605190  0.431450  1.0  0.8965
  Zn  Zn4  1  0.501870  0.105190  0.068550  1.0  0.8959
  Zn  Zn5  1  0.998130  0.605190  0.068550  1.0  0.8961
  Zn  Zn6  1  0.001870  0.105190  0.431450  1.0  0.8963
  Zn  Zn7  1  0.001870  0.394810  0.931450  1.0  0.8959
  Zn  Zn8  1  0.998130  0.894810  0.568550  1.0  0.8955
  H  H9  1  0.674100  0.471900  0.651100  1.0  0.0854
  H  H10  1  0.839000  0.508300  0.644100  1.0  0.1299
  H  H11  1  0.852400  0.367200  0.484100  1.0  0.1297
  H  H12  1  0.687600  0.334400  0.495700  1.0  0.0773
  H  H13  1  0.994400  0.512900  0.585400  1.0  0.0877
  H  H14  1  0.307600  0.463000  0.633000  1.0  0.0842
  H  H15  1  0.143000  0.482600  0.613700  1.0  0.1316
  H  H16  1  0.174700  0.327500  0.460300  1.0  0.1347
  H  H17  1  0.337900  0.309900  0.486200  1.0  0.07
  H  H18  1  0.006800  0.378800  0.491000  1.0  0.1063
  H  H19  1  0.517000  0.138400  0.690200  1.0  0.1149
  H  H20  1  0.505600  0.282700  0.771800  1.0  0.0997
  H  H21  1  0.516400  0.094300  0.801500  1.0  0.1017
  H  H22  1  0.500000  0.237700  0.882900  1.0  0.117
  H  H23  1  0.325900  0.971900  0.848900  1.0  0.0857
  H  H24  1  0.161000  0.008300  0.855900  1.0  0.1309
  H  H25  1  0.147600  0.867200  0.015900  1.0  0.128
  H  H26  1  0.312400  0.834400  0.004300  1.0  0.0776
  H  H27  1  0.005600  0.012900  0.914600  1.0  0.0865
  H  H28  1  0.692400  0.963000  0.867000  1.0  0.0851
  H  H29  1  0.857000  0.982600  0.886300  1.0  0.1319
  H  H30  1  0.825300  0.827500  0.039700  1.0  0.1345
  H  H31  1  0.662100  0.809900  0.013800  1.0  0.0702
  H  H32  1  0.993200  0.878800  0.009000  1.0  0.106
  H  H33  1  0.483000  0.638400  0.809800  1.0  0.1151
  H  H34  1  0.494400  0.782700  0.728200  1.0  0.1002
  H  H35  1  0.483600  0.594300  0.698500  1.0  0.1019
  H  H36  1  0.500000  0.737700  0.617100  1.0  0.1165
  H  H37  1  0.325900  0.528100  0.348900  1.0  0.0859
  H  H38  1  0.161000  0.491700  0.355900  1.0  0.1307
  H  H39  1  0.147600  0.632800  0.515900  1.0  0.128
  H  H40  1  0.312400  0.665600  0.504300  1.0  0.0771
  H  H41  1  0.005600  0.487100  0.414600  1.0  0.0867
  H  H42  1  0.692400  0.537000  0.367000  1.0  0.0852
  H  H43  1  0.857000  0.517400  0.386300  1.0  0.1317
  H  H44  1  0.825300  0.672500  0.539700  1.0  0.1343
  H  H45  1  0.662100  0.690100  0.513800  1.0  0.0698
  H  H46  1  0.993200  0.621200  0.509000  1.0  0.1058
  H  H47  1  0.483000  0.861600  0.309800  1.0  0.1134
  H  H48  1  0.494400  0.717300  0.228200  1.0  0.1002
  H  H49  1  0.483600  0.905700  0.198500  1.0  0.1016
  H  H50  1  0.500000  0.762300  0.117100  1.0  0.1183
  H  H51  1  0.674100  0.028100  0.151100  1.0  0.0855
  H  H52  1  0.839000  0.991700  0.144100  1.0  0.1298
  H  H53  1  0.852400  0.132800  0.984100  1.0  0.1293
  H  H54  1  0.687600  0.165600  0.995700  1.0  0.0772
  H  H55  1  0.994400  0.987100  0.085400  1.0  0.0881
  H  H56  1  0.307600  0.037000  0.133000  1.0  0.0844
  H  H57  1  0.143000  0.017400  0.113700  1.0  0.1314
  H  H58  1  0.174700  0.172500  0.960300  1.0  0.1347
  H  H59  1  0.337900  0.190100  0.986200  1.0  0.0702
  H  H60  1  0.006800  0.121200  0.991000  1.0  0.1063
  H  H61  1  0.517000  0.361600  0.190200  1.0  0.1141
  H  H62  1  0.505600  0.217300  0.271800  1.0  0.0998
  H  H63  1  0.516400  0.405700  0.301500  1.0  0.1013
  H  H64  1  0.500000  0.262300  0.382900  1.0  0.1186
  H  H65  1  0.825900  0.528100  0.151100  1.0  0.0857
  H  H66  1  0.661000  0.491700  0.144100  1.0  0.1297
  H  H67  1  0.647600  0.632800  0.984100  1.0  0.129
  H  H68  1  0.812400  0.665600  0.995700  1.0  0.0772
  H  H69  1  0.505600  0.487100  0.085400  1.0  0.0879
  H  H70  1  0.192400  0.537000  0.133000  1.0  0.0844
  H  H71  1  0.357000  0.517400  0.113700  1.0  0.1315
  H  H72  1  0.325300  0.672500  0.960300  1.0  0.1351
  H  H73  1  0.162100  0.690100  0.986200  1.0  0.0702
  H  H74  1  0.493200  0.621200  0.991000  1.0  0.1056
  H  H75  1  0.983000  0.861600  0.190200  1.0  0.1139
  H  H76  1  0.994400  0.717300  0.271800  1.0  0.1001
  H  H77  1  0.983600  0.905700  0.301500  1.0  0.1015
  H  H78  1  0.000000  0.762300  0.382900  1.0  0.1186
  H  H79  1  0.174100  0.028100  0.348900  1.0  0.0856
  H  H80  1  0.339000  0.991700  0.355900  1.0  0.1307
  H  H81  1  0.352400  0.132800  0.515900  1.0  0.1282
  H  H82  1  0.187600  0.165600  0.504300  1.0  0.0771
  H  H83  1  0.494400  0.987100  0.414600  1.0  0.0867
  H  H84  1  0.807600  0.037000  0.367000  1.0  0.0853
  H  H85  1  0.643000  0.017400  0.386300  1.0  0.1315
  H  H86  1  0.674700  0.172500  0.539700  1.0  0.1338
  H  H87  1  0.837900  0.190100  0.513800  1.0  0.0698
  H  H88  1  0.506800  0.121200  0.509000  1.0  0.1063
  H  H89  1  0.017000  0.361600  0.309800  1.0  0.1136
  H  H90  1  0.005600  0.217300  0.228200  1.0  0.1
  H  H91  1  0.016400  0.405700  0.198500  1.0  0.1014
  H  H92  1  0.000000  0.262300  0.117100  1.0  0.1184
  H  H93  1  0.174100  0.471900  0.848900  1.0  0.0856
  H  H94  1  0.339000  0.508300  0.855900  1.0  0.1308
  H  H95  1  0.352400  0.367200  0.015900  1.0  0.1284
  H  H96  1  0.187600  0.334400  0.004300  1.0  0.0776
  H  H97  1  0.494400  0.512900  0.914600  1.0  0.0865
  H  H98  1  0.807600  0.463000  0.867000  1.0  0.0851
  H  H99  1  0.643000  0.482600  0.886300  1.0  0.132
  H  H100  1  0.674700  0.327500  0.039700  1.0  0.134
  H  H101  1  0.837900  0.309900  0.013800  1.0  0.0703
  H  H102  1  0.506800  0.378800  0.009000  1.0  0.1064
  H  H103  1  0.017000  0.138400  0.809800  1.0  0.1153
  H  H104  1  0.005600  0.282700  0.728200  1.0  0.0999
  H  H105  1  0.016400  0.094300  0.698500  1.0  0.1015
  H  H106  1  0.000000  0.237700  0.617100  1.0  0.1166
  H  H107  1  0.825900  0.971900  0.651100  1.0  0.0854
  H  H108  1  0.661000  0.008300  0.644100  1.0  0.1298
  H  H109  1  0.647600  0.867200  0.484100  1.0  0.1291
  H  H110  1  0.812400  0.834400  0.495700  1.0  0.0773
  H  H111  1  0.505600  0.012900  0.585400  1.0  0.0875
  H  H112  1  0.192400  0.963000  0.633000  1.0  0.0841
  H  H113  1  0.357000  0.982600  0.613700  1.0  0.1315
  H  H114  1  0.325300  0.827500  0.460300  1.0  0.1352
  H  H115  1  0.162100  0.809900  0.486200  1.0  0.0699
  H  H116  1  0.493200  0.878800  0.491000  1.0  0.1057
  H  H117  1  0.983000  0.638400  0.690200  1.0  0.1148
  H  H118  1  0.994400  0.782700  0.771800  1.0  0.1001
  H  H119  1  0.983600  0.594300  0.801500  1.0  0.1019
  H  H120  1  0.000000  0.737700  0.882900  1.0  0.117
  C  C121  1  0.709800  0.452600  0.616200  1.0  0.1841
  C  C122  1  0.809100  0.475100  0.612100  1.0  -0.2261
  C  C123  1  0.863900  0.448300  0.560300  1.0  0.1169
  C  C124  1  0.817200  0.391800  0.517600  1.0  -0.2243
  C  C125  1  0.718100  0.372100  0.525000  1.0  0.1714
  C  C126  1  0.963400  0.490000  0.546900  1.0  -0.0583
  C  C127  1  0.280800  0.436700  0.597000  1.0  0.1776
  C  C128  1  0.181600  0.449500  0.585500  1.0  -0.2323
  C  C129  1  0.139400  0.412900  0.531800  1.0  0.1358
  C  C130  1  0.200200  0.357600  0.495200  1.0  -0.2229
  C  C131  1  0.299000  0.347700  0.511200  1.0  0.1803
  C  C132  1  0.038400  0.434500  0.506500  1.0  -0.0691
  C  C133  1  0.507600  0.268900  0.649800  1.0  0.668
  C  C134  1  0.512000  0.199500  0.701200  1.0  -0.2771
  C  C135  1  0.509100  0.221300  0.761300  1.0  -0.0155
  C  C136  1  0.511100  0.155400  0.812100  1.0  -0.0063
  C  C137  1  0.505800  0.176600  0.872100  1.0  -0.2993
  C  C138  1  0.508700  0.108600  0.923400  1.0  0.7166
  C  C139  1  0.290200  0.952600  0.883800  1.0  0.1843
  C  C140  1  0.190900  0.975100  0.887900  1.0  -0.2236
  C  C141  1  0.136100  0.948300  0.939700  1.0  0.1166
  C  C142  1  0.182800  0.891800  0.982400  1.0  -0.2238
  C  C143  1  0.281900  0.872100  0.975000  1.0  0.172
  C  C144  1  0.036600  0.990000  0.953100  1.0  -0.058
  C  C145  1  0.719200  0.936700  0.903000  1.0  0.1761
  C  C146  1  0.818400  0.949500  0.914500  1.0  -0.2349
  C  C147  1  0.860600  0.912900  0.968200  1.0  0.1356
  C  C148  1  0.799800  0.857600  0.004800  1.0  -0.2226
  C  C149  1  0.701000  0.847700  0.988800  1.0  0.1808
  C  C150  1  0.961600  0.934500  0.993500  1.0  -0.069
  C  C151  1  0.492400  0.768900  0.850200  1.0  0.6678
  C  C152  1  0.488000  0.699500  0.798800  1.0  -0.2761
  C  C153  1  0.490900  0.721300  0.738700  1.0  -0.015
  C  C154  1  0.488900  0.655400  0.687900  1.0  -0.0082
  C  C155  1  0.494200  0.676600  0.627900  1.0  -0.2992
  C  C156  1  0.491300  0.608600  0.576600  1.0  0.7161
  C  C157  1  0.290200  0.547400  0.383800  1.0  0.1842
  C  C158  1  0.190900  0.524900  0.387900  1.0  -0.2236
  C  C159  1  0.136100  0.551700  0.439700  1.0  0.1189
  C  C160  1  0.182800  0.608200  0.482400  1.0  -0.2256
  C  C161  1  0.281900  0.627900  0.475000  1.0  0.1716
  C  C162  1  0.036600  0.510000  0.453100  1.0  -0.0583
  C  C163  1  0.719200  0.563300  0.403000  1.0  0.1759
  C  C164  1  0.818400  0.550500  0.414500  1.0  -0.2352
  C  C165  1  0.860600  0.587100  0.468200  1.0  0.1354
  C  C166  1  0.799800  0.642400  0.504800  1.0  -0.2239
  C  C167  1  0.701000  0.652300  0.488800  1.0  0.1801
  C  C168  1  0.961600  0.565500  0.493500  1.0  -0.0705
  C  C169  1  0.492400  0.731100  0.350200  1.0  0.6678
  C  C170  1  0.488000  0.800500  0.298800  1.0  -0.2759
  C  C171  1  0.490900  0.778700  0.238700  1.0  -0.0147
  C  C172  1  0.488900  0.844600  0.187900  1.0  -0.0084
  C  C173  1  0.494200  0.823400  0.127900  1.0  -0.2988
  C  C174  1  0.491300  0.891400  0.076600  1.0  0.7164
  C  C175  1  0.709800  0.047400  0.116200  1.0  0.184
  C  C176  1  0.809100  0.024900  0.112100  1.0  -0.2262
  C  C177  1  0.863900  0.051700  0.060300  1.0  0.1173
  C  C178  1  0.817200  0.108200  0.017600  1.0  -0.2255
  C  C179  1  0.718100  0.127900  0.025000  1.0  0.1714
  C  C180  1  0.963400  0.010000  0.046900  1.0  -0.0589
  C  C181  1  0.280800  0.063300  0.097000  1.0  0.1775
  C  C182  1  0.181600  0.050500  0.085500  1.0  -0.2329
  C  C183  1  0.139400  0.087100  0.031800  1.0  0.1354
  C  C184  1  0.200200  0.142400  0.995200  1.0  -0.2239
  C  C185  1  0.299000  0.152300  0.011200  1.0  0.1801
  C  C186  1  0.038400  0.065500  0.006500  1.0  -0.0709
  C  C187  1  0.507600  0.231100  0.149800  1.0  0.6676
  C  C188  1  0.512000  0.300500  0.201200  1.0  -0.2761
  C  C189  1  0.509100  0.278700  0.261300  1.0  -0.0151
  C  C190  1  0.511100  0.344600  0.312100  1.0  -0.0071
  C  C191  1  0.505800  0.323400  0.372100  1.0  -0.2979
  C  C192  1  0.508700  0.391400  0.423400  1.0  0.7172
  C  C193  1  0.790200  0.547400  0.116200  1.0  0.1851
  C  C194  1  0.690900  0.524900  0.112100  1.0  -0.2253
  C  C195  1  0.636100  0.551700  0.060300  1.0  0.119
  C  C196  1  0.682800  0.608200  0.017600  1.0  -0.226
  C  C197  1  0.781900  0.627900  0.025000  1.0  0.1714
  C  C198  1  0.536600  0.510000  0.046900  1.0  -0.0583
  C  C199  1  0.219200  0.563300  0.097000  1.0  0.1762
  C  C200  1  0.318400  0.550500  0.085500  1.0  -0.234
  C  C201  1  0.360600  0.587100  0.031800  1.0  0.134
  C  C202  1  0.299800  0.642400  0.995200  1.0  -0.2228
  C  C203  1  0.201000  0.652300  0.011200  1.0  0.1801
  C  C204  1  0.461600  0.565500  0.006500  1.0  -0.0681
  C  C205  1  0.992400  0.731100  0.149800  1.0  0.6673
  C  C206  1  0.988000  0.800500  0.201200  1.0  -0.2766
  C  C207  1  0.990900  0.778700  0.261300  1.0  -0.015
  C  C208  1  0.988900  0.844600  0.312100  1.0  -0.0076
  C  C209  1  0.994200  0.823400  0.372100  1.0  -0.2977
  C  C210  1  0.991300  0.891400  0.423400  1.0  0.7164
  C  C211  1  0.209800  0.047400  0.383800  1.0  0.1838
  C  C212  1  0.309100  0.024900  0.387900  1.0  -0.225
  C  C213  1  0.363900  0.051700  0.439700  1.0  0.1181
  C  C214  1  0.317200  0.108200  0.482400  1.0  -0.2253
  C  C215  1  0.218100  0.127900  0.475000  1.0  0.1715
  C  C216  1  0.463400  0.010000  0.453100  1.0  -0.0588
  C  C217  1  0.780800  0.063300  0.403000  1.0  0.1765
  C  C218  1  0.681600  0.050500  0.414500  1.0  -0.2344
  C  C219  1  0.639400  0.087100  0.468200  1.0  0.1365
  C  C220  1  0.700200  0.142400  0.504800  1.0  -0.2249
  C  C221  1  0.799000  0.152300  0.488800  1.0  0.18
  C  C222  1  0.538400  0.065500  0.493500  1.0  -0.0686
  C  C223  1  0.007600  0.231100  0.350200  1.0  0.6681
  C  C224  1  0.012000  0.300500  0.298800  1.0  -0.2759
  C  C225  1  0.009100  0.278700  0.238700  1.0  -0.0148
  C  C226  1  0.011100  0.344600  0.187900  1.0  -0.0077
  C  C227  1  0.005800  0.323400  0.127900  1.0  -0.2991
  C  C228  1  0.008700  0.391400  0.076600  1.0  0.7168
  C  C229  1  0.209800  0.452600  0.883800  1.0  0.184
  C  C230  1  0.309100  0.475100  0.887900  1.0  -0.2252
  C  C231  1  0.363900  0.448300  0.939700  1.0  0.1161
  C  C232  1  0.317200  0.391800  0.982400  1.0  -0.2238
  C  C233  1  0.218100  0.372100  0.975000  1.0  0.1718
  C  C234  1  0.463400  0.490000  0.953100  1.0  -0.0588
  C  C235  1  0.780800  0.436700  0.903000  1.0  0.1766
  C  C236  1  0.681600  0.449500  0.914500  1.0  -0.2341
  C  C237  1  0.639400  0.412900  0.968200  1.0  0.1364
  C  C238  1  0.700200  0.357600  0.004800  1.0  -0.2235
  C  C239  1  0.799000  0.347700  0.988800  1.0  0.1806
  C  C240  1  0.538400  0.434500  0.993500  1.0  -0.0715
  C  C241  1  0.007600  0.268900  0.850200  1.0  0.6681
  C  C242  1  0.012000  0.199500  0.798800  1.0  -0.2763
  C  C243  1  0.009100  0.221300  0.738700  1.0  -0.0152
  C  C244  1  0.011100  0.155400  0.687900  1.0  -0.0073
  C  C245  1  0.005800  0.176600  0.627900  1.0  -0.2993
  C  C246  1  0.008700  0.108600  0.576600  1.0  0.7167
  C  C247  1  0.790200  0.952600  0.616200  1.0  0.185
  C  C248  1  0.690900  0.975100  0.612100  1.0  -0.225
  C  C249  1  0.636100  0.948300  0.560300  1.0  0.1182
  C  C250  1  0.682800  0.891800  0.517600  1.0  -0.2247
  C  C251  1  0.781900  0.872100  0.525000  1.0  0.1716
  C  C252  1  0.536600  0.990000  0.546900  1.0  -0.0575
  C  C253  1  0.219200  0.936700  0.597000  1.0  0.1763
  C  C254  1  0.318400  0.949500  0.585500  1.0  -0.2335
  C  C255  1  0.360600  0.912900  0.531800  1.0  0.1349
  C  C256  1  0.299800  0.857600  0.495200  1.0  -0.2222
  C  C257  1  0.201000  0.847700  0.511200  1.0  0.1805
  C  C258  1  0.461600  0.934500  0.506500  1.0  -0.071
  C  C259  1  0.992400  0.768900  0.649800  1.0  0.6678
  C  C260  1  0.988000  0.699500  0.701200  1.0  -0.2773
  C  C261  1  0.990900  0.721300  0.761300  1.0  -0.0154
  C  C262  1  0.988900  0.655400  0.812100  1.0  -0.007
  C  C263  1  0.994200  0.676600  0.872100  1.0  -0.2992
  C  C264  1  0.991300  0.608600  0.923400  1.0  0.7161
  N  N265  1  0.663600  0.405000  0.572800  1.0  -0.3274
  N  N266  1  0.341800  0.388400  0.559600  1.0  -0.3274
  N  N267  1  0.336400  0.905000  0.927200  1.0  -0.3266
  N  N268  1  0.658200  0.888400  0.940400  1.0  -0.3286
  N  N269  1  0.336400  0.595000  0.427200  1.0  -0.3267
  N  N270  1  0.658200  0.611600  0.440400  1.0  -0.3286
  N  N271  1  0.663600  0.095000  0.072800  1.0  -0.3278
  N  N272  1  0.341800  0.111600  0.059600  1.0  -0.328
  N  N273  1  0.836400  0.595000  0.072800  1.0  -0.3265
  N  N274  1  0.158200  0.611600  0.059600  1.0  -0.3293
  N  N275  1  0.163600  0.095000  0.427200  1.0  -0.3278
  N  N276  1  0.841800  0.111600  0.440400  1.0  -0.3284
  N  N277  1  0.163600  0.405000  0.927200  1.0  -0.3282
  N  N278  1  0.841800  0.388400  0.940400  1.0  -0.3284
  N  N279  1  0.836400  0.905000  0.572800  1.0  -0.3253
  N  N280  1  0.158200  0.888400  0.559600  1.0  -0.3288
  O  O281  1  0.498900  0.352000  0.663640  1.0  -0.6135
  O  O282  1  0.511100  0.242000  0.594300  1.0  -0.6037
  O  O283  1  0.513300  0.142100  0.977440  1.0  -0.603
  O  O284  1  0.507900  0.027700  0.908800  1.0  -0.6075
  O  O285  1  0.501100  0.852000  0.836360  1.0  -0.6133
  O  O286  1  0.488900  0.742000  0.905700  1.0  -0.6038
  O  O287  1  0.486700  0.642100  0.522560  1.0  -0.6024
  O  O288  1  0.492100  0.527700  0.591200  1.0  -0.6074
  O  O289  1  0.501100  0.648000  0.336360  1.0  -0.6139
  O  O290  1  0.488900  0.758000  0.405700  1.0  -0.6035
  O  O291  1  0.486700  0.857900  0.022560  1.0  -0.6025
  O  O292  1  0.492100  0.972300  0.091200  1.0  -0.6068
  O  O293  1  0.498900  0.148000  0.163640  1.0  -0.6139
  O  O294  1  0.511100  0.258000  0.094300  1.0  -0.6036
  O  O295  1  0.513300  0.357900  0.477440  1.0  -0.6033
  O  O296  1  0.507900  0.472300  0.408800  1.0  -0.6069
  O  O297  1  0.001100  0.648000  0.163640  1.0  -0.6131
  O  O298  1  0.988900  0.758000  0.094300  1.0  -0.6042
  O  O299  1  0.986700  0.857900  0.477440  1.0  -0.6034
  O  O300  1  0.992100  0.972300  0.408800  1.0  -0.6069
  O  O301  1  0.998900  0.148000  0.336360  1.0  -0.6145
  O  O302  1  0.011100  0.258000  0.405700  1.0  -0.6039
  O  O303  1  0.013300  0.357900  0.022560  1.0  -0.6025
  O  O304  1  0.007900  0.472300  0.091200  1.0  -0.6067
  O  O305  1  0.998900  0.352000  0.836360  1.0  -0.6134
  O  O306  1  0.011100  0.242000  0.905700  1.0  -0.604
  O  O307  1  0.013300  0.142100  0.522560  1.0  -0.6023
  O  O308  1  0.007900  0.027700  0.591200  1.0  -0.6073
  O  O309  1  0.001100  0.852000  0.663640  1.0  -0.6127
  O  O310  1  0.988900  0.742000  0.594300  1.0  -0.6042
  O  O311  1  0.986700  0.642100  0.977440  1.0  -0.6031
  O  O312  1  0.992100  0.527700  0.908800  1.0  -0.6075
