# generated using pymatgen
data_ZnH14C20(NO2)2
_symmetry_space_group_name_H-M   'P 1'
_cell_length_a   13.57070000
_cell_length_b   15.00600000
_cell_length_c   20.07400000
_cell_angle_alpha   90.00000000
_cell_angle_beta   90.00000000
_cell_angle_gamma   90.00000000
_symmetry_Int_Tables_number   1
_chemical_formula_structural   ZnH14C20(NO2)2
_chemical_formula_sum   'Zn8 H112 C160 N16 O32'
_cell_volume   4087.90798639
_cell_formula_units_Z   8
loop_
 _symmetry_equiv_pos_site_id
 _symmetry_equiv_pos_as_xyz
  1  'x, y, z'
loop_
 _atom_site_type_symbol
 _atom_site_label
 _atom_site_symmetry_multiplicity
 _atom_site_fract_x
 _atom_site_fract_y
 _atom_site_fract_z
 _atom_site_occupancy
 _atom_site_charge
  Zn  Zn1  1  0.497520  0.609740  0.564870  1.0  0.9183
  Zn  Zn2  1  0.502480  0.109740  0.935130  1.0  0.9196
  Zn  Zn3  1  0.502480  0.390260  0.435130  1.0  0.9195
  Zn  Zn4  1  0.497520  0.890260  0.064870  1.0  0.9186
  Zn  Zn5  1  0.002480  0.390260  0.064870  1.0  0.9179
  Zn  Zn6  1  0.997520  0.890260  0.435130  1.0  0.9194
  Zn  Zn7  1  0.997520  0.609740  0.935130  1.0  0.9201
  Zn  Zn8  1  0.002480  0.109740  0.564870  1.0  0.9186
  H  H9  1  0.687000  0.539600  0.634500  1.0  0.0827
  H  H10  1  0.853600  0.518500  0.616100  1.0  0.1247
  H  H11  1  0.830700  0.673600  0.455000  1.0  0.1299
  H  H12  1  0.666200  0.689000  0.477800  1.0  0.0639
  H  H13  1  0.991600  0.617800  0.484100  1.0  0.0986
  H  H14  1  0.309000  0.667600  0.489300  1.0  0.068
  H  H15  1  0.144900  0.636300  0.479700  1.0  0.1244
  H  H16  1  0.163800  0.499500  0.650200  1.0  0.1216
  H  H17  1  0.328600  0.534600  0.654300  1.0  0.0782
  H  H18  1  0.006900  0.496400  0.590200  1.0  0.1008
  H  H19  1  0.503700  0.654900  0.784800  1.0  0.0995
  H  H20  1  0.500800  0.722500  0.888100  1.0  0.0909
  H  H21  1  0.489200  0.963600  0.798900  1.0  0.1144
  H  H22  1  0.492600  0.893200  0.696300  1.0  0.0887
  H  H23  1  0.313000  0.039600  0.865500  1.0  0.0827
  H  H24  1  0.146400  0.018500  0.883900  1.0  0.124
  H  H25  1  0.169300  0.173600  0.045000  1.0  0.1292
  H  H26  1  0.333800  0.189000  0.022200  1.0  0.0637
  H  H27  1  0.008400  0.117800  0.015900  1.0  0.0982
  H  H28  1  0.691000  0.167600  0.010700  1.0  0.0678
  H  H29  1  0.855100  0.136300  0.020300  1.0  0.1249
  H  H30  1  0.836200  0.999500  0.849800  1.0  0.1223
  H  H31  1  0.671400  0.034600  0.845700  1.0  0.0782
  H  H32  1  0.993100  0.996400  0.909800  1.0  0.0996
  H  H33  1  0.496300  0.154900  0.715200  1.0  0.1003
  H  H34  1  0.499200  0.222500  0.611900  1.0  0.0915
  H  H35  1  0.510800  0.463600  0.701100  1.0  0.1141
  H  H36  1  0.507400  0.393200  0.803700  1.0  0.0884
  H  H37  1  0.313000  0.460400  0.365500  1.0  0.0825
  H  H38  1  0.146400  0.481500  0.383900  1.0  0.1238
  H  H39  1  0.169300  0.326400  0.545000  1.0  0.1295
  H  H40  1  0.333800  0.311000  0.522200  1.0  0.0639
  H  H41  1  0.008400  0.382200  0.515900  1.0  0.0982
  H  H42  1  0.691000  0.332400  0.510700  1.0  0.068
  H  H43  1  0.855100  0.363700  0.520300  1.0  0.1253
  H  H44  1  0.836200  0.500500  0.349800  1.0  0.1223
  H  H45  1  0.671400  0.465400  0.345700  1.0  0.0784
  H  H46  1  0.993100  0.503600  0.409800  1.0  0.0995
  H  H47  1  0.496300  0.345100  0.215200  1.0  0.0996
  H  H48  1  0.499200  0.277500  0.111900  1.0  0.0913
  H  H49  1  0.510800  0.036400  0.201100  1.0  0.1138
  H  H50  1  0.507400  0.106800  0.303700  1.0  0.0882
  H  H51  1  0.687000  0.960400  0.134500  1.0  0.0827
  H  H52  1  0.853600  0.981500  0.116100  1.0  0.125
  H  H53  1  0.830700  0.826400  0.955000  1.0  0.1299
  H  H54  1  0.666200  0.811000  0.977800  1.0  0.0634
  H  H55  1  0.991600  0.882200  0.984100  1.0  0.0988
  H  H56  1  0.309000  0.832400  0.989300  1.0  0.0678
  H  H57  1  0.144900  0.863700  0.979700  1.0  0.1246
  H  H58  1  0.163800  0.000500  0.150200  1.0  0.1215
  H  H59  1  0.328600  0.965400  0.154300  1.0  0.0782
  H  H60  1  0.006900  0.003600  0.090200  1.0  0.1005
  H  H61  1  0.503700  0.845100  0.284800  1.0  0.0992
  H  H62  1  0.500800  0.777500  0.388100  1.0  0.0906
  H  H63  1  0.489200  0.536400  0.298900  1.0  0.1139
  H  H64  1  0.492600  0.606800  0.196300  1.0  0.0887
  H  H65  1  0.813000  0.460400  0.134500  1.0  0.0828
  H  H66  1  0.646400  0.481500  0.116100  1.0  0.1244
  H  H67  1  0.669300  0.326400  0.955000  1.0  0.1295
  H  H68  1  0.833800  0.311000  0.977800  1.0  0.0636
  H  H69  1  0.508400  0.382200  0.984100  1.0  0.0985
  H  H70  1  0.191000  0.332400  0.989300  1.0  0.0678
  H  H71  1  0.355100  0.363700  0.979700  1.0  0.1255
  H  H72  1  0.336200  0.500500  0.150200  1.0  0.1222
  H  H73  1  0.171400  0.465400  0.154300  1.0  0.0783
  H  H74  1  0.493100  0.503600  0.090200  1.0  0.1001
  H  H75  1  0.996300  0.345100  0.284800  1.0  0.0993
  H  H76  1  0.999200  0.277500  0.388100  1.0  0.0907
  H  H77  1  0.010800  0.036400  0.298900  1.0  0.1135
  H  H78  1  0.007400  0.106800  0.196300  1.0  0.0885
  H  H79  1  0.187000  0.960400  0.365500  1.0  0.0823
  H  H80  1  0.353600  0.981500  0.383900  1.0  0.1242
  H  H81  1  0.330700  0.826400  0.545000  1.0  0.1298
  H  H82  1  0.166200  0.811000  0.522200  1.0  0.0636
  H  H83  1  0.491600  0.882200  0.515900  1.0  0.0987
  H  H84  1  0.809000  0.832400  0.510700  1.0  0.0681
  H  H85  1  0.644900  0.863700  0.520300  1.0  0.124
  H  H86  1  0.663800  0.000500  0.349800  1.0  0.1218
  H  H87  1  0.828600  0.965400  0.345700  1.0  0.0783
  H  H88  1  0.506900  0.003600  0.409800  1.0  0.0997
  H  H89  1  0.003700  0.845100  0.215200  1.0  0.0995
  H  H90  1  0.000800  0.777500  0.111900  1.0  0.0912
  H  H91  1  0.989200  0.536400  0.201100  1.0  0.1141
  H  H92  1  0.992600  0.606800  0.303700  1.0  0.088
  H  H93  1  0.187000  0.539600  0.865500  1.0  0.0824
  H  H94  1  0.353600  0.518500  0.883900  1.0  0.1242
  H  H95  1  0.330700  0.673600  0.045000  1.0  0.1295
  H  H96  1  0.166200  0.689000  0.022200  1.0  0.0635
  H  H97  1  0.491600  0.617800  0.015900  1.0  0.0984
  H  H98  1  0.809000  0.667600  0.010700  1.0  0.0678
  H  H99  1  0.644900  0.636300  0.020300  1.0  0.1241
  H  H100  1  0.663800  0.499500  0.849800  1.0  0.1218
  H  H101  1  0.828600  0.534600  0.845700  1.0  0.0784
  H  H102  1  0.506900  0.496400  0.909800  1.0  0.0997
  H  H103  1  0.003700  0.654900  0.715200  1.0  0.0998
  H  H104  1  0.000800  0.722500  0.611900  1.0  0.0914
  H  H105  1  0.989200  0.963600  0.701100  1.0  0.1144
  H  H106  1  0.992600  0.893200  0.803700  1.0  0.088
  H  H107  1  0.813000  0.039600  0.634500  1.0  0.0828
  H  H108  1  0.646400  0.018500  0.616100  1.0  0.1242
  H  H109  1  0.669300  0.173600  0.455000  1.0  0.1297
  H  H110  1  0.833800  0.189000  0.477800  1.0  0.0639
  H  H111  1  0.508400  0.117800  0.484100  1.0  0.0986
  H  H112  1  0.191000  0.167600  0.489300  1.0  0.0681
  H  H113  1  0.355100  0.136300  0.479700  1.0  0.1251
  H  H114  1  0.336200  0.999500  0.650200  1.0  0.1222
  H  H115  1  0.171400  0.034600  0.654300  1.0  0.0782
  H  H116  1  0.493100  0.996400  0.590200  1.0  0.1003
  H  H117  1  0.996300  0.154900  0.784800  1.0  0.1
  H  H118  1  0.999200  0.222500  0.888100  1.0  0.0909
  H  H119  1  0.010800  0.463600  0.798900  1.0  0.1141
  H  H120  1  0.007400  0.393200  0.696300  1.0  0.0886
  C  C121  1  0.715600  0.564600  0.596800  1.0  0.1722
  C  C122  1  0.816400  0.551300  0.585900  1.0  -0.1875
  C  C123  1  0.859900  0.587300  0.530100  1.0  0.0617
  C  C124  1  0.802800  0.643000  0.490600  1.0  -0.2393
  C  C125  1  0.703700  0.652100  0.505100  1.0  0.1815
  C  C126  1  0.961200  0.564700  0.503900  1.0  -0.0988
  C  C127  1  0.279600  0.631300  0.521200  1.0  0.161
  C  C128  1  0.181000  0.612300  0.514700  1.0  -0.1972
  C  C129  1  0.135800  0.556900  0.560900  1.0  0.0862
  C  C130  1  0.192400  0.531300  0.615500  1.0  -0.1898
  C  C131  1  0.291500  0.553500  0.618000  1.0  0.1794
  C  C132  1  0.037300  0.515300  0.548300  1.0  -0.0989
  C  C133  1  0.499300  0.721500  0.663300  1.0  0.6435
  C  C134  1  0.497600  0.767500  0.730800  1.0  -0.1164
  C  C135  1  0.500500  0.716600  0.787900  1.0  -0.036
  C  C136  1  0.498700  0.757000  0.849700  1.0  -0.0194
  C  C137  1  0.493800  0.849400  0.854400  1.0  -0.1351
  C  C138  1  0.491800  0.901700  0.796300  1.0  -0.0399
  C  C139  1  0.493800  0.859300  0.735100  1.0  -0.0362
  C  C140  1  0.491700  0.893600  0.921700  1.0  0.656
  C  C141  1  0.284400  0.064600  0.903200  1.0  0.1716
  C  C142  1  0.183600  0.051300  0.914100  1.0  -0.1872
  C  C143  1  0.140100  0.087300  0.969900  1.0  0.0645
  C  C144  1  0.197200  0.143000  0.009400  1.0  -0.2416
  C  C145  1  0.296300  0.152100  0.994900  1.0  0.1818
  C  C146  1  0.038800  0.064700  0.996100  1.0  -0.0989
  C  C147  1  0.720400  0.131300  0.978800  1.0  0.161
  C  C148  1  0.819000  0.112300  0.985300  1.0  -0.1953
  C  C149  1  0.864200  0.056900  0.939100  1.0  0.084
  C  C150  1  0.807600  0.031300  0.884500  1.0  -0.1899
  C  C151  1  0.708500  0.053500  0.882000  1.0  0.1781
  C  C152  1  0.962700  0.015300  0.951700  1.0  -0.0989
  C  C153  1  0.500700  0.221500  0.836700  1.0  0.6435
  C  C154  1  0.502400  0.267500  0.769200  1.0  -0.1142
  C  C155  1  0.499500  0.216600  0.712100  1.0  -0.0354
  C  C156  1  0.501300  0.257000  0.650300  1.0  -0.019
  C  C157  1  0.506200  0.349400  0.645600  1.0  -0.1347
  C  C158  1  0.508200  0.401700  0.703700  1.0  -0.039
  C  C159  1  0.506200  0.359300  0.764900  1.0  -0.0366
  C  C160  1  0.508300  0.393600  0.578300  1.0  0.6566
  C  C161  1  0.284400  0.435400  0.403200  1.0  0.1721
  C  C162  1  0.183600  0.448700  0.414100  1.0  -0.1868
  C  C163  1  0.140100  0.412700  0.469900  1.0  0.0635
  C  C164  1  0.197200  0.357000  0.509400  1.0  -0.2393
  C  C165  1  0.296300  0.347900  0.494900  1.0  0.1822
  C  C166  1  0.038800  0.435300  0.496100  1.0  -0.1007
  C  C167  1  0.720400  0.368700  0.478800  1.0  0.1619
  C  C168  1  0.819000  0.387700  0.485300  1.0  -0.1943
  C  C169  1  0.864200  0.443100  0.439100  1.0  0.0831
  C  C170  1  0.807600  0.468700  0.384500  1.0  -0.1898
  C  C171  1  0.708500  0.446500  0.382000  1.0  0.1781
  C  C172  1  0.962700  0.484700  0.451700  1.0  -0.0995
  C  C173  1  0.500700  0.278500  0.336700  1.0  0.6434
  C  C174  1  0.502400  0.232500  0.269200  1.0  -0.1144
  C  C175  1  0.499500  0.283400  0.212100  1.0  -0.0367
  C  C176  1  0.501300  0.243000  0.150300  1.0  -0.0192
  C  C177  1  0.506200  0.150600  0.145600  1.0  -0.1345
  C  C178  1  0.508200  0.098300  0.203700  1.0  -0.0402
  C  C179  1  0.506200  0.140700  0.264900  1.0  -0.037
  C  C180  1  0.508300  0.106400  0.078300  1.0  0.6569
  C  C181  1  0.715600  0.935400  0.096800  1.0  0.1724
  C  C182  1  0.816400  0.948700  0.085900  1.0  -0.187
  C  C183  1  0.859900  0.912700  0.030100  1.0  0.062
  C  C184  1  0.802800  0.857000  0.990600  1.0  -0.2384
  C  C185  1  0.703700  0.847900  0.005100  1.0  0.1815
  C  C186  1  0.961200  0.935300  0.003900  1.0  -0.1006
  C  C187  1  0.279600  0.868700  0.021200  1.0  0.1618
  C  C188  1  0.181000  0.887700  0.014700  1.0  -0.1967
  C  C189  1  0.135800  0.943100  0.060900  1.0  0.0854
  C  C190  1  0.192400  0.968700  0.115500  1.0  -0.1897
  C  C191  1  0.291500  0.946500  0.118000  1.0  0.1793
  C  C192  1  0.037300  0.984700  0.048300  1.0  -0.0989
  C  C193  1  0.499300  0.778500  0.163300  1.0  0.6436
  C  C194  1  0.497600  0.732500  0.230800  1.0  -0.116
  C  C195  1  0.500500  0.783400  0.287900  1.0  -0.0374
  C  C196  1  0.498700  0.743000  0.349700  1.0  -0.0193
  C  C197  1  0.493800  0.650600  0.354400  1.0  -0.1355
  C  C198  1  0.491800  0.598300  0.296300  1.0  -0.0415
  C  C199  1  0.493800  0.640700  0.235100  1.0  -0.0364
  C  C200  1  0.491700  0.606400  0.421700  1.0  0.6563
  C  C201  1  0.784400  0.435400  0.096800  1.0  0.173
  C  C202  1  0.683600  0.448700  0.085900  1.0  -0.1865
  C  C203  1  0.640100  0.412700  0.030100  1.0  0.0631
  C  C204  1  0.697200  0.357000  0.990600  1.0  -0.2391
  C  C205  1  0.796300  0.347900  0.005100  1.0  0.1816
  C  C206  1  0.538800  0.435300  0.003900  1.0  -0.0991
  C  C207  1  0.220400  0.368700  0.021200  1.0  0.1616
  C  C208  1  0.319000  0.387700  0.014700  1.0  -0.1955
  C  C209  1  0.364200  0.443100  0.060900  1.0  0.0842
  C  C210  1  0.307600  0.468700  0.115500  1.0  -0.1893
  C  C211  1  0.208500  0.446500  0.118000  1.0  0.1775
  C  C212  1  0.462700  0.484700  0.048300  1.0  -0.0988
  C  C213  1  0.000700  0.278500  0.163300  1.0  0.6445
  C  C214  1  0.002400  0.232500  0.230800  1.0  -0.116
  C  C215  1  0.999500  0.283400  0.287900  1.0  -0.0374
  C  C216  1  0.001300  0.243000  0.349700  1.0  -0.0194
  C  C217  1  0.006200  0.150600  0.354400  1.0  -0.1358
  C  C218  1  0.008200  0.098300  0.296300  1.0  -0.0411
  C  C219  1  0.006200  0.140700  0.235100  1.0  -0.0368
  C  C220  1  0.008300  0.106400  0.421700  1.0  0.6561
  C  C221  1  0.215600  0.935400  0.403200  1.0  0.1728
  C  C222  1  0.316400  0.948700  0.414100  1.0  -0.1868
  C  C223  1  0.359900  0.912700  0.469900  1.0  0.0624
  C  C224  1  0.302800  0.857000  0.509400  1.0  -0.2385
  C  C225  1  0.203700  0.847900  0.494900  1.0  0.1821
  C  C226  1  0.461200  0.935300  0.496100  1.0  -0.0991
  C  C227  1  0.779600  0.868700  0.478800  1.0  0.1622
  C  C228  1  0.681000  0.887700  0.485300  1.0  -0.1957
  C  C229  1  0.635800  0.943100  0.439100  1.0  0.0844
  C  C230  1  0.692400  0.968700  0.384500  1.0  -0.1895
  C  C231  1  0.791500  0.946500  0.382000  1.0  0.1785
  C  C232  1  0.537300  0.984700  0.451700  1.0  -0.0996
  C  C233  1  0.999300  0.778500  0.336700  1.0  0.6427
  C  C234  1  0.997600  0.732500  0.269200  1.0  -0.1146
  C  C235  1  0.000500  0.783400  0.212100  1.0  -0.0368
  C  C236  1  0.998700  0.743000  0.150300  1.0  -0.0191
  C  C237  1  0.993800  0.650600  0.145600  1.0  -0.1341
  C  C238  1  0.991800  0.598300  0.203700  1.0  -0.0405
  C  C239  1  0.993800  0.640700  0.264900  1.0  -0.0366
  C  C240  1  0.991700  0.606400  0.078300  1.0  0.657
  C  C241  1  0.215600  0.564600  0.903200  1.0  0.1723
  C  C242  1  0.316400  0.551300  0.914100  1.0  -0.1875
  C  C243  1  0.359900  0.587300  0.969900  1.0  0.0632
  C  C244  1  0.302800  0.643000  0.009400  1.0  -0.2405
  C  C245  1  0.203700  0.652100  0.994900  1.0  0.1818
  C  C246  1  0.461200  0.564700  0.996100  1.0  -0.1004
  C  C247  1  0.779600  0.631300  0.978800  1.0  0.1613
  C  C248  1  0.681000  0.612300  0.985300  1.0  -0.1967
  C  C249  1  0.635800  0.556900  0.939100  1.0  0.0854
  C  C250  1  0.692400  0.531300  0.884500  1.0  -0.1893
  C  C251  1  0.791500  0.553500  0.882000  1.0  0.1786
  C  C252  1  0.537300  0.515300  0.951700  1.0  -0.0994
  C  C253  1  0.999300  0.721500  0.836700  1.0  0.6427
  C  C254  1  0.997600  0.767500  0.769200  1.0  -0.1143
  C  C255  1  0.000500  0.716600  0.712100  1.0  -0.0355
  C  C256  1  0.998700  0.757000  0.650300  1.0  -0.0189
  C  C257  1  0.993800  0.849400  0.645600  1.0  -0.1342
  C  C258  1  0.991800  0.901700  0.703700  1.0  -0.0394
  C  C259  1  0.993800  0.859300  0.764900  1.0  -0.0362
  C  C260  1  0.991700  0.893600  0.578300  1.0  0.6568
  C  C261  1  0.784400  0.064600  0.596800  1.0  0.1729
  C  C262  1  0.683600  0.051300  0.585900  1.0  -0.187
  C  C263  1  0.640100  0.087300  0.530100  1.0  0.0632
  C  C264  1  0.697200  0.143000  0.490600  1.0  -0.2407
  C  C265  1  0.796300  0.152100  0.505100  1.0  0.1815
  C  C266  1  0.538800  0.064700  0.503900  1.0  -0.1006
  C  C267  1  0.220400  0.131300  0.521200  1.0  0.161
  C  C268  1  0.319000  0.112300  0.514700  1.0  -0.1959
  C  C269  1  0.364200  0.056900  0.560900  1.0  0.0846
  C  C270  1  0.307600  0.031300  0.615500  1.0  -0.1895
  C  C271  1  0.208500  0.053500  0.618000  1.0  0.1776
  C  C272  1  0.462700  0.015300  0.548300  1.0  -0.0986
  C  C273  1  0.000700  0.221500  0.663300  1.0  0.6443
  C  C274  1  0.002400  0.267500  0.730800  1.0  -0.1164
  C  C275  1  0.999500  0.216600  0.787900  1.0  -0.0359
  C  C276  1  0.001300  0.257000  0.849700  1.0  -0.0195
  C  C277  1  0.006200  0.349400  0.854400  1.0  -0.1355
  C  C278  1  0.008200  0.401700  0.796300  1.0  -0.0395
  C  C279  1  0.006200  0.359300  0.735100  1.0  -0.0366
  C  C280  1  0.008300  0.393600  0.921700  1.0  0.6559
  N  N281  1  0.658500  0.611800  0.555100  1.0  -0.3238
  N  N282  1  0.335300  0.600500  0.570700  1.0  -0.3375
  N  N283  1  0.341500  0.111800  0.944900  1.0  -0.3208
  N  N284  1  0.664700  0.100500  0.929300  1.0  -0.3398
  N  N285  1  0.341500  0.388200  0.444900  1.0  -0.3213
  N  N286  1  0.664700  0.399500  0.429300  1.0  -0.3408
  N  N287  1  0.658500  0.888200  0.055100  1.0  -0.3238
  N  N288  1  0.335300  0.899500  0.070700  1.0  -0.3371
  N  N289  1  0.841500  0.388200  0.055100  1.0  -0.3209
  N  N290  1  0.164700  0.399500  0.070700  1.0  -0.3401
  N  N291  1  0.158500  0.888200  0.444900  1.0  -0.3242
  N  N292  1  0.835300  0.899500  0.429300  1.0  -0.3378
  N  N293  1  0.158500  0.611800  0.944900  1.0  -0.3235
  N  N294  1  0.835300  0.600500  0.929300  1.0  -0.3376
  N  N295  1  0.841500  0.111800  0.555100  1.0  -0.321
  N  N296  1  0.164700  0.100500  0.570700  1.0  -0.3399
  O  O297  1  0.504800  0.638300  0.663200  1.0  -0.5803
  O  O298  1  0.493200  0.767700  0.611600  1.0  -0.6073
  O  O299  1  0.487300  0.841300  0.972100  1.0  -0.5834
  O  O300  1  0.495200  0.975000  0.924300  1.0  -0.6209
  O  O301  1  0.495200  0.138300  0.836800  1.0  -0.5805
  O  O302  1  0.506800  0.267700  0.888400  1.0  -0.6071
  O  O303  1  0.512700  0.341300  0.527900  1.0  -0.5842
  O  O304  1  0.504800  0.475000  0.575700  1.0  -0.6197
  O  O305  1  0.495200  0.361700  0.336800  1.0  -0.5797
  O  O306  1  0.506800  0.232300  0.388400  1.0  -0.6068
  O  O307  1  0.512700  0.158700  0.027900  1.0  -0.5838
  O  O308  1  0.504800  0.025000  0.075700  1.0  -0.6187
  O  O309  1  0.504800  0.861700  0.163200  1.0  -0.5791
  O  O310  1  0.493200  0.732300  0.111600  1.0  -0.6073
  O  O311  1  0.487300  0.658700  0.472100  1.0  -0.5833
  O  O312  1  0.495200  0.525000  0.424300  1.0  -0.6198
  O  O313  1  0.995200  0.361700  0.163200  1.0  -0.5792
  O  O314  1  0.006800  0.232300  0.111600  1.0  -0.6074
  O  O315  1  0.012700  0.158700  0.472100  1.0  -0.5837
  O  O316  1  0.004800  0.025000  0.424300  1.0  -0.6198
  O  O317  1  0.004800  0.861700  0.336800  1.0  -0.5796
  O  O318  1  0.993200  0.732300  0.388400  1.0  -0.6067
  O  O319  1  0.987300  0.658700  0.027900  1.0  -0.5836
  O  O320  1  0.995200  0.525000  0.075700  1.0  -0.6188
  O  O321  1  0.004800  0.638300  0.836800  1.0  -0.5809
  O  O322  1  0.993200  0.767700  0.888400  1.0  -0.6069
  O  O323  1  0.987300  0.841300  0.527900  1.0  -0.5838
  O  O324  1  0.995200  0.975000  0.575700  1.0  -0.6198
  O  O325  1  0.995200  0.138300  0.663200  1.0  -0.5796
  O  O326  1  0.006800  0.267700  0.611600  1.0  -0.6074
  O  O327  1  0.012700  0.341300  0.972100  1.0  -0.5838
  O  O328  1  0.004800  0.475000  0.924300  1.0  -0.6207
