# generated using pymatgen
data_K2P8Pt2IO20
_symmetry_space_group_name_H-M   'P 1'
_cell_length_a   13.45190000
_cell_length_b   13.45190000
_cell_length_c   17.26500000
_cell_angle_alpha   90.00000000
_cell_angle_beta   90.00000000
_cell_angle_gamma   90.00000000
_symmetry_Int_Tables_number   1
_chemical_formula_structural   K2P8Pt2IO20
_chemical_formula_sum   'K8 P32 Pt8 I4 O80'
_cell_volume   3124.16413898
_cell_formula_units_Z   4
loop_
 _symmetry_equiv_pos_site_id
 _symmetry_equiv_pos_as_xyz
  1  'x, y, z'
loop_
 _atom_site_type_symbol
 _atom_site_label
 _atom_site_symmetry_multiplicity
 _atom_site_fract_x
 _atom_site_fract_y
 _atom_site_fract_z
 _atom_site_occupancy
 _atom_site_charge
  K  K1  1  0.215440  0.768210  0.907820  1.0  1.039
  K  K2  1  0.784560  0.231790  0.907820  1.0  1.0386
  K  K3  1  0.231790  0.215440  0.907820  1.0  1.0387
  K  K4  1  0.768210  0.784560  0.907820  1.0  1.0389
  K  K5  1  0.715440  0.731790  0.407820  1.0  1.0406
  K  K6  1  0.284560  0.268210  0.407820  1.0  1.0409
  K  K7  1  0.731790  0.284560  0.407820  1.0  1.0402
  K  K8  1  0.268210  0.715440  0.407820  1.0  1.0414
  P  P9  1  0.425300  0.657000  0.069580  1.0  1.3433
  P  P10  1  0.395000  0.636860  0.239900  1.0  1.3226
  P  P11  1  0.383100  0.628900  0.579850  1.0  1.3312
  P  P12  1  0.414100  0.651700  0.747500  1.0  1.3292
  P  P13  1  0.574700  0.343000  0.069580  1.0  1.3624
  P  P14  1  0.605000  0.363140  0.239900  1.0  1.3458
  P  P15  1  0.616900  0.371100  0.579850  1.0  1.3528
  P  P16  1  0.585900  0.348300  0.747500  1.0  1.3604
  P  P17  1  0.343000  0.425300  0.069580  1.0  1.348
  P  P18  1  0.363140  0.395000  0.239900  1.0  1.3409
  P  P19  1  0.371100  0.383100  0.579850  1.0  1.3484
  P  P20  1  0.348300  0.414100  0.747500  1.0  1.353
  P  P21  1  0.657000  0.574700  0.069580  1.0  1.3548
  P  P22  1  0.636860  0.605000  0.239900  1.0  1.3338
  P  P23  1  0.628900  0.616900  0.579850  1.0  1.3371
  P  P24  1  0.651700  0.585900  0.747500  1.0  1.3445
  P  P25  1  0.925300  0.843000  0.569580  1.0  1.3616
  P  P26  1  0.895000  0.863140  0.739900  1.0  1.3396
  P  P27  1  0.883100  0.871100  0.079850  1.0  1.3484
  P  P28  1  0.914100  0.848300  0.247500  1.0  1.3501
  P  P29  1  0.074700  0.157000  0.569580  1.0  1.3454
  P  P30  1  0.105000  0.136860  0.739900  1.0  1.3293
  P  P31  1  0.116900  0.128900  0.079850  1.0  1.3368
  P  P32  1  0.085900  0.151700  0.247500  1.0  1.3403
  P  P33  1  0.843000  0.074700  0.569580  1.0  1.3481
  P  P34  1  0.863140  0.105000  0.739900  1.0  1.327
  P  P35  1  0.871100  0.116900  0.079850  1.0  1.3311
  P  P36  1  0.848300  0.085900  0.247500  1.0  1.3395
  P  P37  1  0.157000  0.925300  0.569580  1.0  1.3547
  P  P38  1  0.136860  0.895000  0.739900  1.0  1.3469
  P  P39  1  0.128900  0.883100  0.079850  1.0  1.3531
  P  P40  1  0.151700  0.914100  0.247500  1.0  1.3577
  Pt  Pt41  1  0.500000  0.500000  0.073080  1.0  0.3284
  Pt  Pt42  1  0.500000  0.500000  0.238870  1.0  0.3322
  Pt  Pt43  1  0.500000  0.500000  0.582930  1.0  0.2943
  Pt  Pt44  1  0.500000  0.500000  0.742580  1.0  0.2847
  Pt  Pt45  1  0.000000  0.000000  0.573080  1.0  0.3284
  Pt  Pt46  1  0.000000  0.000000  0.738870  1.0  0.3322
  Pt  Pt47  1  0.000000  0.000000  0.082930  1.0  0.2943
  Pt  Pt48  1  0.000000  0.000000  0.242580  1.0  0.2847
  I  I49  1  0.500000  0.500000  0.902160  1.0  -0.1846
  I  I50  1  0.500000  0.500000  0.420270  1.0  -0.1689
  I  I51  1  0.000000  0.000000  0.402160  1.0  -0.1846
  I  I52  1  0.000000  0.000000  0.920270  1.0  -0.1689
  O  O53  1  0.325300  0.661100  0.024100  1.0  -0.6726
  O  O54  1  0.485800  0.742300  0.041000  1.0  -0.5108
  O  O55  1  0.393600  0.690700  0.156200  1.0  -0.7941
  O  O56  1  0.287900  0.620000  0.262800  1.0  -0.6766
  O  O57  1  0.434600  0.726600  0.292200  1.0  -0.6772
  O  O58  1  0.279900  0.600500  0.555400  1.0  -0.703
  O  O59  1  0.415800  0.719200  0.527300  1.0  -0.6761
  O  O60  1  0.371300  0.680300  0.663600  1.0  -0.7625
  O  O61  1  0.315700  0.644500  0.796200  1.0  -0.6781
  O  O62  1  0.473400  0.739900  0.775800  1.0  -0.4917
  O  O63  1  0.674700  0.338900  0.024100  1.0  -0.6721
  O  O64  1  0.514200  0.257700  0.041000  1.0  -0.5106
  O  O65  1  0.606400  0.309300  0.156200  1.0  -0.7922
  O  O66  1  0.712100  0.380000  0.262800  1.0  -0.6784
  O  O67  1  0.565400  0.273400  0.292200  1.0  -0.6762
  O  O68  1  0.720100  0.399500  0.555400  1.0  -0.7059
  O  O69  1  0.584200  0.280800  0.527300  1.0  -0.6749
  O  O70  1  0.628700  0.319700  0.663600  1.0  -0.763
  O  O71  1  0.684300  0.355500  0.796200  1.0  -0.6772
  O  O72  1  0.526600  0.260100  0.775800  1.0  -0.4909
  O  O73  1  0.338900  0.325300  0.024100  1.0  -0.673
  O  O74  1  0.257700  0.485800  0.041000  1.0  -0.5087
  O  O75  1  0.309300  0.393600  0.156200  1.0  -0.7911
  O  O76  1  0.380000  0.287900  0.262800  1.0  -0.679
  O  O77  1  0.273400  0.434600  0.292200  1.0  -0.6734
  O  O78  1  0.399500  0.279900  0.555400  1.0  -0.7069
  O  O79  1  0.280800  0.415800  0.527300  1.0  -0.673
  O  O80  1  0.319700  0.371300  0.663600  1.0  -0.7621
  O  O81  1  0.355500  0.315700  0.796200  1.0  -0.6787
  O  O82  1  0.260100  0.473400  0.775800  1.0  -0.4912
  O  O83  1  0.661100  0.674700  0.024100  1.0  -0.6723
  O  O84  1  0.742300  0.514200  0.041000  1.0  -0.5084
  O  O85  1  0.690700  0.606400  0.156200  1.0  -0.7912
  O  O86  1  0.620000  0.712100  0.262800  1.0  -0.6773
  O  O87  1  0.726600  0.565400  0.292200  1.0  -0.6743
  O  O88  1  0.600500  0.720100  0.555400  1.0  -0.7055
  O  O89  1  0.719200  0.584200  0.527300  1.0  -0.6719
  O  O90  1  0.680300  0.628700  0.663600  1.0  -0.762
  O  O91  1  0.644500  0.684300  0.796200  1.0  -0.6785
  O  O92  1  0.739900  0.526600  0.775800  1.0  -0.4917
  O  O93  1  0.825300  0.838900  0.524100  1.0  -0.6728
  O  O94  1  0.985800  0.757700  0.541000  1.0  -0.5101
  O  O95  1  0.893600  0.809300  0.656200  1.0  -0.7928
  O  O96  1  0.787900  0.880000  0.762800  1.0  -0.6764
  O  O97  1  0.934600  0.773400  0.792200  1.0  -0.6761
  O  O98  1  0.779900  0.899500  0.055400  1.0  -0.7028
  O  O99  1  0.915800  0.780800  0.027300  1.0  -0.6752
  O  O100  1  0.871300  0.819700  0.163600  1.0  -0.7629
  O  O101  1  0.815700  0.855500  0.296200  1.0  -0.6778
  O  O102  1  0.973400  0.760100  0.275800  1.0  -0.4911
  O  O103  1  0.174700  0.161100  0.524100  1.0  -0.672
  O  O104  1  0.014200  0.242300  0.541000  1.0  -0.5109
  O  O105  1  0.106400  0.190700  0.656200  1.0  -0.793
  O  O106  1  0.212100  0.120000  0.762800  1.0  -0.6788
  O  O107  1  0.065400  0.226600  0.792200  1.0  -0.6771
  O  O108  1  0.220100  0.100500  0.055400  1.0  -0.7063
  O  O109  1  0.084200  0.219200  0.027300  1.0  -0.6759
  O  O110  1  0.128700  0.180300  0.163600  1.0  -0.7626
  O  O111  1  0.184300  0.144500  0.296200  1.0  -0.6775
  O  O112  1  0.026600  0.239900  0.275800  1.0  -0.4909
  O  O113  1  0.838900  0.174700  0.524100  1.0  -0.6734
  O  O114  1  0.757700  0.014200  0.541000  1.0  -0.5087
  O  O115  1  0.809300  0.106400  0.656200  1.0  -0.7913
  O  O116  1  0.880000  0.212100  0.762800  1.0  -0.6771
  O  O117  1  0.773400  0.065400  0.792200  1.0  -0.6739
  O  O118  1  0.899500  0.220100  0.055400  1.0  -0.7052
  O  O119  1  0.780800  0.084200  0.027300  1.0  -0.6735
  O  O120  1  0.819700  0.128700  0.163600  1.0  -0.762
  O  O121  1  0.855500  0.184300  0.296200  1.0  -0.6797
  O  O122  1  0.760100  0.026600  0.275800  1.0  -0.4915
  O  O123  1  0.161100  0.825300  0.524100  1.0  -0.672
  O  O124  1  0.242300  0.985800  0.541000  1.0  -0.5087
  O  O125  1  0.190700  0.893600  0.656200  1.0  -0.7911
  O  O126  1  0.120000  0.787900  0.762800  1.0  -0.6791
  O  O127  1  0.226600  0.934600  0.792200  1.0  -0.6733
  O  O128  1  0.100500  0.779900  0.055400  1.0  -0.7074
  O  O129  1  0.219200  0.915800  0.027300  1.0  -0.6714
  O  O130  1  0.180300  0.871300  0.163600  1.0  -0.7623
  O  O131  1  0.144500  0.815700  0.296200  1.0  -0.6784
  O  O132  1  0.239900  0.973400  0.275800  1.0  -0.4909
