# generated using pymatgen
data_NaCd3H60C78(N3O2)6
_symmetry_space_group_name_H-M   'P 1'
_cell_length_a   20.14320000
_cell_length_b   20.14320000
_cell_length_c   21.96200000
_cell_angle_alpha   90.00000000
_cell_angle_beta   90.00000000
_cell_angle_gamma   120.00000000
_symmetry_Int_Tables_number   1
_chemical_formula_structural   NaCd3H60C78(N3O2)6
_chemical_formula_sum   'Na2 Cd6 H120 C156 N36 O24'
_cell_volume   7717.19454340
_cell_formula_units_Z   2
loop_
 _symmetry_equiv_pos_site_id
 _symmetry_equiv_pos_as_xyz
  1  'x, y, z'
loop_
 _atom_site_type_symbol
 _atom_site_label
 _atom_site_symmetry_multiplicity
 _atom_site_fract_x
 _atom_site_fract_y
 _atom_site_fract_z
 _atom_site_occupancy
 _atom_site_charge
  Na  Na1  1  0.333333  0.666667  0.250000  1.0  0.9429
  Na  Na2  1  0.666667  0.333333  0.750000  1.0  0.9429
  Cd  Cd3  1  0.224400  0.448800  0.250000  1.0  0.9359
  Cd  Cd4  1  0.224400  0.775600  0.250000  1.0  0.9379
  Cd  Cd5  1  0.551200  0.775600  0.250000  1.0  0.9363
  Cd  Cd6  1  0.775600  0.551200  0.750000  1.0  0.9361
  Cd  Cd7  1  0.775600  0.224400  0.750000  1.0  0.9366
  Cd  Cd8  1  0.448800  0.224400  0.750000  1.0  0.9374
  H  H9  1  0.095100  0.449800  0.436100  1.0  0.1222
  H  H10  1  0.246300  0.715600  0.467300  1.0  0.1035
  H  H11  1  0.249900  0.656700  0.377100  1.0  0.0691
  H  H12  1  0.022300  0.402200  0.505000  1.0  0.1507
  H  H13  1  0.996800  0.466600  0.650100  1.0  0.1072
  H  H14  1  0.910100  0.395900  0.720600  1.0  0.0637
  H  H15  1  0.841700  0.205100  0.627000  1.0  0.1001
  H  H16  1  0.930200  0.275600  0.553400  1.0  0.0843
  H  H17  1  0.146000  0.621000  0.595300  1.0  0.3528
  H  H18  1  0.133000  0.671600  0.565900  1.0  0.3505
  H  H19  1  0.354700  0.904900  0.436100  1.0  0.1231
  H  H20  1  0.469300  0.753700  0.467300  1.0  0.103
  H  H21  1  0.406800  0.750100  0.377100  1.0  0.0693
  H  H22  1  0.379900  0.977700  0.505000  1.0  0.1492
  H  H23  1  0.469800  0.003200  0.650100  1.0  0.1087
  H  H24  1  0.485800  0.089900  0.720600  1.0  0.0636
  H  H25  1  0.363400  0.158300  0.627000  1.0  0.1004
  H  H26  1  0.345400  0.069800  0.553400  1.0  0.0835
  H  H27  1  0.475000  0.854000  0.595300  1.0  0.3527
  H  H28  1  0.538600  0.867000  0.565900  1.0  0.3481
  H  H29  1  0.550200  0.645300  0.436100  1.0  0.1234
  H  H30  1  0.284400  0.530700  0.467300  1.0  0.1033
  H  H31  1  0.343300  0.593200  0.377100  1.0  0.0695
  H  H32  1  0.597800  0.620100  0.505000  1.0  0.1516
  H  H33  1  0.533400  0.530200  0.650100  1.0  0.1086
  H  H34  1  0.604100  0.514200  0.720600  1.0  0.0634
  H  H35  1  0.794900  0.636600  0.627000  1.0  0.1034
  H  H36  1  0.724400  0.654600  0.553400  1.0  0.0829
  H  H37  1  0.379000  0.525000  0.595300  1.0  0.3504
  H  H38  1  0.328400  0.461400  0.565900  1.0  0.3454
  H  H39  1  0.354700  0.449800  0.063900  1.0  0.1217
  H  H40  1  0.469300  0.715600  0.032700  1.0  0.1034
  H  H41  1  0.406800  0.656700  0.122900  1.0  0.0691
  H  H42  1  0.379900  0.402200  0.995000  1.0  0.1517
  H  H43  1  0.469800  0.466600  0.849900  1.0  0.1073
  H  H44  1  0.485800  0.395900  0.779400  1.0  0.0634
  H  H45  1  0.363400  0.205100  0.873000  1.0  0.1011
  H  H46  1  0.345400  0.275600  0.946600  1.0  0.0837
  H  H47  1  0.475000  0.621000  0.904700  1.0  0.3505
  H  H48  1  0.538600  0.671600  0.934100  1.0  0.3487
  H  H49  1  0.550200  0.904900  0.063900  1.0  0.1229
  H  H50  1  0.284400  0.753700  0.032700  1.0  0.103
  H  H51  1  0.343300  0.750100  0.122900  1.0  0.0697
  H  H52  1  0.597800  0.977700  0.995000  1.0  0.1506
  H  H53  1  0.533400  0.003200  0.849900  1.0  0.1085
  H  H54  1  0.604100  0.089900  0.779400  1.0  0.0635
  H  H55  1  0.794900  0.158300  0.873000  1.0  0.1007
  H  H56  1  0.724400  0.069800  0.946600  1.0  0.0839
  H  H57  1  0.379000  0.854000  0.904700  1.0  0.3493
  H  H58  1  0.328400  0.867000  0.934100  1.0  0.3462
  H  H59  1  0.095100  0.645300  0.063900  1.0  0.1231
  H  H60  1  0.246300  0.530700  0.032700  1.0  0.1034
  H  H61  1  0.249900  0.593200  0.122900  1.0  0.0702
  H  H62  1  0.022300  0.620100  0.995000  1.0  0.1518
  H  H63  1  0.996800  0.530200  0.849900  1.0  0.1085
  H  H64  1  0.910100  0.514200  0.779400  1.0  0.0634
  H  H65  1  0.841700  0.636600  0.873000  1.0  0.1029
  H  H66  1  0.930200  0.654600  0.946600  1.0  0.0839
  H  H67  1  0.146000  0.525000  0.904700  1.0  0.3511
  H  H68  1  0.133000  0.461400  0.934100  1.0  0.3479
  H  H69  1  0.904900  0.550200  0.563900  1.0  0.1226
  H  H70  1  0.753700  0.284400  0.532700  1.0  0.1038
  H  H71  1  0.750100  0.343300  0.622900  1.0  0.0693
  H  H72  1  0.977700  0.597800  0.495000  1.0  0.1513
  H  H73  1  0.003200  0.533400  0.349900  1.0  0.1076
  H  H74  1  0.089900  0.604100  0.279400  1.0  0.0642
  H  H75  1  0.158300  0.794900  0.373000  1.0  0.102
  H  H76  1  0.069800  0.724400  0.446600  1.0  0.0851
  H  H77  1  0.854000  0.379000  0.404700  1.0  0.3514
  H  H78  1  0.867000  0.328400  0.434100  1.0  0.351
  H  H79  1  0.645300  0.095100  0.563900  1.0  0.1227
  H  H80  1  0.530700  0.246300  0.532700  1.0  0.1032
  H  H81  1  0.593200  0.249900  0.622900  1.0  0.0696
  H  H82  1  0.620100  0.022300  0.495000  1.0  0.1506
  H  H83  1  0.530200  0.996800  0.349900  1.0  0.1087
  H  H84  1  0.514200  0.910100  0.279400  1.0  0.0627
  H  H85  1  0.636600  0.841700  0.373000  1.0  0.1001
  H  H86  1  0.654600  0.930200  0.446600  1.0  0.084
  H  H87  1  0.525000  0.146000  0.404700  1.0  0.3484
  H  H88  1  0.461400  0.133000  0.434100  1.0  0.346
  H  H89  1  0.449800  0.354700  0.563900  1.0  0.1224
  H  H90  1  0.715600  0.469300  0.532700  1.0  0.1034
  H  H91  1  0.656700  0.406800  0.622900  1.0  0.0701
  H  H92  1  0.402200  0.379900  0.495000  1.0  0.1522
  H  H93  1  0.466600  0.469800  0.349900  1.0  0.1085
  H  H94  1  0.395900  0.485800  0.279400  1.0  0.0636
  H  H95  1  0.205100  0.363400  0.373000  1.0  0.1036
  H  H96  1  0.275600  0.345400  0.446600  1.0  0.0831
  H  H97  1  0.621000  0.475000  0.404700  1.0  0.3513
  H  H98  1  0.671600  0.538600  0.434100  1.0  0.3475
  H  H99  1  0.645300  0.550200  0.936100  1.0  0.1227
  H  H100  1  0.530700  0.284400  0.967300  1.0  0.104
  H  H101  1  0.593200  0.343300  0.877100  1.0  0.069
  H  H102  1  0.620100  0.597800  0.005000  1.0  0.1514
  H  H103  1  0.530200  0.533400  0.150100  1.0  0.1074
  H  H104  1  0.514200  0.604100  0.220600  1.0  0.064
  H  H105  1  0.636600  0.794900  0.127000  1.0  0.0999
  H  H106  1  0.654600  0.724400  0.053400  1.0  0.083
  H  H107  1  0.525000  0.379000  0.095300  1.0  0.3535
  H  H108  1  0.461400  0.328400  0.065900  1.0  0.3501
  H  H109  1  0.449800  0.095100  0.936100  1.0  0.122
  H  H110  1  0.715600  0.246300  0.967300  1.0  0.1031
  H  H111  1  0.656700  0.249900  0.877100  1.0  0.0692
  H  H112  1  0.402200  0.022300  0.005000  1.0  0.1494
  H  H113  1  0.466600  0.996800  0.150100  1.0  0.108
  H  H114  1  0.395900  0.910100  0.220600  1.0  0.0628
  H  H115  1  0.205100  0.841700  0.127000  1.0  0.1014
  H  H116  1  0.275600  0.930200  0.053400  1.0  0.0838
  H  H117  1  0.621000  0.146000  0.095300  1.0  0.3522
  H  H118  1  0.671600  0.133000  0.065900  1.0  0.3485
  H  H119  1  0.904900  0.354700  0.936100  1.0  0.1225
  H  H120  1  0.753700  0.469300  0.967300  1.0  0.1033
  H  H121  1  0.750100  0.406800  0.877100  1.0  0.0698
  H  H122  1  0.977700  0.379900  0.005000  1.0  0.1508
  H  H123  1  0.003200  0.469800  0.150100  1.0  0.1085
  H  H124  1  0.089900  0.485800  0.220600  1.0  0.0634
  H  H125  1  0.158300  0.363400  0.127000  1.0  0.1017
  H  H126  1  0.069800  0.345400  0.053400  1.0  0.0825
  H  H127  1  0.854000  0.475000  0.095300  1.0  0.3509
  H  H128  1  0.867000  0.538600  0.065900  1.0  0.347
  C  C129  1  0.182500  0.511800  0.341800  1.0  0.627
  C  C130  1  0.173500  0.546600  0.398900  1.0  -0.0698
  C  C131  1  0.124700  0.502200  0.442800  1.0  -0.0986
  C  C132  1  0.117100  0.531900  0.497600  1.0  0.1442
  C  C133  1  0.162400  0.615100  0.508500  1.0  0.138
  C  C134  1  0.215300  0.663100  0.461900  1.0  -0.1867
  C  C135  1  0.217600  0.626600  0.408300  1.0  -0.0987
  C  C136  1  0.024200  0.426100  0.541700  1.0  0.1513
  C  C137  1  0.970900  0.377300  0.591000  1.0  0.01
  C  C138  1  0.965400  0.414100  0.644600  1.0  -0.1577
  C  C139  1  0.914900  0.371900  0.686100  1.0  0.1692
  C  C140  1  0.873200  0.257800  0.631400  1.0  0.1025
  C  C141  1  0.925700  0.300700  0.587400  1.0  -0.0637
  C  C142  1  0.329300  0.817500  0.341800  1.0  0.626
  C  C143  1  0.373100  0.826500  0.398900  1.0  -0.0736
  C  C144  1  0.377500  0.875300  0.442800  1.0  -0.0976
  C  C145  1  0.414800  0.882900  0.497600  1.0  0.1432
  C  C146  1  0.452700  0.837600  0.508500  1.0  0.1362
  C  C147  1  0.447800  0.784700  0.461900  1.0  -0.1882
  C  C148  1  0.409000  0.782400  0.408300  1.0  -0.0983
  C  C149  1  0.401900  0.975800  0.541700  1.0  0.1522
  C  C150  1  0.406400  0.029100  0.591000  1.0  0.0113
  C  C151  1  0.448700  0.034600  0.644600  1.0  -0.1565
  C  C152  1  0.457000  0.085100  0.686100  1.0  0.1661
  C  C153  1  0.384600  0.126800  0.631400  1.0  0.1026
  C  C154  1  0.375000  0.074300  0.587400  1.0  -0.0618
  C  C155  1  0.488200  0.670700  0.341800  1.0  0.6296
  C  C156  1  0.453400  0.626900  0.398900  1.0  -0.072
  C  C157  1  0.497800  0.622500  0.442800  1.0  -0.1023
  C  C158  1  0.468100  0.585200  0.497600  1.0  0.1471
  C  C159  1  0.384900  0.547300  0.508500  1.0  0.1348
  C  C160  1  0.336900  0.552200  0.461900  1.0  -0.1952
  C  C161  1  0.373400  0.591000  0.408300  1.0  -0.0984
  C  C162  1  0.573900  0.598100  0.541700  1.0  0.1504
  C  C163  1  0.622700  0.593600  0.591000  1.0  0.0144
  C  C164  1  0.585900  0.551300  0.644600  1.0  -0.1558
  C  C165  1  0.628100  0.543000  0.686100  1.0  0.1659
  C  C166  1  0.742200  0.615400  0.631400  1.0  0.0957
  C  C167  1  0.699300  0.625000  0.587400  1.0  -0.0602
  C  C168  1  0.329300  0.511800  0.158200  1.0  0.6289
  C  C169  1  0.373100  0.546600  0.101100  1.0  -0.0694
  C  C170  1  0.377500  0.502200  0.057200  1.0  -0.0988
  C  C171  1  0.414800  0.531900  0.002400  1.0  0.1437
  C  C172  1  0.452700  0.615100  0.991500  1.0  0.1325
  C  C173  1  0.447800  0.663100  0.038100  1.0  -0.1868
  C  C174  1  0.409000  0.626600  0.091700  1.0  -0.1002
  C  C175  1  0.401900  0.426100  0.958300  1.0  0.1507
  C  C176  1  0.406400  0.377300  0.909000  1.0  0.0096
  C  C177  1  0.448700  0.414100  0.855400  1.0  -0.1585
  C  C178  1  0.457000  0.371900  0.813900  1.0  0.1693
  C  C179  1  0.384600  0.257800  0.868600  1.0  0.0979
  C  C180  1  0.375000  0.300700  0.912600  1.0  -0.0625
  C  C181  1  0.488200  0.817500  0.158200  1.0  0.6256
  C  C182  1  0.453400  0.826500  0.101100  1.0  -0.0728
  C  C183  1  0.497800  0.875300  0.057200  1.0  -0.0986
  C  C184  1  0.468100  0.882900  0.002400  1.0  0.1452
  C  C185  1  0.384900  0.837600  0.991500  1.0  0.1331
  C  C186  1  0.336900  0.784700  0.038100  1.0  -0.188
  C  C187  1  0.373400  0.782400  0.091700  1.0  -0.1002
  C  C188  1  0.573900  0.975800  0.958300  1.0  0.1533
  C  C189  1  0.622700  0.029100  0.909000  1.0  0.0104
  C  C190  1  0.585900  0.034600  0.855400  1.0  -0.1567
  C  C191  1  0.628100  0.085100  0.813900  1.0  0.1686
  C  C192  1  0.742200  0.126800  0.868600  1.0  0.1026
  C  C193  1  0.699300  0.074300  0.912600  1.0  -0.0613
  C  C194  1  0.182500  0.670700  0.158200  1.0  0.6297
  C  C195  1  0.173500  0.626900  0.101100  1.0  -0.0729
  C  C196  1  0.124700  0.622500  0.057200  1.0  -0.1014
  C  C197  1  0.117100  0.585200  0.002400  1.0  0.148
  C  C198  1  0.162400  0.547300  0.991500  1.0  0.1322
  C  C199  1  0.215300  0.552200  0.038100  1.0  -0.1906
  C  C200  1  0.217600  0.591000  0.091700  1.0  -0.0999
  C  C201  1  0.024200  0.598100  0.958300  1.0  0.1518
  C  C202  1  0.970900  0.593600  0.909000  1.0  0.0141
  C  C203  1  0.965400  0.551300  0.855400  1.0  -0.1506
  C  C204  1  0.914900  0.543000  0.813900  1.0  0.1668
  C  C205  1  0.873200  0.615400  0.868600  1.0  0.1001
  C  C206  1  0.925700  0.625000  0.912600  1.0  -0.0652
  C  C207  1  0.817500  0.488200  0.658200  1.0  0.6279
  C  C208  1  0.826500  0.453400  0.601100  1.0  -0.0693
  C  C209  1  0.875300  0.497800  0.557200  1.0  -0.1005
  C  C210  1  0.882900  0.468100  0.502400  1.0  0.144
  C  C211  1  0.837600  0.384900  0.491500  1.0  0.1335
  C  C212  1  0.784700  0.336900  0.538100  1.0  -0.1857
  C  C213  1  0.782400  0.373400  0.591700  1.0  -0.0998
  C  C214  1  0.975800  0.573900  0.458300  1.0  0.1508
  C  C215  1  0.029100  0.622700  0.409000  1.0  0.0095
  C  C216  1  0.034600  0.585900  0.355400  1.0  -0.1582
  C  C217  1  0.085100  0.628100  0.313900  1.0  0.1697
  C  C218  1  0.126800  0.742200  0.368600  1.0  0.1037
  C  C219  1  0.074300  0.699300  0.412600  1.0  -0.0648
  C  C220  1  0.670700  0.182500  0.658200  1.0  0.6266
  C  C221  1  0.626900  0.173500  0.601100  1.0  -0.0724
  C  C222  1  0.622500  0.124700  0.557200  1.0  -0.0986
  C  C223  1  0.585200  0.117100  0.502400  1.0  0.145
  C  C224  1  0.547300  0.162400  0.491500  1.0  0.1339
  C  C225  1  0.552200  0.215300  0.538100  1.0  -0.1884
  C  C226  1  0.591000  0.217600  0.591700  1.0  -0.1006
  C  C227  1  0.598100  0.024200  0.458300  1.0  0.1533
  C  C228  1  0.593600  0.970900  0.409000  1.0  0.0117
  C  C229  1  0.551300  0.965400  0.355400  1.0  -0.1556
  C  C230  1  0.543000  0.914900  0.313900  1.0  0.1687
  C  C231  1  0.615400  0.873200  0.368600  1.0  0.1014
  C  C232  1  0.625000  0.925700  0.412600  1.0  -0.0613
  C  C233  1  0.511800  0.329300  0.658200  1.0  0.6305
  C  C234  1  0.546600  0.373100  0.601100  1.0  -0.0733
  C  C235  1  0.502200  0.377500  0.557200  1.0  -0.1017
  C  C236  1  0.531900  0.414800  0.502400  1.0  0.1479
  C  C237  1  0.615100  0.452700  0.491500  1.0  0.1316
  C  C238  1  0.663100  0.447800  0.538100  1.0  -0.1913
  C  C239  1  0.626600  0.409000  0.591700  1.0  -0.0999
  C  C240  1  0.426100  0.401900  0.458300  1.0  0.1523
  C  C241  1  0.377300  0.406400  0.409000  1.0  0.0122
  C  C242  1  0.414100  0.448700  0.355400  1.0  -0.1512
  C  C243  1  0.371900  0.457000  0.313900  1.0  0.1679
  C  C244  1  0.257800  0.384600  0.368600  1.0  0.0958
  C  C245  1  0.300700  0.375000  0.412600  1.0  -0.0614
  C  C246  1  0.670700  0.488200  0.841800  1.0  0.6272
  C  C247  1  0.626900  0.453400  0.898900  1.0  -0.0698
  C  C248  1  0.622500  0.497800  0.942800  1.0  -0.0999
  C  C249  1  0.585200  0.468100  0.997600  1.0  0.145
  C  C250  1  0.547300  0.384900  0.008500  1.0  0.1369
  C  C251  1  0.552200  0.336900  0.961900  1.0  -0.1851
  C  C252  1  0.591000  0.373400  0.908300  1.0  -0.0983
  C  C253  1  0.598100  0.573900  0.041700  1.0  0.1509
  C  C254  1  0.593600  0.622700  0.091000  1.0  0.0101
  C  C255  1  0.551300  0.585900  0.144600  1.0  -0.1561
  C  C256  1  0.543000  0.628100  0.186100  1.0  0.1696
  C  C257  1  0.615400  0.742200  0.131400  1.0  0.0978
  C  C258  1  0.625000  0.699300  0.087400  1.0  -0.0599
  C  C259  1  0.511800  0.182500  0.841800  1.0  0.6257
  C  C260  1  0.546600  0.173500  0.898900  1.0  -0.0741
  C  C261  1  0.502200  0.124700  0.942800  1.0  -0.0973
  C  C262  1  0.531900  0.117100  0.997600  1.0  0.1422
  C  C263  1  0.615100  0.162400  0.008500  1.0  0.1364
  C  C264  1  0.663100  0.215300  0.961900  1.0  -0.1885
  C  C265  1  0.626600  0.217600  0.908300  1.0  -0.0988
  C  C266  1  0.426100  0.024200  0.041700  1.0  0.1516
  C  C267  1  0.377300  0.970900  0.091000  1.0  0.0133
  C  C268  1  0.414100  0.965400  0.144600  1.0  -0.1554
  C  C269  1  0.371900  0.914900  0.186100  1.0  0.1663
  C  C270  1  0.257800  0.873200  0.131400  1.0  0.1036
  C  C271  1  0.300700  0.925700  0.087400  1.0  -0.0607
  C  C272  1  0.817500  0.329300  0.841800  1.0  0.6302
  C  C273  1  0.826500  0.373100  0.898900  1.0  -0.0718
  C  C274  1  0.875300  0.377500  0.942800  1.0  -0.1025
  C  C275  1  0.882900  0.414800  0.997600  1.0  0.1473
  C  C276  1  0.837600  0.452700  0.008500  1.0  0.1359
  C  C277  1  0.784700  0.447800  0.961900  1.0  -0.1959
  C  C278  1  0.782400  0.409000  0.908300  1.0  -0.0984
  C  C279  1  0.975800  0.401900  0.041700  1.0  0.1513
  C  C280  1  0.029100  0.406400  0.091000  1.0  0.0143
  C  C281  1  0.034600  0.448700  0.144600  1.0  -0.154
  C  C282  1  0.085100  0.457000  0.186100  1.0  0.1663
  C  C283  1  0.126800  0.384600  0.131400  1.0  0.1003
  C  C284  1  0.074300  0.375000  0.087400  1.0  -0.0652
  N  N285  1  0.070600  0.495600  0.545600  1.0  -0.371
  N  N286  1  0.868800  0.294100  0.680800  1.0  -0.3967
  N  N287  1  0.154000  0.644700  0.562000  1.0  -0.6795
  N  N288  1  0.425000  0.929400  0.545600  1.0  -0.3712
  N  N289  1  0.425300  0.131200  0.680800  1.0  -0.3955
  N  N290  1  0.490700  0.846000  0.562000  1.0  -0.6753
  N  N291  1  0.504400  0.575000  0.545600  1.0  -0.3712
  N  N292  1  0.705900  0.574700  0.680800  1.0  -0.3987
  N  N293  1  0.355300  0.509300  0.562000  1.0  -0.6772
  N  N294  1  0.425000  0.495600  0.954400  1.0  -0.3712
  N  N295  1  0.425300  0.294100  0.819200  1.0  -0.3955
  N  N296  1  0.490700  0.644700  0.938000  1.0  -0.6742
  N  N297  1  0.504400  0.929400  0.954400  1.0  -0.3744
  N  N298  1  0.705900  0.131200  0.819200  1.0  -0.3968
  N  N299  1  0.355300  0.846000  0.938000  1.0  -0.6759
  N  N300  1  0.070600  0.575000  0.954400  1.0  -0.3725
  N  N301  1  0.868800  0.574700  0.819200  1.0  -0.4015
  N  N302  1  0.154000  0.509300  0.938000  1.0  -0.6745
  N  N303  1  0.929400  0.504400  0.454400  1.0  -0.3724
  N  N304  1  0.131200  0.705900  0.319200  1.0  -0.3974
  N  N305  1  0.846000  0.355300  0.438000  1.0  -0.6756
  N  N306  1  0.575000  0.070600  0.454400  1.0  -0.3718
  N  N307  1  0.574700  0.868800  0.319200  1.0  -0.3983
  N  N308  1  0.509300  0.154000  0.438000  1.0  -0.6752
  N  N309  1  0.495600  0.425000  0.454400  1.0  -0.3731
  N  N310  1  0.294100  0.425300  0.319200  1.0  -0.3987
  N  N311  1  0.644700  0.490700  0.438000  1.0  -0.6752
  N  N312  1  0.575000  0.504400  0.045600  1.0  -0.3704
  N  N313  1  0.574700  0.705900  0.180800  1.0  -0.3967
  N  N314  1  0.509300  0.355300  0.062000  1.0  -0.6782
  N  N315  1  0.495600  0.070600  0.045600  1.0  -0.3704
  N  N316  1  0.294100  0.868800  0.180800  1.0  -0.3954
  N  N317  1  0.644700  0.154000  0.062000  1.0  -0.6769
  N  N318  1  0.929400  0.425000  0.045600  1.0  -0.3738
  N  N319  1  0.131200  0.425300  0.180800  1.0  -0.3991
  N  N320  1  0.846000  0.490700  0.062000  1.0  -0.6758
  O  O321  1  0.234500  0.557300  0.303900  1.0  -0.7105
  O  O322  1  0.140100  0.443100  0.332800  1.0  -0.6315
  O  O323  1  0.322800  0.765500  0.303900  1.0  -0.7124
  O  O324  1  0.303000  0.859900  0.332800  1.0  -0.6339
  O  O325  1  0.442700  0.677200  0.303900  1.0  -0.7108
  O  O326  1  0.556900  0.697000  0.332800  1.0  -0.6319
  O  O327  1  0.322800  0.557300  0.196100  1.0  -0.7098
  O  O328  1  0.303000  0.443100  0.167200  1.0  -0.631
  O  O329  1  0.442700  0.765500  0.196100  1.0  -0.7109
  O  O330  1  0.556900  0.859900  0.167200  1.0  -0.6327
  O  O331  1  0.234500  0.677200  0.196100  1.0  -0.7123
  O  O332  1  0.140100  0.697000  0.167200  1.0  -0.6344
  O  O333  1  0.765500  0.442700  0.696100  1.0  -0.7102
  O  O334  1  0.859900  0.556900  0.667200  1.0  -0.6294
  O  O335  1  0.677200  0.234500  0.696100  1.0  -0.7102
  O  O336  1  0.697000  0.140100  0.667200  1.0  -0.6336
  O  O337  1  0.557300  0.322800  0.696100  1.0  -0.7124
  O  O338  1  0.443100  0.303000  0.667200  1.0  -0.6343
  O  O339  1  0.677200  0.442700  0.803900  1.0  -0.7113
  O  O340  1  0.697000  0.556900  0.832800  1.0  -0.6297
  O  O341  1  0.557300  0.234500  0.803900  1.0  -0.7114
  O  O342  1  0.443100  0.140100  0.832800  1.0  -0.6352
  O  O343  1  0.765500  0.322800  0.803900  1.0  -0.7111
  O  O344  1  0.859900  0.303000  0.832800  1.0  -0.6326
