# generated using pymatgen
data_KCd3H60C78(N3O2)6
_symmetry_space_group_name_H-M   'P 1'
_cell_length_a   21.05600000
_cell_length_b   21.36760000
_cell_length_c   21.36760000
_cell_angle_alpha   120.00000000
_cell_angle_beta   90.00000000
_cell_angle_gamma   90.00000000
_symmetry_Int_Tables_number   1
_chemical_formula_structural   KCd3H60C78(N3O2)6
_chemical_formula_sum   'K2 Cd6 H120 C156 N36 O24'
_cell_volume   8325.64701227
_cell_formula_units_Z   2
loop_
 _symmetry_equiv_pos_site_id
 _symmetry_equiv_pos_as_xyz
  1  'x, y, z'
loop_
 _atom_site_type_symbol
 _atom_site_label
 _atom_site_symmetry_multiplicity
 _atom_site_fract_x
 _atom_site_fract_y
 _atom_site_fract_z
 _atom_site_occupancy
 _atom_site_charge
  K  K1  1  0.250000  0.333333  0.666667  1.0  0.9269
  K  K2  1  0.750000  0.666667  0.333333  1.0  0.9267
  Cd  Cd3  1  0.250000  0.547630  0.773820  1.0  0.9407
  Cd  Cd4  1  0.250000  0.226190  0.452380  1.0  0.9385
  Cd  Cd5  1  0.250000  0.226190  0.773820  1.0  0.9389
  Cd  Cd6  1  0.750000  0.452370  0.226180  1.0  0.9412
  Cd  Cd7  1  0.750000  0.773810  0.547620  1.0  0.9394
  Cd  Cd8  1  0.750000  0.773810  0.226180  1.0  0.9386
  H  H9  1  0.050900  0.544300  0.646100  1.0  0.0988
  H  H10  1  0.036500  0.295400  0.519100  1.0  0.1072
  H  H11  1  0.117000  0.350400  0.599800  1.0  0.0731
  H  H12  1  0.986600  0.590300  0.619700  1.0  0.161
  H  H13  1  0.775200  0.606400  0.499100  1.0  0.0691
  H  H14  1  0.844300  0.532100  0.512700  1.0  0.1293
  H  H15  1  0.941000  0.707500  0.652400  1.0  0.1182
  H  H16  1  0.868300  0.777200  0.635900  1.0  0.085
  H  H17  1  0.927500  0.368500  0.462800  1.0  0.3578
  H  H18  1  0.942800  0.309600  0.471200  1.0  0.2886
  H  H19  1  0.050900  0.101800  0.455700  1.0  0.1
  H  H20  1  0.036500  0.223700  0.704600  1.0  0.1074
  H  H21  1  0.117000  0.249400  0.649600  1.0  0.0729
  H  H22  1  0.986600  0.029400  0.409700  1.0  0.161
  H  H23  1  0.775200  0.892700  0.393600  1.0  0.0666
  H  H24  1  0.844300  0.980600  0.467900  1.0  0.1295
  H  H25  1  0.941000  0.944900  0.292500  1.0  0.1175
  H  H26  1  0.868300  0.858700  0.222800  1.0  0.0864
  H  H27  1  0.927500  0.094300  0.631500  1.0  0.3583
  H  H28  1  0.942800  0.161600  0.690400  1.0  0.2928
  H  H29  1  0.050900  0.353900  0.898200  1.0  0.1001
  H  H30  1  0.036500  0.480900  0.776300  1.0  0.1078
  H  H31  1  0.117000  0.400200  0.750600  1.0  0.0722
  H  H32  1  0.986600  0.380300  0.970600  1.0  0.1622
  H  H33  1  0.775200  0.500900  0.107300  1.0  0.0684
  H  H34  1  0.844300  0.487300  0.019400  1.0  0.1281
  H  H35  1  0.941000  0.347600  0.055100  1.0  0.1171
  H  H36  1  0.868300  0.364100  0.141300  1.0  0.0881
  H  H37  1  0.927500  0.537200  0.905700  1.0  0.3582
  H  H38  1  0.942800  0.528800  0.838400  1.0  0.292
  H  H39  1  0.449100  0.101800  0.646100  1.0  0.1006
  H  H40  1  0.463500  0.223700  0.519100  1.0  0.1082
  H  H41  1  0.383000  0.249400  0.599800  1.0  0.0735
  H  H42  1  0.513400  0.029400  0.619700  1.0  0.1621
  H  H43  1  0.724800  0.892700  0.499100  1.0  0.0667
  H  H44  1  0.655700  0.980600  0.512700  1.0  0.1285
  H  H45  1  0.559000  0.944900  0.652400  1.0  0.1175
  H  H46  1  0.631700  0.858700  0.635900  1.0  0.0859
  H  H47  1  0.572500  0.094300  0.462800  1.0  0.3573
  H  H48  1  0.557200  0.161600  0.471200  1.0  0.2934
  H  H49  1  0.449100  0.353900  0.455700  1.0  0.0999
  H  H50  1  0.463500  0.480900  0.704600  1.0  0.1071
  H  H51  1  0.383000  0.400200  0.649600  1.0  0.0731
  H  H52  1  0.513400  0.380300  0.409700  1.0  0.1623
  H  H53  1  0.724800  0.500900  0.393600  1.0  0.0682
  H  H54  1  0.655700  0.487300  0.467900  1.0  0.1284
  H  H55  1  0.559000  0.347600  0.292500  1.0  0.1164
  H  H56  1  0.631700  0.364100  0.222800  1.0  0.0882
  H  H57  1  0.572500  0.537200  0.631500  1.0  0.3577
  H  H58  1  0.557200  0.528800  0.690400  1.0  0.2938
  H  H59  1  0.449100  0.544300  0.898200  1.0  0.0992
  H  H60  1  0.463500  0.295400  0.776300  1.0  0.1067
  H  H61  1  0.383000  0.350400  0.750600  1.0  0.0726
  H  H62  1  0.513400  0.590300  0.970600  1.0  0.1621
  H  H63  1  0.724800  0.606400  0.107300  1.0  0.0682
  H  H64  1  0.655700  0.532100  0.019400  1.0  0.1288
  H  H65  1  0.559000  0.707500  0.055100  1.0  0.1177
  H  H66  1  0.631700  0.777200  0.141300  1.0  0.0858
  H  H67  1  0.572500  0.368500  0.905700  1.0  0.3577
  H  H68  1  0.557200  0.309600  0.838400  1.0  0.2904
  H  H69  1  0.949100  0.455700  0.353900  1.0  0.0994
  H  H70  1  0.963500  0.704600  0.480900  1.0  0.1068
  H  H71  1  0.883000  0.649600  0.400200  1.0  0.0731
  H  H72  1  0.013400  0.409700  0.380300  1.0  0.1625
  H  H73  1  0.224800  0.393600  0.500900  1.0  0.0681
  H  H74  1  0.155700  0.467900  0.487300  1.0  0.1273
  H  H75  1  0.059000  0.292500  0.347600  1.0  0.1177
  H  H76  1  0.131700  0.222800  0.364100  1.0  0.0856
  H  H77  1  0.072500  0.631500  0.537200  1.0  0.3569
  H  H78  1  0.057200  0.690400  0.528800  1.0  0.294
  H  H79  1  0.949100  0.898200  0.544300  1.0  0.1005
  H  H80  1  0.963500  0.776300  0.295400  1.0  0.1079
  H  H81  1  0.883000  0.750600  0.350400  1.0  0.0732
  H  H82  1  0.013400  0.970600  0.590300  1.0  0.1624
  H  H83  1  0.224800  0.107300  0.606400  1.0  0.067
  H  H84  1  0.155700  0.019400  0.532100  1.0  0.129
  H  H85  1  0.059000  0.055100  0.707500  1.0  0.1177
  H  H86  1  0.131700  0.141300  0.777200  1.0  0.0862
  H  H87  1  0.072500  0.905700  0.368500  1.0  0.3579
  H  H88  1  0.057200  0.838400  0.309600  1.0  0.2925
  H  H89  1  0.949100  0.646100  0.101800  1.0  0.0994
  H  H90  1  0.963500  0.519100  0.223700  1.0  0.1069
  H  H91  1  0.883000  0.599800  0.249400  1.0  0.0729
  H  H92  1  0.013400  0.619700  0.029400  1.0  0.1625
  H  H93  1  0.224800  0.499100  0.892700  1.0  0.0684
  H  H94  1  0.155700  0.512700  0.980600  1.0  0.1284
  H  H95  1  0.059000  0.652400  0.944900  1.0  0.1182
  H  H96  1  0.131700  0.635900  0.858700  1.0  0.0896
  H  H97  1  0.072500  0.462800  0.094300  1.0  0.358
  H  H98  1  0.057200  0.471200  0.161600  1.0  0.2927
  H  H99  1  0.550900  0.898200  0.353900  1.0  0.1
  H  H100  1  0.536500  0.776300  0.480900  1.0  0.1075
  H  H101  1  0.617000  0.750600  0.400200  1.0  0.0733
  H  H102  1  0.486600  0.970600  0.380300  1.0  0.1604
  H  H103  1  0.275200  0.107300  0.500900  1.0  0.0671
  H  H104  1  0.344300  0.019400  0.487300  1.0  0.1298
  H  H105  1  0.441000  0.055100  0.347600  1.0  0.1169
  H  H106  1  0.368300  0.141300  0.364100  1.0  0.0864
  H  H107  1  0.427500  0.905700  0.537200  1.0  0.3587
  H  H108  1  0.442800  0.838400  0.528800  1.0  0.291
  H  H109  1  0.550900  0.646100  0.544300  1.0  0.0996
  H  H110  1  0.536500  0.519100  0.295400  1.0  0.1077
  H  H111  1  0.617000  0.599800  0.350400  1.0  0.0723
  H  H112  1  0.486600  0.619700  0.590300  1.0  0.1617
  H  H113  1  0.275200  0.499100  0.606400  1.0  0.0684
  H  H114  1  0.344300  0.512700  0.532100  1.0  0.1284
  H  H115  1  0.441000  0.652400  0.707500  1.0  0.1166
  H  H116  1  0.368300  0.635900  0.777200  1.0  0.0883
  H  H117  1  0.427500  0.462800  0.368500  1.0  0.3579
  H  H118  1  0.442800  0.471200  0.309600  1.0  0.2909
  H  H119  1  0.550900  0.455700  0.101800  1.0  0.0996
  H  H120  1  0.536500  0.704600  0.223700  1.0  0.107
  H  H121  1  0.617000  0.649600  0.249400  1.0  0.0728
  H  H122  1  0.486600  0.409700  0.029400  1.0  0.1614
  H  H123  1  0.275200  0.393600  0.892700  1.0  0.0688
  H  H124  1  0.344300  0.467900  0.980600  1.0  0.1288
  H  H125  1  0.441000  0.292500  0.944900  1.0  0.1186
  H  H126  1  0.368300  0.222800  0.858700  1.0  0.0855
  H  H127  1  0.427500  0.631500  0.094300  1.0  0.3575
  H  H128  1  0.442800  0.690400  0.161600  1.0  0.293
  C  C129  1  0.148750  0.488500  0.676970  1.0  0.6566
  C  C130  1  0.093770  0.452530  0.629810  1.0  -0.1861
  C  C131  1  0.047510  0.494190  0.620660  1.0  -0.13
  C  C132  1  0.996360  0.462010  0.574080  1.0  0.1102
  C  C133  1  0.992210  0.386710  0.534610  1.0  0.2298
  C  C134  1  0.038850  0.345590  0.544990  1.0  -0.2252
  C  C135  1  0.087470  0.378520  0.592460  1.0  -0.0569
  C  C136  1  0.951300  0.567200  0.591300  1.0  0.1465
  C  C137  1  0.809440  0.626990  0.530280  1.0  0.186
  C  C138  1  0.850730  0.581780  0.537510  1.0  -0.1671
  C  C139  1  0.902320  0.611960  0.582860  1.0  0.0584
  C  C140  1  0.907640  0.685620  0.620220  1.0  -0.1678
  C  C141  1  0.863800  0.727260  0.610160  1.0  0.1706
  C  C142  1  0.148750  0.188470  0.511500  1.0  0.6558
  C  C143  1  0.093770  0.177280  0.547470  1.0  -0.1873
  C  C144  1  0.047510  0.126470  0.505810  1.0  -0.1207
  C  C145  1  0.996360  0.112070  0.537990  1.0  0.1083
  C  C146  1  0.992210  0.147900  0.613290  1.0  0.2316
  C  C147  1  0.038850  0.199400  0.654410  1.0  -0.2254
  C  C148  1  0.087470  0.213940  0.621480  1.0  -0.0575
  C  C149  1  0.951300  0.024100  0.432800  1.0  0.1457
  C  C150  1  0.809440  0.903290  0.373010  1.0  0.1851
  C  C151  1  0.850730  0.955730  0.418220  1.0  -0.1643
  C  C152  1  0.902320  0.970900  0.388040  1.0  0.0611
  C  C153  1  0.907640  0.934600  0.314380  1.0  -0.1643
  C  C154  1  0.863800  0.882900  0.272740  1.0  0.1702
  C  C155  1  0.148750  0.323030  0.811530  1.0  0.6549
  C  C156  1  0.093770  0.370190  0.822720  1.0  -0.1859
  C  C157  1  0.047510  0.379340  0.873530  1.0  -0.1282
  C  C158  1  0.996360  0.425920  0.887930  1.0  0.11
  C  C159  1  0.992210  0.465390  0.852100  1.0  0.2312
  C  C160  1  0.038850  0.455010  0.800600  1.0  -0.2225
  C  C161  1  0.087470  0.407540  0.786060  1.0  -0.055
  C  C162  1  0.951300  0.408700  0.975900  1.0  0.1483
  C  C163  1  0.809440  0.469720  0.096710  1.0  0.1852
  C  C164  1  0.850730  0.462490  0.044270  1.0  -0.1617
  C  C165  1  0.902320  0.417140  0.029100  1.0  0.0594
  C  C166  1  0.907640  0.379780  0.065400  1.0  -0.1642
  C  C167  1  0.863800  0.389840  0.117100  1.0  0.1692
  C  C168  1  0.351250  0.188470  0.676970  1.0  0.6545
  C  C169  1  0.406230  0.177280  0.629810  1.0  -0.1887
  C  C170  1  0.452490  0.126470  0.620660  1.0  -0.1225
  C  C171  1  0.503640  0.112070  0.574080  1.0  0.1101
  C  C172  1  0.507790  0.147900  0.534610  1.0  0.2328
  C  C173  1  0.461150  0.199400  0.544990  1.0  -0.2257
  C  C174  1  0.412530  0.213940  0.592460  1.0  -0.0557
  C  C175  1  0.548700  0.024100  0.591300  1.0  0.1434
  C  C176  1  0.690560  0.903290  0.530280  1.0  0.1861
  C  C177  1  0.649270  0.955730  0.537510  1.0  -0.165
  C  C178  1  0.597680  0.970900  0.582860  1.0  0.0597
  C  C179  1  0.592360  0.934600  0.620220  1.0  -0.1695
  C  C180  1  0.636200  0.882900  0.610160  1.0  0.1705
  C  C181  1  0.351250  0.323030  0.511500  1.0  0.6551
  C  C182  1  0.406230  0.370190  0.547470  1.0  -0.1874
  C  C183  1  0.452490  0.379340  0.505810  1.0  -0.1272
  C  C184  1  0.503640  0.425920  0.537990  1.0  0.1111
  C  C185  1  0.507790  0.465390  0.613290  1.0  0.2326
  C  C186  1  0.461150  0.455010  0.654410  1.0  -0.2226
  C  C187  1  0.412530  0.407540  0.621480  1.0  -0.054
  C  C188  1  0.548700  0.408700  0.432800  1.0  0.1464
  C  C189  1  0.690560  0.469720  0.373010  1.0  0.1862
  C  C190  1  0.649270  0.462490  0.418220  1.0  -0.1612
  C  C191  1  0.597680  0.417140  0.388040  1.0  0.0596
  C  C192  1  0.592360  0.379780  0.314380  1.0  -0.1658
  C  C193  1  0.636200  0.389840  0.272740  1.0  0.1697
  C  C194  1  0.351250  0.488500  0.811530  1.0  0.6554
  C  C195  1  0.406230  0.452530  0.822720  1.0  -0.1876
  C  C196  1  0.452490  0.494190  0.873530  1.0  -0.1293
  C  C197  1  0.503640  0.462010  0.887930  1.0  0.1112
  C  C198  1  0.507790  0.386710  0.852100  1.0  0.2304
  C  C199  1  0.461150  0.345590  0.800600  1.0  -0.2272
  C  C200  1  0.412530  0.378520  0.786060  1.0  -0.0545
  C  C201  1  0.548700  0.567200  0.975900  1.0  0.1451
  C  C202  1  0.690560  0.626990  0.096710  1.0  0.1897
  C  C203  1  0.649270  0.581780  0.044270  1.0  -0.1669
  C  C204  1  0.597680  0.611960  0.029100  1.0  0.0569
  C  C205  1  0.592360  0.685620  0.065400  1.0  -0.1655
  C  C206  1  0.636200  0.727260  0.117100  1.0  0.1731
  C  C207  1  0.851250  0.511500  0.323030  1.0  0.6538
  C  C208  1  0.906230  0.547470  0.370190  1.0  -0.1878
  C  C209  1  0.952490  0.505810  0.379340  1.0  -0.129
  C  C210  1  0.003640  0.537990  0.425920  1.0  0.1106
  C  C211  1  0.007790  0.613290  0.465390  1.0  0.2315
  C  C212  1  0.961150  0.654410  0.455010  1.0  -0.2271
  C  C213  1  0.912530  0.621480  0.407540  1.0  -0.0547
  C  C214  1  0.048700  0.432800  0.408700  1.0  0.1461
  C  C215  1  0.190560  0.373010  0.469720  1.0  0.1896
  C  C216  1  0.149270  0.418220  0.462490  1.0  -0.1674
  C  C217  1  0.097680  0.388040  0.417140  1.0  0.0587
  C  C218  1  0.092360  0.314380  0.379780  1.0  -0.168
  C  C219  1  0.136200  0.272740  0.389840  1.0  0.1702
  C  C220  1  0.851250  0.811530  0.488500  1.0  0.654
  C  C221  1  0.906230  0.822720  0.452530  1.0  -0.1885
  C  C222  1  0.952490  0.873530  0.494190  1.0  -0.1224
  C  C223  1  0.003640  0.887930  0.462010  1.0  0.1103
  C  C224  1  0.007790  0.852100  0.386710  1.0  0.233
  C  C225  1  0.961150  0.800600  0.345590  1.0  -0.2276
  C  C226  1  0.912530  0.786060  0.378520  1.0  -0.0551
  C  C227  1  0.048700  0.975900  0.567200  1.0  0.1453
  C  C228  1  0.190560  0.096710  0.626990  1.0  0.1866
  C  C229  1  0.149270  0.044270  0.581780  1.0  -0.1643
  C  C230  1  0.097680  0.029100  0.611960  1.0  0.0595
  C  C231  1  0.092360  0.065400  0.685620  1.0  -0.1653
  C  C232  1  0.136200  0.117100  0.727260  1.0  0.1713
  C  C233  1  0.851250  0.676970  0.188470  1.0  0.6548
  C  C234  1  0.906230  0.629810  0.177280  1.0  -0.187
  C  C235  1  0.952490  0.620660  0.126470  1.0  -0.1281
  C  C236  1  0.003640  0.574080  0.112070  1.0  0.1113
  C  C237  1  0.007790  0.534610  0.147900  1.0  0.2311
  C  C238  1  0.961150  0.544990  0.199400  1.0  -0.2233
  C  C239  1  0.912530  0.592460  0.213940  1.0  -0.0542
  C  C240  1  0.048700  0.591300  0.024100  1.0  0.1446
  C  C241  1  0.190560  0.530280  0.903290  1.0  0.186
  C  C242  1  0.149270  0.537510  0.955730  1.0  -0.1624
  C  C243  1  0.097680  0.582860  0.970900  1.0  0.0609
  C  C244  1  0.092360  0.620220  0.934600  1.0  -0.1603
  C  C245  1  0.136200  0.610160  0.882900  1.0  0.1709
  C  C246  1  0.648750  0.811530  0.323030  1.0  0.6559
  C  C247  1  0.593770  0.822720  0.370190  1.0  -0.1874
  C  C248  1  0.547510  0.873530  0.379340  1.0  -0.1208
  C  C249  1  0.496360  0.887930  0.425920  1.0  0.1081
  C  C250  1  0.492210  0.852100  0.465390  1.0  0.2312
  C  C251  1  0.538850  0.800600  0.455010  1.0  -0.226
  C  C252  1  0.587470  0.786060  0.407540  1.0  -0.0569
  C  C253  1  0.451300  0.975900  0.408700  1.0  0.1481
  C  C254  1  0.309440  0.096710  0.469720  1.0  0.1855
  C  C255  1  0.350730  0.044270  0.462490  1.0  -0.1647
  C  C256  1  0.402320  0.029100  0.417140  1.0  0.0579
  C  C257  1  0.407640  0.065400  0.379780  1.0  -0.1683
  C  C258  1  0.363800  0.117100  0.389840  1.0  0.1697
  C  C259  1  0.648750  0.676970  0.488500  1.0  0.6551
  C  C260  1  0.593770  0.629810  0.452530  1.0  -0.1855
  C  C261  1  0.547510  0.620660  0.494190  1.0  -0.1278
  C  C262  1  0.496360  0.574080  0.462010  1.0  0.1106
  C  C263  1  0.492210  0.534610  0.386710  1.0  0.2323
  C  C264  1  0.538850  0.544990  0.345590  1.0  -0.2231
  C  C265  1  0.587470  0.592460  0.378520  1.0  -0.0543
  C  C266  1  0.451300  0.591300  0.567200  1.0  0.1465
  C  C267  1  0.309440  0.530280  0.626990  1.0  0.1852
  C  C268  1  0.350730  0.537510  0.581780  1.0  -0.163
  C  C269  1  0.402320  0.582860  0.611960  1.0  0.0618
  C  C270  1  0.407640  0.620220  0.685620  1.0  -0.1628
  C  C271  1  0.363800  0.610160  0.727260  1.0  0.1684
  C  C272  1  0.648750  0.511500  0.188470  1.0  0.6547
  C  C273  1  0.593770  0.547470  0.177280  1.0  -0.1858
  C  C274  1  0.547510  0.505810  0.126470  1.0  -0.1296
  C  C275  1  0.496360  0.537990  0.112070  1.0  0.1101
  C  C276  1  0.492210  0.613290  0.147900  1.0  0.2305
  C  C277  1  0.538850  0.654410  0.199400  1.0  -0.2268
  C  C278  1  0.587470  0.621480  0.213940  1.0  -0.0569
  C  C279  1  0.451300  0.432800  0.024100  1.0  0.1471
  C  C280  1  0.309440  0.373010  0.903290  1.0  0.1861
  C  C281  1  0.350730  0.418220  0.955730  1.0  -0.1707
  C  C282  1  0.402320  0.388040  0.970900  1.0  0.0594
  C  C283  1  0.407640  0.314380  0.934600  1.0  -0.1704
  C  C284  1  0.363800  0.272740  0.882900  1.0  0.1682
  N  N285  1  0.947780  0.500310  0.562420  1.0  -0.4176
  N  N286  1  0.815020  0.698830  0.565040  1.0  -0.3353
  N  N287  1  0.942200  0.354810  0.490510  1.0  -0.6345
  N  N288  1  0.947780  0.062110  0.499690  1.0  -0.4182
  N  N289  1  0.815020  0.866210  0.301170  1.0  -0.3377
  N  N290  1  0.942200  0.135700  0.645190  1.0  -0.6339
  N  N291  1  0.947780  0.437580  0.937890  1.0  -0.4169
  N  N292  1  0.815020  0.434960  0.133790  1.0  -0.3394
  N  N293  1  0.942200  0.509490  0.864300  1.0  -0.6311
  N  N294  1  0.552220  0.062110  0.562420  1.0  -0.4214
  N  N295  1  0.684980  0.866210  0.565040  1.0  -0.336
  N  N296  1  0.557800  0.135700  0.490510  1.0  -0.6353
  N  N297  1  0.552220  0.437580  0.499690  1.0  -0.42
  N  N298  1  0.684980  0.434960  0.301170  1.0  -0.34
  N  N299  1  0.557800  0.509490  0.645190  1.0  -0.6325
  N  N300  1  0.552220  0.500310  0.937890  1.0  -0.42
  N  N301  1  0.684980  0.698830  0.133790  1.0  -0.3393
  N  N302  1  0.557800  0.354810  0.864300  1.0  -0.6342
  N  N303  1  0.052220  0.499690  0.437580  1.0  -0.4207
  N  N304  1  0.184980  0.301170  0.434960  1.0  -0.3392
  N  N305  1  0.057800  0.645190  0.509490  1.0  -0.6369
  N  N306  1  0.052220  0.937890  0.500310  1.0  -0.4208
  N  N307  1  0.184980  0.133790  0.698830  1.0  -0.3374
  N  N308  1  0.057800  0.864300  0.354810  1.0  -0.6356
  N  N309  1  0.052220  0.562420  0.062110  1.0  -0.4181
  N  N310  1  0.184980  0.565040  0.866210  1.0  -0.3403
  N  N311  1  0.057800  0.490510  0.135700  1.0  -0.6317
  N  N312  1  0.447780  0.937890  0.437580  1.0  -0.4196
  N  N313  1  0.315020  0.133790  0.434960  1.0  -0.3372
  N  N314  1  0.442200  0.864300  0.509490  1.0  -0.6331
  N  N315  1  0.447780  0.562420  0.500310  1.0  -0.4156
  N  N316  1  0.315020  0.565040  0.698830  1.0  -0.3388
  N  N317  1  0.442200  0.490510  0.354810  1.0  -0.6327
  N  N318  1  0.447780  0.499690  0.062110  1.0  -0.4172
  N  N319  1  0.315020  0.301170  0.866210  1.0  -0.3366
  N  N320  1  0.442200  0.645190  0.135700  1.0  -0.6354
  O  O321  1  0.190990  0.450080  0.683750  1.0  -0.6904
  O  O322  1  0.153750  0.557220  0.711210  1.0  -0.6599
  O  O323  1  0.190990  0.233670  0.549920  1.0  -0.6932
  O  O324  1  0.153750  0.153990  0.442780  1.0  -0.6676
  O  O325  1  0.190990  0.316250  0.766330  1.0  -0.6941
  O  O326  1  0.153750  0.288790  0.846010  1.0  -0.6695
  O  O327  1  0.309010  0.233670  0.683750  1.0  -0.6915
  O  O328  1  0.346250  0.153990  0.711210  1.0  -0.6733
  O  O329  1  0.309010  0.316250  0.549920  1.0  -0.6966
  O  O330  1  0.346250  0.288790  0.442780  1.0  -0.6672
  O  O331  1  0.309010  0.450080  0.766330  1.0  -0.695
  O  O332  1  0.346250  0.557220  0.846010  1.0  -0.6592
  O  O333  1  0.809010  0.549920  0.316250  1.0  -0.692
  O  O334  1  0.846250  0.442780  0.288790  1.0  -0.6643
  O  O335  1  0.809010  0.766330  0.450080  1.0  -0.6949
  O  O336  1  0.846250  0.846010  0.557220  1.0  -0.6676
  O  O337  1  0.809010  0.683750  0.233670  1.0  -0.6962
  O  O338  1  0.846250  0.711210  0.153990  1.0  -0.6668
  O  O339  1  0.690990  0.766330  0.316250  1.0  -0.6903
  O  O340  1  0.653750  0.846010  0.288790  1.0  -0.6675
  O  O341  1  0.690990  0.683750  0.450080  1.0  -0.6937
  O  O342  1  0.653750  0.711210  0.557220  1.0  -0.6681
  O  O343  1  0.690990  0.549920  0.233670  1.0  -0.693
  O  O344  1  0.653750  0.442780  0.153990  1.0  -0.6665
