# generated using pymatgen
data_La2H3(C5O4)3
_symmetry_space_group_name_H-M   'P 1'
_cell_length_a   9.24670000
_cell_length_b   10.71500000
_cell_length_c   10.84000000
_cell_angle_alpha   86.19000000
_cell_angle_beta   84.05000000
_cell_angle_gamma   81.42000000
_symmetry_Int_Tables_number   1
_chemical_formula_structural   La2H3(C5O4)3
_chemical_formula_sum   'La4 H6 C30 O24'
_cell_volume   1054.84855855
_cell_formula_units_Z   2
loop_
 _symmetry_equiv_pos_site_id
 _symmetry_equiv_pos_as_xyz
  1  'x, y, z'
loop_
 _atom_site_type_symbol
 _atom_site_label
 _atom_site_symmetry_multiplicity
 _atom_site_fract_x
 _atom_site_fract_y
 _atom_site_fract_z
 _atom_site_occupancy
 _atom_site_charge
  La  La1  1  0.530600  0.739540  0.719670  1.0  2.1626
  La  La2  1  0.478110  0.823000  0.314050  1.0  2.1463
  La  La3  1  0.469400  0.260460  0.280330  1.0  2.1615
  La  La4  1  0.521890  0.177000  0.685950  1.0  2.148
  H  H5  1  0.040500  0.093400  0.803700  1.0  0.1116
  H  H6  1  0.071600  0.860900  0.664000  1.0  0.1299
  H  H7  1  0.012600  0.656000  0.341800  1.0  0.1141
  H  H8  1  0.959500  0.906600  0.196300  1.0  0.1114
  H  H9  1  0.928400  0.139100  0.336000  1.0  0.129
  H  H10  1  0.987400  0.344000  0.658200  1.0  0.1142
  C  C11  1  0.289200  0.989600  0.867000  1.0  0.6803
  C  C12  1  0.143000  0.994900  0.942200  1.0  -0.0565
  C  C13  1  0.024400  0.055100  0.882500  1.0  -0.0341
  C  C14  1  0.881100  0.059300  0.938700  1.0  -0.1163
  C  C15  1  0.756000  0.115600  0.862900  1.0  0.7155
  C  C16  1  0.782100  0.879100  0.650400  1.0  0.6823
  C  C17  1  0.897200  0.940000  0.573000  1.0  -0.0862
  C  C18  1  0.043200  0.917100  0.598800  1.0  -0.0662
  C  C19  1  0.146000  0.978700  0.526600  1.0  -0.063
  C  C20  1  0.303200  0.966900  0.559300  1.0  0.6711
  C  C21  1  0.280600  0.547600  0.369700  1.0  0.7232
  C  C22  1  0.135700  0.518800  0.438700  1.0  -0.0534
  C  C23  1  0.007500  0.593200  0.404900  1.0  -0.0237
  C  C24  1  0.871300  0.573400  0.465500  1.0  -0.1023
  C  C25  1  0.737200  0.651000  0.421900  1.0  0.7052
  C  C26  1  0.710800  0.010400  0.133000  1.0  0.6781
  C  C27  1  0.857000  0.005100  0.057800  1.0  -0.0558
  C  C28  1  0.975600  0.944900  0.117500  1.0  -0.036
  C  C29  1  0.118900  0.940700  0.061300  1.0  -0.1183
  C  C30  1  0.244000  0.884400  0.137100  1.0  0.7157
  C  C31  1  0.217900  0.120900  0.349600  1.0  0.6837
  C  C32  1  0.102800  0.060000  0.427000  1.0  -0.0861
  C  C33  1  0.956800  0.082900  0.401200  1.0  -0.071
  C  C34  1  0.854000  0.021300  0.473400  1.0  -0.0627
  C  C35  1  0.696800  0.033100  0.440700  1.0  0.6698
  C  C36  1  0.719400  0.452400  0.630300  1.0  0.7246
  C  C37  1  0.864300  0.481200  0.561300  1.0  -0.0511
  C  C38  1  0.992500  0.406800  0.595100  1.0  -0.0199
  C  C39  1  0.128700  0.426600  0.534500  1.0  -0.1022
  C  C40  1  0.262800  0.349000  0.578100  1.0  0.7044
  O  O41  1  0.383500  0.859300  0.545300  1.0  -0.7735
  O  O42  1  0.623900  0.676900  0.498600  1.0  -0.82
  O  O43  1  0.628900  0.092000  0.899700  1.0  -0.6396
  O  O44  1  0.781500  0.176300  0.763700  1.0  -0.6062
  O  O45  1  0.342600  0.060300  0.598000  1.0  -0.6378
  O  O46  1  0.347000  0.088500  0.848500  1.0  -0.6523
  O  O47  1  0.735500  0.687900  0.310500  1.0  -0.6665
  O  O48  1  0.808500  0.767400  0.692200  1.0  -0.6172
  O  O49  1  0.653600  0.943600  0.668400  1.0  -0.7458
  O  O50  1  0.341600  0.631100  0.408600  1.0  -0.6501
  O  O51  1  0.328600  0.486000  0.273300  1.0  -0.6906
  O  O52  1  0.335700  0.885700  0.817500  1.0  -0.737
  O  O53  1  0.616500  0.140700  0.454700  1.0  -0.7758
  O  O54  1  0.376100  0.323100  0.501400  1.0  -0.8189
  O  O55  1  0.371100  0.908000  0.100300  1.0  -0.6404
  O  O56  1  0.218500  0.823700  0.236300  1.0  -0.6051
  O  O57  1  0.657400  0.939700  0.402000  1.0  -0.6383
  O  O58  1  0.653000  0.911500  0.151500  1.0  -0.6523
  O  O59  1  0.264500  0.312100  0.689500  1.0  -0.6656
  O  O60  1  0.191500  0.232600  0.307800  1.0  -0.6178
  O  O61  1  0.346400  0.056400  0.331600  1.0  -0.7455
  O  O62  1  0.658400  0.368900  0.591400  1.0  -0.6492
  O  O63  1  0.671400  0.514000  0.726700  1.0  -0.6924
  O  O64  1  0.664300  0.114300  0.182500  1.0  -0.7397
