# generated using pymatgen
data_Ce2H3(C5O4)3
_symmetry_space_group_name_H-M   'P 1'
_cell_length_a   9.22520000
_cell_length_b   10.62700000
_cell_length_c   10.80700000
_cell_angle_alpha   86.51000000
_cell_angle_beta   83.93000000
_cell_angle_gamma   81.22000000
_symmetry_Int_Tables_number   1
_chemical_formula_structural   Ce2H3(C5O4)3
_chemical_formula_sum   'Ce4 H6 C30 O24'
_cell_volume   1040.11233096
_cell_formula_units_Z   2
loop_
 _symmetry_equiv_pos_site_id
 _symmetry_equiv_pos_as_xyz
  1  'x, y, z'
loop_
 _atom_site_type_symbol
 _atom_site_label
 _atom_site_symmetry_multiplicity
 _atom_site_fract_x
 _atom_site_fract_y
 _atom_site_fract_z
 _atom_site_occupancy
 _atom_site_charge
  Ce  Ce1  1  0.031050  0.239950  0.718580  1.0  2.1981
  Ce  Ce2  1  0.977590  0.323050  0.313730  1.0  2.2246
  Ce  Ce3  1  0.968950  0.760050  0.281420  1.0  2.198
  Ce  Ce4  1  0.022410  0.676950  0.686270  1.0  2.2257
  H  H5  1  0.426600  0.642800  0.339000  1.0  0.1227
  H  H6  1  0.509900  0.153300  0.338300  1.0  0.112
  H  H7  1  0.537300  0.594600  0.803900  1.0  0.1096
  H  H8  1  0.573400  0.357200  0.661000  1.0  0.1232
  H  H9  1  0.490100  0.846700  0.661700  1.0  0.1125
  H  H10  1  0.462700  0.405400  0.196100  1.0  0.1094
  C  C11  1  0.195800  0.532200  0.440800  1.0  0.6524
  C  C12  1  0.354900  0.521500  0.471700  1.0  -0.0424
  C  C13  1  0.455700  0.584500  0.402600  1.0  -0.0712
  C  C14  1  0.603500  0.561100  0.427600  1.0  -0.0965
  C  C15  1  0.718500  0.621700  0.348800  1.0  0.6922
  C  C16  1  0.234300  0.149200  0.420800  1.0  0.7017
  C  C17  1  0.372500  0.071200  0.462700  1.0  -0.0883
  C  C18  1  0.505900  0.091400  0.402700  1.0  -0.0274
  C  C19  1  0.637000  0.019000  0.438000  1.0  -0.0669
  C  C20  1  0.781700  0.046800  0.368800  1.0  0.7234
  C  C21  1  0.791000  0.492300  0.864800  1.0  0.6626
  C  C22  1  0.642400  0.497600  0.942900  1.0  -0.0552
  C  C23  1  0.379200  0.558500  0.938700  1.0  -0.1179
  C  C24  1  0.521900  0.556200  0.882900  1.0  -0.0429
  C  C25  1  0.253700  0.613200  0.864200  1.0  0.6948
  C  C26  1  0.804200  0.467800  0.559200  1.0  0.6545
  C  C27  1  0.645100  0.478500  0.528300  1.0  -0.0431
  C  C28  1  0.544300  0.415500  0.597400  1.0  -0.0687
  C  C29  1  0.396500  0.438900  0.572400  1.0  -0.0964
  C  C30  1  0.281500  0.378300  0.651200  1.0  0.6889
  C  C31  1  0.765700  0.850800  0.579200  1.0  0.7
  C  C32  1  0.627500  0.928800  0.537300  1.0  -0.0901
  C  C33  1  0.494100  0.908600  0.597300  1.0  -0.027
  C  C34  1  0.363000  0.981000  0.562000  1.0  -0.0645
  C  C35  1  0.218300  0.953200  0.631200  1.0  0.7261
  C  C36  1  0.209000  0.507700  0.135200  1.0  0.662
  C  C37  1  0.357600  0.502400  0.057100  1.0  -0.0542
  C  C38  1  0.620800  0.441500  0.061300  1.0  -0.1192
  C  C39  1  0.478100  0.443800  0.117100  1.0  -0.0446
  C  C40  1  0.746300  0.386800  0.135800  1.0  0.696
  O  O41  1  0.121400  0.176200  0.500100  1.0  -0.8179
  O  O42  1  0.232000  0.183000  0.309400  1.0  -0.6459
  O  O43  1  0.278700  0.674400  0.763200  1.0  -0.623
  O  O44  1  0.127000  0.588300  0.900000  1.0  -0.6212
  O  O45  1  0.840900  0.133700  0.407200  1.0  -0.6819
  O  O46  1  0.845300  0.592300  0.848300  1.0  -0.6379
  O  O47  1  0.114100  0.639700  0.455500  1.0  -0.7737
  O  O48  1  0.693600  0.734600  0.306500  1.0  -0.6359
  O  O49  1  0.848100  0.557600  0.330700  1.0  -0.7989
  O  O50  1  0.831500  0.984200  0.273400  1.0  -0.6986
  O  O51  1  0.159300  0.436300  0.401300  1.0  -0.638
  O  O52  1  0.837400  0.387900  0.817500  1.0  -0.7125
  O  O53  1  0.878600  0.823800  0.499900  1.0  -0.8174
  O  O54  1  0.768000  0.817000  0.690600  1.0  -0.6487
  O  O55  1  0.721300  0.325600  0.236800  1.0  -0.623
  O  O56  1  0.873000  0.411700  0.100000  1.0  -0.6208
  O  O57  1  0.159100  0.866300  0.592800  1.0  -0.6816
  O  O58  1  0.154700  0.407700  0.151700  1.0  -0.6394
  O  O59  1  0.885900  0.360300  0.544500  1.0  -0.7729
  O  O60  1  0.306400  0.265400  0.693500  1.0  -0.6324
  O  O61  1  0.151900  0.442400  0.669300  1.0  -0.8
  O  O62  1  0.168500  0.015800  0.726600  1.0  -0.7015
  O  O63  1  0.840700  0.563700  0.598700  1.0  -0.6367
  O  O64  1  0.162600  0.612100  0.182500  1.0  -0.7141
