# generated using pymatgen
data_Cu2H16C29O8
_symmetry_space_group_name_H-M   'P 1'
_cell_length_a   12.24800000
_cell_length_b   12.24800000
_cell_length_c   22.87670000
_cell_angle_alpha   90.00000000
_cell_angle_beta   90.00000000
_cell_angle_gamma   90.00000000
_symmetry_Int_Tables_number   1
_chemical_formula_structural   Cu2H16C29O8
_chemical_formula_sum   'Cu4 H32 C58 O16'
_cell_volume   3431.81392696
_cell_formula_units_Z   2
loop_
 _symmetry_equiv_pos_site_id
 _symmetry_equiv_pos_as_xyz
  1  'x, y, z'
loop_
 _atom_site_type_symbol
 _atom_site_label
 _atom_site_symmetry_multiplicity
 _atom_site_fract_x
 _atom_site_fract_y
 _atom_site_fract_z
 _atom_site_occupancy
 _atom_site_charge
  Cu  Cu1  1  0.000000  0.607710  0.000000  1.0  0.9031
  Cu  Cu2  1  0.000000  0.392290  0.000000  1.0  0.9039
  Cu  Cu3  1  0.392290  0.000000  0.500000  1.0  0.901
  Cu  Cu4  1  0.607710  0.000000  0.500000  1.0  0.9029
  H  H5  1  0.611100  0.662000  0.801300  1.0  0.1073
  H  H6  1  0.746500  0.662300  0.870400  1.0  0.1069
  H  H7  1  0.388900  0.338000  0.801300  1.0  0.107
  H  H8  1  0.253500  0.337700  0.870400  1.0  0.1069
  H  H9  1  0.338000  0.611100  0.301300  1.0  0.1074
  H  H10  1  0.337700  0.746500  0.370400  1.0  0.1065
  H  H11  1  0.662000  0.388900  0.301300  1.0  0.1076
  H  H12  1  0.662300  0.253500  0.370400  1.0  0.1067
  H  H13  1  0.388900  0.662000  0.198700  1.0  0.1075
  H  H14  1  0.253500  0.662300  0.129600  1.0  0.1067
  H  H15  1  0.611100  0.338000  0.198700  1.0  0.1068
  H  H16  1  0.746500  0.337700  0.129600  1.0  0.1069
  H  H17  1  0.662000  0.611100  0.698700  1.0  0.1071
  H  H18  1  0.662300  0.746500  0.629600  1.0  0.1069
  H  H19  1  0.338000  0.388900  0.698700  1.0  0.1071
  H  H20  1  0.337700  0.253500  0.629600  1.0  0.1066
  H  H21  1  0.388900  0.338000  0.198700  1.0  0.1068
  H  H22  1  0.253500  0.337700  0.129600  1.0  0.1066
  H  H23  1  0.611100  0.662000  0.198700  1.0  0.1077
  H  H24  1  0.746500  0.662300  0.129600  1.0  0.1069
  H  H25  1  0.662000  0.388900  0.698700  1.0  0.1072
  H  H26  1  0.662300  0.253500  0.629600  1.0  0.1064
  H  H27  1  0.338000  0.611100  0.698700  1.0  0.1074
  H  H28  1  0.337700  0.746500  0.629600  1.0  0.1066
  H  H29  1  0.611100  0.338000  0.801300  1.0  0.1073
  H  H30  1  0.746500  0.337700  0.870400  1.0  0.1072
  H  H31  1  0.388900  0.662000  0.801300  1.0  0.1071
  H  H32  1  0.253500  0.662300  0.870400  1.0  0.1067
  H  H33  1  0.338000  0.388900  0.301300  1.0  0.1074
  H  H34  1  0.337700  0.253500  0.370400  1.0  0.1068
  H  H35  1  0.662000  0.611100  0.301300  1.0  0.1071
  H  H36  1  0.662300  0.746500  0.370400  1.0  0.1067
  C  C37  1  0.639200  0.596100  0.814750  1.0  -0.1504
  C  C38  1  0.720000  0.596200  0.856400  1.0  -0.0286
  C  C39  1  0.360800  0.403900  0.814750  1.0  -0.1504
  C  C40  1  0.280000  0.403800  0.856400  1.0  -0.0274
  C  C41  1  0.403900  0.639200  0.314750  1.0  -0.1492
  C  C42  1  0.403800  0.720000  0.356400  1.0  -0.0264
  C  C43  1  0.596100  0.360800  0.314750  1.0  -0.1493
  C  C44  1  0.596200  0.280000  0.356400  1.0  -0.027
  C  C45  1  0.360800  0.596100  0.185250  1.0  -0.1494
  C  C46  1  0.280000  0.596200  0.143600  1.0  -0.0281
  C  C47  1  0.639200  0.403900  0.185250  1.0  -0.1506
  C  C48  1  0.720000  0.403800  0.143600  1.0  -0.0293
  C  C49  1  0.596100  0.639200  0.685250  1.0  -0.1484
  C  C50  1  0.596200  0.720000  0.643600  1.0  -0.0264
  C  C51  1  0.403900  0.360800  0.685250  1.0  -0.148
  C  C52  1  0.403800  0.280000  0.643600  1.0  -0.0246
  C  C53  1  0.360800  0.403900  0.185250  1.0  -0.1506
  C  C54  1  0.280000  0.403800  0.143600  1.0  -0.0256
  C  C55  1  0.639200  0.596100  0.185250  1.0  -0.1497
  C  C56  1  0.720000  0.596200  0.143600  1.0  -0.0273
  C  C57  1  0.596100  0.360800  0.685250  1.0  -0.1485
  C  C58  1  0.596200  0.280000  0.643600  1.0  -0.0248
  C  C59  1  0.403900  0.639200  0.685250  1.0  -0.1485
  C  C60  1  0.403800  0.720000  0.643600  1.0  -0.0245
  C  C61  1  0.639200  0.403900  0.814750  1.0  -0.1502
  C  C62  1  0.720000  0.403800  0.856400  1.0  -0.0275
  C  C63  1  0.360800  0.596100  0.814750  1.0  -0.1501
  C  C64  1  0.280000  0.596200  0.856400  1.0  -0.0265
  C  C65  1  0.403900  0.360800  0.314750  1.0  -0.1478
  C  C66  1  0.403800  0.280000  0.356400  1.0  -0.0233
  C  C67  1  0.596100  0.639200  0.314750  1.0  -0.1496
  C  C68  1  0.596200  0.720000  0.356400  1.0  -0.0249
  C  C69  1  0.599600  0.500000  0.792800  1.0  0.0549
  C  C70  1  0.855100  0.500000  0.923600  1.0  0.6609
  C  C71  1  0.762500  0.500000  0.877700  1.0  -0.139
  C  C72  1  0.400400  0.500000  0.792800  1.0  0.055
  C  C73  1  0.144900  0.500000  0.923600  1.0  0.6609
  C  C74  1  0.237500  0.500000  0.877700  1.0  -0.1387
  C  C75  1  0.500000  0.599600  0.292800  1.0  0.0566
  C  C76  1  0.500000  0.855100  0.423600  1.0  0.6607
  C  C77  1  0.500000  0.762500  0.377700  1.0  -0.1349
  C  C78  1  0.500000  0.400400  0.292800  1.0  0.0562
  C  C79  1  0.500000  0.144900  0.423600  1.0  0.6605
  C  C80  1  0.500000  0.237500  0.377700  1.0  -0.1354
  C  C81  1  0.400400  0.500000  0.207200  1.0  0.055
  C  C82  1  0.144900  0.500000  0.076400  1.0  0.6608
  C  C83  1  0.237500  0.500000  0.122300  1.0  -0.1384
  C  C84  1  0.599600  0.500000  0.207200  1.0  0.0547
  C  C85  1  0.855100  0.500000  0.076400  1.0  0.6609
  C  C86  1  0.762500  0.500000  0.122300  1.0  -0.1374
  C  C87  1  0.500000  0.599600  0.707200  1.0  0.0565
  C  C88  1  0.500000  0.855100  0.576400  1.0  0.6606
  C  C89  1  0.500000  0.762500  0.622300  1.0  -0.133
  C  C90  1  0.500000  0.400400  0.707200  1.0  0.056
  C  C91  1  0.500000  0.144900  0.576400  1.0  0.6604
  C  C92  1  0.500000  0.237500  0.622300  1.0  -0.135
  C  C93  1  0.500000  0.500000  0.750000  1.0  0.0103
  C  C94  1  0.500000  0.500000  0.250000  1.0  0.0103
  O  O95  1  0.886900  0.592500  0.940470  1.0  -0.5539
  O  O96  1  0.113100  0.407500  0.940470  1.0  -0.5552
  O  O97  1  0.407500  0.886900  0.440470  1.0  -0.5552
  O  O98  1  0.592500  0.113100  0.440470  1.0  -0.5555
  O  O99  1  0.113100  0.592500  0.059530  1.0  -0.5546
  O  O100  1  0.886900  0.407500  0.059530  1.0  -0.5552
  O  O101  1  0.592500  0.886900  0.559530  1.0  -0.5554
  O  O102  1  0.407500  0.113100  0.559530  1.0  -0.5557
  O  O103  1  0.113100  0.407500  0.059530  1.0  -0.5552
  O  O104  1  0.886900  0.592500  0.059530  1.0  -0.5543
  O  O105  1  0.592500  0.113100  0.559530  1.0  -0.5556
  O  O106  1  0.407500  0.886900  0.559530  1.0  -0.5556
  O  O107  1  0.886900  0.407500  0.940470  1.0  -0.5552
  O  O108  1  0.113100  0.592500  0.940470  1.0  -0.5541
  O  O109  1  0.407500  0.113100  0.440470  1.0  -0.5552
  O  O110  1  0.592500  0.886900  0.440470  1.0  -0.5555
