# generated using pymatgen
data_Cu2H32C53O8
_symmetry_space_group_name_H-M   'P 1'
_cell_length_a   18.14270000
_cell_length_b   18.14270000
_cell_length_c   35.41000000
_cell_angle_alpha   90.00000000
_cell_angle_beta   90.00000000
_cell_angle_gamma   90.00000000
_symmetry_Int_Tables_number   1
_chemical_formula_structural   Cu2H32C53O8
_chemical_formula_sum   'Cu8 H128 C212 O32'
_cell_volume   11655.46931610
_cell_formula_units_Z   4
loop_
 _symmetry_equiv_pos_site_id
 _symmetry_equiv_pos_as_xyz
  1  'x, y, z'
loop_
 _atom_site_type_symbol
 _atom_site_label
 _atom_site_symmetry_multiplicity
 _atom_site_fract_x
 _atom_site_fract_y
 _atom_site_fract_z
 _atom_site_occupancy
 _atom_site_charge
  Cu  Cu1  1  0.507050  0.426790  0.711890  1.0  0.9365
  Cu  Cu2  1  0.492950  0.573210  0.711890  1.0  0.9329
  Cu  Cu3  1  0.073210  0.992950  0.211890  1.0  0.929
  Cu  Cu4  1  0.926790  0.007050  0.211890  1.0  0.9298
  Cu  Cu5  1  0.426790  0.492950  0.288110  1.0  0.9298
  Cu  Cu6  1  0.573210  0.507050  0.288110  1.0  0.9287
  Cu  Cu7  1  0.992950  0.926790  0.788110  1.0  0.9361
  Cu  Cu8  1  0.007050  0.073210  0.788110  1.0  0.934
  H  H9  1  0.825600  0.607700  0.539200  1.0  0.1155
  H  H10  1  0.918400  0.612600  0.493800  1.0  0.1362
  H  H11  1  0.934300  0.390800  0.495900  1.0  0.1222
  H  H12  1  0.841500  0.385800  0.541300  1.0  0.1255
  H  H13  1  0.097300  0.645100  0.369900  1.0  0.1216
  H  H14  1  0.099400  0.550200  0.414200  1.0  0.1297
  H  H15  1  0.890800  0.599600  0.444600  1.0  0.1289
  H  H16  1  0.888700  0.694500  0.400300  1.0  0.1225
  H  H17  1  0.651800  0.612100  0.616600  1.0  0.1171
  H  H18  1  0.742000  0.608400  0.569800  1.0  0.1241
  H  H19  1  0.768500  0.390400  0.587700  1.0  0.1259
  H  H20  1  0.678300  0.394000  0.634500  1.0  0.112
  H  H21  1  0.883000  0.840100  0.300200  1.0  0.1122
  H  H22  1  0.881600  0.753200  0.348600  1.0  0.1275
  H  H23  1  0.103600  0.741900  0.344900  1.0  0.1238
  H  H24  1  0.105000  0.828800  0.296500  1.0  0.1174
  H  H25  1  0.174400  0.392300  0.539200  1.0  0.1151
  H  H26  1  0.081600  0.387400  0.493800  1.0  0.1339
  H  H27  1  0.065700  0.609200  0.495900  1.0  0.1215
  H  H28  1  0.158500  0.614200  0.541300  1.0  0.1257
  H  H29  1  0.902700  0.354900  0.369900  1.0  0.1207
  H  H30  1  0.900600  0.449800  0.414200  1.0  0.1302
  H  H31  1  0.109200  0.400400  0.444600  1.0  0.126
  H  H32  1  0.111300  0.305500  0.400300  1.0  0.1226
  H  H33  1  0.348200  0.387900  0.616600  1.0  0.1167
  H  H34  1  0.258000  0.391600  0.569800  1.0  0.1246
  H  H35  1  0.231500  0.609600  0.587700  1.0  0.1261
  H  H36  1  0.321700  0.606000  0.634500  1.0  0.1124
  H  H37  1  0.117000  0.159900  0.300200  1.0  0.1118
  H  H38  1  0.118400  0.246800  0.348600  1.0  0.1281
  H  H39  1  0.896400  0.258100  0.344900  1.0  0.1232
  H  H40  1  0.895000  0.171200  0.296500  1.0  0.1175
  H  H41  1  0.892300  0.674400  0.039200  1.0  0.1129
  H  H42  1  0.887400  0.581600  0.993800  1.0  0.1347
  H  H43  1  0.109200  0.565700  0.995900  1.0  0.1239
  H  H44  1  0.114200  0.658500  0.041300  1.0  0.1242
  H  H45  1  0.854900  0.402700  0.869900  1.0  0.1224
  H  H46  1  0.949800  0.400600  0.914200  1.0  0.1295
  H  H47  1  0.900400  0.609200  0.944600  1.0  0.1292
  H  H48  1  0.805500  0.611300  0.900300  1.0  0.1235
  H  H49  1  0.887900  0.848200  0.116600  1.0  0.1171
  H  H50  1  0.891600  0.758000  0.069800  1.0  0.1225
  H  H51  1  0.109600  0.731500  0.087700  1.0  0.1227
  H  H52  1  0.106000  0.821700  0.134500  1.0  0.1127
  H  H53  1  0.659900  0.617000  0.800200  1.0  0.1125
  H  H54  1  0.746800  0.618400  0.848600  1.0  0.1296
  H  H55  1  0.758100  0.396400  0.844900  1.0  0.1255
  H  H56  1  0.671200  0.395000  0.796500  1.0  0.1182
  H  H57  1  0.107700  0.325600  0.039200  1.0  0.112
  H  H58  1  0.112600  0.418400  0.993800  1.0  0.1328
  H  H59  1  0.890800  0.434300  0.995900  1.0  0.1241
  H  H60  1  0.885800  0.341500  0.041300  1.0  0.1241
  H  H61  1  0.145100  0.597300  0.869900  1.0  0.1217
  H  H62  1  0.050200  0.599400  0.914200  1.0  0.1296
  H  H63  1  0.099600  0.390800  0.944600  1.0  0.1272
  H  H64  1  0.194500  0.388700  0.900300  1.0  0.1238
  H  H65  1  0.112100  0.151800  0.116600  1.0  0.1173
  H  H66  1  0.108400  0.242000  0.069800  1.0  0.1225
  H  H67  1  0.890400  0.268500  0.087700  1.0  0.1225
  H  H68  1  0.894000  0.178300  0.134500  1.0  0.1124
  H  H69  1  0.340100  0.383000  0.800200  1.0  0.1122
  H  H70  1  0.253200  0.381600  0.848600  1.0  0.1287
  H  H71  1  0.241900  0.603600  0.844900  1.0  0.1252
  H  H72  1  0.328800  0.605000  0.796500  1.0  0.1183
  H  H73  1  0.607700  0.174400  0.460800  1.0  0.1121
  H  H74  1  0.612600  0.081600  0.506200  1.0  0.1332
  H  H75  1  0.390800  0.065700  0.504100  1.0  0.1243
  H  H76  1  0.385800  0.158500  0.458700  1.0  0.1241
  H  H77  1  0.645100  0.902700  0.630100  1.0  0.1229
  H  H78  1  0.550200  0.900600  0.585800  1.0  0.1296
  H  H79  1  0.599600  0.109200  0.555400  1.0  0.128
  H  H80  1  0.694500  0.111300  0.599700  1.0  0.1233
  H  H81  1  0.612100  0.348200  0.383400  1.0  0.1177
  H  H82  1  0.608400  0.258000  0.430200  1.0  0.1234
  H  H83  1  0.390400  0.231500  0.412300  1.0  0.1223
  H  H84  1  0.394000  0.321700  0.365500  1.0  0.1131
  H  H85  1  0.840100  0.117000  0.699800  1.0  0.1126
  H  H86  1  0.753200  0.118400  0.651400  1.0  0.1295
  H  H87  1  0.741900  0.896400  0.655100  1.0  0.125
  H  H88  1  0.828800  0.895000  0.703500  1.0  0.1181
  H  H89  1  0.392300  0.825600  0.460800  1.0  0.1116
  H  H90  1  0.387400  0.918400  0.506200  1.0  0.135
  H  H91  1  0.609200  0.934300  0.504100  1.0  0.1237
  H  H92  1  0.614200  0.841500  0.458700  1.0  0.1235
  H  H93  1  0.354900  0.097300  0.630100  1.0  0.123
  H  H94  1  0.449800  0.099400  0.585800  1.0  0.1295
  H  H95  1  0.400400  0.890800  0.555400  1.0  0.1284
  H  H96  1  0.305500  0.888700  0.599700  1.0  0.1234
  H  H97  1  0.387900  0.651800  0.383400  1.0  0.1176
  H  H98  1  0.391600  0.742000  0.430200  1.0  0.1229
  H  H99  1  0.609600  0.768500  0.412300  1.0  0.1232
  H  H100  1  0.606000  0.678300  0.365500  1.0  0.1129
  H  H101  1  0.159900  0.883000  0.699800  1.0  0.1126
  H  H102  1  0.246800  0.881600  0.651400  1.0  0.1289
  H  H103  1  0.258100  0.103600  0.655100  1.0  0.1256
  H  H104  1  0.171200  0.105000  0.703500  1.0  0.1183
  H  H105  1  0.674400  0.107700  0.960800  1.0  0.1148
  H  H106  1  0.581600  0.112600  0.006200  1.0  0.1355
  H  H107  1  0.565700  0.890800  0.004100  1.0  0.1222
  H  H108  1  0.658500  0.885800  0.958700  1.0  0.1253
  H  H109  1  0.402700  0.145100  0.130100  1.0  0.1217
  H  H110  1  0.400600  0.050200  0.085800  1.0  0.1305
  H  H111  1  0.609200  0.099600  0.055400  1.0  0.1273
  H  H112  1  0.611300  0.194500  0.099700  1.0  0.1228
  H  H113  1  0.848200  0.112100  0.883400  1.0  0.1174
  H  H114  1  0.758000  0.108400  0.930200  1.0  0.1252
  H  H115  1  0.731500  0.890400  0.912300  1.0  0.1255
  H  H116  1  0.821700  0.894000  0.865500  1.0  0.1122
  H  H117  1  0.617000  0.340100  0.199800  1.0  0.112
  H  H118  1  0.618400  0.253200  0.151400  1.0  0.1281
  H  H119  1  0.396400  0.241900  0.155100  1.0  0.1232
  H  H120  1  0.395000  0.328800  0.203500  1.0  0.1174
  H  H121  1  0.325600  0.892300  0.960800  1.0  0.1141
  H  H122  1  0.418400  0.887400  0.006200  1.0  0.1347
  H  H123  1  0.434300  0.109200  0.004100  1.0  0.1222
  H  H124  1  0.341500  0.114200  0.958700  1.0  0.1257
  H  H125  1  0.597300  0.854900  0.130100  1.0  0.1218
  H  H126  1  0.599400  0.949800  0.085800  1.0  0.1297
  H  H127  1  0.390800  0.900400  0.055400  1.0  0.1294
  H  H128  1  0.388700  0.805500  0.099700  1.0  0.1225
  H  H129  1  0.151800  0.887900  0.883400  1.0  0.1169
  H  H130  1  0.242000  0.891600  0.930200  1.0  0.1251
  H  H131  1  0.268500  0.109600  0.912300  1.0  0.1267
  H  H132  1  0.178300  0.106000  0.865500  1.0  0.1128
  H  H133  1  0.383000  0.659900  0.199800  1.0  0.1123
  H  H134  1  0.381600  0.746800  0.151400  1.0  0.1273
  H  H135  1  0.603600  0.758100  0.155100  1.0  0.1244
  H  H136  1  0.605000  0.671200  0.203500  1.0  0.1175
  C  C137  1  0.824600  0.496300  0.544600  1.0  0.0535
  C  C138  1  0.847500  0.563900  0.530400  1.0  -0.1222
  C  C139  1  0.902900  0.566900  0.503400  1.0  -0.1287
  C  C140  1  0.935300  0.502200  0.490400  1.0  0.0082
  C  C141  1  0.912300  0.434500  0.504600  1.0  -0.1346
  C  C142  1  0.857000  0.431600  0.531700  1.0  -0.1352
  C  C143  1  0.597800  0.509300  0.660200  1.0  0.6847
  C  C144  1  0.992800  0.679000  0.380800  1.0  0.0539
  C  C145  1  0.055600  0.636000  0.384900  1.0  -0.13
  C  C146  1  0.056900  0.579300  0.411400  1.0  -0.133
  C  C147  1  0.995300  0.565700  0.433600  1.0  0.0274
  C  C148  1  0.932500  0.608800  0.429500  1.0  -0.1335
  C  C149  1  0.931200  0.665400  0.403100  1.0  -0.1318
  C  C150  1  0.656400  0.503400  0.630100  1.0  -0.1195
  C  C151  1  0.675400  0.567400  0.610800  1.0  -0.0526
  C  C152  1  0.729200  0.565200  0.582800  1.0  -0.1747
  C  C153  1  0.764000  0.499000  0.574200  1.0  0.0159
  C  C154  1  0.745000  0.435100  0.593500  1.0  -0.1228
  C  C155  1  0.691200  0.437300  0.621400  1.0  -0.048
  C  C156  1  0.994100  0.842900  0.293700  1.0  -0.1037
  C  C157  1  0.927500  0.820300  0.309200  1.0  -0.0663
  C  C158  1  0.926700  0.768400  0.338100  1.0  -0.1188
  C  C159  1  0.992500  0.739100  0.351400  1.0  0.0399
  C  C160  1  0.059100  0.761700  0.335900  1.0  -0.1339
  C  C161  1  0.059900  0.813600  0.307000  1.0  -0.0456
  C  C162  1  0.998200  0.897400  0.262500  1.0  0.5849
  C  C163  1  0.175400  0.503700  0.544600  1.0  0.0531
  C  C164  1  0.152500  0.436100  0.530400  1.0  -0.1227
  C  C165  1  0.097100  0.433100  0.503400  1.0  -0.1243
  C  C166  1  0.064700  0.497800  0.490400  1.0  0.0094
  C  C167  1  0.087700  0.565500  0.504600  1.0  -0.1351
  C  C168  1  0.143000  0.568400  0.531700  1.0  -0.1344
  C  C169  1  0.402200  0.490700  0.660200  1.0  0.6836
  C  C170  1  0.007200  0.321000  0.380800  1.0  0.0529
  C  C171  1  0.944400  0.364000  0.384900  1.0  -0.1281
  C  C172  1  0.943100  0.420700  0.411400  1.0  -0.1349
  C  C173  1  0.004700  0.434300  0.433600  1.0  0.027
  C  C174  1  0.067500  0.391200  0.429500  1.0  -0.1319
  C  C175  1  0.068800  0.334600  0.403100  1.0  -0.133
  C  C176  1  0.343600  0.496600  0.630100  1.0  -0.1193
  C  C177  1  0.324600  0.432600  0.610800  1.0  -0.052
  C  C178  1  0.270800  0.434800  0.582800  1.0  -0.1731
  C  C179  1  0.236000  0.501000  0.574200  1.0  0.0163
  C  C180  1  0.255000  0.564900  0.593500  1.0  -0.1243
  C  C181  1  0.308800  0.562700  0.621400  1.0  -0.0482
  C  C182  1  0.005900  0.157100  0.293700  1.0  -0.1036
  C  C183  1  0.072500  0.179700  0.309200  1.0  -0.0656
  C  C184  1  0.073300  0.231600  0.338100  1.0  -0.1182
  C  C185  1  0.007500  0.260900  0.351400  1.0  0.0393
  C  C186  1  0.940900  0.238300  0.335900  1.0  -0.136
  C  C187  1  0.940100  0.186400  0.307000  1.0  -0.0457
  C  C188  1  0.001800  0.102600  0.262500  1.0  0.5851
  C  C189  1  0.003700  0.675400  0.044600  1.0  0.0548
  C  C190  1  0.936100  0.652500  0.030400  1.0  -0.1192
  C  C191  1  0.933100  0.597100  0.003400  1.0  -0.1257
  C  C192  1  0.997800  0.564700  0.990400  1.0  0.0135
  C  C193  1  0.065500  0.587700  0.004600  1.0  -0.131
  C  C194  1  0.068400  0.643000  0.031700  1.0  -0.1282
  C  C195  1  0.990700  0.902200  0.160200  1.0  0.6856
  C  C196  1  0.821000  0.507200  0.880800  1.0  0.0497
  C  C197  1  0.864000  0.444400  0.884900  1.0  -0.1301
  C  C198  1  0.920700  0.443100  0.911400  1.0  -0.1388
  C  C199  1  0.934300  0.504700  0.933600  1.0  0.0239
  C  C200  1  0.891200  0.567500  0.929500  1.0  -0.1352
  C  C201  1  0.834600  0.568800  0.903100  1.0  -0.1322
  C  C202  1  0.996600  0.843600  0.130100  1.0  -0.1187
  C  C203  1  0.932600  0.824600  0.110800  1.0  -0.051
  C  C204  1  0.934800  0.770800  0.082800  1.0  -0.1732
  C  C205  1  0.001000  0.736000  0.074200  1.0  0.015
  C  C206  1  0.064900  0.755000  0.093500  1.0  -0.1225
  C  C207  1  0.062700  0.808800  0.121400  1.0  -0.0463
  C  C208  1  0.657100  0.505900  0.793700  1.0  -0.1046
  C  C209  1  0.679700  0.572500  0.809200  1.0  -0.0679
  C  C210  1  0.731600  0.573300  0.838100  1.0  -0.1213
  C  C211  1  0.760900  0.507500  0.851400  1.0  0.0391
  C  C212  1  0.738300  0.440900  0.835900  1.0  -0.1358
  C  C213  1  0.686400  0.440100  0.807000  1.0  -0.0476
  C  C214  1  0.602600  0.501800  0.762500  1.0  0.5848
  C  C215  1  0.996300  0.324600  0.044600  1.0  0.056
  C  C216  1  0.063900  0.347500  0.030400  1.0  -0.1197
  C  C217  1  0.066900  0.402900  0.003400  1.0  -0.1239
  C  C218  1  0.002200  0.435300  0.990400  1.0  0.0121
  C  C219  1  0.934500  0.412300  0.004600  1.0  -0.1309
  C  C220  1  0.931600  0.357000  0.031700  1.0  -0.1284
  C  C221  1  0.009300  0.097800  0.160200  1.0  0.6844
  C  C222  1  0.179000  0.492800  0.880800  1.0  0.0511
  C  C223  1  0.136000  0.555600  0.884900  1.0  -0.1309
  C  C224  1  0.079300  0.556900  0.911400  1.0  -0.1358
  C  C225  1  0.065700  0.495300  0.933600  1.0  0.023
  C  C226  1  0.108800  0.432500  0.929500  1.0  -0.1335
  C  C227  1  0.165400  0.431200  0.903100  1.0  -0.1341
  C  C228  1  0.003400  0.156400  0.130100  1.0  -0.1185
  C  C229  1  0.067400  0.175400  0.110800  1.0  -0.0494
  C  C230  1  0.065200  0.229200  0.082800  1.0  -0.1717
  C  C231  1  0.999000  0.264000  0.074200  1.0  0.0163
  C  C232  1  0.935100  0.245000  0.093500  1.0  -0.1219
  C  C233  1  0.937300  0.191200  0.121400  1.0  -0.0467
  C  C234  1  0.342900  0.494100  0.793700  1.0  -0.1044
  C  C235  1  0.320300  0.427500  0.809200  1.0  -0.0667
  C  C236  1  0.268400  0.426700  0.838100  1.0  -0.1225
  C  C237  1  0.239100  0.492500  0.851400  1.0  0.0397
  C  C238  1  0.261700  0.559100  0.835900  1.0  -0.1366
  C  C239  1  0.313600  0.559900  0.807000  1.0  -0.0473
  C  C240  1  0.397400  0.498200  0.762500  1.0  0.5851
  C  C241  1  0.000000  0.500000  0.461700  1.0  -0.0083
  C  C242  1  0.000000  0.500000  0.961700  1.0  -0.0083
  C  C243  1  0.496300  0.175400  0.455400  1.0  0.0574
  C  C244  1  0.563900  0.152500  0.469600  1.0  -0.1196
  C  C245  1  0.566900  0.097100  0.496600  1.0  -0.1226
  C  C246  1  0.502200  0.064700  0.509600  1.0  0.0125
  C  C247  1  0.434500  0.087700  0.495400  1.0  -0.1318
  C  C248  1  0.431600  0.143000  0.468300  1.0  -0.1285
  C  C249  1  0.509300  0.402200  0.339800  1.0  0.6842
  C  C250  1  0.679000  0.007200  0.619200  1.0  0.0507
  C  C251  1  0.636000  0.944400  0.615100  1.0  -0.1304
  C  C252  1  0.579300  0.943100  0.588600  1.0  -0.1374
  C  C253  1  0.565700  0.004700  0.566400  1.0  0.0225
  C  C254  1  0.608800  0.067500  0.570500  1.0  -0.135
  C  C255  1  0.665400  0.068800  0.596900  1.0  -0.1337
  C  C256  1  0.503400  0.343600  0.369900  1.0  -0.1186
  C  C257  1  0.567400  0.324600  0.389200  1.0  -0.0493
  C  C258  1  0.565200  0.270800  0.417200  1.0  -0.1719
  C  C259  1  0.499000  0.236000  0.425800  1.0  0.0157
  C  C260  1  0.435100  0.255000  0.406500  1.0  -0.1218
  C  C261  1  0.437300  0.308800  0.378600  1.0  -0.0468
  C  C262  1  0.842900  0.005900  0.706300  1.0  -0.1037
  C  C263  1  0.820300  0.072500  0.690800  1.0  -0.0673
  C  C264  1  0.768400  0.073300  0.661900  1.0  -0.1226
  C  C265  1  0.739100  0.007500  0.648600  1.0  0.0399
  C  C266  1  0.761700  0.940900  0.664100  1.0  -0.1362
  C  C267  1  0.813600  0.940100  0.693000  1.0  -0.047
  C  C268  1  0.897400  0.001800  0.737500  1.0  0.5853
  C  C269  1  0.503700  0.824600  0.455400  1.0  0.0551
  C  C270  1  0.436100  0.847500  0.469600  1.0  -0.1185
  C  C271  1  0.433100  0.902900  0.496600  1.0  -0.1249
  C  C272  1  0.497800  0.935300  0.509600  1.0  0.0124
  C  C273  1  0.565500  0.912300  0.495400  1.0  -0.1291
  C  C274  1  0.568400  0.857000  0.468300  1.0  -0.1285
  C  C275  1  0.490700  0.597800  0.339800  1.0  0.6847
  C  C276  1  0.321000  0.992800  0.619200  1.0  0.0496
  C  C277  1  0.364000  0.055600  0.615100  1.0  -0.1298
  C  C278  1  0.420700  0.056900  0.588600  1.0  -0.138
  C  C279  1  0.434300  0.995300  0.566400  1.0  0.0238
  C  C280  1  0.391200  0.932500  0.570500  1.0  -0.1359
  C  C281  1  0.334600  0.931200  0.596900  1.0  -0.1328
  C  C282  1  0.496600  0.656400  0.369900  1.0  -0.1191
  C  C283  1  0.432600  0.675400  0.389200  1.0  -0.0507
  C  C284  1  0.434800  0.729200  0.417200  1.0  -0.1741
  C  C285  1  0.501000  0.764000  0.425800  1.0  0.0157
  C  C286  1  0.564900  0.745000  0.406500  1.0  -0.122
  C  C287  1  0.562700  0.691200  0.378600  1.0  -0.0466
  C  C288  1  0.157100  0.994100  0.706300  1.0  -0.1041
  C  C289  1  0.179700  0.927500  0.690800  1.0  -0.0671
  C  C290  1  0.231600  0.926700  0.661900  1.0  -0.1211
  C  C291  1  0.260900  0.992500  0.648600  1.0  0.039
  C  C292  1  0.238300  0.059100  0.664100  1.0  -0.1352
  C  C293  1  0.186400  0.059900  0.693000  1.0  -0.0482
  C  C294  1  0.102600  0.998200  0.737500  1.0  0.5853
  C  C295  1  0.675400  0.996300  0.955400  1.0  0.0537
  C  C296  1  0.652500  0.063900  0.969600  1.0  -0.1222
  C  C297  1  0.597100  0.066900  0.996600  1.0  -0.1265
  C  C298  1  0.564700  0.002200  0.009600  1.0  0.0088
  C  C299  1  0.587700  0.934500  0.995400  1.0  -0.1336
  C  C300  1  0.643000  0.931600  0.968300  1.0  -0.1339
  C  C301  1  0.902200  0.009300  0.839800  1.0  0.6829
  C  C302  1  0.507200  0.179000  0.119200  1.0  0.0532
  C  C303  1  0.444400  0.136000  0.115100  1.0  -0.1288
  C  C304  1  0.443100  0.079300  0.088600  1.0  -0.1361
  C  C305  1  0.504700  0.065700  0.066400  1.0  0.0271
  C  C306  1  0.567500  0.108800  0.070500  1.0  -0.1339
  C  C307  1  0.568800  0.165400  0.096900  1.0  -0.1319
  C  C308  1  0.843600  0.003400  0.869900  1.0  -0.1197
  C  C309  1  0.824600  0.067400  0.889200  1.0  -0.0529
  C  C310  1  0.770800  0.065200  0.917200  1.0  -0.1753
  C  C311  1  0.736000  0.999000  0.925800  1.0  0.0161
  C  C312  1  0.755000  0.935100  0.906500  1.0  -0.1238
  C  C313  1  0.808800  0.937300  0.878600  1.0  -0.0476
  C  C314  1  0.505900  0.342900  0.206300  1.0  -0.1031
  C  C315  1  0.572500  0.320300  0.190800  1.0  -0.0651
  C  C316  1  0.573300  0.268400  0.161900  1.0  -0.1185
  C  C317  1  0.507500  0.239100  0.148600  1.0  0.0399
  C  C318  1  0.440900  0.261700  0.164100  1.0  -0.1348
  C  C319  1  0.440100  0.313600  0.193000  1.0  -0.0455
  C  C320  1  0.501800  0.397400  0.237500  1.0  0.585
  C  C321  1  0.324600  0.003700  0.955400  1.0  0.0537
  C  C322  1  0.347500  0.936100  0.969600  1.0  -0.1219
  C  C323  1  0.402900  0.933100  0.996600  1.0  -0.1262
  C  C324  1  0.435300  0.997800  0.009600  1.0  0.0086
  C  C325  1  0.412300  0.065500  0.995400  1.0  -0.1338
  C  C326  1  0.357000  0.068400  0.968300  1.0  -0.1347
  C  C327  1  0.097800  0.990700  0.839800  1.0  0.6836
  C  C328  1  0.492800  0.821000  0.119200  1.0  0.0526
  C  C329  1  0.555600  0.864000  0.115100  1.0  -0.1294
  C  C330  1  0.556900  0.920700  0.088600  1.0  -0.1339
  C  C331  1  0.495300  0.934300  0.066400  1.0  0.0269
  C  C332  1  0.432500  0.891200  0.070500  1.0  -0.1333
  C  C333  1  0.431200  0.834600  0.096900  1.0  -0.133
  C  C334  1  0.156400  0.996600  0.869900  1.0  -0.1199
  C  C335  1  0.175400  0.932600  0.889200  1.0  -0.0516
  C  C336  1  0.229200  0.934800  0.917200  1.0  -0.1734
  C  C337  1  0.264000  0.001000  0.925800  1.0  0.016
  C  C338  1  0.245000  0.064900  0.906500  1.0  -0.1234
  C  C339  1  0.191200  0.062700  0.878600  1.0  -0.0495
  C  C340  1  0.494100  0.657100  0.206300  1.0  -0.1032
  C  C341  1  0.427500  0.679700  0.190800  1.0  -0.0659
  C  C342  1  0.426700  0.731600  0.161900  1.0  -0.1181
  C  C343  1  0.492500  0.760900  0.148600  1.0  0.0394
  C  C344  1  0.559100  0.738300  0.164100  1.0  -0.1342
  C  C345  1  0.559900  0.686400  0.193000  1.0  -0.045
  C  C346  1  0.498200  0.602600  0.237500  1.0  0.5852
  C  C347  1  0.500000  0.000000  0.538300  1.0  -0.0081
  C  C348  1  0.500000  0.000000  0.038300  1.0  -0.0081
  O  O349  1  0.577800  0.447400  0.675400  1.0  -0.577
  O  O350  1  0.062400  0.914500  0.248400  1.0  -0.5765
  O  O351  1  0.569700  0.574800  0.666667  1.0  -0.5854
  O  O352  1  0.938400  0.935300  0.251600  1.0  -0.5827
  O  O353  1  0.422200  0.552600  0.675400  1.0  -0.5785
  O  O354  1  0.937600  0.085500  0.248400  1.0  -0.5769
  O  O355  1  0.430300  0.425200  0.666667  1.0  -0.5866
  O  O356  1  0.061600  0.064700  0.251600  1.0  -0.583
  O  O357  1  0.052600  0.922200  0.175400  1.0  -0.577
  O  O358  1  0.585500  0.437600  0.748400  1.0  -0.5773
  O  O359  1  0.925200  0.930300  0.166600  1.0  -0.5876
  O  O360  1  0.564700  0.561600  0.751600  1.0  -0.5857
  O  O361  1  0.947400  0.077800  0.175400  1.0  -0.5768
  O  O362  1  0.414500  0.562400  0.748400  1.0  -0.5791
  O  O363  1  0.074800  0.069700  0.166600  1.0  -0.5868
  O  O364  1  0.435300  0.438400  0.751600  1.0  -0.5861
  O  O365  1  0.447400  0.422200  0.324600  1.0  -0.5773
  O  O366  1  0.914500  0.937600  0.751600  1.0  -0.5773
  O  O367  1  0.574800  0.430300  0.333400  1.0  -0.5862
  O  O368  1  0.935300  0.061600  0.748400  1.0  -0.5856
  O  O369  1  0.552600  0.577800  0.324600  1.0  -0.5771
  O  O370  1  0.085500  0.062400  0.751600  1.0  -0.5781
  O  O371  1  0.425200  0.569700  0.333400  1.0  -0.5874
  O  O372  1  0.064700  0.938400  0.748400  1.0  -0.5866
  O  O373  1  0.922200  0.947400  0.824600  1.0  -0.5773
  O  O374  1  0.437600  0.414500  0.251600  1.0  -0.5768
  O  O375  1  0.930300  0.074800  0.833400  1.0  -0.5863
  O  O376  1  0.561600  0.435300  0.248400  1.0  -0.5835
  O  O377  1  0.077800  0.052600  0.824600  1.0  -0.5773
  O  O378  1  0.562400  0.585500  0.251600  1.0  -0.5771
  O  O379  1  0.069700  0.925200  0.833400  1.0  -0.5873
  O  O380  1  0.438400  0.564700  0.248400  1.0  -0.582
