# generated using pymatgen
data_ZnH8C14SO6
_symmetry_space_group_name_H-M   'P 1'
_cell_length_a   16.61500000
_cell_length_b   17.25200000
_cell_length_c   20.59600000
_cell_angle_alpha   90.00000000
_cell_angle_beta   90.00000000
_cell_angle_gamma   98.07900000
_symmetry_Int_Tables_number   1
_chemical_formula_structural   ZnH8C14SO6
_chemical_formula_sum   'Zn12 H96 C168 S12 O72'
_cell_volume   5845.08559648
_cell_formula_units_Z   12
loop_
 _symmetry_equiv_pos_site_id
 _symmetry_equiv_pos_as_xyz
  1  'x, y, z'
loop_
 _atom_site_type_symbol
 _atom_site_label
 _atom_site_symmetry_multiplicity
 _atom_site_fract_x
 _atom_site_fract_y
 _atom_site_fract_z
 _atom_site_occupancy
 _atom_site_charge
  Zn  Zn1  1  0.094670  0.939520  0.848650  1.0  1.1039
  Zn  Zn2  1  0.980220  0.746450  0.827410  1.0  1.1538
  Zn  Zn3  1  0.383810  0.051310  0.637590  1.0  1.1325
  Zn  Zn4  1  0.405330  0.560480  0.348650  1.0  1.1084
  Zn  Zn5  1  0.519780  0.753550  0.327410  1.0  1.1536
  Zn  Zn6  1  0.116190  0.448690  0.137590  1.0  1.1305
  Zn  Zn7  1  0.905330  0.060480  0.151350  1.0  1.1086
  Zn  Zn8  1  0.019780  0.253550  0.172590  1.0  1.1538
  Zn  Zn9  1  0.616190  0.948690  0.362410  1.0  1.1309
  Zn  Zn10  1  0.594670  0.439520  0.651350  1.0  1.1028
  Zn  Zn11  1  0.480220  0.246450  0.672590  1.0  1.1539
  Zn  Zn12  1  0.883810  0.551310  0.862410  1.0  1.1327
  H  H13  1  0.304600  0.858800  0.918700  1.0  0.1061
  H  H14  1  0.419700  0.801800  0.940800  1.0  0.1106
  H  H15  1  0.303500  0.593700  0.884000  1.0  0.12
  H  H16  1  0.190200  0.651200  0.859700  1.0  0.1044
  H  H17  1  0.517700  0.745500  0.037000  1.0  0.1176
  H  H18  1  0.516300  0.732500  0.149200  1.0  0.1022
  H  H19  1  0.387100  0.521200  0.133800  1.0  0.0971
  H  H20  1  0.388800  0.531200  0.022500  1.0  0.1204
  H  H21  1  0.567500  0.159500  0.847600  1.0  0.0992
  H  H22  1  0.614200  0.109800  0.942400  1.0  0.1082
  H  H23  1  0.534900  0.891700  0.880100  1.0  0.1137
  H  H24  1  0.486800  0.942900  0.786300  1.0  0.1011
  H  H25  1  0.898600  0.028400  0.959700  1.0  0.1035
  H  H26  1  0.810600  0.808300  0.911200  1.0  0.0992
  H  H27  1  0.681600  0.829100  0.941700  1.0  0.1182
  H  H28  1  0.741900  0.811400  0.788700  1.0  0.1057
  H  H29  1  0.615700  0.837100  0.755800  1.0  0.1076
  H  H30  1  0.535700  0.605700  0.752900  1.0  0.1185
  H  H31  1  0.661500  0.582000  0.789500  1.0  0.0976
  H  H32  1  0.509500  0.893300  0.673000  1.0  0.1098
  H  H33  1  0.542300  0.940500  0.569000  1.0  0.1106
  H  H34  1  0.491300  0.723100  0.498100  1.0  0.103
  H  H35  1  0.460100  0.675800  0.601400  1.0  0.1126
  H  H36  1  0.769900  0.048500  0.996400  1.0  0.112
  H  H37  1  0.195400  0.641200  0.418700  1.0  0.1055
  H  H38  1  0.080300  0.698200  0.440800  1.0  0.1113
  H  H39  1  0.196500  0.906300  0.384000  1.0  0.1205
  H  H40  1  0.309800  0.848800  0.359700  1.0  0.1052
  H  H41  1  0.982300  0.754500  0.537000  1.0  0.1175
  H  H42  1  0.983700  0.767500  0.649200  1.0  0.1027
  H  H43  1  0.112900  0.978800  0.633800  1.0  0.0968
  H  H44  1  0.111200  0.968800  0.522500  1.0  0.121
  H  H45  1  0.932500  0.340500  0.347600  1.0  0.0987
  H  H46  1  0.885800  0.390200  0.442400  1.0  0.1079
  H  H47  1  0.965100  0.608300  0.380100  1.0  0.1132
  H  H48  1  0.013200  0.557100  0.286300  1.0  0.1004
  H  H49  1  0.601400  0.471600  0.459700  1.0  0.1039
  H  H50  1  0.689400  0.691700  0.411200  1.0  0.099
  H  H51  1  0.818400  0.670900  0.441700  1.0  0.1187
  H  H52  1  0.758100  0.688600  0.288700  1.0  0.1054
  H  H53  1  0.884300  0.662900  0.255800  1.0  0.1078
  H  H54  1  0.964300  0.894300  0.252900  1.0  0.1184
  H  H55  1  0.838500  0.918000  0.289500  1.0  0.0972
  H  H56  1  0.990500  0.606700  0.173000  1.0  0.1104
  H  H57  1  0.957700  0.559500  0.069000  1.0  0.1106
  H  H58  1  0.008700  0.776900  0.998100  1.0  0.1028
  H  H59  1  0.039900  0.824200  0.101400  1.0  0.1124
  H  H60  1  0.730100  0.451500  0.496400  1.0  0.1121
  H  H61  1  0.695400  0.141200  0.081300  1.0  0.1057
  H  H62  1  0.580300  0.198200  0.059200  1.0  0.111
  H  H63  1  0.696500  0.406300  0.116000  1.0  0.1205
  H  H64  1  0.809800  0.348800  0.140300  1.0  0.105
  H  H65  1  0.482300  0.254500  0.963000  1.0  0.1175
  H  H66  1  0.483700  0.267500  0.850800  1.0  0.1025
  H  H67  1  0.612900  0.478800  0.866200  1.0  0.0968
  H  H68  1  0.611200  0.468800  0.977500  1.0  0.1203
  H  H69  1  0.432500  0.840500  0.152400  1.0  0.0988
  H  H70  1  0.385800  0.890200  0.057600  1.0  0.1082
  H  H71  1  0.465100  0.108300  0.119900  1.0  0.1131
  H  H72  1  0.513200  0.057100  0.213700  1.0  0.1004
  H  H73  1  0.101400  0.971600  0.040300  1.0  0.1039
  H  H74  1  0.189400  0.191700  0.088800  1.0  0.0986
  H  H75  1  0.318400  0.170900  0.058300  1.0  0.1189
  H  H76  1  0.258100  0.188600  0.211300  1.0  0.1054
  H  H77  1  0.384300  0.162900  0.244200  1.0  0.108
  H  H78  1  0.464300  0.394300  0.247100  1.0  0.1185
  H  H79  1  0.338500  0.418000  0.210500  1.0  0.0971
  H  H80  1  0.490500  0.106700  0.327000  1.0  0.1102
  H  H81  1  0.457700  0.059500  0.431000  1.0  0.1106
  H  H82  1  0.508700  0.276900  0.501900  1.0  0.1026
  H  H83  1  0.539900  0.324200  0.398600  1.0  0.1125
  H  H84  1  0.230100  0.951500  0.003600  1.0  0.112
  H  H85  1  0.804600  0.358800  0.581300  1.0  0.1059
  H  H86  1  0.919700  0.301800  0.559200  1.0  0.1105
  H  H87  1  0.803500  0.093700  0.616000  1.0  0.1201
  H  H88  1  0.690200  0.151200  0.640300  1.0  0.1045
  H  H89  1  0.017700  0.245500  0.463000  1.0  0.1173
  H  H90  1  0.016300  0.232500  0.350800  1.0  0.1026
  H  H91  1  0.887100  0.021200  0.366200  1.0  0.0972
  H  H92  1  0.888800  0.031200  0.477500  1.0  0.1202
  H  H93  1  0.067500  0.659500  0.652400  1.0  0.0989
  H  H94  1  0.114200  0.609800  0.557600  1.0  0.1086
  H  H95  1  0.034900  0.391700  0.619900  1.0  0.1137
  H  H96  1  0.986800  0.442900  0.713700  1.0  0.1013
  H  H97  1  0.398600  0.528400  0.540300  1.0  0.1036
  H  H98  1  0.310600  0.308300  0.588800  1.0  0.0989
  H  H99  1  0.181600  0.329100  0.558300  1.0  0.1182
  H  H100  1  0.241900  0.311400  0.711300  1.0  0.1055
  H  H101  1  0.115700  0.337100  0.744200  1.0  0.1077
  H  H102  1  0.035700  0.105700  0.747100  1.0  0.1189
  H  H103  1  0.161500  0.082000  0.710500  1.0  0.0976
  H  H104  1  0.009500  0.393300  0.827000  1.0  0.11
  H  H105  1  0.042300  0.440500  0.931000  1.0  0.1106
  H  H106  1  0.991300  0.223100  0.001900  1.0  0.1033
  H  H107  1  0.960100  0.175800  0.898600  1.0  0.1125
  H  H108  1  0.269900  0.548500  0.503600  1.0  0.1121
  C  C109  1  0.160600  0.797700  0.870700  1.0  0.7215
  C  C110  1  0.235200  0.760600  0.887400  1.0  -0.1354
  C  C111  1  0.304300  0.805500  0.911500  1.0  -0.03
  C  C112  1  0.373100  0.771500  0.924900  1.0  -0.0395
  C  C113  1  0.372200  0.693000  0.914800  1.0  -0.1987
  C  C114  1  0.303700  0.647000  0.890600  1.0  -0.042
  C  C115  1  0.236100  0.681500  0.876700  1.0  -0.039
  C  C116  1  0.455000  0.638700  0.019200  1.0  -0.1887
  C  C117  1  0.492100  0.699900  0.056400  1.0  -0.0567
  C  C118  1  0.490700  0.691900  0.123600  1.0  -0.018
  C  C119  1  0.452200  0.625600  0.152900  1.0  -0.1324
  C  C120  1  0.414000  0.566200  0.114300  1.0  -0.0361
  C  C121  1  0.414900  0.571800  0.047900  1.0  -0.0518
  C  C122  1  0.455100  0.620300  0.226000  1.0  0.7277
  C  C123  1  0.491400  0.089400  0.746400  1.0  0.7282
  C  C124  1  0.522800  0.055900  0.807400  1.0  -0.1327
  C  C125  1  0.560800  0.105700  0.854300  1.0  -0.0226
  C  C126  1  0.588900  0.076300  0.910800  1.0  -0.0366
  C  C127  1  0.578800  0.996200  0.919600  1.0  -0.2058
  C  C128  1  0.541100  0.945500  0.873500  1.0  -0.0308
  C  C129  1  0.512900  0.976300  0.817600  1.0  -0.0194
  C  C130  1  0.714100  0.941200  0.970400  1.0  -0.1929
  C  C131  1  0.854800  0.988500  0.956300  1.0  -0.0374
  C  C132  1  0.866100  0.917600  0.930300  1.0  -0.1228
  C  C133  1  0.801800  0.857100  0.926600  1.0  -0.0344
  C  C134  1  0.725200  0.869000  0.945500  1.0  -0.0445
  C  C135  1  0.947100  0.904200  0.903600  1.0  0.7175
  C  C136  1  0.796700  0.677400  0.813300  1.0  0.718
  C  C137  1  0.714700  0.694100  0.792200  1.0  -0.1267
  C  C138  1  0.700200  0.770200  0.782000  1.0  -0.0266
  C  C139  1  0.625100  0.785800  0.762300  1.0  -0.0397
  C  C140  1  0.563300  0.724100  0.752300  1.0  -0.1944
  C  C141  1  0.576700  0.647000  0.761000  1.0  -0.0391
  C  C142  1  0.652400  0.633200  0.782000  1.0  -0.0332
  C  C143  1  0.484100  0.780000  0.646800  1.0  -0.1898
  C  C144  1  0.506900  0.859100  0.637900  1.0  -0.0429
  C  C145  1  0.526000  0.887300  0.575600  1.0  -0.0502
  C  C146  1  0.520800  0.836400  0.523800  1.0  -0.1193
  C  C147  1  0.495600  0.757200  0.533300  1.0  -0.0416
  C  C148  1  0.477100  0.728900  0.594900  1.0  -0.0426
  C  C149  1  0.545200  0.866400  0.456900  1.0  0.7118
  C  C150  1  0.777900  0.001100  0.977700  1.0  -0.0582
  C  C151  1  0.339400  0.702300  0.370700  1.0  0.7205
  C  C152  1  0.264800  0.739400  0.387400  1.0  -0.1358
  C  C153  1  0.195700  0.694500  0.411500  1.0  -0.0297
  C  C154  1  0.126900  0.728500  0.424900  1.0  -0.0388
  C  C155  1  0.127800  0.807000  0.414800  1.0  -0.1981
  C  C156  1  0.196300  0.853000  0.390600  1.0  -0.0428
  C  C157  1  0.263900  0.818500  0.376700  1.0  -0.0384
  C  C158  1  0.045000  0.861300  0.519200  1.0  -0.1881
  C  C159  1  0.007900  0.800100  0.556400  1.0  -0.0552
  C  C160  1  0.009300  0.808100  0.623600  1.0  -0.0177
  C  C161  1  0.047800  0.874400  0.652900  1.0  -0.1325
  C  C162  1  0.086000  0.933800  0.614300  1.0  -0.0374
  C  C163  1  0.085100  0.928200  0.547900  1.0  -0.0526
  C  C164  1  0.044900  0.879700  0.726000  1.0  0.7272
  C  C165  1  0.008600  0.410600  0.246400  1.0  0.7283
  C  C166  1  0.977200  0.444100  0.307400  1.0  -0.1332
  C  C167  1  0.939200  0.394300  0.354300  1.0  -0.0219
  C  C168  1  0.911100  0.423700  0.410800  1.0  -0.0357
  C  C169  1  0.921200  0.503800  0.419600  1.0  -0.2059
  C  C170  1  0.958900  0.554500  0.373500  1.0  -0.0323
  C  C171  1  0.987100  0.523700  0.317600  1.0  -0.0196
  C  C172  1  0.785900  0.558800  0.470400  1.0  -0.1927
  C  C173  1  0.645200  0.511500  0.456300  1.0  -0.0352
  C  C174  1  0.633900  0.582400  0.430300  1.0  -0.1231
  C  C175  1  0.698200  0.642900  0.426600  1.0  -0.0343
  C  C176  1  0.774800  0.631000  0.445500  1.0  -0.0446
  C  C177  1  0.552900  0.595800  0.403600  1.0  0.7179
  C  C178  1  0.703300  0.822600  0.313300  1.0  0.719
  C  C179  1  0.785300  0.805900  0.292200  1.0  -0.1267
  C  C180  1  0.799800  0.729800  0.282000  1.0  -0.0253
  C  C181  1  0.874900  0.714200  0.262300  1.0  -0.0385
  C  C182  1  0.936700  0.775900  0.252300  1.0  -0.1954
  C  C183  1  0.923300  0.853000  0.261000  1.0  -0.0411
  C  C184  1  0.847600  0.866800  0.282000  1.0  -0.0337
  C  C185  1  0.015900  0.720000  0.146800  1.0  -0.1905
  C  C186  1  0.993100  0.640900  0.137900  1.0  -0.0418
  C  C187  1  0.974000  0.612700  0.075600  1.0  -0.0511
  C  C188  1  0.979200  0.663600  0.023800  1.0  -0.1188
  C  C189  1  0.004400  0.742800  0.033300  1.0  -0.0422
  C  C190  1  0.022900  0.771100  0.094900  1.0  -0.0432
  C  C191  1  0.954800  0.633600  0.956900  1.0  0.713
  C  C192  1  0.722100  0.498900  0.477700  1.0  -0.055
  C  C193  1  0.839400  0.202300  0.129300  1.0  0.7209
  C  C194  1  0.764800  0.239400  0.112600  1.0  -0.1352
  C  C195  1  0.695700  0.194500  0.088500  1.0  -0.0298
  C  C196  1  0.626900  0.228500  0.075100  1.0  -0.039
  C  C197  1  0.627800  0.307000  0.085200  1.0  -0.1981
  C  C198  1  0.696300  0.353000  0.109400  1.0  -0.0429
  C  C199  1  0.763900  0.318500  0.123300  1.0  -0.0382
  C  C200  1  0.545000  0.361300  0.980800  1.0  -0.1881
  C  C201  1  0.507900  0.300100  0.943600  1.0  -0.055
  C  C202  1  0.509300  0.308100  0.876400  1.0  -0.0178
  C  C203  1  0.547800  0.374400  0.847100  1.0  -0.1322
  C  C204  1  0.586000  0.433800  0.885700  1.0  -0.0369
  C  C205  1  0.585100  0.428200  0.952100  1.0  -0.0529
  C  C206  1  0.544900  0.379700  0.774000  1.0  0.7277
  C  C207  1  0.508600  0.910600  0.253600  1.0  0.7278
  C  C208  1  0.477200  0.944100  0.192600  1.0  -0.1322
  C  C209  1  0.439200  0.894300  0.145700  1.0  -0.0215
  C  C210  1  0.411100  0.923700  0.089200  1.0  -0.0353
  C  C211  1  0.421200  0.003800  0.080400  1.0  -0.2061
  C  C212  1  0.458900  0.054500  0.126500  1.0  -0.0313
  C  C213  1  0.487100  0.023700  0.182400  1.0  -0.0191
  C  C214  1  0.285900  0.058800  0.029600  1.0  -0.1924
  C  C215  1  0.145200  0.011500  0.043700  1.0  -0.0351
  C  C216  1  0.133900  0.082400  0.069700  1.0  -0.1229
  C  C217  1  0.198200  0.142900  0.073400  1.0  -0.0351
  C  C218  1  0.274800  0.131000  0.054500  1.0  -0.0464
  C  C219  1  0.052900  0.095800  0.096400  1.0  0.7178
  C  C220  1  0.203300  0.322600  0.186700  1.0  0.7185
  C  C221  1  0.285300  0.305900  0.207800  1.0  -0.1274
  C  C222  1  0.299800  0.229800  0.218000  1.0  -0.0247
  C  C223  1  0.374900  0.214200  0.237700  1.0  -0.0385
  C  C224  1  0.436700  0.275900  0.247700  1.0  -0.1952
  C  C225  1  0.423300  0.353000  0.239000  1.0  -0.0403
  C  C226  1  0.347600  0.366800  0.218000  1.0  -0.033
  C  C227  1  0.515900  0.220000  0.353200  1.0  -0.1905
  C  C228  1  0.493100  0.140900  0.362100  1.0  -0.0416
  C  C229  1  0.474000  0.112700  0.424400  1.0  -0.051
  C  C230  1  0.479200  0.163600  0.476200  1.0  -0.118
  C  C231  1  0.504400  0.242800  0.466700  1.0  -0.042
  C  C232  1  0.522900  0.271100  0.405100  1.0  -0.0429
  C  C233  1  0.454800  0.133600  0.543100  1.0  0.7135
  C  C234  1  0.222100  0.998900  0.022300  1.0  -0.0555
  C  C235  1  0.660600  0.297700  0.629300  1.0  0.7215
  C  C236  1  0.735200  0.260600  0.612600  1.0  -0.135
  C  C237  1  0.804300  0.305500  0.588500  1.0  -0.0298
  C  C238  1  0.873100  0.271500  0.575100  1.0  -0.0398
  C  C239  1  0.872200  0.193000  0.585200  1.0  -0.1987
  C  C240  1  0.803700  0.147000  0.609400  1.0  -0.0421
  C  C241  1  0.736100  0.181500  0.623300  1.0  -0.0384
  C  C242  1  0.955000  0.138700  0.480800  1.0  -0.1887
  C  C243  1  0.992100  0.199900  0.443600  1.0  -0.0564
  C  C244  1  0.990700  0.191900  0.376400  1.0  -0.0178
  C  C245  1  0.952200  0.125600  0.347100  1.0  -0.1326
  C  C246  1  0.914000  0.066200  0.385700  1.0  -0.0359
  C  C247  1  0.914900  0.071800  0.452100  1.0  -0.0516
  C  C248  1  0.955100  0.120300  0.274000  1.0  0.7277
  C  C249  1  0.991400  0.589400  0.753600  1.0  0.7275
  C  C250  1  0.022800  0.555900  0.692600  1.0  -0.1325
  C  C251  1  0.060800  0.605700  0.645700  1.0  -0.0223
  C  C252  1  0.088900  0.576300  0.589200  1.0  -0.0362
  C  C253  1  0.078800  0.496200  0.580400  1.0  -0.2059
  C  C254  1  0.041100  0.445500  0.626500  1.0  -0.0301
  C  C255  1  0.012900  0.476300  0.682400  1.0  -0.0197
  C  C256  1  0.214100  0.441200  0.529600  1.0  -0.1929
  C  C257  1  0.354800  0.488500  0.543700  1.0  -0.0373
  C  C258  1  0.366100  0.417600  0.569700  1.0  -0.1228
  C  C259  1  0.301800  0.357100  0.573400  1.0  -0.0349
  C  C260  1  0.225200  0.369000  0.554500  1.0  -0.0453
  C  C261  1  0.447100  0.404200  0.596400  1.0  0.7173
  C  C262  1  0.296700  0.177400  0.686700  1.0  0.7181
  C  C263  1  0.214700  0.194100  0.707800  1.0  -0.1271
  C  C264  1  0.200200  0.270200  0.718000  1.0  -0.0258
  C  C265  1  0.125100  0.285800  0.737700  1.0  -0.039
  C  C266  1  0.063300  0.224100  0.747700  1.0  -0.1945
  C  C267  1  0.076700  0.147000  0.739000  1.0  -0.0389
  C  C268  1  0.152400  0.133200  0.718000  1.0  -0.0329
  C  C269  1  0.984100  0.280000  0.853200  1.0  -0.19
  C  C270  1  0.006900  0.359100  0.862100  1.0  -0.0423
  C  C271  1  0.026000  0.387300  0.924400  1.0  -0.0503
  C  C272  1  0.020800  0.336400  0.976200  1.0  -0.1191
  C  C273  1  0.995600  0.257200  0.966700  1.0  -0.0412
  C  C274  1  0.977100  0.228900  0.905100  1.0  -0.0425
  C  C275  1  0.045200  0.366400  0.043100  1.0  0.7122
  C  C276  1  0.277900  0.501100  0.522300  1.0  -0.0588
  S  S277  1  0.459200  0.649110  0.933560  1.0  1.1109
  S  S278  1  0.615130  0.957390  0.991540  1.0  1.1109
  S  S279  1  0.466410  0.743240  0.726790  1.0  1.1148
  S  S280  1  0.040800  0.850890  0.433560  1.0  1.1125
  S  S281  1  0.884870  0.542610  0.491540  1.0  1.1097
  S  S282  1  0.033590  0.756760  0.226790  1.0  1.1135
  S  S283  1  0.540800  0.350890  0.066440  1.0  1.113
  S  S284  1  0.384870  0.042610  0.008460  1.0  1.1098
  S  S285  1  0.533590  0.256760  0.273210  1.0  1.1135
  S  S286  1  0.959200  0.149110  0.566440  1.0  1.1121
  S  S287  1  0.115130  0.457390  0.508460  1.0  1.1105
  S  S288  1  0.966410  0.243240  0.773210  1.0  1.1147
  O  O289  1  0.163300  0.869000  0.885600  1.0  -0.6326
  O  O290  1  0.104300  0.757200  0.842400  1.0  -0.5972
  O  O291  1  0.529700  0.704100  0.918000  1.0  -0.5601
  O  O292  1  0.448400  0.571700  0.905800  1.0  -0.5737
  O  O293  1  0.503700  0.670100  0.253860  1.0  -0.6153
  O  O294  1  0.409300  0.566000  0.253600  1.0  -0.6215
  O  O295  1  0.495200  0.161000  0.741100  1.0  -0.5816
  O  O296  1  0.460800  0.038900  0.705000  1.0  -0.6477
  O  O297  1  0.621200  0.017300  0.040380  1.0  -0.5563
  O  O298  1  0.567900  0.883000  0.003690  1.0  -0.5463
  O  O299  1  0.997200  0.963700  0.891400  1.0  -0.6176
  O  O300  1  0.960400  0.835500  0.894800  1.0  -0.6428
  O  O301  1  0.855000  0.732000  0.810480  1.0  -0.5961
  O  O302  1  0.799300  0.607900  0.831200  1.0  -0.6505
  O  O303  1  0.443600  0.805100  0.766170  1.0  -0.5509
  O  O304  1  0.413400  0.670600  0.723100  1.0  -0.5526
  O  O305  1  0.581400  0.935300  0.452500  1.0  -0.6283
  O  O306  1  0.530600  0.824300  0.410000  1.0  -0.6351
  O  O307  1  0.336700  0.631000  0.385600  1.0  -0.632
  O  O308  1  0.395700  0.742800  0.342400  1.0  -0.597
  O  O309  1  0.970300  0.795900  0.418000  1.0  -0.5596
  O  O310  1  0.051600  0.928300  0.405800  1.0  -0.5744
  O  O311  1  0.996300  0.829900  0.753860  1.0  -0.6155
  O  O312  1  0.090700  0.934000  0.753600  1.0  -0.6241
  O  O313  1  0.004800  0.339000  0.241100  1.0  -0.5814
  O  O314  1  0.039200  0.461100  0.205000  1.0  -0.6461
  O  O315  1  0.878800  0.482700  0.540380  1.0  -0.5559
  O  O316  1  0.932100  0.617000  0.503690  1.0  -0.5467
  O  O317  1  0.502800  0.536300  0.391400  1.0  -0.6174
  O  O318  1  0.539600  0.664500  0.394800  1.0  -0.6432
  O  O319  1  0.645000  0.768000  0.310480  1.0  -0.595
  O  O320  1  0.700700  0.892100  0.331200  1.0  -0.6492
  O  O321  1  0.056400  0.694900  0.266170  1.0  -0.5509
  O  O322  1  0.086600  0.829400  0.223100  1.0  -0.5527
  O  O323  1  0.918600  0.564700  0.952500  1.0  -0.6277
  O  O324  1  0.969400  0.675700  0.910000  1.0  -0.6346
  O  O325  1  0.836700  0.131000  0.114400  1.0  -0.6316
  O  O326  1  0.895700  0.242800  0.157600  1.0  -0.5973
  O  O327  1  0.470300  0.295900  0.082000  1.0  -0.5592
  O  O328  1  0.551600  0.428300  0.094200  1.0  -0.5732
  O  O329  1  0.496300  0.329900  0.746140  1.0  -0.6154
  O  O330  1  0.590700  0.434000  0.746400  1.0  -0.6239
  O  O331  1  0.504800  0.839000  0.258900  1.0  -0.5814
  O  O332  1  0.539200  0.961100  0.295000  1.0  -0.6467
  O  O333  1  0.378800  0.982700  0.959620  1.0  -0.5553
  O  O334  1  0.432100  0.117000  0.996310  1.0  -0.5466
  O  O335  1  0.002800  0.036300  0.108600  1.0  -0.6174
  O  O336  1  0.039600  0.164500  0.105200  1.0  -0.6434
  O  O337  1  0.145000  0.268000  0.189520  1.0  -0.5949
  O  O338  1  0.200700  0.392100  0.168800  1.0  -0.6489
  O  O339  1  0.556400  0.194900  0.233830  1.0  -0.5509
  O  O340  1  0.586600  0.329400  0.276900  1.0  -0.5535
  O  O341  1  0.418600  0.064700  0.547500  1.0  -0.6286
  O  O342  1  0.469400  0.175700  0.590000  1.0  -0.6327
  O  O343  1  0.663300  0.369000  0.614400  1.0  -0.6325
  O  O344  1  0.604300  0.257200  0.657600  1.0  -0.5978
  O  O345  1  0.029700  0.204100  0.582000  1.0  -0.5598
  O  O346  1  0.948400  0.071700  0.594200  1.0  -0.5731
  O  O347  1  0.003700  0.170100  0.246140  1.0  -0.6157
  O  O348  1  0.909300  0.066000  0.246400  1.0  -0.6219
  O  O349  1  0.995200  0.661000  0.758900  1.0  -0.5817
  O  O350  1  0.960800  0.538900  0.795000  1.0  -0.6475
  O  O351  1  0.121200  0.517300  0.459620  1.0  -0.5557
  O  O352  1  0.067900  0.383000  0.496310  1.0  -0.5457
  O  O353  1  0.497200  0.463700  0.608600  1.0  -0.6173
  O  O354  1  0.460400  0.335500  0.605200  1.0  -0.6428
  O  O355  1  0.355000  0.232000  0.689520  1.0  -0.5963
  O  O356  1  0.299300  0.107900  0.668800  1.0  -0.6502
  O  O357  1  0.943600  0.305100  0.733830  1.0  -0.5511
  O  O358  1  0.913400  0.170600  0.776900  1.0  -0.5527
  O  O359  1  0.081400  0.435300  0.047500  1.0  -0.6289
  O  O360  1  0.030600  0.324300  0.090000  1.0  -0.6329
