# generated using pymatgen
data_YbH8(C2O)8
_symmetry_space_group_name_H-M   'P 1'
_cell_length_a   8.40340000
_cell_length_b   10.53340000
_cell_length_c   14.35150000
_cell_angle_alpha   100.83000000
_cell_angle_beta   103.41000000
_cell_angle_gamma   101.56000000
_symmetry_Int_Tables_number   1
_chemical_formula_structural   YbH8(C2O)8
_chemical_formula_sum   'Yb2 H16 C32 O16'
_cell_volume   1173.46036148
_cell_formula_units_Z   2
loop_
 _symmetry_equiv_pos_site_id
 _symmetry_equiv_pos_as_xyz
  1  'x, y, z'
loop_
 _atom_site_type_symbol
 _atom_site_label
 _atom_site_symmetry_multiplicity
 _atom_site_fract_x
 _atom_site_fract_y
 _atom_site_fract_z
 _atom_site_occupancy
 _atom_site_charge
  Yb  Yb1  1  0.154340  0.159480  0.170180  1.0  1.5378
  Yb  Yb2  1  0.845660  0.840520  0.829820  1.0  1.5379
  H  H3  1  0.286200  0.853500  0.231600  1.0  0.1283
  H  H4  1  0.306200  0.704200  0.329000  1.0  0.123
  H  H5  1  0.926200  0.427300  0.123100  1.0  0.1327
  H  H6  1  0.892500  0.583000  0.030800  1.0  0.1143
  H  H7  1  0.209800  0.965300  0.461400  1.0  0.1351
  H  H8  1  0.552700  0.290600  0.969900  1.0  0.1441
  H  H9  1  0.377300  0.562000  0.124200  1.0  0.1186
  H  H10  1  0.651700  0.109000  0.410300  1.0  0.1362
  H  H11  1  0.713800  0.146500  0.768400  1.0  0.1281
  H  H12  1  0.693800  0.295800  0.671000  1.0  0.1228
  H  H13  1  0.073800  0.572700  0.876900  1.0  0.1327
  H  H14  1  0.107500  0.417000  0.969200  1.0  0.1145
  H  H15  1  0.790200  0.034700  0.538600  1.0  0.1352
  H  H16  1  0.447300  0.709400  0.030100  1.0  0.1442
  H  H17  1  0.622700  0.438000  0.875800  1.0  0.1184
  H  H18  1  0.348300  0.891000  0.589700  1.0  0.1367
  C  C19  1  0.085900  0.734000  0.120800  1.0  -0.1144
  C  C20  1  0.211600  0.768900  0.210500  1.0  -0.0084
  C  C21  1  0.225400  0.678300  0.267800  1.0  0.0061
  C  C22  1  0.120900  0.548600  0.236300  1.0  -0.128
  C  C23  1  0.996800  0.513400  0.146000  1.0  -0.0195
  C  C24  1  0.978300  0.606600  0.089900  1.0  -0.017
  C  C25  1  0.067200  0.833700  0.058300  1.0  0.7603
  C  C26  1  0.143200  0.450400  0.299700  1.0  0.7545
  C  C27  1  0.416100  0.044700  0.421200  1.0  -0.1173
  C  C28  1  0.326700  0.979200  0.476700  1.0  -0.0328
  C  C29  1  0.324700  0.091500  0.337100  1.0  0.7068
  C  C30  1  0.458100  0.411900  0.056300  1.0  -0.113
  C  C31  1  0.531500  0.374600  0.982100  1.0  -0.0443
  C  C32  1  0.426600  0.537000  0.074200  1.0  -0.0315
  C  C33  1  0.397000  0.315600  0.112400  1.0  0.7042
  C  C34  1  0.590100  0.065000  0.446100  1.0  -0.0245
  C  C35  1  0.914100  0.266000  0.879200  1.0  -0.1138
  C  C36  1  0.788400  0.231100  0.789500  1.0  -0.0083
  C  C37  1  0.774600  0.321700  0.732200  1.0  0.005
  C  C38  1  0.879100  0.451400  0.763700  1.0  -0.1295
  C  C39  1  0.003200  0.486600  0.854000  1.0  -0.0175
  C  C40  1  0.021700  0.393400  0.910100  1.0  -0.0168
  C  C41  1  0.932800  0.166300  0.941700  1.0  0.7579
  C  C42  1  0.856800  0.549600  0.700300  1.0  0.754
  C  C43  1  0.583900  0.955300  0.578800  1.0  -0.1177
  C  C44  1  0.673300  0.020800  0.523300  1.0  -0.0329
  C  C45  1  0.675300  0.908500  0.662900  1.0  0.7054
  C  C46  1  0.541900  0.588100  0.943700  1.0  -0.1115
  C  C47  1  0.468500  0.625400  0.017900  1.0  -0.0436
  C  C48  1  0.573400  0.463000  0.925800  1.0  -0.0313
  C  C49  1  0.603000  0.684400  0.887600  1.0  0.7059
  C  C50  1  0.409900  0.935000  0.553900  1.0  -0.0204
  O  O51  1  0.152400  0.952500  0.096040  1.0  -0.6817
  O  O52  1  0.969500  0.790400  0.971830  1.0  -0.6606
  O  O53  1  0.075200  0.326000  0.258760  1.0  -0.6641
  O  O54  1  0.219800  0.495600  0.387500  1.0  -0.4613
  O  O55  1  0.167200  0.075900  0.316920  1.0  -0.6072
  O  O56  1  0.406900  0.145100  0.285060  1.0  -0.5765
  O  O57  1  0.354300  0.360800  0.188490  1.0  -0.5913
  O  O58  1  0.376500  0.191700  0.080620  1.0  -0.6095
  O  O59  1  0.847600  0.047500  0.903960  1.0  -0.6834
  O  O60  1  0.030500  0.209600  0.028170  1.0  -0.6601
  O  O61  1  0.924800  0.674000  0.741240  1.0  -0.6625
  O  O62  1  0.780200  0.504400  0.612500  1.0  -0.4609
  O  O63  1  0.832800  0.924100  0.683080  1.0  -0.6062
  O  O64  1  0.593100  0.854900  0.714940  1.0  -0.5805
  O  O65  1  0.645700  0.639200  0.811510  1.0  -0.5919
  O  O66  1  0.623500  0.808300  0.919380  1.0  -0.6092
