# generated using pymatgen
data_SmH8(C2O)8
_symmetry_space_group_name_H-M   'P 1'
_cell_length_a   8.38980000
_cell_length_b   10.65590000
_cell_length_c   14.38770000
_cell_angle_alpha   101.96400000
_cell_angle_beta   102.86400000
_cell_angle_gamma   102.68100000
_symmetry_Int_Tables_number   1
_chemical_formula_structural   SmH8(C2O)8
_chemical_formula_sum   'Sm2 H16 C32 O16'
_cell_volume   1178.19180135
_cell_formula_units_Z   2
loop_
 _symmetry_equiv_pos_site_id
 _symmetry_equiv_pos_as_xyz
  1  'x, y, z'
loop_
 _atom_site_type_symbol
 _atom_site_label
 _atom_site_symmetry_multiplicity
 _atom_site_fract_x
 _atom_site_fract_y
 _atom_site_fract_z
 _atom_site_occupancy
 _atom_site_charge
  Sm  Sm1  1  0.342500  0.339380  0.329080  1.0  2.2874
  Sm  Sm2  1  0.657500  0.660620  0.670920  1.0  2.2878
  H  H3  1  0.206400  0.645700  0.269000  1.0  0.1049
  H  H4  1  0.183900  0.788000  0.168000  1.0  0.1121
  H  H5  1  0.572200  0.074900  0.371400  1.0  0.1106
  H  H6  1  0.609800  0.925600  0.465300  1.0  0.0954
  H  H7  1  0.848900  0.402300  0.095800  1.0  0.1208
  H  H8  1  0.290500  0.524800  0.031200  1.0  0.1218
  H  H9  1  0.114400  0.935200  0.371100  1.0  0.1034
  H  H10  1  0.944800  0.206700  0.530900  1.0  0.1239
  H  H11  1  0.793600  0.354300  0.731000  1.0  0.1049
  H  H12  1  0.816100  0.212000  0.832000  1.0  0.1129
  H  H13  1  0.427800  0.925100  0.628600  1.0  0.1105
  H  H14  1  0.390200  0.074400  0.534700  1.0  0.0951
  H  H15  1  0.151100  0.597700  0.904200  1.0  0.1206
  H  H16  1  0.709500  0.475200  0.968800  1.0  0.121
  H  H17  1  0.885600  0.064800  0.628900  1.0  0.1034
  H  H18  1  0.055200  0.793300  0.469100  1.0  0.124
  C  C19  1  0.411200  0.769990  0.377460  1.0  -0.1129
  C  C20  1  0.282300  0.730570  0.288610  1.0  -0.0136
  C  C21  1  0.266200  0.817070  0.228940  1.0  -0.0473
  C  C22  1  0.373700  0.947980  0.260420  1.0  -0.1235
  C  C23  1  0.500800  0.988150  0.349710  1.0  -0.0244
  C  C24  1  0.521600  0.898990  0.406940  1.0  -0.0313
  C  C25  1  0.431600  0.674480  0.440560  1.0  0.7151
  C  C26  1  0.351700  0.041350  0.195190  1.0  0.694
  C  C27  1  0.083900  0.455970  0.076630  1.0  -0.1178
  C  C28  1  0.909400  0.441500  0.057400  1.0  -0.0381
  C  C29  1  0.174200  0.514900  0.018700  1.0  -0.0398
  C  C30  1  0.173400  0.408100  0.158770  1.0  0.6789
  C  C31  1  0.036000  0.085490  0.441800  1.0  -0.1222
  C  C32  1  0.068700  0.961100  0.422870  1.0  -0.0446
  C  C33  1  0.967000  0.124000  0.518600  1.0  -0.0356
  C  C34  1  0.088600  0.178480  0.382600  1.0  0.6947
  C  C35  1  0.588800  0.230010  0.622540  1.0  -0.1133
  C  C36  1  0.717700  0.269430  0.711390  1.0  -0.0148
  C  C37  1  0.733800  0.182930  0.771060  1.0  -0.0491
  C  C38  1  0.626300  0.052020  0.739580  1.0  -0.1201
  C  C39  1  0.499200  0.011850  0.650290  1.0  -0.0253
  C  C40  1  0.478400  0.101010  0.593060  1.0  -0.0317
  C  C41  1  0.568400  0.325520  0.559440  1.0  0.7187
  C  C42  1  0.648300  0.958650  0.804810  1.0  0.6936
  C  C43  1  0.916100  0.544030  0.923370  1.0  -0.1165
  C  C44  1  0.090600  0.558500  0.942600  1.0  -0.0394
  C  C45  1  0.825800  0.485100  0.981300  1.0  -0.0391
  C  C46  1  0.826600  0.591900  0.841230  1.0  0.6806
  C  C47  1  0.964000  0.914510  0.558200  1.0  -0.1234
  C  C48  1  0.931300  0.038900  0.577130  1.0  -0.0429
  C  C49  1  0.033000  0.876000  0.481400  1.0  -0.0363
  C  C50  1  0.911400  0.821520  0.617400  1.0  0.692
  O  O51  1  0.339480  0.555000  0.404840  1.0  -0.7414
  O  O52  1  0.536180  0.719270  0.524870  1.0  -0.7034
  O  O53  1  0.271300  0.993050  0.107390  1.0  -0.4549
  O  O54  1  0.424260  0.166950  0.235880  1.0  -0.6946
  O  O55  1  0.088090  0.351910  0.208520  1.0  -0.6512
  O  O56  1  0.333460  0.426420  0.178830  1.0  -0.6759
  O  O57  1  0.124550  0.131140  0.304100  1.0  -0.6835
  O  O58  1  0.109550  0.302490  0.415260  1.0  -0.6079
  O  O59  1  0.660520  0.445000  0.595160  1.0  -0.7414
  O  O60  1  0.463820  0.280730  0.475130  1.0  -0.7018
  O  O61  1  0.728700  0.006950  0.892610  1.0  -0.4532
  O  O62  1  0.575740  0.833050  0.764120  1.0  -0.697
  O  O63  1  0.911910  0.648090  0.791480  1.0  -0.653
  O  O64  1  0.666540  0.573580  0.821170  1.0  -0.6729
  O  O65  1  0.875450  0.868860  0.695900  1.0  -0.6826
  O  O66  1  0.890450  0.697510  0.584740  1.0  -0.6106
