# generated using pymatgen
data_YH8(C2O)8
_symmetry_space_group_name_H-M   'P 1'
_cell_length_a   8.37340000
_cell_length_b   10.57400000
_cell_length_c   14.30770000
_cell_angle_alpha   101.47800000
_cell_angle_beta   103.12000000
_cell_angle_gamma   102.24700000
_symmetry_Int_Tables_number   1
_chemical_formula_structural   YH8(C2O)8
_chemical_formula_sum   'Y2 H16 C32 O16'
_cell_volume   1164.30410660
_cell_formula_units_Z   2
loop_
 _symmetry_equiv_pos_site_id
 _symmetry_equiv_pos_as_xyz
  1  'x, y, z'
loop_
 _atom_site_type_symbol
 _atom_site_label
 _atom_site_symmetry_multiplicity
 _atom_site_fract_x
 _atom_site_fract_y
 _atom_site_fract_z
 _atom_site_occupancy
 _atom_site_charge
  Y  Y1  1  0.656640  0.660150  0.170720  1.0  2.062
  Y  Y2  1  0.343360  0.339850  0.829280  1.0  2.0613
  H  H3  1  0.427200  0.925300  0.126300  1.0  0.1152
  H  H4  1  0.391400  0.076400  0.032300  1.0  0.0974
  H  H5  1  0.789300  0.355400  0.232100  1.0  0.1036
  H  H6  1  0.814300  0.208300  0.330800  1.0  0.1107
  H  H7  1  0.051500  0.790700  0.967900  1.0  0.1271
  H  H8  1  0.884800  0.064600  0.127800  1.0  0.0982
  H  H9  1  0.151500  0.598900  0.405100  1.0  0.1205
  H  H10  1  0.709700  0.473300  0.466600  1.0  0.1181
  H  H11  1  0.572800  0.074700  0.873700  1.0  0.1151
  H  H12  1  0.608600  0.923600  0.967700  1.0  0.0975
  H  H13  1  0.210700  0.644600  0.767900  1.0  0.1034
  H  H14  1  0.185700  0.791700  0.669200  1.0  0.11
  H  H15  1  0.948500  0.209300  0.032100  1.0  0.1271
  H  H16  1  0.115200  0.935400  0.872200  1.0  0.0983
  H  H17  1  0.848500  0.401100  0.594900  1.0  0.1206
  H  H18  1  0.290300  0.526700  0.533400  1.0  0.1183
  C  C19  1  0.625300  0.050200  0.238200  1.0  -0.1312
  C  C20  1  0.498700  0.012000  0.148400  1.0  -0.0222
  C  C21  1  0.478400  0.102800  0.091500  1.0  -0.0172
  C  C22  1  0.585800  0.232300  0.121300  1.0  -0.0893
  C  C23  1  0.714600  0.270000  0.211300  1.0  -0.0064
  C  C24  1  0.731500  0.180800  0.269900  1.0  -0.0515
  C  C25  1  0.648500  0.954800  0.302800  1.0  0.7203
  C  C26  1  0.566300  0.330100  0.058500  1.0  0.7471
  C  C27  1  0.961600  0.912900  0.057300  1.0  -0.1266
  C  C28  1  0.030700  0.874600  0.980900  1.0  -0.0574
  C  C29  1  0.931200  0.038800  0.076200  1.0  -0.0496
  C  C30  1  0.904300  0.817800  0.115200  1.0  0.6795
  C  C31  1  0.915400  0.543700  0.421800  1.0  -0.1184
  C  C32  1  0.090300  0.559000  0.443200  1.0  -0.0399
  C  C33  1  0.826500  0.484100  0.479900  1.0  -0.0472
  C  C34  1  0.826400  0.591700  0.338500  1.0  0.6947
  C  C35  1  0.374700  0.949800  0.761800  1.0  -0.1338
  C  C36  1  0.501300  0.988000  0.851600  1.0  -0.0232
  C  C37  1  0.521600  0.897200  0.908500  1.0  -0.0169
  C  C38  1  0.414200  0.767700  0.878700  1.0  -0.0895
  C  C39  1  0.285400  0.730000  0.788700  1.0  -0.005
  C  C40  1  0.268500  0.819200  0.730100  1.0  -0.049
  C  C41  1  0.351500  0.045200  0.697200  1.0  0.7202
  C  C42  1  0.433700  0.669900  0.941500  1.0  0.746
  C  C43  1  0.038400  0.087100  0.942700  1.0  -0.1265
  C  C44  1  0.969300  0.125400  0.019100  1.0  -0.0541
  C  C45  1  0.068800  0.961200  0.923800  1.0  -0.048
  C  C46  1  0.095700  0.182200  0.884800  1.0  0.6826
  C  C47  1  0.084600  0.456300  0.578200  1.0  -0.121
  C  C48  1  0.909700  0.441000  0.556800  1.0  -0.0392
  C  C49  1  0.173500  0.515900  0.520100  1.0  -0.0481
  C  C50  1  0.173600  0.408300  0.661500  1.0  0.6949
  O  O51  1  0.577800  0.828600  0.261900  1.0  -0.6958
  O  O52  1  0.728500  0.002100  0.391700  1.0  -0.4934
  O  O53  1  0.654300  0.449400  0.095580  1.0  -0.7067
  O  O54  1  0.464400  0.284700  0.972560  1.0  -0.6711
  O  O55  1  0.865600  0.864300  0.193300  1.0  -0.6157
  O  O56  1  0.881600  0.693100  0.082380  1.0  -0.6087
  O  O57  1  0.908800  0.647000  0.287340  1.0  -0.6095
  O  O58  1  0.665900  0.575100  0.318560  1.0  -0.637
  O  O59  1  0.422200  0.171400  0.738100  1.0  -0.6935
  O  O60  1  0.271500  0.997900  0.608300  1.0  -0.4931
  O  O61  1  0.345700  0.550600  0.904420  1.0  -0.7077
  O  O62  1  0.535600  0.715300  0.027440  1.0  -0.6718
  O  O63  1  0.134400  0.135700  0.806700  1.0  -0.6161
  O  O64  1  0.118400  0.306900  0.917620  1.0  -0.6082
  O  O65  1  0.091200  0.353000  0.712660  1.0  -0.6112
  O  O66  1  0.334100  0.424900  0.681440  1.0  -0.6389
