# generated using pymatgen
data_NdH8(C2O)8
_symmetry_space_group_name_H-M   'P 1'
_cell_length_a   12.22900000
_cell_length_b   14.44000000
_cell_length_c   14.51520000
_cell_angle_alpha   104.65700000
_cell_angle_beta   90.00000000
_cell_angle_gamma   90.00000000
_symmetry_Int_Tables_number   1
_chemical_formula_structural   NdH8(C2O)8
_chemical_formula_sum   'Nd4 H32 C64 O32'
_cell_volume   2479.78054424
_cell_formula_units_Z   4
loop_
 _symmetry_equiv_pos_site_id
 _symmetry_equiv_pos_as_xyz
  1  'x, y, z'
loop_
 _atom_site_type_symbol
 _atom_site_label
 _atom_site_symmetry_multiplicity
 _atom_site_fract_x
 _atom_site_fract_y
 _atom_site_fract_z
 _atom_site_occupancy
 _atom_site_charge
  Nd  Nd1  1  0.056080  0.926490  0.093110  1.0  2.2779
  Nd  Nd2  1  0.556080  0.573510  0.406890  1.0  2.2782
  Nd  Nd3  1  0.943920  0.073510  0.906890  1.0  2.2784
  Nd  Nd4  1  0.443920  0.426490  0.593110  1.0  2.2779
  H  H5  1  0.732600  0.708900  0.952600  1.0  0.1187
  H  H6  1  0.633000  0.618300  0.827000  1.0  0.0945
  H  H7  1  0.779400  0.747300  0.649400  1.0  0.1044
  H  H8  1  0.873100  0.845600  0.775100  1.0  0.1098
  H  H9  1  0.355200  0.078700  0.086300  1.0  0.0941
  H  H10  1  0.512000  0.834600  0.964000  1.0  0.1042
  H  H11  1  0.938900  0.854600  0.407500  1.0  0.1096
  H  H12  1  0.084700  0.108300  0.428500  1.0  0.1094
  H  H13  1  0.232600  0.791100  0.547400  1.0  0.1187
  H  H14  1  0.133000  0.881700  0.673000  1.0  0.0945
  H  H15  1  0.279400  0.752700  0.850600  1.0  0.1051
  H  H16  1  0.373100  0.654400  0.724900  1.0  0.1099
  H  H17  1  0.855200  0.421300  0.413700  1.0  0.0939
  H  H18  1  0.012000  0.665400  0.536000  1.0  0.1043
  H  H19  1  0.438900  0.645400  0.092500  1.0  0.1109
  H  H20  1  0.584700  0.391700  0.071500  1.0  0.1099
  H  H21  1  0.267400  0.291100  0.047400  1.0  0.1186
  H  H22  1  0.367000  0.381700  0.173000  1.0  0.0945
  H  H23  1  0.220600  0.252700  0.350600  1.0  0.1049
  H  H24  1  0.126900  0.154400  0.224900  1.0  0.1099
  H  H25  1  0.644800  0.921300  0.913700  1.0  0.0936
  H  H26  1  0.488000  0.165400  0.036000  1.0  0.1045
  H  H27  1  0.061100  0.145400  0.592500  1.0  0.1109
  H  H28  1  0.915300  0.891700  0.571500  1.0  0.1098
  H  H29  1  0.767400  0.208900  0.452600  1.0  0.119
  H  H30  1  0.867000  0.118300  0.327000  1.0  0.0947
  H  H31  1  0.720600  0.247300  0.149400  1.0  0.1046
  H  H32  1  0.626900  0.345600  0.275100  1.0  0.11
  H  H33  1  0.144800  0.578700  0.586300  1.0  0.0938
  H  H34  1  0.988000  0.334600  0.464000  1.0  0.1044
  H  H35  1  0.561100  0.354600  0.907500  1.0  0.1097
  H  H36  1  0.415300  0.608300  0.928500  1.0  0.1098
  C  C37  1  0.815000  0.785200  0.877100  1.0  -0.1103
  C  C38  1  0.742300  0.717500  0.891800  1.0  -0.045
  C  C39  1  0.683500  0.662400  0.816100  1.0  -0.0232
  C  C40  1  0.698400  0.671700  0.725100  1.0  -0.134
  C  C41  1  0.769500  0.739900  0.710700  1.0  -0.0222
  C  C42  1  0.827000  0.798200  0.785700  1.0  -0.0381
  C  C43  1  0.881100  0.843000  0.957800  1.0  0.7355
  C  C44  1  0.637100  0.609600  0.642300  1.0  0.768
  C  C45  1  0.331000  0.893500  0.066500  1.0  0.692
  C  C46  1  0.417800  0.947000  0.031300  1.0  -0.1051
  C  C47  1  0.413800  0.046800  0.051400  1.0  -0.016
  C  C48  1  0.506800  0.901000  0.978600  1.0  -0.0609
  C  C49  1  0.034600  0.951500  0.296800  1.0  0.6513
  C  C50  1  0.016800  0.976100  0.401500  1.0  -0.1065
  C  C51  1  0.964100  0.912800  0.444700  1.0  -0.0331
  C  C52  1  0.051400  0.064600  0.456900  1.0  -0.0403
  C  C53  1  0.315000  0.714800  0.622900  1.0  -0.11
  C  C54  1  0.242300  0.782500  0.608200  1.0  -0.0464
  C  C55  1  0.183500  0.837600  0.683900  1.0  -0.0241
  C  C56  1  0.198400  0.828300  0.774900  1.0  -0.1336
  C  C57  1  0.269500  0.760100  0.789300  1.0  -0.0215
  C  C58  1  0.327000  0.701800  0.714300  1.0  -0.0393
  C  C59  1  0.381100  0.657000  0.542200  1.0  0.7356
  C  C60  1  0.137100  0.890400  0.857700  1.0  0.7674
  C  C61  1  0.831000  0.606500  0.433500  1.0  0.6883
  C  C62  1  0.917800  0.553000  0.468700  1.0  -0.1043
  C  C63  1  0.913800  0.453200  0.448600  1.0  -0.0159
  C  C64  1  0.006800  0.599000  0.521400  1.0  -0.0619
  C  C65  1  0.534600  0.548500  0.203200  1.0  0.6502
  C  C66  1  0.516800  0.523900  0.098500  1.0  -0.1063
  C  C67  1  0.464100  0.587200  0.055300  1.0  -0.0328
  C  C68  1  0.551400  0.435400  0.043100  1.0  -0.0401
  C  C69  1  0.185000  0.214800  0.122900  1.0  -0.11
  C  C70  1  0.257700  0.282500  0.108200  1.0  -0.0461
  C  C71  1  0.316500  0.337600  0.183900  1.0  -0.0252
  C  C72  1  0.301600  0.328300  0.274900  1.0  -0.1333
  C  C73  1  0.230500  0.260100  0.289300  1.0  -0.0217
  C  C74  1  0.173000  0.201800  0.214300  1.0  -0.038
  C  C75  1  0.118900  0.157000  0.042200  1.0  0.7371
  C  C76  1  0.362900  0.390400  0.357700  1.0  0.7676
  C  C77  1  0.669000  0.106500  0.933500  1.0  0.6868
  C  C78  1  0.582200  0.053000  0.968700  1.0  -0.1043
  C  C79  1  0.586200  0.953200  0.948600  1.0  -0.016
  C  C80  1  0.493200  0.099000  0.021400  1.0  -0.0585
  C  C81  1  0.965400  0.048500  0.703200  1.0  0.65
  C  C82  1  0.983200  0.023900  0.598500  1.0  -0.1055
  C  C83  1  0.035900  0.087200  0.555300  1.0  -0.0327
  C  C84  1  0.948600  0.935400  0.543100  1.0  -0.04
  C  C85  1  0.685000  0.285200  0.377100  1.0  -0.1097
  C  C86  1  0.757700  0.217500  0.391800  1.0  -0.0445
  C  C87  1  0.816500  0.162400  0.316100  1.0  -0.0238
  C  C88  1  0.801600  0.171700  0.225100  1.0  -0.1338
  C  C89  1  0.730500  0.239900  0.210700  1.0  -0.0222
  C  C90  1  0.673000  0.298200  0.285700  1.0  -0.0371
  C  C91  1  0.618900  0.343000  0.457800  1.0  0.7355
  C  C92  1  0.862900  0.109600  0.142300  1.0  0.7682
  C  C93  1  0.169000  0.393500  0.566500  1.0  0.6941
  C  C94  1  0.082200  0.447000  0.531300  1.0  -0.1052
  C  C95  1  0.086200  0.546800  0.551400  1.0  -0.0161
  C  C96  1  0.993200  0.401000  0.478600  1.0  -0.0576
  C  C97  1  0.465400  0.451500  0.796800  1.0  0.6515
  C  C98  1  0.483200  0.476100  0.901500  1.0  -0.106
  C  C99  1  0.535900  0.412800  0.944700  1.0  -0.0332
  C  C100  1  0.448600  0.564600  0.956900  1.0  -0.0401
  O  O101  1  0.903300  0.810700  0.026800  1.0  -0.6319
  O  O102  1  0.913900  0.925600  0.953800  1.0  -0.8404
  O  O103  1  0.635500  0.633800  0.565300  1.0  -0.6991
  O  O104  1  0.593200  0.535200  0.656700  1.0  -0.6849
  O  O105  1  0.340000  0.803000  0.050200  1.0  -0.4528
  O  O106  1  0.251300  0.940600  0.111000  1.0  -0.6973
  O  O107  1  0.100700  0.001800  0.263400  1.0  -0.633
  O  O108  1  0.986200  0.881100  0.243400  1.0  -0.5956
  O  O109  1  0.403300  0.689300  0.473200  1.0  -0.6304
  O  O110  1  0.413900  0.574400  0.546200  1.0  -0.8394
  O  O111  1  0.135500  0.866200  0.934700  1.0  -0.6978
  O  O112  1  0.093200  0.964800  0.843300  1.0  -0.6849
  O  O113  1  0.840000  0.697000  0.449800  1.0  -0.4511
  O  O114  1  0.751300  0.559400  0.389000  1.0  -0.7024
  O  O115  1  0.600700  0.498200  0.236600  1.0  -0.6338
  O  O116  1  0.486200  0.618900  0.256600  1.0  -0.5997
  O  O117  1  0.096700  0.189300  0.973200  1.0  -0.6299
  O  O118  1  0.086100  0.074400  0.046200  1.0  -0.8395
  O  O119  1  0.364500  0.366200  0.434700  1.0  -0.6976
  O  O120  1  0.406800  0.464800  0.343300  1.0  -0.6848
  O  O121  1  0.660000  0.197000  0.949800  1.0  -0.4501
  O  O122  1  0.748700  0.059400  0.889000  1.0  -0.7008
  O  O123  1  0.899300  0.998200  0.736600  1.0  -0.6341
  O  O124  1  0.013800  0.118900  0.756600  1.0  -0.5999
  O  O125  1  0.596700  0.310700  0.526800  1.0  -0.6332
  O  O126  1  0.586100  0.425600  0.453800  1.0  -0.8407
  O  O127  1  0.864500  0.133800  0.065300  1.0  -0.6991
  O  O128  1  0.906800  0.035200  0.156700  1.0  -0.6838
  O  O129  1  0.160000  0.303000  0.550200  1.0  -0.4523
  O  O130  1  0.248700  0.440600  0.611000  1.0  -0.6946
  O  O131  1  0.399300  0.501800  0.763400  1.0  -0.6324
  O  O132  1  0.513800  0.381100  0.743400  1.0  -0.5974
