# generated using pymatgen
data_HoH6(C2O)6
_symmetry_space_group_name_H-M   'P 1'
_cell_length_a   9.81350000
_cell_length_b   10.43100000
_cell_length_c   11.06710000
_cell_angle_alpha   76.84300000
_cell_angle_beta   76.27600000
_cell_angle_gamma   65.94000000
_symmetry_Int_Tables_number   1
_chemical_formula_structural   HoH6(C2O)6
_chemical_formula_sum   'Ho2 H12 C24 O12'
_cell_volume   993.91853849
_cell_formula_units_Z   2
loop_
 _symmetry_equiv_pos_site_id
 _symmetry_equiv_pos_as_xyz
  1  'x, y, z'
loop_
 _atom_site_type_symbol
 _atom_site_label
 _atom_site_symmetry_multiplicity
 _atom_site_fract_x
 _atom_site_fract_y
 _atom_site_fract_z
 _atom_site_occupancy
 _atom_site_charge
  Ho  Ho1  1  0.944860  0.228040  0.823180  1.0  2.1074
  Ho  Ho2  1  0.055140  0.771960  0.176820  1.0  2.1062
  H  H3  1  0.650000  0.856200  0.149100  1.0  0.096
  H  H4  1  0.599300  0.116200  0.819100  1.0  0.1028
  H  H5  1  0.436100  0.413800  0.708000  1.0  0.1048
  H  H6  1  0.739900  0.502600  0.423700  1.0  0.1102
  H  H7  1  0.308300  0.923100  0.507200  1.0  0.1128
  H  H8  1  0.455800  0.184900  0.604200  1.0  0.0838
  H  H9  1  0.350000  0.143800  0.850900  1.0  0.0963
  H  H10  1  0.400700  0.883800  0.180900  1.0  0.1027
  H  H11  1  0.563900  0.586200  0.292000  1.0  0.1051
  H  H12  1  0.260100  0.497400  0.576300  1.0  0.1116
  H  H13  1  0.691700  0.076900  0.492800  1.0  0.1128
  H  H14  1  0.544200  0.815100  0.395800  1.0  0.0837
  C  C15  1  0.651600  0.987200  0.983200  1.0  -0.1374
  C  C16  1  0.589700  0.915000  0.089600  1.0  -0.0415
  C  C17  1  0.559200  0.070400  0.892300  1.0  -0.0441
  C  C18  1  0.809700  0.976200  0.968400  1.0  0.7856
  C  C19  1  0.608900  0.447800  0.580400  1.0  -0.103
  C  C20  1  0.462200  0.448300  0.624200  1.0  -0.068
  C  C21  1  0.643700  0.501100  0.454800  1.0  -0.0509
  C  C22  1  0.356200  0.065100  0.567500  1.0  -0.1162
  C  C23  1  0.385200  0.954500  0.504600  1.0  -0.0634
  C  C24  1  0.473100  0.110400  0.562300  1.0  -0.0601
  C  C25  1  0.205000  0.132200  0.647100  1.0  0.6797
  C  C26  1  0.723400  0.388300  0.664400  1.0  0.6871
  C  C27  1  0.348400  0.012800  0.016800  1.0  -0.1353
  C  C28  1  0.410300  0.085000  0.910400  1.0  -0.0421
  C  C29  1  0.440800  0.929600  0.107700  1.0  -0.0441
  C  C30  1  0.190300  0.023800  0.031600  1.0  0.7855
  C  C31  1  0.391100  0.552200  0.419600  1.0  -0.1027
  C  C32  1  0.537800  0.551700  0.375800  1.0  -0.066
  C  C33  1  0.356300  0.498900  0.545200  1.0  -0.0524
  C  C34  1  0.643800  0.934900  0.432500  1.0  -0.1179
  C  C35  1  0.614800  0.045500  0.495400  1.0  -0.0612
  C  C36  1  0.526900  0.889600  0.437700  1.0  -0.0625
  C  C37  1  0.795000  0.867800  0.352900  1.0  0.6813
  C  C38  1  0.276600  0.611700  0.335600  1.0  0.6863
  O  O39  1  0.857600  0.047700  0.872500  1.0  -0.6982
  O  O40  1  0.885100  0.898100  0.052300  1.0  -0.7997
  O  O41  1  0.858700  0.375000  0.624300  1.0  -0.6603
  O  O42  1  0.171900  0.247900  0.682600  1.0  -0.6532
  O  O43  1  0.115700  0.065100  0.680600  1.0  -0.6568
  O  O44  1  0.688500  0.351000  0.780900  1.0  -0.7208
  O  O45  1  0.142400  0.952300  0.127500  1.0  -0.7013
  O  O46  1  0.114900  0.101900  0.947700  1.0  -0.8
  O  O47  1  0.141300  0.625000  0.375700  1.0  -0.6599
  O  O48  1  0.828100  0.752100  0.317400  1.0  -0.6495
  O  O49  1  0.884300  0.934900  0.319400  1.0  -0.6547
  O  O50  1  0.311500  0.649000  0.219100  1.0  -0.7183
