# generated using pymatgen
data_HoH6(C2O)6
_symmetry_space_group_name_H-M   'P 1'
_cell_length_a   9.81130000
_cell_length_b   10.41880000
_cell_length_c   11.07680000
_cell_angle_alpha   76.72100000
_cell_angle_beta   76.24200000
_cell_angle_gamma   65.93200000
_symmetry_Int_Tables_number   1
_chemical_formula_structural   HoH6(C2O)6
_chemical_formula_sum   'Ho2 H12 C24 O12'
_cell_volume   992.88518960
_cell_formula_units_Z   2
loop_
 _symmetry_equiv_pos_site_id
 _symmetry_equiv_pos_as_xyz
  1  'x, y, z'
loop_
 _atom_site_type_symbol
 _atom_site_label
 _atom_site_symmetry_multiplicity
 _atom_site_fract_x
 _atom_site_fract_y
 _atom_site_fract_z
 _atom_site_occupancy
 _atom_site_charge
  Ho  Ho1  1  0.945220  0.228250  0.322920  1.0  2.1046
  Ho  Ho2  1  0.054780  0.771750  0.677080  1.0  2.1034
  H  H3  1  0.455300  0.185000  0.104900  1.0  0.0825
  H  H4  1  0.307500  0.922200  0.006800  1.0  0.1091
  H  H5  1  0.435800  0.415600  0.209000  1.0  0.1004
  H  H6  1  0.740800  0.502500  0.923400  1.0  0.1091
  H  H7  1  0.399500  0.882400  0.679600  1.0  0.102
  H  H8  1  0.349600  0.141800  0.349700  1.0  0.0976
  H  H9  1  0.544700  0.815000  0.895100  1.0  0.0828
  H  H10  1  0.692500  0.077800  0.993200  1.0  0.1089
  H  H11  1  0.564200  0.584400  0.791000  1.0  0.1008
  H  H12  1  0.259200  0.497500  0.076600  1.0  0.1102
  H  H13  1  0.600500  0.117600  0.320400  1.0  0.1012
  H  H14  1  0.650400  0.858200  0.650300  1.0  0.0977
  C  C15  1  0.356500  0.065900  0.067200  1.0  -0.1184
  C  C16  1  0.473000  0.110800  0.062700  1.0  -0.0532
  C  C17  1  0.384500  0.953700  0.004100  1.0  -0.0701
  C  C18  1  0.205200  0.132300  0.146400  1.0  0.6703
  C  C19  1  0.607900  0.448300  0.079300  1.0  -0.1069
  C  C20  1  0.461500  0.449100  0.124900  1.0  -0.0622
  C  C21  1  0.644600  0.501000  0.954100  1.0  -0.051
  C  C22  1  0.724200  0.389500  0.165400  1.0  0.6799
  C  C23  1  0.350700  0.013300  0.516800  1.0  -0.1519
  C  C24  1  0.440200  0.929300  0.607400  1.0  -0.0215
  C  C25  1  0.409900  0.084800  0.409700  1.0  -0.0359
  C  C26  1  0.190300  0.023000  0.532800  1.0  0.8163
  C  C27  1  0.643500  0.934100  0.932800  1.0  -0.1204
  C  C28  1  0.527000  0.889200  0.937300  1.0  -0.0522
  C  C29  1  0.615500  0.046300  0.995900  1.0  -0.0669
  C  C30  1  0.794800  0.867700  0.853600  1.0  0.6704
  C  C31  1  0.392100  0.551700  0.920700  1.0  -0.1073
  C  C32  1  0.538500  0.550900  0.875100  1.0  -0.0646
  C  C33  1  0.355400  0.499000  0.045900  1.0  -0.0509
  C  C34  1  0.275800  0.610500  0.834600  1.0  0.6799
  C  C35  1  0.649300  0.986700  0.483200  1.0  -0.1511
  C  C36  1  0.559800  0.070700  0.392600  1.0  -0.0219
  C  C37  1  0.590100  0.915200  0.590300  1.0  -0.0359
  C  C38  1  0.809700  0.977000  0.467200  1.0  0.8159
  O  O39  1  0.115700  0.065700  0.178820  1.0  -0.6483
  O  O40  1  0.172800  0.248100  0.182120  1.0  -0.6564
  O  O41  1  0.686200  0.350500  0.279420  1.0  -0.7285
  O  O42  1  0.859100  0.375800  0.122670  1.0  -0.6613
  O  O43  1  0.141900  0.952000  0.627770  1.0  -0.7021
  O  O44  1  0.115500  0.102600  0.448640  1.0  -0.809
  O  O45  1  0.884300  0.934300  0.821180  1.0  -0.6459
  O  O46  1  0.827200  0.751900  0.817880  1.0  -0.6501
  O  O47  1  0.313800  0.649500  0.720580  1.0  -0.7287
  O  O48  1  0.140900  0.624200  0.877330  1.0  -0.6614
  O  O49  1  0.858100  0.048000  0.372230  1.0  -0.6994
  O  O50  1  0.884500  0.897400  0.551360  1.0  -0.8091
