# generated using pymatgen
data_DyH6(C2O)6
_symmetry_space_group_name_H-M   'P 1'
_cell_length_a   9.82830000
_cell_length_b   10.43620000
_cell_length_c   11.07600000
_cell_angle_alpha   76.89400000
_cell_angle_beta   76.29600000
_cell_angle_gamma   65.99900000
_symmetry_Int_Tables_number   1
_chemical_formula_structural   DyH6(C2O)6
_chemical_formula_sum   'Dy2 H12 C24 O12'
_cell_volume   997.35488231
_cell_formula_units_Z   2
loop_
 _symmetry_equiv_pos_site_id
 _symmetry_equiv_pos_as_xyz
  1  'x, y, z'
loop_
 _atom_site_type_symbol
 _atom_site_label
 _atom_site_symmetry_multiplicity
 _atom_site_fract_x
 _atom_site_fract_y
 _atom_site_fract_z
 _atom_site_occupancy
 _atom_site_charge
  Dy  Dy1  1  0.944930  0.228080  0.822910  1.0  2.1922
  Dy  Dy2  1  0.055070  0.771920  0.177090  1.0  2.1901
  H  H3  1  0.307800  0.922200  0.506300  1.0  0.1075
  H  H4  1  0.455200  0.184900  0.604900  1.0  0.0804
  H  H5  1  0.435700  0.414900  0.709000  1.0  0.1045
  H  H6  1  0.740000  0.502300  0.423800  1.0  0.1041
  H  H7  1  0.600300  0.118200  0.821000  1.0  0.0994
  H  H8  1  0.649400  0.859600  0.150100  1.0  0.0907
  H  H9  1  0.692200  0.077800  0.493700  1.0  0.1073
  H  H10  1  0.544800  0.815100  0.395100  1.0  0.0803
  H  H11  1  0.564300  0.585100  0.291000  1.0  0.1047
  H  H12  1  0.260000  0.497700  0.576200  1.0  0.1049
  H  H13  1  0.399700  0.881800  0.179000  1.0  0.1002
  H  H14  1  0.350600  0.140400  0.849900  1.0  0.0908
  C  C15  1  0.356900  0.065100  0.567400  1.0  -0.1166
  C  C16  1  0.384600  0.953500  0.503900  1.0  -0.0656
  C  C17  1  0.473100  0.110600  0.562700  1.0  -0.0575
  C  C18  1  0.205400  0.131600  0.645600  1.0  0.6798
  C  C19  1  0.608000  0.448600  0.579300  1.0  -0.1143
  C  C20  1  0.461500  0.448700  0.625100  1.0  -0.0731
  C  C21  1  0.643900  0.501000  0.454400  1.0  -0.0507
  C  C22  1  0.723600  0.389300  0.665100  1.0  0.6846
  C  C23  1  0.649300  0.986100  0.983000  1.0  -0.1475
  C  C24  1  0.560000  0.070800  0.892700  1.0  -0.0321
  C  C25  1  0.589500  0.915900  0.089800  1.0  -0.0332
  C  C26  1  0.809600  0.976800  0.966900  1.0  0.8084
  C  C27  1  0.643100  0.934900  0.432600  1.0  -0.1183
  C  C28  1  0.615400  0.046500  0.496100  1.0  -0.0623
  C  C29  1  0.526900  0.889400  0.437300  1.0  -0.0565
  C  C30  1  0.794600  0.868400  0.354400  1.0  0.6792
  C  C31  1  0.392000  0.551400  0.420700  1.0  -0.1135
  C  C32  1  0.538500  0.551300  0.374900  1.0  -0.0727
  C  C33  1  0.356100  0.499000  0.545600  1.0  -0.0519
  C  C34  1  0.276400  0.610700  0.334900  1.0  0.6849
  C  C35  1  0.350700  0.013900  0.017000  1.0  -0.1476
  C  C36  1  0.440000  0.929200  0.107300  1.0  -0.0317
  C  C37  1  0.410500  0.084100  0.910200  1.0  -0.0328
  C  C38  1  0.190400  0.023200  0.033100  1.0  0.8102
  O  O39  1  0.172340  0.247580  0.681670  1.0  -0.6636
  O  O40  1  0.116700  0.064700  0.678170  1.0  -0.6584
  O  O41  1  0.685100  0.350000  0.779600  1.0  -0.7513
  O  O42  1  0.858000  0.376800  0.623190  1.0  -0.6842
  O  O43  1  0.857320  0.047380  0.872300  1.0  -0.7013
  O  O44  1  0.884000  0.897700  0.050580  1.0  -0.8131
  O  O45  1  0.827660  0.752420  0.318330  1.0  -0.6563
  O  O46  1  0.883300  0.935300  0.321830  1.0  -0.6535
  O  O47  1  0.314900  0.650000  0.220400  1.0  -0.7432
  O  O48  1  0.142000  0.623200  0.376810  1.0  -0.6839
  O  O49  1  0.142680  0.952620  0.127700  1.0  -0.7042
  O  O50  1  0.116000  0.102300  0.949420  1.0  -0.8137
