# generated using pymatgen
data_YbH6(C2O)6
_symmetry_space_group_name_H-M   'P 1'
_cell_length_a   9.78630000
_cell_length_b   10.29670000
_cell_length_c   11.02630000
_cell_angle_alpha   76.89800000
_cell_angle_beta   76.24000000
_cell_angle_gamma   65.48700000
_symmetry_Int_Tables_number   1
_chemical_formula_structural   YbH6(C2O)6
_chemical_formula_sum   'Yb2 H12 C24 O12'
_cell_volume   971.57065101
_cell_formula_units_Z   2
loop_
 _symmetry_equiv_pos_site_id
 _symmetry_equiv_pos_as_xyz
  1  'x, y, z'
loop_
 _atom_site_type_symbol
 _atom_site_label
 _atom_site_symmetry_multiplicity
 _atom_site_fract_x
 _atom_site_fract_y
 _atom_site_fract_z
 _atom_site_occupancy
 _atom_site_charge
  Yb  Yb1  1  0.944290  0.228140  0.324140  1.0  1.5032
  Yb  Yb2  1  0.055710  0.771860  0.675860  1.0  1.5019
  H  H3  1  0.435600  0.416800  0.211000  1.0  0.1113
  H  H4  1  0.744000  0.497400  0.922700  1.0  0.1173
  H  H5  1  0.401500  0.882800  0.681800  1.0  0.1064
  H  H6  1  0.348600  0.141500  0.348700  1.0  0.1046
  H  H7  1  0.307900  0.922100  0.005300  1.0  0.1183
  H  H8  1  0.452700  0.188000  0.107000  1.0  0.0936
  H  H9  1  0.564400  0.583200  0.789000  1.0  0.1116
  H  H10  1  0.256000  0.502600  0.077300  1.0  0.1186
  H  H11  1  0.598500  0.117200  0.318200  1.0  0.1055
  H  H12  1  0.651400  0.858500  0.651300  1.0  0.1044
  H  H13  1  0.692100  0.077900  0.994700  1.0  0.1179
  H  H14  1  0.547300  0.812000  0.893000  1.0  0.0935
  C  C15  1  0.608700  0.448400  0.080600  1.0  -0.1065
  C  C16  1  0.461500  0.450100  0.126500  1.0  -0.0429
  C  C17  1  0.646600  0.498300  0.953900  1.0  -0.0321
  C  C18  1  0.726300  0.387800  0.166900  1.0  0.6547
  C  C19  1  0.350100  0.013000  0.517600  1.0  -0.1352
  C  C20  1  0.441600  0.929400  0.608600  1.0  -0.0289
  C  C21  1  0.409600  0.084500  0.409100  1.0  -0.0268
  C  C22  1  0.189500  0.021900  0.533000  1.0  0.7647
  C  C23  1  0.355400  0.066000  0.067800  1.0  -0.0997
  C  C24  1  0.385000  0.953400  0.003200  1.0  -0.0428
  C  C25  1  0.471500  0.112700  0.064200  1.0  -0.0455
  C  C26  1  0.203000  0.132400  0.148200  1.0  0.6623
  C  C27  1  0.391300  0.551600  0.919400  1.0  -0.1065
  C  C28  1  0.538500  0.549900  0.873500  1.0  -0.0439
  C  C29  1  0.353400  0.501700  0.046100  1.0  -0.0323
  C  C30  1  0.273700  0.612200  0.833100  1.0  0.6546
  C  C31  1  0.649900  0.987000  0.482400  1.0  -0.1355
  C  C32  1  0.558400  0.070600  0.391400  1.0  -0.0311
  C  C33  1  0.590400  0.915500  0.590900  1.0  -0.0268
  C  C34  1  0.810500  0.978100  0.467000  1.0  0.7636
  C  C35  1  0.644600  0.934000  0.932200  1.0  -0.102
  C  C36  1  0.615000  0.046600  0.996800  1.0  -0.0458
  C  C37  1  0.528500  0.887300  0.935800  1.0  -0.044
  C  C38  1  0.797000  0.867600  0.851800  1.0  0.6607
  O  O39  1  0.861500  0.374200  0.123900  1.0  -0.5527
  O  O40  1  0.685700  0.350200  0.281900  1.0  -0.6117
  O  O41  1  0.114700  0.099500  0.446600  1.0  -0.7227
  O  O42  1  0.140800  0.950700  0.629400  1.0  -0.6469
  O  O43  1  0.169000  0.250000  0.186200  1.0  -0.5699
  O  O44  1  0.113300  0.065500  0.180300  1.0  -0.5649
  O  O45  1  0.138500  0.625800  0.876100  1.0  -0.5506
  O  O46  1  0.314300  0.649800  0.718100  1.0  -0.6089
  O  O47  1  0.885300  0.900500  0.553400  1.0  -0.7271
  O  O48  1  0.859200  0.049300  0.370600  1.0  -0.6468
  O  O49  1  0.831000  0.750000  0.813800  1.0  -0.5747
  O  O50  1  0.886700  0.934500  0.819700  1.0  -0.5635
