# generated using pymatgen
data_ZnH12C18(NO3)2
_symmetry_space_group_name_H-M   'P 1'
_cell_length_a   17.48000000
_cell_length_b   17.48000000
_cell_length_c   22.69000000
_cell_angle_alpha   90.00000000
_cell_angle_beta   90.00000000
_cell_angle_gamma   90.00000000
_symmetry_Int_Tables_number   1
_chemical_formula_structural   ZnH12C18(NO3)2
_chemical_formula_sum   'Zn8 H96 C144 N16 O48'
_cell_volume   6932.93857600
_cell_formula_units_Z   8
loop_
 _symmetry_equiv_pos_site_id
 _symmetry_equiv_pos_as_xyz
  1  'x, y, z'
loop_
 _atom_site_type_symbol
 _atom_site_label
 _atom_site_symmetry_multiplicity
 _atom_site_fract_x
 _atom_site_fract_y
 _atom_site_fract_z
 _atom_site_occupancy
 _atom_site_charge
  Zn  Zn1  1  0.568330  0.082950  0.797040  1.0  0.8844
  Zn  Zn2  1  0.431670  0.917050  0.797040  1.0  0.8854
  Zn  Zn3  1  0.082950  0.431670  0.202960  1.0  0.8839
  Zn  Zn4  1  0.917050  0.568330  0.202960  1.0  0.8848
  Zn  Zn5  1  0.931670  0.582950  0.702960  1.0  0.8846
  Zn  Zn6  1  0.068330  0.417050  0.702960  1.0  0.8835
  Zn  Zn7  1  0.417050  0.931670  0.297040  1.0  0.8856
  Zn  Zn8  1  0.582950  0.068330  0.297040  1.0  0.8845
  H  H9  1  0.639900  0.974900  0.505000  1.0  0.1283
  H  H10  1  0.554500  0.779100  0.772000  1.0  0.3652
  H  H11  1  0.709600  0.684800  0.734600  1.0  0.1196
  H  H12  1  0.467400  0.127200  0.685900  1.0  0.0725
  H  H13  1  0.908600  0.841900  0.742800  1.0  0.3894
  H  H14  1  0.532000  0.168600  0.396200  1.0  0.0972
  H  H15  1  0.669300  0.031000  0.697000  1.0  0.0846
  H  H16  1  0.638000  0.970500  0.404600  1.0  0.0818
  H  H17  1  0.528100  0.176000  0.496900  1.0  0.1179
  H  H18  1  0.472400  0.127400  0.584900  1.0  0.1367
  H  H19  1  0.752600  0.942200  0.776100  1.0  0.1127
  H  H20  1  0.680700  0.027900  0.595500  1.0  0.13
  H  H21  1  0.360100  0.025100  0.505000  1.0  0.1286
  H  H22  1  0.445500  0.220900  0.772000  1.0  0.3658
  H  H23  1  0.290400  0.315200  0.734600  1.0  0.1195
  H  H24  1  0.532600  0.872800  0.685900  1.0  0.0727
  H  H25  1  0.091400  0.158100  0.742800  1.0  0.3915
  H  H26  1  0.468000  0.831400  0.396200  1.0  0.0972
  H  H27  1  0.330700  0.969000  0.697000  1.0  0.0843
  H  H28  1  0.362000  0.029500  0.404600  1.0  0.0821
  H  H29  1  0.471900  0.824000  0.496900  1.0  0.1169
  H  H30  1  0.527600  0.872600  0.584900  1.0  0.135
  H  H31  1  0.247400  0.057800  0.776100  1.0  0.114
  H  H32  1  0.319300  0.972100  0.595500  1.0  0.1307
  H  H33  1  0.974900  0.360100  0.495000  1.0  0.128
  H  H34  1  0.779100  0.445500  0.228000  1.0  0.3617
  H  H35  1  0.684800  0.290400  0.265400  1.0  0.1194
  H  H36  1  0.127200  0.532600  0.314100  1.0  0.0724
  H  H37  1  0.841900  0.091400  0.257200  1.0  0.3868
  H  H38  1  0.168600  0.468000  0.603800  1.0  0.0974
  H  H39  1  0.031000  0.330700  0.303000  1.0  0.0848
  H  H40  1  0.970500  0.362000  0.595400  1.0  0.0831
  H  H41  1  0.176000  0.471900  0.503100  1.0  0.1168
  H  H42  1  0.127400  0.527600  0.415100  1.0  0.1346
  H  H43  1  0.942200  0.247400  0.223900  1.0  0.1126
  H  H44  1  0.027900  0.319300  0.404500  1.0  0.1315
  H  H45  1  0.025100  0.639900  0.495000  1.0  0.1295
  H  H46  1  0.220900  0.554500  0.228000  1.0  0.3634
  H  H47  1  0.315200  0.709600  0.265400  1.0  0.1188
  H  H48  1  0.872800  0.467400  0.314100  1.0  0.0728
  H  H49  1  0.158100  0.908600  0.257200  1.0  0.3859
  H  H50  1  0.831400  0.532000  0.603800  1.0  0.0974
  H  H51  1  0.969000  0.669300  0.303000  1.0  0.0851
  H  H52  1  0.029500  0.638000  0.595400  1.0  0.0829
  H  H53  1  0.824000  0.528100  0.503100  1.0  0.1166
  H  H54  1  0.872600  0.472400  0.415100  1.0  0.1352
  H  H55  1  0.057800  0.752600  0.223900  1.0  0.1127
  H  H56  1  0.972100  0.680700  0.404500  1.0  0.133
  H  H57  1  0.860100  0.474900  0.995000  1.0  0.1279
  H  H58  1  0.945500  0.279100  0.728000  1.0  0.3656
  H  H59  1  0.790400  0.184800  0.765400  1.0  0.1189
  H  H60  1  0.032600  0.627200  0.814100  1.0  0.0723
  H  H61  1  0.591400  0.341900  0.757200  1.0  0.3913
  H  H62  1  0.968000  0.668600  0.103800  1.0  0.0972
  H  H63  1  0.830700  0.531000  0.803000  1.0  0.0841
  H  H64  1  0.862000  0.470500  0.095400  1.0  0.0821
  H  H65  1  0.971900  0.676000  0.003100  1.0  0.1174
  H  H66  1  0.027600  0.627400  0.915100  1.0  0.1356
  H  H67  1  0.747400  0.442200  0.723900  1.0  0.1135
  H  H68  1  0.819300  0.527900  0.904500  1.0  0.1307
  H  H69  1  0.139900  0.525100  0.995000  1.0  0.1284
  H  H70  1  0.054500  0.720900  0.728000  1.0  0.3642
  H  H71  1  0.209600  0.815200  0.765400  1.0  0.1194
  H  H72  1  0.967400  0.372800  0.814100  1.0  0.0723
  H  H73  1  0.408600  0.658100  0.757200  1.0  0.3902
  H  H74  1  0.032000  0.331400  0.103800  1.0  0.0975
  H  H75  1  0.169300  0.469000  0.803000  1.0  0.0843
  H  H76  1  0.138000  0.529500  0.095400  1.0  0.0822
  H  H77  1  0.028100  0.324000  0.003100  1.0  0.1164
  H  H78  1  0.972400  0.372600  0.915100  1.0  0.1352
  H  H79  1  0.252600  0.557800  0.723900  1.0  0.113
  H  H80  1  0.180700  0.472100  0.904500  1.0  0.1302
  H  H81  1  0.525100  0.860100  0.005000  1.0  0.1286
  H  H82  1  0.720900  0.945500  0.272000  1.0  0.3633
  H  H83  1  0.815200  0.790400  0.234600  1.0  0.1194
  H  H84  1  0.372800  0.032600  0.185900  1.0  0.0734
  H  H85  1  0.658100  0.591400  0.242800  1.0  0.386
  H  H86  1  0.331400  0.968000  0.896200  1.0  0.0971
  H  H87  1  0.469000  0.830700  0.197000  1.0  0.085
  H  H88  1  0.529500  0.862000  0.904600  1.0  0.0829
  H  H89  1  0.324000  0.971900  0.996900  1.0  0.117
  H  H90  1  0.372600  0.027600  0.084900  1.0  0.1357
  H  H91  1  0.557800  0.747400  0.276100  1.0  0.1131
  H  H92  1  0.472100  0.819300  0.095500  1.0  0.1313
  H  H93  1  0.474900  0.139900  0.005000  1.0  0.1283
  H  H94  1  0.279100  0.054500  0.272000  1.0  0.3636
  H  H95  1  0.184800  0.209600  0.234600  1.0  0.1199
  H  H96  1  0.627200  0.967400  0.185900  1.0  0.073
  H  H97  1  0.341900  0.408600  0.242800  1.0  0.3873
  H  H98  1  0.668600  0.032000  0.896200  1.0  0.0972
  H  H99  1  0.531000  0.169300  0.197000  1.0  0.0852
  H  H100  1  0.470500  0.138000  0.904600  1.0  0.0826
  H  H101  1  0.676000  0.028100  0.996900  1.0  0.1168
  H  H102  1  0.627400  0.972400  0.084900  1.0  0.1349
  H  H103  1  0.442200  0.252600  0.276100  1.0  0.113
  H  H104  1  0.527900  0.180700  0.095500  1.0  0.1334
  C  C105  1  0.581600  0.075800  0.513600  1.0  0.1152
  C  C106  1  0.577500  0.077300  0.578600  1.0  0.0879
  C  C107  1  0.606900  0.912500  0.790300  1.0  0.6706
  C  C108  1  0.615900  0.015000  0.483500  1.0  -0.2188
  C  C109  1  0.670000  0.859600  0.773200  1.0  -0.1874
  C  C110  1  0.718100  0.737200  0.743600  1.0  -0.1096
  C  C111  1  0.656800  0.782000  0.760800  1.0  0.3083
  C  C112  1  0.791800  0.766700  0.738900  1.0  -0.2625
  C  C113  1  0.511300  0.106500  0.667100  1.0  0.174
  C  C114  1  0.552900  0.127800  0.418700  1.0  0.1519
  C  C115  1  0.628700  0.050600  0.673600  1.0  0.169
  C  C116  1  0.614900  0.013000  0.423800  1.0  0.1718
  C  C117  1  0.551000  0.132600  0.478800  1.0  -0.1799
  C  C118  1  0.804200  0.844500  0.751400  1.0  0.2754
  C  C119  1  0.513800  0.107000  0.607000  1.0  -0.2126
  C  C120  1  0.744000  0.889600  0.768000  1.0  -0.0972
  C  C121  1  0.636000  0.048700  0.613200  1.0  -0.2115
  C  C122  1  0.854900  0.715300  0.721300  1.0  0.7271
  C  C123  1  0.418400  0.924200  0.513600  1.0  0.1153
  C  C124  1  0.422500  0.922700  0.578600  1.0  0.0887
  C  C125  1  0.393100  0.087500  0.790300  1.0  0.6701
  C  C126  1  0.384100  0.985000  0.483500  1.0  -0.2218
  C  C127  1  0.330000  0.140400  0.773200  1.0  -0.1873
  C  C128  1  0.281900  0.262800  0.743600  1.0  -0.11
  C  C129  1  0.343200  0.218000  0.760800  1.0  0.3109
  C  C130  1  0.208200  0.233300  0.738900  1.0  -0.2624
  C  C131  1  0.488700  0.893500  0.667100  1.0  0.1751
  C  C132  1  0.447100  0.872200  0.418700  1.0  0.1516
  C  C133  1  0.371300  0.949400  0.673600  1.0  0.169
  C  C134  1  0.385100  0.987000  0.423800  1.0  0.1715
  C  C135  1  0.449000  0.867400  0.478800  1.0  -0.1813
  C  C136  1  0.195800  0.155500  0.751400  1.0  0.2759
  C  C137  1  0.486200  0.893000  0.607000  1.0  -0.2115
  C  C138  1  0.256000  0.110400  0.768000  1.0  -0.097
  C  C139  1  0.364000  0.951300  0.613200  1.0  -0.2078
  C  C140  1  0.145100  0.284700  0.721300  1.0  0.729
  C  C141  1  0.075800  0.418400  0.486400  1.0  0.1139
  C  C142  1  0.077300  0.422500  0.421400  1.0  0.0881
  C  C143  1  0.912500  0.393100  0.209700  1.0  0.669
  C  C144  1  0.015000  0.384100  0.516500  1.0  -0.2207
  C  C145  1  0.859600  0.330000  0.226800  1.0  -0.1863
  C  C146  1  0.737200  0.281900  0.256400  1.0  -0.1094
  C  C147  1  0.782000  0.343200  0.239200  1.0  0.3094
  C  C148  1  0.766700  0.208200  0.261100  1.0  -0.2621
  C  C149  1  0.106500  0.488700  0.332900  1.0  0.1735
  C  C150  1  0.127800  0.447100  0.581300  1.0  0.1601
  C  C151  1  0.050600  0.371300  0.326400  1.0  0.1642
  C  C152  1  0.013000  0.385100  0.576200  1.0  0.1692
  C  C153  1  0.132600  0.449000  0.521200  1.0  -0.1767
  C  C154  1  0.844500  0.195800  0.248600  1.0  0.2749
  C  C155  1  0.107000  0.486200  0.393000  1.0  -0.2104
  C  C156  1  0.889600  0.256000  0.232000  1.0  -0.0959
  C  C157  1  0.048700  0.364000  0.386800  1.0  -0.2166
  C  C158  1  0.715300  0.145100  0.278700  1.0  0.7306
  C  C159  1  0.924200  0.581600  0.486400  1.0  0.1142
  C  C160  1  0.922700  0.577500  0.421400  1.0  0.0884
  C  C161  1  0.087500  0.606900  0.209700  1.0  0.6692
  C  C162  1  0.985000  0.615900  0.516500  1.0  -0.2214
  C  C163  1  0.140400  0.670000  0.226800  1.0  -0.1889
  C  C164  1  0.262800  0.718100  0.256400  1.0  -0.1097
  C  C165  1  0.218000  0.656800  0.239200  1.0  0.309
  C  C166  1  0.233300  0.791800  0.261100  1.0  -0.2607
  C  C167  1  0.893500  0.511300  0.332900  1.0  0.1733
  C  C168  1  0.872200  0.552900  0.581300  1.0  0.159
  C  C169  1  0.949400  0.628700  0.326400  1.0  0.1649
  C  C170  1  0.987000  0.614900  0.576200  1.0  0.1678
  C  C171  1  0.867400  0.551000  0.521200  1.0  -0.1753
  C  C172  1  0.155500  0.804200  0.248600  1.0  0.2762
  C  C173  1  0.893000  0.513800  0.393000  1.0  -0.2108
  C  C174  1  0.110400  0.744000  0.232000  1.0  -0.0966
  C  C175  1  0.951300  0.636000  0.386800  1.0  -0.2166
  C  C176  1  0.284700  0.854900  0.278700  1.0  0.7294
  C  C177  1  0.918400  0.575800  0.986400  1.0  0.1141
  C  C178  1  0.922500  0.577300  0.921400  1.0  0.0887
  C  C179  1  0.893100  0.412500  0.709700  1.0  0.6713
  C  C180  1  0.884100  0.515000  0.016500  1.0  -0.2211
  C  C181  1  0.830000  0.359600  0.726800  1.0  -0.1874
  C  C182  1  0.781900  0.237200  0.756400  1.0  -0.1091
  C  C183  1  0.843200  0.282000  0.739200  1.0  0.308
  C  C184  1  0.708200  0.266700  0.761100  1.0  -0.2621
  C  C185  1  0.988700  0.606500  0.832900  1.0  0.1751
  C  C186  1  0.947100  0.627800  0.081300  1.0  0.1524
  C  C187  1  0.871300  0.550600  0.826400  1.0  0.1691
  C  C188  1  0.885100  0.513000  0.076200  1.0  0.1726
  C  C189  1  0.949000  0.632600  0.021200  1.0  -0.1791
  C  C190  1  0.695800  0.344500  0.748600  1.0  0.2761
  C  C191  1  0.986200  0.607000  0.893000  1.0  -0.2111
  C  C192  1  0.756000  0.389600  0.732000  1.0  -0.0967
  C  C193  1  0.864000  0.548700  0.886800  1.0  -0.2095
  C  C194  1  0.645100  0.215300  0.778700  1.0  0.7288
  C  C195  1  0.081600  0.424200  0.986400  1.0  0.1153
  C  C196  1  0.077500  0.422700  0.921400  1.0  0.0884
  C  C197  1  0.106900  0.587500  0.709700  1.0  0.6708
  C  C198  1  0.115900  0.485000  0.016500  1.0  -0.2203
  C  C199  1  0.170000  0.640400  0.726800  1.0  -0.1874
  C  C200  1  0.218100  0.762800  0.756400  1.0  -0.1104
  C  C201  1  0.156800  0.718000  0.739200  1.0  0.311
  C  C202  1  0.291800  0.733300  0.761100  1.0  -0.2624
  C  C203  1  0.011300  0.393500  0.832900  1.0  0.1741
  C  C204  1  0.052900  0.372200  0.081300  1.0  0.152
  C  C205  1  0.128700  0.449400  0.826400  1.0  0.1677
  C  C206  1  0.114900  0.487000  0.076200  1.0  0.1727
  C  C207  1  0.051000  0.367400  0.021200  1.0  -0.1803
  C  C208  1  0.304200  0.655500  0.748600  1.0  0.2761
  C  C209  1  0.013800  0.393000  0.893000  1.0  -0.2118
  C  C210  1  0.244000  0.610400  0.732000  1.0  -0.097
  C  C211  1  0.136000  0.451300  0.886800  1.0  -0.2109
  C  C212  1  0.354900  0.784700  0.778700  1.0  0.729
  C  C213  1  0.424200  0.918400  0.013600  1.0  0.1151
  C  C214  1  0.422700  0.922500  0.078600  1.0  0.0883
  C  C215  1  0.587500  0.893100  0.290300  1.0  0.6689
  C  C216  1  0.485000  0.884100  0.983500  1.0  -0.2221
  C  C217  1  0.640400  0.830000  0.273200  1.0  -0.1873
  C  C218  1  0.762800  0.781900  0.243600  1.0  -0.1102
  C  C219  1  0.718000  0.843200  0.260800  1.0  0.3094
  C  C220  1  0.733300  0.708200  0.238900  1.0  -0.2611
  C  C221  1  0.393500  0.988700  0.167100  1.0  0.1742
  C  C222  1  0.372200  0.947100  0.918700  1.0  0.1581
  C  C223  1  0.449400  0.871300  0.173600  1.0  0.1661
  C  C224  1  0.487000  0.885100  0.923800  1.0  0.1677
  C  C225  1  0.367400  0.949000  0.978800  1.0  -0.1763
  C  C226  1  0.655500  0.695800  0.251400  1.0  0.2751
  C  C227  1  0.393000  0.986200  0.107000  1.0  -0.2103
  C  C228  1  0.610400  0.756000  0.268000  1.0  -0.0966
  C  C229  1  0.451300  0.864000  0.113200  1.0  -0.2159
  C  C230  1  0.784700  0.645100  0.221300  1.0  0.7274
  C  C231  1  0.575800  0.081600  0.013600  1.0  0.114
  C  C232  1  0.577300  0.077500  0.078600  1.0  0.0878
  C  C233  1  0.412500  0.106900  0.290300  1.0  0.6681
  C  C234  1  0.515000  0.115900  0.983500  1.0  -0.2215
  C  C235  1  0.359600  0.170000  0.273200  1.0  -0.1876
  C  C236  1  0.237200  0.218100  0.243600  1.0  -0.1097
  C  C237  1  0.282000  0.156800  0.260800  1.0  0.3091
  C  C238  1  0.266700  0.291800  0.238900  1.0  -0.2618
  C  C239  1  0.606500  0.011300  0.167100  1.0  0.1743
  C  C240  1  0.627800  0.052900  0.918700  1.0  0.1586
  C  C241  1  0.550600  0.128700  0.173600  1.0  0.1646
  C  C242  1  0.513000  0.114900  0.923800  1.0  0.1678
  C  C243  1  0.632600  0.051000  0.978800  1.0  -0.177
  C  C244  1  0.344500  0.304200  0.251400  1.0  0.2754
  C  C245  1  0.607000  0.013800  0.107000  1.0  -0.2103
  C  C246  1  0.389600  0.244000  0.268000  1.0  -0.0959
  C  C247  1  0.548700  0.136000  0.113200  1.0  -0.2166
  C  C248  1  0.215300  0.354900  0.221300  1.0  0.7298
  N  N249  1  0.567000  0.078600  0.700900  1.0  -0.3047
  N  N250  1  0.583100  0.067800  0.390300  1.0  -0.3338
  N  N251  1  0.433000  0.921400  0.700900  1.0  -0.3045
  N  N252  1  0.416900  0.932200  0.390300  1.0  -0.3339
  N  N253  1  0.078600  0.433000  0.299100  1.0  -0.3047
  N  N254  1  0.067800  0.416900  0.609700  1.0  -0.3362
  N  N255  1  0.921400  0.567000  0.299100  1.0  -0.3047
  N  N256  1  0.932200  0.583100  0.609700  1.0  -0.3363
  N  N257  1  0.933000  0.578600  0.799100  1.0  -0.3048
  N  N258  1  0.916900  0.567800  0.109700  1.0  -0.336
  N  N259  1  0.067000  0.421400  0.799100  1.0  -0.3047
  N  N260  1  0.083100  0.432200  0.109700  1.0  -0.3355
  N  N261  1  0.421400  0.933000  0.200900  1.0  -0.3043
  N  N262  1  0.432200  0.916900  0.890300  1.0  -0.3355
  N  N263  1  0.578600  0.067000  0.200900  1.0  -0.3044
  N  N264  1  0.567800  0.083100  0.890300  1.0  -0.3341
  O  O265  1  0.622100  0.981400  0.797300  1.0  -0.5954
  O  O266  1  0.588400  0.746900  0.763700  1.0  -0.5095
  O  O267  1  0.876000  0.876400  0.749200  1.0  -0.4823
  O  O268  1  0.541100  0.883000  0.794900  1.0  -0.6272
  O  O269  1  0.838500  0.647900  0.708200  1.0  -0.618
  O  O270  1  0.922700  0.740400  0.721100  1.0  -0.6142
  O  O271  1  0.377900  0.018600  0.797300  1.0  -0.597
  O  O272  1  0.411600  0.253100  0.763700  1.0  -0.5063
  O  O273  1  0.124000  0.123600  0.749200  1.0  -0.482
  O  O274  1  0.458900  0.117000  0.794900  1.0  -0.6295
  O  O275  1  0.161500  0.352100  0.708200  1.0  -0.6162
  O  O276  1  0.077300  0.259600  0.721100  1.0  -0.6151
  O  O277  1  0.981400  0.377900  0.202700  1.0  -0.5982
  O  O278  1  0.746900  0.411600  0.236300  1.0  -0.5117
  O  O279  1  0.876400  0.124000  0.250800  1.0  -0.4854
  O  O280  1  0.883000  0.458900  0.205100  1.0  -0.6282
  O  O281  1  0.647900  0.161500  0.291800  1.0  -0.6156
  O  O282  1  0.740400  0.077300  0.278900  1.0  -0.6194
  O  O283  1  0.018600  0.622100  0.202700  1.0  -0.5958
  O  O284  1  0.253100  0.588400  0.236300  1.0  -0.5121
  O  O285  1  0.123600  0.876000  0.250800  1.0  -0.4871
  O  O286  1  0.117000  0.541100  0.205100  1.0  -0.6295
  O  O287  1  0.352100  0.838500  0.291800  1.0  -0.6144
  O  O288  1  0.259600  0.922700  0.278900  1.0  -0.6197
  O  O289  1  0.877900  0.481400  0.702700  1.0  -0.5957
  O  O290  1  0.911600  0.246900  0.736300  1.0  -0.5099
  O  O291  1  0.624000  0.376400  0.750800  1.0  -0.4839
  O  O292  1  0.958900  0.383000  0.705100  1.0  -0.6298
  O  O293  1  0.661500  0.147900  0.791800  1.0  -0.6192
  O  O294  1  0.577300  0.240400  0.778900  1.0  -0.614
  O  O295  1  0.122100  0.518600  0.702700  1.0  -0.5962
  O  O296  1  0.088400  0.753100  0.736300  1.0  -0.5075
  O  O297  1  0.376000  0.623600  0.750800  1.0  -0.4817
  O  O298  1  0.041100  0.617000  0.705100  1.0  -0.6284
  O  O299  1  0.338500  0.852100  0.791800  1.0  -0.6175
  O  O300  1  0.422700  0.759600  0.778900  1.0  -0.6142
  O  O301  1  0.518600  0.877900  0.297300  1.0  -0.5974
  O  O302  1  0.753100  0.911600  0.263700  1.0  -0.5123
  O  O303  1  0.623600  0.624000  0.249200  1.0  -0.4879
  O  O304  1  0.617000  0.958900  0.294900  1.0  -0.6293
  O  O305  1  0.852100  0.661500  0.208200  1.0  -0.6167
  O  O306  1  0.759600  0.577300  0.221100  1.0  -0.6185
  O  O307  1  0.481400  0.122100  0.297300  1.0  -0.5962
  O  O308  1  0.246900  0.088400  0.263700  1.0  -0.5108
  O  O309  1  0.376400  0.376000  0.249200  1.0  -0.4856
  O  O310  1  0.383000  0.041100  0.294900  1.0  -0.6301
  O  O311  1  0.147900  0.338500  0.208200  1.0  -0.6133
  O  O312  1  0.240400  0.422700  0.221100  1.0  -0.6199
