# generated using pymatgen
data_In3H6(C9O8)2
_symmetry_space_group_name_H-M   'P 1'
_cell_length_a   13.95080000
_cell_length_b   13.95080000
_cell_length_c   22.40200000
_cell_angle_alpha   90.00000000
_cell_angle_beta   90.00000000
_cell_angle_gamma   120.00000000
_symmetry_Int_Tables_number   1
_chemical_formula_structural   In3H6(C9O8)2
_chemical_formula_sum   'In9 H18 C54 O48'
_cell_volume   3775.85797102
_cell_formula_units_Z   3
loop_
 _symmetry_equiv_pos_site_id
 _symmetry_equiv_pos_as_xyz
  1  'x, y, z'
loop_
 _atom_site_type_symbol
 _atom_site_label
 _atom_site_symmetry_multiplicity
 _atom_site_fract_x
 _atom_site_fract_y
 _atom_site_fract_z
 _atom_site_occupancy
 _atom_site_charge
  In  In1  1  0.479620  0.666667  0.166670  1.0  1.5328
  In  In2  1  0.146290  0.000000  0.500000  1.0  1.5329
  In  In3  1  0.333333  0.812960  0.166670  1.0  1.5376
  In  In4  1  0.000000  0.146290  0.500000  1.0  1.5371
  In  In5  1  0.187040  0.520380  0.166670  1.0  1.5369
  In  In6  1  0.853710  0.853710  0.500000  1.0  1.5369
  In  In7  1  0.666667  0.479620  0.833330  1.0  1.5371
  In  In8  1  0.812960  0.333333  0.833330  1.0  1.5329
  In  In9  1  0.520380  0.187040  0.833330  1.0  1.5367
  H  H10  1  0.181300  0.251700  0.041700  1.0  0.1188
  H  H11  1  0.847970  0.585030  0.375030  1.0  0.1218
  H  H12  1  0.514630  0.918370  0.708370  1.0  0.1188
  H  H13  1  0.748300  0.929600  0.041700  1.0  0.1188
  H  H14  1  0.414970  0.262930  0.375030  1.0  0.1208
  H  H15  1  0.081630  0.596270  0.708370  1.0  0.1188
  H  H16  1  0.070400  0.818700  0.041700  1.0  0.1227
  H  H17  1  0.737070  0.152030  0.375030  1.0  0.1195
  H  H18  1  0.403730  0.485370  0.708370  1.0  0.1226
  H  H19  1  0.251700  0.181300  0.958300  1.0  0.1208
  H  H20  1  0.918370  0.514630  0.291630  1.0  0.1208
  H  H21  1  0.585030  0.847970  0.624970  1.0  0.1242
  H  H22  1  0.929600  0.748300  0.958300  1.0  0.1187
  H  H23  1  0.596270  0.081630  0.291630  1.0  0.1187
  H  H24  1  0.262930  0.414970  0.624970  1.0  0.1211
  H  H25  1  0.818700  0.070400  0.958300  1.0  0.1227
  H  H26  1  0.485370  0.403730  0.291630  1.0  0.1225
  H  H27  1  0.152030  0.737070  0.624970  1.0  0.1193
  C  C28  1  0.337300  0.468600  0.082800  1.0  0.6706
  C  C29  1  0.329300  0.388600  0.035900  1.0  0.0754
  C  C30  1  0.250300  0.289600  0.023400  1.0  -0.111
  C  C31  1  0.003970  0.801930  0.416130  1.0  0.6691
  C  C32  1  0.995970  0.721930  0.369230  1.0  0.0754
  C  C33  1  0.916970  0.622930  0.356730  1.0  -0.1108
  C  C34  1  0.670630  0.135270  0.749470  1.0  0.6588
  C  C35  1  0.662630  0.055270  0.702570  1.0  0.0753
  C  C36  1  0.583630  0.956270  0.690070  1.0  -0.1109
  C  C37  1  0.531400  0.868700  0.082800  1.0  0.6704
  C  C38  1  0.611400  0.940700  0.035900  1.0  0.0742
  C  C39  1  0.710400  0.960700  0.023400  1.0  -0.11
  C  C40  1  0.198070  0.202030  0.416130  1.0  0.6691
  C  C41  1  0.278070  0.274030  0.369230  1.0  0.0742
  C  C42  1  0.377070  0.294030  0.356730  1.0  -0.1101
  C  C43  1  0.864730  0.535370  0.749470  1.0  0.6584
  C  C44  1  0.944730  0.607370  0.702570  1.0  0.0741
  C  C45  1  0.043730  0.627370  0.690070  1.0  -0.1098
  C  C46  1  0.131300  0.662700  0.082800  1.0  0.6709
  C  C47  1  0.059300  0.670700  0.035900  1.0  0.075
  C  C48  1  0.039300  0.749700  0.023400  1.0  -0.1122
  C  C49  1  0.797970  0.996030  0.416130  1.0  0.6596
  C  C50  1  0.725970  0.004030  0.369230  1.0  0.075
  C  C51  1  0.705970  0.083030  0.356730  1.0  -0.112
  C  C52  1  0.464630  0.329370  0.749470  1.0  0.6696
  C  C53  1  0.392630  0.337370  0.702570  1.0  0.075
  C  C54  1  0.372630  0.416370  0.690070  1.0  -0.1122
  C  C55  1  0.468600  0.337300  0.917200  1.0  0.6711
  C  C56  1  0.388600  0.329300  0.964100  1.0  0.0736
  C  C57  1  0.289600  0.250300  0.976600  1.0  -0.1112
  C  C58  1  0.135270  0.670630  0.250530  1.0  0.659
  C  C59  1  0.055270  0.662630  0.297430  1.0  0.0735
  C  C60  1  0.956270  0.583630  0.309930  1.0  -0.1111
  C  C61  1  0.801930  0.003970  0.583870  1.0  0.6699
  C  C62  1  0.721930  0.995970  0.630770  1.0  0.0736
  C  C63  1  0.622930  0.916970  0.643270  1.0  -0.111
  C  C64  1  0.868700  0.531400  0.917200  1.0  0.6706
  C  C65  1  0.940700  0.611400  0.964100  1.0  0.0731
  C  C66  1  0.960700  0.710400  0.976600  1.0  -0.1102
  C  C67  1  0.535370  0.864730  0.250530  1.0  0.658
  C  C68  1  0.607370  0.944730  0.297430  1.0  0.073
  C  C69  1  0.627370  0.043730  0.309930  1.0  -0.11
  C  C70  1  0.202030  0.198070  0.583870  1.0  0.669
  C  C71  1  0.274030  0.278070  0.630770  1.0  0.0731
  C  C72  1  0.294030  0.377070  0.643270  1.0  -0.1103
  C  C73  1  0.662700  0.131300  0.917200  1.0  0.6717
  C  C74  1  0.670700  0.059300  0.964100  1.0  0.0733
  C  C75  1  0.749700  0.039300  0.976600  1.0  -0.1105
  C  C76  1  0.329370  0.464630  0.250530  1.0  0.6702
  C  C77  1  0.337370  0.392630  0.297430  1.0  0.0732
  C  C78  1  0.416370  0.372630  0.309930  1.0  -0.1105
  C  C79  1  0.996030  0.797970  0.583870  1.0  0.6602
  C  C80  1  0.004030  0.725970  0.630770  1.0  0.0732
  C  C81  1  0.083030  0.705970  0.643270  1.0  -0.1104
  O  O82  1  0.432400  0.555100  0.091200  1.0  -0.6203
  O  O83  1  0.249100  0.440500  0.109100  1.0  -0.6349
  O  O84  1  0.099070  0.888430  0.424530  1.0  -0.6203
  O  O85  1  0.915770  0.773830  0.442430  1.0  -0.6349
  O  O86  1  0.765730  0.221770  0.757870  1.0  -0.62
  O  O87  1  0.582430  0.107170  0.775770  1.0  -0.6348
  O  O88  1  0.444900  0.877300  0.091200  1.0  -0.62
  O  O89  1  0.559500  0.808600  0.109100  1.0  -0.6368
  O  O90  1  0.111570  0.210630  0.424530  1.0  -0.6196
  O  O91  1  0.226170  0.141930  0.442430  1.0  -0.6368
  O  O92  1  0.778230  0.543970  0.757870  1.0  -0.62
  O  O93  1  0.892830  0.475270  0.775770  1.0  -0.6367
  O  O94  1  0.122700  0.567600  0.091200  1.0  -0.6189
  O  O95  1  0.191400  0.750900  0.109100  1.0  -0.6352
  O  O96  1  0.789370  0.900930  0.424530  1.0  -0.6189
  O  O97  1  0.858070  0.084230  0.442430  1.0  -0.6352
  O  O98  1  0.456030  0.234270  0.757870  1.0  -0.6187
  O  O99  1  0.524730  0.417570  0.775770  1.0  -0.6351
  O  O100  1  0.555100  0.432400  0.908800  1.0  -0.6197
  O  O101  1  0.440500  0.249100  0.890900  1.0  -0.6363
  O  O102  1  0.221770  0.765730  0.242130  1.0  -0.6194
  O  O103  1  0.107170  0.582430  0.224230  1.0  -0.6362
  O  O104  1  0.888430  0.099070  0.575470  1.0  -0.6197
  O  O105  1  0.773830  0.915770  0.557570  1.0  -0.6363
  O  O106  1  0.877300  0.444900  0.908800  1.0  -0.6197
  O  O107  1  0.808600  0.559500  0.890900  1.0  -0.6341
  O  O108  1  0.543970  0.778230  0.242130  1.0  -0.6197
  O  O109  1  0.475270  0.892830  0.224230  1.0  -0.634
  O  O110  1  0.210630  0.111570  0.575470  1.0  -0.6192
  O  O111  1  0.141930  0.226170  0.557570  1.0  -0.6341
  O  O112  1  0.567600  0.122700  0.908800  1.0  -0.6184
  O  O113  1  0.750900  0.191400  0.890900  1.0  -0.6368
  O  O114  1  0.234270  0.456030  0.242130  1.0  -0.6184
  O  O115  1  0.417570  0.524730  0.224230  1.0  -0.6366
  O  O116  1  0.900930  0.789370  0.575470  1.0  -0.6184
  O  O117  1  0.084230  0.858070  0.557570  1.0  -0.6368
  O  O118  1  0.421500  0.421500  0.000000  1.0  -0.1924
  O  O119  1  0.088170  0.754830  0.333333  1.0  -0.1794
  O  O120  1  0.754830  0.088170  0.666667  1.0  -0.1794
  O  O121  1  0.578500  0.000000  0.000000  1.0  -0.1853
  O  O122  1  0.245170  0.333333  0.333333  1.0  -0.1804
  O  O123  1  0.911830  0.666667  0.666667  1.0  -0.1867
  O  O124  1  0.000000  0.578500  0.000000  1.0  -0.183
  O  O125  1  0.666667  0.911830  0.333333  1.0  -0.1846
  O  O126  1  0.333333  0.245170  0.666667  1.0  -0.1789
  O  O127  1  0.333333  0.666667  0.166670  1.0  -1.0283
  O  O128  1  0.000000  0.000000  0.500000  1.0  -1.0289
  O  O129  1  0.666667  0.333333  0.833330  1.0  -1.0292
