# generated using pymatgen
data_In2H5C13O12
_symmetry_space_group_name_H-M   'P 1'
_cell_length_a   10.74350000
_cell_length_b   21.48190000
_cell_length_c   10.77210000
_cell_angle_alpha   90.00000000
_cell_angle_beta   105.11300000
_cell_angle_gamma   90.00000000
_symmetry_Int_Tables_number   1
_chemical_formula_structural   In2H5C13O12
_chemical_formula_sum   'In8 H20 C52 O48'
_cell_volume   2400.11594665
_cell_formula_units_Z   4
loop_
 _symmetry_equiv_pos_site_id
 _symmetry_equiv_pos_as_xyz
  1  'x, y, z'
loop_
 _atom_site_type_symbol
 _atom_site_label
 _atom_site_symmetry_multiplicity
 _atom_site_fract_x
 _atom_site_fract_y
 _atom_site_fract_z
 _atom_site_occupancy
 _atom_site_charge
  In  In1  1  0.321470  0.058070  0.186070  1.0  1.5573
  In  In2  1  0.678530  0.558070  0.813930  1.0  1.5557
  In  In3  1  0.678530  0.941930  0.813930  1.0  1.556
  In  In4  1  0.321470  0.441930  0.186070  1.0  1.5575
  In  In5  1  0.000000  0.000000  0.000000  1.0  1.6359
  In  In6  1  0.000000  0.500000  0.000000  1.0  1.6359
  In  In7  1  0.500000  0.000000  0.500000  1.0  1.6872
  In  In8  1  0.500000  0.500000  0.500000  1.0  1.6872
  H  H9  1  0.956300  0.093200  0.325200  1.0  0.1194
  H  H10  1  0.821500  0.106500  0.483500  1.0  0.1291
  H  H11  1  0.835400  0.191700  0.922200  1.0  0.117
  H  H12  1  0.714500  0.191700  0.609400  1.0  0.1227
  H  H13  1  0.829500  0.191200  0.074400  1.0  0.1147
  H  H14  1  0.043700  0.593200  0.674800  1.0  0.1179
  H  H15  1  0.178500  0.606500  0.516500  1.0  0.1281
  H  H16  1  0.164600  0.691700  0.077800  1.0  0.116
  H  H17  1  0.285500  0.691700  0.390600  1.0  0.1221
  H  H18  1  0.170500  0.691200  0.925600  1.0  0.1142
  H  H19  1  0.043700  0.906800  0.674800  1.0  0.118
  H  H20  1  0.178500  0.893500  0.516500  1.0  0.1283
  H  H21  1  0.164600  0.808300  0.077800  1.0  0.1154
  H  H22  1  0.285500  0.808300  0.390600  1.0  0.1213
  H  H23  1  0.170500  0.808800  0.925600  1.0  0.1147
  H  H24  1  0.956300  0.406800  0.325200  1.0  0.1191
  H  H25  1  0.821500  0.393500  0.483500  1.0  0.1286
  H  H26  1  0.835400  0.308300  0.922200  1.0  0.1173
  H  H27  1  0.714500  0.308300  0.609400  1.0  0.1218
  H  H28  1  0.829500  0.308800  0.074400  1.0  0.1144
  C  C29  1  0.217800  0.055500  0.441100  1.0  0.7158
  C  C30  1  0.101100  0.069700  0.481400  1.0  0.1049
  C  C31  1  0.983000  0.086900  0.413600  1.0  -0.1201
  C  C32  1  0.907000  0.093700  0.501500  1.0  -0.1408
  C  C33  1  0.983000  0.077900  0.615300  1.0  0.123
  C  C34  1  0.955500  0.070900  0.744400  1.0  0.6906
  C  C35  1  0.076800  0.137200  0.075600  1.0  0.6953
  C  C36  1  0.018100  0.199100  0.049700  1.0  0.0901
  C  C37  1  0.900800  0.217600  0.967900  1.0  -0.059
  C  C38  1  0.522100  0.137500  0.395200  1.0  0.7291
  C  C39  1  0.574500  0.199400  0.441100  1.0  0.0551
  C  C40  1  0.663000  0.217500  0.547500  1.0  -0.1322
  C  C41  1  0.895800  0.217300  0.066000  1.0  -0.0421
  C  C42  1  0.782200  0.555500  0.558900  1.0  0.7179
  C  C43  1  0.898900  0.569700  0.518600  1.0  0.1059
  C  C44  1  0.017000  0.586900  0.586400  1.0  -0.1193
  C  C45  1  0.093000  0.593700  0.498500  1.0  -0.1394
  C  C46  1  0.017000  0.577900  0.384700  1.0  0.1204
  C  C47  1  0.044500  0.570900  0.255600  1.0  0.6906
  C  C48  1  0.923200  0.637200  0.924400  1.0  0.6946
  C  C49  1  0.981900  0.699100  0.950300  1.0  0.0882
  C  C50  1  0.099200  0.717600  0.032100  1.0  -0.0681
  C  C51  1  0.477900  0.637500  0.604800  1.0  0.7285
  C  C52  1  0.425500  0.699400  0.558900  1.0  0.0555
  C  C53  1  0.337000  0.717500  0.452500  1.0  -0.1311
  C  C54  1  0.104200  0.717300  0.934000  1.0  -0.0404
  C  C55  1  0.782200  0.944500  0.558900  1.0  0.7182
  C  C56  1  0.898900  0.930300  0.518600  1.0  0.1047
  C  C57  1  0.017000  0.913100  0.586400  1.0  -0.1195
  C  C58  1  0.093000  0.906300  0.498500  1.0  -0.1399
  C  C59  1  0.017000  0.922100  0.384700  1.0  0.1205
  C  C60  1  0.044500  0.929100  0.255600  1.0  0.6882
  C  C61  1  0.923200  0.862800  0.924400  1.0  0.6947
  C  C62  1  0.981900  0.800900  0.950300  1.0  0.0893
  C  C63  1  0.099200  0.782400  0.032100  1.0  -0.0711
  C  C64  1  0.477900  0.862500  0.604800  1.0  0.7284
  C  C65  1  0.425500  0.800600  0.558900  1.0  0.0557
  C  C66  1  0.337000  0.782500  0.452500  1.0  -0.1304
  C  C67  1  0.104200  0.782700  0.934000  1.0  -0.0423
  C  C68  1  0.217800  0.444500  0.441100  1.0  0.7166
  C  C69  1  0.101100  0.430300  0.481400  1.0  0.1051
  C  C70  1  0.983000  0.413100  0.413600  1.0  -0.1209
  C  C71  1  0.907000  0.406300  0.501500  1.0  -0.1403
  C  C72  1  0.983000  0.422100  0.615300  1.0  0.1228
  C  C73  1  0.955500  0.429100  0.744400  1.0  0.6886
  C  C74  1  0.076800  0.362800  0.075600  1.0  0.6952
  C  C75  1  0.018100  0.300900  0.049700  1.0  0.0894
  C  C76  1  0.900800  0.282400  0.967900  1.0  -0.0601
  C  C77  1  0.522100  0.362500  0.395200  1.0  0.7286
  C  C78  1  0.574500  0.300600  0.441100  1.0  0.056
  C  C79  1  0.663000  0.282500  0.547500  1.0  -0.1309
  C  C80  1  0.895800  0.282700  0.066000  1.0  -0.0431
  O  O81  1  0.439100  0.990060  0.301300  1.0  -0.6644
  O  O82  1  0.200600  0.989900  0.076400  1.0  -0.6749
  O  O83  1  0.209000  0.065160  0.324300  1.0  -0.6289
  O  O84  1  0.316900  0.035030  0.522000  1.0  -0.6097
  O  O85  1  0.038000  0.039020  0.827300  1.0  -0.5582
  O  O86  1  0.855200  0.094240  0.757900  1.0  -0.4869
  O  O87  1  0.997400  0.093920  0.072800  1.0  -0.6277
  O  O88  1  0.196600  0.133210  0.096000  1.0  -0.6174
  O  O89  1  0.442600  0.133270  0.286900  1.0  -0.6285
  O  O90  1  0.563200  0.093530  0.472600  1.0  -0.6598
  O  O91  1  0.103800  0.063020  0.608200  1.0  -0.139
  O  O92  1  0.560900  0.490060  0.698700  1.0  -0.668
  O  O93  1  0.799400  0.489900  0.923600  1.0  -0.6736
  O  O94  1  0.791000  0.565160  0.675700  1.0  -0.6313
  O  O95  1  0.683100  0.535030  0.478000  1.0  -0.609
  O  O96  1  0.962000  0.539020  0.172700  1.0  -0.557
  O  O97  1  0.144800  0.594240  0.242100  1.0  -0.4856
  O  O98  1  0.002600  0.593920  0.927200  1.0  -0.6289
  O  O99  1  0.803400  0.633210  0.904000  1.0  -0.6184
  O  O100  1  0.557400  0.633270  0.713100  1.0  -0.6303
  O  O101  1  0.436800  0.593530  0.527400  1.0  -0.6591
  O  O102  1  0.896200  0.563020  0.391800  1.0  -0.1373
  O  O103  1  0.560900  0.009940  0.698700  1.0  -0.6678
  O  O104  1  0.799400  0.010100  0.923600  1.0  -0.6719
  O  O105  1  0.791000  0.934840  0.675700  1.0  -0.6311
  O  O106  1  0.683100  0.964970  0.478000  1.0  -0.6097
  O  O107  1  0.962000  0.960980  0.172700  1.0  -0.556
  O  O108  1  0.144800  0.905760  0.242100  1.0  -0.4862
  O  O109  1  0.002600  0.906080  0.927200  1.0  -0.6281
  O  O110  1  0.803400  0.866790  0.904000  1.0  -0.6179
  O  O111  1  0.557400  0.866730  0.713100  1.0  -0.6301
  O  O112  1  0.436800  0.906470  0.527400  1.0  -0.6585
  O  O113  1  0.896200  0.936980  0.391800  1.0  -0.1365
  O  O114  1  0.439100  0.509940  0.301300  1.0  -0.6648
  O  O115  1  0.200600  0.510100  0.076400  1.0  -0.6745
  O  O116  1  0.209000  0.434840  0.324300  1.0  -0.6292
  O  O117  1  0.316900  0.464970  0.522000  1.0  -0.6101
  O  O118  1  0.038000  0.460980  0.827300  1.0  -0.5586
  O  O119  1  0.855200  0.405760  0.757900  1.0  -0.4865
  O  O120  1  0.997400  0.406080  0.072800  1.0  -0.6268
  O  O121  1  0.196600  0.366790  0.096000  1.0  -0.6174
  O  O122  1  0.442600  0.366730  0.286900  1.0  -0.628
  O  O123  1  0.563200  0.406470  0.472600  1.0  -0.6598
  O  O124  1  0.103800  0.436980  0.608200  1.0  -0.1392
  O  O125  1  0.095400  0.250000  0.080100  1.0  -0.3141
  O  O126  1  0.517500  0.250000  0.371300  1.0  -0.1352
  O  O127  1  0.904600  0.750000  0.919900  1.0  -0.3198
  O  O128  1  0.482500  0.750000  0.628700  1.0  -0.1379
