# generated using pymatgen
data_CoH12C17N3O4
_symmetry_space_group_name_H-M   'P 1'
_cell_length_a   26.32300000
_cell_length_b   14.69600000
_cell_length_c   26.63000000
_cell_angle_alpha   90.00000000
_cell_angle_beta   157.74700000
_cell_angle_gamma   90.00000000
_symmetry_Int_Tables_number   1
_chemical_formula_structural   CoH12C17N3O4
_chemical_formula_sum   'Co8 H96 C136 N24 O32'
_cell_volume   3901.19489897
_cell_formula_units_Z   8
loop_
 _symmetry_equiv_pos_site_id
 _symmetry_equiv_pos_as_xyz
  1  'x, y, z'
loop_
 _atom_site_type_symbol
 _atom_site_label
 _atom_site_symmetry_multiplicity
 _atom_site_fract_x
 _atom_site_fract_y
 _atom_site_fract_z
 _atom_site_occupancy
 _atom_site_charge
  Co  Co1  1  0.405530  0.453110  0.476650  1.0  0.9623
  Co  Co2  1  0.094470  0.953110  0.023350  1.0  0.9616
  Co  Co3  1  0.094470  0.046890  0.523350  1.0  0.9607
  Co  Co4  1  0.405530  0.546890  0.976650  1.0  0.9617
  Co  Co5  1  0.905530  0.953110  0.476650  1.0  0.9623
  Co  Co6  1  0.594470  0.453110  0.023350  1.0  0.9616
  Co  Co7  1  0.594470  0.546890  0.523350  1.0  0.9607
  Co  Co8  1  0.905530  0.046890  0.976650  1.0  0.9617
  H  H9  1  0.900400  0.441300  0.988300  1.0  0.1032
  H  H10  1  0.773200  0.356500  0.737800  1.0  0.0994
  H  H11  1  0.163400  0.347900  0.128500  1.0  0.0996
  H  H12  1  0.921500  0.313200  0.809600  1.0  0.1025
  H  H13  1  0.062200  0.360400  0.941900  1.0  0.1199
  H  H14  1  0.222100  0.241700  0.049900  1.0  0.1241
  H  H15  1  0.267600  0.081200  0.106700  1.0  0.1049
  H  H16  1  0.961900  0.149400  0.910800  1.0  0.0909
  H  H17  1  0.308900  0.264900  0.411900  1.0  0.0763
  H  H18  1  0.227300  0.184700  0.404000  1.0  0.1212
  H  H19  1  0.351100  0.382500  0.607200  1.0  0.1178
  H  H20  1  0.428500  0.458400  0.609500  1.0  0.0786
  H  H21  1  0.599600  0.941300  0.511700  1.0  0.1047
  H  H22  1  0.726800  0.856500  0.762200  1.0  0.0996
  H  H23  1  0.336600  0.847900  0.371500  1.0  0.0997
  H  H24  1  0.578500  0.813200  0.690400  1.0  0.1029
  H  H25  1  0.437800  0.860400  0.558100  1.0  0.1205
  H  H26  1  0.277900  0.741700  0.450100  1.0  0.1244
  H  H27  1  0.232400  0.581200  0.393300  1.0  0.1037
  H  H28  1  0.538100  0.649400  0.589200  1.0  0.0903
  H  H29  1  0.191100  0.764900  0.088100  1.0  0.0765
  H  H30  1  0.272700  0.684700  0.096000  1.0  0.1209
  H  H31  1  0.148900  0.882500  0.892800  1.0  0.1184
  H  H32  1  0.071500  0.958400  0.890500  1.0  0.0787
  H  H33  1  0.599600  0.058700  0.011700  1.0  0.1043
  H  H34  1  0.726800  0.143500  0.262200  1.0  0.0997
  H  H35  1  0.336600  0.152100  0.871500  1.0  0.0998
  H  H36  1  0.578500  0.186800  0.190400  1.0  0.1028
  H  H37  1  0.437800  0.139600  0.058100  1.0  0.1213
  H  H38  1  0.277900  0.258300  0.950100  1.0  0.1247
  H  H39  1  0.232400  0.418800  0.893300  1.0  0.1034
  H  H40  1  0.538100  0.350600  0.089200  1.0  0.0905
  H  H41  1  0.191100  0.235100  0.588100  1.0  0.0761
  H  H42  1  0.272700  0.315300  0.596000  1.0  0.1208
  H  H43  1  0.148900  0.117500  0.392800  1.0  0.1188
  H  H44  1  0.071500  0.041600  0.390500  1.0  0.078
  H  H45  1  0.900400  0.558700  0.488300  1.0  0.1031
  H  H46  1  0.773200  0.643500  0.237800  1.0  0.0996
  H  H47  1  0.163400  0.652100  0.628500  1.0  0.0997
  H  H48  1  0.921500  0.686800  0.309600  1.0  0.1028
  H  H49  1  0.062200  0.639600  0.441900  1.0  0.1199
  H  H50  1  0.222100  0.758300  0.549900  1.0  0.1233
  H  H51  1  0.267600  0.918800  0.606700  1.0  0.1048
  H  H52  1  0.961900  0.850600  0.410800  1.0  0.0911
  H  H53  1  0.308900  0.735100  0.911900  1.0  0.076
  H  H54  1  0.227300  0.815300  0.904000  1.0  0.1217
  H  H55  1  0.351100  0.617500  0.107200  1.0  0.1179
  H  H56  1  0.428500  0.541600  0.109500  1.0  0.0784
  H  H57  1  0.400400  0.941300  0.988300  1.0  0.1032
  H  H58  1  0.273200  0.856500  0.737800  1.0  0.0994
  H  H59  1  0.663400  0.847900  0.128500  1.0  0.0996
  H  H60  1  0.421500  0.813200  0.809600  1.0  0.1013
  H  H61  1  0.562200  0.860400  0.941900  1.0  0.1199
  H  H62  1  0.722100  0.741700  0.049900  1.0  0.1247
  H  H63  1  0.767600  0.581200  0.106700  1.0  0.1049
  H  H64  1  0.461900  0.649400  0.910800  1.0  0.0909
  H  H65  1  0.808900  0.764900  0.411900  1.0  0.0763
  H  H66  1  0.727300  0.684700  0.404000  1.0  0.1212
  H  H67  1  0.851100  0.882500  0.607200  1.0  0.1169
  H  H68  1  0.928500  0.958400  0.609500  1.0  0.0786
  H  H69  1  0.099600  0.441300  0.511700  1.0  0.1047
  H  H70  1  0.226800  0.356500  0.762200  1.0  0.0996
  H  H71  1  0.836600  0.347900  0.371500  1.0  0.0997
  H  H72  1  0.078500  0.313200  0.690400  1.0  0.1019
  H  H73  1  0.937800  0.360400  0.558100  1.0  0.1205
  H  H74  1  0.777900  0.241700  0.450100  1.0  0.1248
  H  H75  1  0.732400  0.081200  0.393300  1.0  0.1037
  H  H76  1  0.038100  0.149400  0.589200  1.0  0.0903
  H  H77  1  0.691100  0.264900  0.088100  1.0  0.0765
  H  H78  1  0.772700  0.184700  0.096000  1.0  0.1209
  H  H79  1  0.648900  0.382500  0.892800  1.0  0.1176
  H  H80  1  0.571500  0.458400  0.890500  1.0  0.0787
  H  H81  1  0.099600  0.558700  0.011700  1.0  0.1043
  H  H82  1  0.226800  0.643500  0.262200  1.0  0.0997
  H  H83  1  0.836600  0.652100  0.871500  1.0  0.0998
  H  H84  1  0.078500  0.686800  0.190400  1.0  0.1018
  H  H85  1  0.937800  0.639600  0.058100  1.0  0.1213
  H  H86  1  0.777900  0.758300  0.950100  1.0  0.1251
  H  H87  1  0.732400  0.918800  0.893300  1.0  0.1034
  H  H88  1  0.038100  0.850600  0.089200  1.0  0.0905
  H  H89  1  0.691100  0.735100  0.588100  1.0  0.0761
  H  H90  1  0.772700  0.815300  0.596000  1.0  0.1208
  H  H91  1  0.648900  0.617500  0.392800  1.0  0.1178
  H  H92  1  0.571500  0.541600  0.390500  1.0  0.078
  H  H93  1  0.400400  0.058700  0.488300  1.0  0.1031
  H  H94  1  0.273200  0.143500  0.237800  1.0  0.0996
  H  H95  1  0.663400  0.152100  0.628500  1.0  0.0997
  H  H96  1  0.421500  0.186800  0.309600  1.0  0.1016
  H  H97  1  0.562200  0.139600  0.441900  1.0  0.1199
  H  H98  1  0.722100  0.258300  0.549900  1.0  0.1238
  H  H99  1  0.767600  0.418800  0.606700  1.0  0.1048
  H  H100  1  0.461900  0.350600  0.410800  1.0  0.0911
  H  H101  1  0.808900  0.235100  0.911900  1.0  0.076
  H  H102  1  0.727300  0.315300  0.904000  1.0  0.1217
  H  H103  1  0.851100  0.117500  0.107200  1.0  0.117
  H  H104  1  0.928500  0.041600  0.109500  1.0  0.0784
  C  C105  1  0.162200  0.418200  0.219000  1.0  0.6322
  C  C106  1  0.049900  0.395600  0.080400  1.0  -0.1549
  C  C107  1  0.918500  0.417000  0.973300  1.0  -0.0182
  C  C108  1  0.814400  0.402300  0.844500  1.0  -0.1979
  C  C109  1  0.673300  0.431800  0.728300  1.0  0.6697
  C  C110  1  0.843100  0.366600  0.824200  1.0  -0.0814
  C  C111  1  0.972900  0.345200  0.928300  1.0  0.1219
  C  C112  1  0.075300  0.361200  0.056900  1.0  -0.0815
  C  C113  1  0.004100  0.315600  0.904400  1.0  -0.0461
  C  C114  1  0.175800  0.203600  0.029300  1.0  -0.1679
  C  C115  1  0.199500  0.114800  0.059600  1.0  -0.008
  C  C116  1  0.032800  0.151800  0.952900  1.0  0.1489
  C  C117  1  0.316000  0.290000  0.450400  1.0  0.1742
  C  C118  1  0.267000  0.241100  0.445800  1.0  -0.1891
  C  C119  1  0.276600  0.275200  0.502600  1.0  0.0689
  C  C120  1  0.339500  0.357200  0.564900  1.0  -0.1921
  C  C121  1  0.385800  0.402700  0.565800  1.0  0.1607
  C  C122  1  0.337800  0.918200  0.281000  1.0  0.6321
  C  C123  1  0.450100  0.895600  0.419600  1.0  -0.1551
  C  C124  1  0.581500  0.917000  0.526700  1.0  -0.0185
  C  C125  1  0.685600  0.902300  0.655500  1.0  -0.1987
  C  C126  1  0.826700  0.931800  0.771700  1.0  0.672
  C  C127  1  0.656900  0.866600  0.675800  1.0  -0.0812
  C  C128  1  0.527100  0.845200  0.571700  1.0  0.1228
  C  C129  1  0.424700  0.861200  0.443100  1.0  -0.081
  C  C130  1  0.495900  0.815600  0.595600  1.0  -0.0461
  C  C131  1  0.324200  0.703600  0.470700  1.0  -0.1645
  C  C132  1  0.300500  0.614800  0.440400  1.0  -0.0076
  C  C133  1  0.467200  0.651800  0.547100  1.0  0.1504
  C  C134  1  0.184000  0.790000  0.049600  1.0  0.1747
  C  C135  1  0.233000  0.741100  0.054200  1.0  -0.1901
  C  C136  1  0.223400  0.775200  0.997400  1.0  0.0679
  C  C137  1  0.160500  0.857200  0.935100  1.0  -0.1923
  C  C138  1  0.114200  0.902700  0.934200  1.0  0.1614
  C  C139  1  0.337800  0.081800  0.781000  1.0  0.6323
  C  C140  1  0.450100  0.104400  0.919600  1.0  -0.1552
  C  C141  1  0.581500  0.083000  0.026700  1.0  -0.0187
  C  C142  1  0.685600  0.097700  0.155500  1.0  -0.1983
  C  C143  1  0.826700  0.068200  0.271700  1.0  0.6719
  C  C144  1  0.656900  0.133400  0.175800  1.0  -0.0814
  C  C145  1  0.527100  0.154800  0.071700  1.0  0.1229
  C  C146  1  0.424700  0.138800  0.943100  1.0  -0.0812
  C  C147  1  0.495900  0.184400  0.095600  1.0  -0.0471
  C  C148  1  0.324200  0.296400  0.970700  1.0  -0.1637
  C  C149  1  0.300500  0.385200  0.940400  1.0  -0.0093
  C  C150  1  0.467200  0.348200  0.047100  1.0  0.1507
  C  C151  1  0.184000  0.210000  0.549600  1.0  0.1745
  C  C152  1  0.233000  0.258900  0.554200  1.0  -0.1922
  C  C153  1  0.223400  0.224800  0.497400  1.0  0.0678
  C  C154  1  0.160500  0.142800  0.435100  1.0  -0.1874
  C  C155  1  0.114200  0.097300  0.434200  1.0  0.1608
  C  C156  1  0.162200  0.581800  0.719000  1.0  0.6318
  C  C157  1  0.049900  0.604400  0.580400  1.0  -0.1553
  C  C158  1  0.918500  0.583000  0.473300  1.0  -0.0183
  C  C159  1  0.814400  0.597700  0.344500  1.0  -0.1974
  C  C160  1  0.673300  0.568200  0.228300  1.0  0.6696
  C  C161  1  0.843100  0.633400  0.324200  1.0  -0.0816
  C  C162  1  0.972900  0.654800  0.428300  1.0  0.1219
  C  C163  1  0.075300  0.638800  0.556900  1.0  -0.0816
  C  C164  1  0.004100  0.684400  0.404400  1.0  -0.0445
  C  C165  1  0.175800  0.796400  0.529300  1.0  -0.1682
  C  C166  1  0.199500  0.885200  0.559600  1.0  -0.0066
  C  C167  1  0.032800  0.848200  0.452900  1.0  0.1487
  C  C168  1  0.316000  0.710000  0.950400  1.0  0.1744
  C  C169  1  0.267000  0.758900  0.945800  1.0  -0.1906
  C  C170  1  0.276600  0.724800  0.002600  1.0  0.0688
  C  C171  1  0.339500  0.642800  0.064900  1.0  -0.186
  C  C172  1  0.385800  0.597300  0.065800  1.0  0.1614
  C  C173  1  0.662200  0.918200  0.219000  1.0  0.6322
  C  C174  1  0.549900  0.895600  0.080400  1.0  -0.1549
  C  C175  1  0.418500  0.917000  0.973300  1.0  -0.0182
  C  C176  1  0.314400  0.902300  0.844500  1.0  -0.1979
  C  C177  1  0.173300  0.931800  0.728300  1.0  0.6697
  C  C178  1  0.343100  0.866600  0.824200  1.0  -0.0814
  C  C179  1  0.472900  0.845200  0.928300  1.0  0.1219
  C  C180  1  0.575300  0.861200  0.056900  1.0  -0.0815
  C  C181  1  0.504100  0.815600  0.904400  1.0  -0.0461
  C  C182  1  0.675800  0.703600  0.029300  1.0  -0.1679
  C  C183  1  0.699500  0.614800  0.059600  1.0  -0.008
  C  C184  1  0.532800  0.651800  0.952900  1.0  0.1489
  C  C185  1  0.816000  0.790000  0.450400  1.0  0.1742
  C  C186  1  0.767000  0.741100  0.445800  1.0  -0.1891
  C  C187  1  0.776600  0.775200  0.502600  1.0  0.0689
  C  C188  1  0.839500  0.857200  0.564900  1.0  -0.1921
  C  C189  1  0.885800  0.902700  0.565800  1.0  0.1607
  C  C190  1  0.837800  0.418200  0.281000  1.0  0.6321
  C  C191  1  0.950100  0.395600  0.419600  1.0  -0.1551
  C  C192  1  0.081500  0.417000  0.526700  1.0  -0.0185
  C  C193  1  0.185600  0.402300  0.655500  1.0  -0.1987
  C  C194  1  0.326700  0.431800  0.771700  1.0  0.672
  C  C195  1  0.156900  0.366600  0.675800  1.0  -0.0812
  C  C196  1  0.027100  0.345200  0.571700  1.0  0.1228
  C  C197  1  0.924700  0.361200  0.443100  1.0  -0.081
  C  C198  1  0.995900  0.315600  0.595600  1.0  -0.0461
  C  C199  1  0.824200  0.203600  0.470700  1.0  -0.1645
  C  C200  1  0.800500  0.114800  0.440400  1.0  -0.0073
  C  C201  1  0.967200  0.151800  0.547100  1.0  0.1504
  C  C202  1  0.684000  0.290000  0.049600  1.0  0.1747
  C  C203  1  0.733000  0.241100  0.054200  1.0  -0.1901
  C  C204  1  0.723400  0.275200  0.997400  1.0  0.0679
  C  C205  1  0.660500  0.357200  0.935100  1.0  -0.1923
  C  C206  1  0.614200  0.402700  0.934200  1.0  0.1614
  C  C207  1  0.837800  0.581800  0.781000  1.0  0.6323
  C  C208  1  0.950100  0.604400  0.919600  1.0  -0.1552
  C  C209  1  0.081500  0.583000  0.026700  1.0  -0.0187
  C  C210  1  0.185600  0.597700  0.155500  1.0  -0.1983
  C  C211  1  0.326700  0.568200  0.271700  1.0  0.6719
  C  C212  1  0.156900  0.633400  0.175800  1.0  -0.0814
  C  C213  1  0.027100  0.654800  0.071700  1.0  0.1229
  C  C214  1  0.924700  0.638800  0.943100  1.0  -0.0812
  C  C215  1  0.995900  0.684400  0.095600  1.0  -0.0471
  C  C216  1  0.824200  0.796400  0.970700  1.0  -0.1637
  C  C217  1  0.800500  0.885200  0.940400  1.0  -0.0093
  C  C218  1  0.967200  0.848200  0.047100  1.0  0.1507
  C  C219  1  0.684000  0.710000  0.549600  1.0  0.1745
  C  C220  1  0.733000  0.758900  0.554200  1.0  -0.1922
  C  C221  1  0.723400  0.724800  0.497400  1.0  0.0678
  C  C222  1  0.660500  0.642800  0.435100  1.0  -0.1874
  C  C223  1  0.614200  0.597300  0.434200  1.0  0.1608
  C  C224  1  0.662200  0.081800  0.719000  1.0  0.6318
  C  C225  1  0.549900  0.104400  0.580400  1.0  -0.1553
  C  C226  1  0.418500  0.083000  0.473300  1.0  -0.0183
  C  C227  1  0.314400  0.097700  0.344500  1.0  -0.1974
  C  C228  1  0.173300  0.068200  0.228300  1.0  0.6696
  C  C229  1  0.343100  0.133400  0.324200  1.0  -0.0816
  C  C230  1  0.472900  0.154800  0.428300  1.0  0.1219
  C  C231  1  0.575300  0.138800  0.556900  1.0  -0.0816
  C  C232  1  0.504100  0.184400  0.404400  1.0  -0.0445
  C  C233  1  0.675800  0.296400  0.529300  1.0  -0.1682
  C  C234  1  0.699500  0.385200  0.559600  1.0  -0.0062
  C  C235  1  0.532800  0.348200  0.452900  1.0  0.1487
  C  C236  1  0.816000  0.210000  0.950400  1.0  0.1744
  C  C237  1  0.767000  0.258900  0.945800  1.0  -0.1906
  C  C238  1  0.776600  0.224800  0.002600  1.0  0.0688
  C  C239  1  0.839500  0.142800  0.064900  1.0  -0.186
  C  C240  1  0.885800  0.097300  0.065800  1.0  0.1614
  N  N241  1  0.372900  0.371400  0.507200  1.0  -0.3202
  N  N242  1  0.069500  0.226500  0.962100  1.0  0.0503
  N  N243  1  0.109600  0.080500  0.011500  1.0  -0.404
  N  N244  1  0.127100  0.871400  0.992800  1.0  -0.3191
  N  N245  1  0.430500  0.726500  0.537900  1.0  0.0487
  N  N246  1  0.390400  0.580500  0.488500  1.0  -0.4032
  N  N247  1  0.127100  0.128600  0.492800  1.0  -0.3191
  N  N248  1  0.430500  0.273500  0.037900  1.0  0.0489
  N  N249  1  0.390400  0.419500  0.988500  1.0  -0.4046
  N  N250  1  0.372900  0.628600  0.007200  1.0  -0.3211
  N  N251  1  0.069500  0.773500  0.462100  1.0  0.0494
  N  N252  1  0.109600  0.919500  0.511500  1.0  -0.4051
  N  N253  1  0.872900  0.871400  0.507200  1.0  -0.3202
  N  N254  1  0.569500  0.726500  0.962100  1.0  0.0503
  N  N255  1  0.609600  0.580500  0.011500  1.0  -0.404
  N  N256  1  0.627100  0.371400  0.992800  1.0  -0.3191
  N  N257  1  0.930500  0.226500  0.537900  1.0  0.0487
  N  N258  1  0.890400  0.080500  0.488500  1.0  -0.4032
  N  N259  1  0.627100  0.628600  0.492800  1.0  -0.3191
  N  N260  1  0.930500  0.773500  0.037900  1.0  0.0489
  N  N261  1  0.890400  0.919500  0.988500  1.0  -0.4046
  N  N262  1  0.872900  0.128600  0.007200  1.0  -0.3211
  N  N263  1  0.569500  0.273500  0.462100  1.0  0.0494
  N  N264  1  0.609600  0.419500  0.511500  1.0  -0.4051
  O  O265  1  0.281300  0.403100  0.311800  1.0  -0.6076
  O  O266  1  0.137300  0.451700  0.237800  1.0  -0.5791
  O  O267  1  0.583800  0.421900  0.612200  1.0  -0.6058
  O  O268  1  0.649100  0.461800  0.748400  1.0  -0.5792
  O  O269  1  0.218700  0.903100  0.188200  1.0  -0.6091
  O  O270  1  0.362700  0.951700  0.262200  1.0  -0.5769
  O  O271  1  0.916200  0.921900  0.887800  1.0  -0.6057
  O  O272  1  0.850900  0.961800  0.751600  1.0  -0.5782
  O  O273  1  0.218700  0.096900  0.688200  1.0  -0.609
  O  O274  1  0.362700  0.048300  0.762200  1.0  -0.5774
  O  O275  1  0.916200  0.078100  0.387800  1.0  -0.6054
  O  O276  1  0.850900  0.038200  0.251600  1.0  -0.5786
  O  O277  1  0.281300  0.596900  0.811800  1.0  -0.6075
  O  O278  1  0.137300  0.548300  0.737800  1.0  -0.5789
  O  O279  1  0.583800  0.578100  0.112200  1.0  -0.6054
  O  O280  1  0.649100  0.538200  0.248400  1.0  -0.5788
  O  O281  1  0.781300  0.903100  0.311800  1.0  -0.6062
  O  O282  1  0.637300  0.951700  0.237800  1.0  -0.5791
  O  O283  1  0.083800  0.921900  0.612200  1.0  -0.6058
  O  O284  1  0.149100  0.961800  0.748400  1.0  -0.5792
  O  O285  1  0.718700  0.403100  0.188200  1.0  -0.6077
  O  O286  1  0.862700  0.451700  0.262200  1.0  -0.5769
  O  O287  1  0.416200  0.421900  0.887800  1.0  -0.6057
  O  O288  1  0.350900  0.461800  0.751600  1.0  -0.5782
  O  O289  1  0.718700  0.596900  0.688200  1.0  -0.6075
  O  O290  1  0.862700  0.548300  0.762200  1.0  -0.5774
  O  O291  1  0.416200  0.578100  0.387800  1.0  -0.6054
  O  O292  1  0.350900  0.538200  0.251600  1.0  -0.5786
  O  O293  1  0.781300  0.096900  0.811800  1.0  -0.6062
  O  O294  1  0.637300  0.048300  0.737800  1.0  -0.5789
  O  O295  1  0.083800  0.078100  0.112200  1.0  -0.6054
  O  O296  1  0.149100  0.038200  0.248400  1.0  -0.5788
