# generated using pymatgen
data_AlPO4
_symmetry_space_group_name_H-M   'P 1'
_cell_length_a   14.79530000
_cell_length_b   27.36340000
_cell_length_c   8.34460000
_cell_angle_alpha   90.00000000
_cell_angle_beta   90.00000000
_cell_angle_gamma   90.00000000
_symmetry_Int_Tables_number   1
_chemical_formula_structural   AlPO4
_chemical_formula_sum   'Al32 P32 O128'
_cell_volume   3378.30890692
_cell_formula_units_Z   32
loop_
 _symmetry_equiv_pos_site_id
 _symmetry_equiv_pos_as_xyz
  1  'x, y, z'
loop_
 _atom_site_type_symbol
 _atom_site_label
 _atom_site_symmetry_multiplicity
 _atom_site_fract_x
 _atom_site_fract_y
 _atom_site_fract_z
 _atom_site_occupancy
 _atom_site_charge
  Al  Al1  1  0.906700  0.779680  0.787800  1.0  1.9819
  Al  Al2  1  0.100100  0.673760  0.783800  1.0  1.9751
  Al  Al3  1  0.906900  0.945220  0.777700  1.0  1.9701
  Al  Al4  1  0.229200  0.866390  0.783800  1.0  1.9698
  Al  Al5  1  0.406700  0.279680  0.287800  1.0  1.9819
  Al  Al6  1  0.600100  0.173760  0.283800  1.0  1.9751
  Al  Al7  1  0.406900  0.445220  0.277700  1.0  1.9701
  Al  Al8  1  0.729200  0.366390  0.283800  1.0  1.9698
  Al  Al9  1  0.093300  0.220320  0.787800  1.0  1.9828
  Al  Al10  1  0.899900  0.326240  0.783800  1.0  1.9746
  Al  Al11  1  0.093100  0.054780  0.777700  1.0  1.9721
  Al  Al12  1  0.770800  0.133610  0.783800  1.0  1.9696
  Al  Al13  1  0.593300  0.720320  0.287800  1.0  1.9828
  Al  Al14  1  0.399900  0.826240  0.283800  1.0  1.9746
  Al  Al15  1  0.593100  0.554780  0.277700  1.0  1.9721
  Al  Al16  1  0.270800  0.633610  0.283800  1.0  1.9696
  Al  Al17  1  0.406700  0.720320  0.787800  1.0  1.982
  Al  Al18  1  0.600100  0.826240  0.783800  1.0  1.9749
  Al  Al19  1  0.406900  0.554780  0.777700  1.0  1.9715
  Al  Al20  1  0.729200  0.633610  0.783800  1.0  1.9698
  Al  Al21  1  0.906700  0.220320  0.287800  1.0  1.982
  Al  Al22  1  0.100100  0.326240  0.283800  1.0  1.9749
  Al  Al23  1  0.906900  0.054780  0.277700  1.0  1.9715
  Al  Al24  1  0.229200  0.133610  0.283800  1.0  1.9698
  Al  Al25  1  0.593300  0.279680  0.787800  1.0  1.9826
  Al  Al26  1  0.399900  0.173760  0.783800  1.0  1.9752
  Al  Al27  1  0.593100  0.445220  0.777700  1.0  1.9706
  Al  Al28  1  0.270800  0.366390  0.783800  1.0  1.9696
  Al  Al29  1  0.093300  0.779680  0.287800  1.0  1.9826
  Al  Al30  1  0.899900  0.673760  0.283800  1.0  1.9752
  Al  Al31  1  0.093100  0.945220  0.277700  1.0  1.9706
  Al  Al32  1  0.770800  0.866390  0.283800  1.0  1.9696
  P  P33  1  0.097700  0.783240  0.667000  1.0  2.0549
  P  P34  1  0.905900  0.669980  0.663100  1.0  2.0355
  P  P35  1  0.779900  0.861110  0.656300  1.0  2.0691
  P  P36  1  0.102200  0.947710  0.656300  1.0  2.0662
  P  P37  1  0.597700  0.283240  0.167000  1.0  2.0549
  P  P38  1  0.405900  0.169980  0.163100  1.0  2.0355
  P  P39  1  0.279900  0.361110  0.156300  1.0  2.0691
  P  P40  1  0.602200  0.447710  0.156300  1.0  2.0662
  P  P41  1  0.902300  0.216760  0.667000  1.0  2.054
  P  P42  1  0.094100  0.330020  0.663100  1.0  2.036
  P  P43  1  0.220100  0.138890  0.656300  1.0  2.0703
  P  P44  1  0.897800  0.052290  0.656300  1.0  2.0623
  P  P45  1  0.402300  0.716760  0.167000  1.0  2.054
  P  P46  1  0.594100  0.830020  0.163100  1.0  2.036
  P  P47  1  0.720100  0.638890  0.156300  1.0  2.0703
  P  P48  1  0.397800  0.552290  0.156300  1.0  2.0623
  P  P49  1  0.597700  0.716760  0.667000  1.0  2.055
  P  P50  1  0.405900  0.830020  0.663100  1.0  2.0378
  P  P51  1  0.279900  0.638890  0.656300  1.0  2.0683
  P  P52  1  0.602200  0.552290  0.656300  1.0  2.0737
  P  P53  1  0.097700  0.216760  0.167000  1.0  2.055
  P  P54  1  0.905900  0.330020  0.163100  1.0  2.0378
  P  P55  1  0.779900  0.138890  0.156300  1.0  2.0683
  P  P56  1  0.102200  0.052290  0.156300  1.0  2.0737
  P  P57  1  0.402300  0.283240  0.667000  1.0  2.054
  P  P58  1  0.594100  0.169980  0.663100  1.0  2.0357
  P  P59  1  0.720100  0.361110  0.656300  1.0  2.0709
  P  P60  1  0.397800  0.447710  0.656300  1.0  2.0622
  P  P61  1  0.902300  0.783240  0.167000  1.0  2.054
  P  P62  1  0.094100  0.669980  0.163100  1.0  2.0357
  P  P63  1  0.220100  0.861110  0.156300  1.0  2.0709
  P  P64  1  0.897800  0.947710  0.156300  1.0  2.0622
  O  O65  1  0.114700  0.733620  0.740000  1.0  -1.0175
  O  O66  1  0.008800  0.803030  0.729300  1.0  -0.9436
  O  O67  1  0.175700  0.815360  0.718400  1.0  -1.0752
  O  O68  1  0.100200  0.780700  0.489100  1.0  -1.0164
  O  O69  1  0.893100  0.721350  0.721800  1.0  -1.0478
  O  O70  1  0.840100  0.634900  0.743200  1.0  -0.9542
  O  O71  1  0.897300  0.667010  0.485400  1.0  -1.0485
  O  O72  1  0.000400  0.652300  0.707800  1.0  -0.9675
  O  O73  1  0.681500  0.862650  0.702400  1.0  -0.9646
  O  O74  1  0.822500  0.812910  0.700100  1.0  -1.0304
  O  O75  1  0.787700  0.871800  0.482400  1.0  -1.0376
  O  O76  1  0.826700  0.902800  0.739800  1.0  -1.0097
  O  O77  1  0.014100  0.928350  0.722600  1.0  -1.0061
  O  O78  1  0.121900  0.999090  0.707700  1.0  -0.9725
  O  O79  1  0.183000  0.916170  0.692900  1.0  -1.0137
  O  O80  1  0.090900  0.951250  0.479900  1.0  -1.0216
  O  O81  1  0.614700  0.233620  0.240000  1.0  -1.0175
  O  O82  1  0.508800  0.303030  0.229300  1.0  -0.9436
  O  O83  1  0.675700  0.315360  0.218400  1.0  -1.0752
  O  O84  1  0.600200  0.280700  0.989100  1.0  -1.0164
  O  O85  1  0.393100  0.221350  0.221800  1.0  -1.0478
  O  O86  1  0.340100  0.134900  0.243200  1.0  -0.9542
  O  O87  1  0.397300  0.167010  0.985400  1.0  -1.0485
  O  O88  1  0.500400  0.152300  0.207800  1.0  -0.9675
  O  O89  1  0.181500  0.362650  0.202400  1.0  -0.9646
  O  O90  1  0.322500  0.312910  0.200100  1.0  -1.0304
  O  O91  1  0.287700  0.371800  0.982400  1.0  -1.0376
  O  O92  1  0.326700  0.402800  0.239800  1.0  -1.0097
  O  O93  1  0.514100  0.428350  0.222600  1.0  -1.0061
  O  O94  1  0.621900  0.499090  0.207700  1.0  -0.9725
  O  O95  1  0.683000  0.416170  0.192900  1.0  -1.0137
  O  O96  1  0.590900  0.451250  0.979900  1.0  -1.0216
  O  O97  1  0.885300  0.266380  0.740000  1.0  -1.0167
  O  O98  1  0.991200  0.196970  0.729300  1.0  -0.9434
  O  O99  1  0.824300  0.184640  0.718400  1.0  -1.0759
  O  O100  1  0.899800  0.219300  0.489100  1.0  -1.0162
  O  O101  1  0.106900  0.278650  0.721800  1.0  -1.0469
  O  O102  1  0.159900  0.365100  0.743200  1.0  -0.9533
  O  O103  1  0.102700  0.332990  0.485400  1.0  -1.0488
  O  O104  1  0.999600  0.347700  0.707800  1.0  -0.9699
  O  O105  1  0.318500  0.137350  0.702400  1.0  -0.9656
  O  O106  1  0.177500  0.187090  0.700100  1.0  -1.0308
  O  O107  1  0.212300  0.128200  0.482400  1.0  -1.037
  O  O108  1  0.173300  0.097200  0.739800  1.0  -1.008
  O  O109  1  0.985900  0.071650  0.722600  1.0  -1.0069
  O  O110  1  0.878100  0.000910  0.707700  1.0  -0.9709
  O  O111  1  0.817000  0.083830  0.692900  1.0  -1.0131
  O  O112  1  0.909100  0.048750  0.479900  1.0  -1.0214
  O  O113  1  0.385300  0.766380  0.240000  1.0  -1.0167
  O  O114  1  0.491200  0.696970  0.229300  1.0  -0.9434
  O  O115  1  0.324300  0.684640  0.218400  1.0  -1.0759
  O  O116  1  0.399800  0.719300  0.989100  1.0  -1.0162
  O  O117  1  0.606900  0.778650  0.221800  1.0  -1.0469
  O  O118  1  0.659900  0.865100  0.243200  1.0  -0.9533
  O  O119  1  0.602700  0.832990  0.985400  1.0  -1.0488
  O  O120  1  0.499600  0.847700  0.207800  1.0  -0.9699
  O  O121  1  0.818500  0.637350  0.202400  1.0  -0.9656
  O  O122  1  0.677500  0.687090  0.200100  1.0  -1.0308
  O  O123  1  0.712300  0.628200  0.982400  1.0  -1.037
  O  O124  1  0.673300  0.597200  0.239800  1.0  -1.008
  O  O125  1  0.485900  0.571650  0.222600  1.0  -1.0069
  O  O126  1  0.378100  0.500910  0.207700  1.0  -0.9709
  O  O127  1  0.317000  0.583830  0.192900  1.0  -1.0131
  O  O128  1  0.409100  0.548750  0.979900  1.0  -1.0214
  O  O129  1  0.614700  0.766380  0.740000  1.0  -1.0168
  O  O130  1  0.508800  0.696970  0.729300  1.0  -0.9438
  O  O131  1  0.675700  0.684640  0.718400  1.0  -1.0748
  O  O132  1  0.600200  0.719300  0.489100  1.0  -1.0163
  O  O133  1  0.393100  0.778650  0.721800  1.0  -1.0479
  O  O134  1  0.340100  0.865100  0.743200  1.0  -0.952
  O  O135  1  0.397300  0.832990  0.485400  1.0  -1.0489
  O  O136  1  0.500400  0.847700  0.707800  1.0  -0.9694
  O  O137  1  0.181500  0.637350  0.702400  1.0  -0.963
  O  O138  1  0.322500  0.687090  0.700100  1.0  -1.031
  O  O139  1  0.287700  0.628200  0.482400  1.0  -1.0372
  O  O140  1  0.326700  0.597200  0.739800  1.0  -1.0089
  O  O141  1  0.514100  0.571650  0.722600  1.0  -1.0066
  O  O142  1  0.621900  0.500910  0.707700  1.0  -0.9729
  O  O143  1  0.683000  0.583830  0.692900  1.0  -1.0115
  O  O144  1  0.590900  0.548750  0.479900  1.0  -1.0215
  O  O145  1  0.114700  0.266380  0.240000  1.0  -1.0168
  O  O146  1  0.008800  0.196970  0.229300  1.0  -0.9438
  O  O147  1  0.175700  0.184640  0.218400  1.0  -1.0748
  O  O148  1  0.100200  0.219300  0.989100  1.0  -1.0163
  O  O149  1  0.893100  0.278650  0.221800  1.0  -1.0479
  O  O150  1  0.840100  0.365100  0.243200  1.0  -0.952
  O  O151  1  0.897300  0.332990  0.985400  1.0  -1.0489
  O  O152  1  0.000400  0.347700  0.207800  1.0  -0.9694
  O  O153  1  0.681500  0.137350  0.202400  1.0  -0.963
  O  O154  1  0.822500  0.187090  0.200100  1.0  -1.031
  O  O155  1  0.787700  0.128200  0.982400  1.0  -1.0372
  O  O156  1  0.826700  0.097200  0.239800  1.0  -1.0089
  O  O157  1  0.014100  0.071650  0.222600  1.0  -1.0066
  O  O158  1  0.121900  0.000910  0.207700  1.0  -0.9729
  O  O159  1  0.183000  0.083830  0.192900  1.0  -1.0115
  O  O160  1  0.090900  0.048750  0.979900  1.0  -1.0215
  O  O161  1  0.385300  0.233620  0.740000  1.0  -1.0168
  O  O162  1  0.491200  0.303030  0.729300  1.0  -0.9435
  O  O163  1  0.324300  0.315360  0.718400  1.0  -1.0756
  O  O164  1  0.399800  0.280700  0.489100  1.0  -1.0163
  O  O165  1  0.606900  0.221350  0.721800  1.0  -1.0479
  O  O166  1  0.659900  0.134900  0.743200  1.0  -0.9555
  O  O167  1  0.602700  0.167010  0.485400  1.0  -1.0485
  O  O168  1  0.499600  0.152300  0.707800  1.0  -0.9683
  O  O169  1  0.818500  0.362650  0.702400  1.0  -0.9652
  O  O170  1  0.677500  0.312910  0.700100  1.0  -1.0299
  O  O171  1  0.712300  0.371800  0.482400  1.0  -1.0371
  O  O172  1  0.673300  0.402800  0.739800  1.0  -1.0093
  O  O173  1  0.485900  0.428350  0.722600  1.0  -1.0061
  O  O174  1  0.378100  0.499090  0.707700  1.0  -0.971
  O  O175  1  0.317000  0.416170  0.692900  1.0  -1.0116
  O  O176  1  0.409100  0.451250  0.479900  1.0  -1.0214
  O  O177  1  0.885300  0.733620  0.240000  1.0  -1.0168
  O  O178  1  0.991200  0.803030  0.229300  1.0  -0.9435
  O  O179  1  0.824300  0.815360  0.218400  1.0  -1.0756
  O  O180  1  0.899800  0.780700  0.989100  1.0  -1.0163
  O  O181  1  0.106900  0.721350  0.221800  1.0  -1.0479
  O  O182  1  0.159900  0.634900  0.243200  1.0  -0.9555
  O  O183  1  0.102700  0.667010  0.985400  1.0  -1.0485
  O  O184  1  0.999600  0.652300  0.207800  1.0  -0.9683
  O  O185  1  0.318500  0.862650  0.202400  1.0  -0.9652
  O  O186  1  0.177500  0.812910  0.200100  1.0  -1.0299
  O  O187  1  0.212300  0.871800  0.982400  1.0  -1.0371
  O  O188  1  0.173300  0.902800  0.239800  1.0  -1.0093
  O  O189  1  0.985900  0.928350  0.222600  1.0  -1.0061
  O  O190  1  0.878100  0.999090  0.207700  1.0  -0.971
  O  O191  1  0.817000  0.916170  0.192900  1.0  -1.0116
  O  O192  1  0.909100  0.951250  0.979900  1.0  -1.0214
