# generated using pymatgen
data_AlPO4
_symmetry_space_group_name_H-M   'P 1'
_cell_length_a   14.80220000
_cell_length_b   27.33070000
_cell_length_c   8.34870000
_cell_angle_alpha   90.00000000
_cell_angle_beta   90.00000000
_cell_angle_gamma   90.00000000
_symmetry_Int_Tables_number   1
_chemical_formula_structural   AlPO4
_chemical_formula_sum   'Al32 P32 O128'
_cell_volume   3377.50405013
_cell_formula_units_Z   32
loop_
 _symmetry_equiv_pos_site_id
 _symmetry_equiv_pos_as_xyz
  1  'x, y, z'
loop_
 _atom_site_type_symbol
 _atom_site_label
 _atom_site_symmetry_multiplicity
 _atom_site_fract_x
 _atom_site_fract_y
 _atom_site_fract_z
 _atom_site_occupancy
 _atom_site_charge
  Al  Al1  1  0.093600  0.778660  0.268200  1.0  1.9753
  Al  Al2  1  0.900260  0.674550  0.261000  1.0  1.9674
  Al  Al3  1  0.093190  0.944530  0.264800  1.0  1.9703
  Al  Al4  1  0.773810  0.864780  0.263200  1.0  1.9657
  Al  Al5  1  0.593600  0.278660  0.768200  1.0  1.9753
  Al  Al6  1  0.400260  0.174550  0.761000  1.0  1.9674
  Al  Al7  1  0.593190  0.444530  0.764800  1.0  1.9703
  Al  Al8  1  0.273810  0.364780  0.763200  1.0  1.9657
  Al  Al9  1  0.906400  0.221340  0.268200  1.0  1.9739
  Al  Al10  1  0.099740  0.325450  0.261000  1.0  1.9667
  Al  Al11  1  0.906810  0.055470  0.264800  1.0  1.9717
  Al  Al12  1  0.226190  0.135220  0.263200  1.0  1.9641
  Al  Al13  1  0.406400  0.721340  0.768200  1.0  1.9739
  Al  Al14  1  0.599740  0.825450  0.761000  1.0  1.9667
  Al  Al15  1  0.406810  0.555470  0.764800  1.0  1.9717
  Al  Al16  1  0.726190  0.635220  0.763200  1.0  1.9641
  Al  Al17  1  0.593600  0.721340  0.268200  1.0  1.9743
  Al  Al18  1  0.400260  0.825450  0.261000  1.0  1.9666
  Al  Al19  1  0.593190  0.555470  0.264800  1.0  1.9719
  Al  Al20  1  0.273810  0.635220  0.263200  1.0  1.9652
  Al  Al21  1  0.093600  0.221340  0.768200  1.0  1.9743
  Al  Al22  1  0.900260  0.325450  0.761000  1.0  1.9666
  Al  Al23  1  0.093190  0.055470  0.764800  1.0  1.9719
  Al  Al24  1  0.773810  0.135220  0.763200  1.0  1.9652
  Al  Al25  1  0.406400  0.278660  0.268200  1.0  1.9749
  Al  Al26  1  0.599740  0.174550  0.261000  1.0  1.9674
  Al  Al27  1  0.406810  0.444530  0.264800  1.0  1.9702
  Al  Al28  1  0.726190  0.364780  0.263200  1.0  1.9644
  Al  Al29  1  0.906400  0.778660  0.768200  1.0  1.9749
  Al  Al30  1  0.099740  0.674550  0.761000  1.0  1.9674
  Al  Al31  1  0.906810  0.944530  0.764800  1.0  1.9702
  Al  Al32  1  0.226190  0.864780  0.763200  1.0  1.9644
  P  P33  1  0.902050  0.782040  0.142400  1.0  2.0303
  P  P34  1  0.094970  0.670650  0.138700  1.0  2.0796
  P  P35  1  0.219950  0.860480  0.137700  1.0  2.0814
  P  P36  1  0.898890  0.947150  0.142800  1.0  1.9936
  P  P37  1  0.402050  0.282040  0.642400  1.0  2.0303
  P  P38  1  0.594970  0.170650  0.638700  1.0  2.0796
  P  P39  1  0.719950  0.360480  0.637700  1.0  2.0814
  P  P40  1  0.398890  0.447150  0.642800  1.0  1.9936
  P  P41  1  0.097950  0.217960  0.142400  1.0  2.0307
  P  P42  1  0.905030  0.329350  0.138700  1.0  2.0812
  P  P43  1  0.780050  0.139520  0.137700  1.0  2.0814
  P  P44  1  0.101110  0.052850  0.142800  1.0  2.0005
  P  P45  1  0.597950  0.717960  0.642400  1.0  2.0307
  P  P46  1  0.405030  0.829350  0.638700  1.0  2.0812
  P  P47  1  0.280050  0.639520  0.637700  1.0  2.0814
  P  P48  1  0.601110  0.552850  0.642800  1.0  2.0005
  P  P49  1  0.402050  0.717960  0.142400  1.0  2.0306
  P  P50  1  0.594970  0.829350  0.138700  1.0  2.0819
  P  P51  1  0.719950  0.639520  0.137700  1.0  2.0818
  P  P52  1  0.398890  0.552850  0.142800  1.0  1.993
  P  P53  1  0.902050  0.217960  0.642400  1.0  2.0306
  P  P54  1  0.094970  0.329350  0.638700  1.0  2.0819
  P  P55  1  0.219950  0.139520  0.637700  1.0  2.0818
  P  P56  1  0.898890  0.052850  0.642800  1.0  1.993
  P  P57  1  0.597950  0.282040  0.142400  1.0  2.0303
  P  P58  1  0.405030  0.170650  0.138700  1.0  2.0792
  P  P59  1  0.280050  0.360480  0.137700  1.0  2.0811
  P  P60  1  0.601110  0.447150  0.142800  1.0  2.0012
  P  P61  1  0.097950  0.782040  0.642400  1.0  2.0303
  P  P62  1  0.905030  0.670650  0.638700  1.0  2.0792
  P  P63  1  0.780050  0.860480  0.637700  1.0  2.0811
  P  P64  1  0.101110  0.947150  0.642800  1.0  2.0012
  O  O65  1  0.879500  0.734100  0.221100  1.0  -1.0593
  O  O66  1  0.992000  0.801950  0.203700  1.0  -1.0062
  O  O67  1  0.828100  0.818800  0.167000  1.0  -1.0585
  O  O68  1  0.908700  0.772170  0.967900  1.0  -0.9984
  O  O69  1  0.111900  0.721980  0.190600  1.0  -1.0185
  O  O70  1  0.161850  0.634640  0.210000  1.0  -0.9572
  O  O71  1  0.102500  0.668980  0.961700  1.0  -1.0018
  O  O72  1  0.000500  0.654260  0.184700  1.0  -1.0023
  O  O73  1  0.318610  0.863830  0.187900  1.0  -0.9715
  O  O74  1  0.179500  0.815460  0.211000  1.0  -1.0245
  O  O75  1  0.214900  0.855310  0.960800  1.0  -0.9775
  O  O76  1  0.174800  0.906330  0.193300  1.0  -0.9888
  O  O77  1  0.987000  0.924980  0.207600  1.0  -1.027
  O  O78  1  0.886200  0.999140  0.192300  1.0  -0.9613
  O  O79  1  0.818500  0.919390  0.208600  1.0  -1.0434
  O  O80  1  0.898900  0.945280  0.965700  1.0  -0.9712
  O  O81  1  0.379500  0.234100  0.721100  1.0  -1.0593
  O  O82  1  0.492000  0.301950  0.703700  1.0  -1.0062
  O  O83  1  0.328100  0.318800  0.667000  1.0  -1.0585
  O  O84  1  0.408700  0.272170  0.467900  1.0  -0.9984
  O  O85  1  0.611900  0.221980  0.690600  1.0  -1.0185
  O  O86  1  0.661850  0.134640  0.710000  1.0  -0.9572
  O  O87  1  0.602500  0.168980  0.461700  1.0  -1.0018
  O  O88  1  0.500500  0.154260  0.684700  1.0  -1.0023
  O  O89  1  0.818610  0.363830  0.687900  1.0  -0.9715
  O  O90  1  0.679500  0.315460  0.711000  1.0  -1.0245
  O  O91  1  0.714900  0.355310  0.460800  1.0  -0.9775
  O  O92  1  0.674800  0.406330  0.693300  1.0  -0.9888
  O  O93  1  0.487000  0.424980  0.707600  1.0  -1.027
  O  O94  1  0.386200  0.499140  0.692300  1.0  -0.9613
  O  O95  1  0.318500  0.419390  0.708600  1.0  -1.0434
  O  O96  1  0.398900  0.445280  0.465700  1.0  -0.9712
  O  O97  1  0.120500  0.265900  0.221100  1.0  -1.0591
  O  O98  1  0.008000  0.198050  0.203700  1.0  -1.0065
  O  O99  1  0.171900  0.181200  0.167000  1.0  -1.0576
  O  O100  1  0.091300  0.227830  0.967900  1.0  -0.9982
  O  O101  1  0.888100  0.278020  0.190600  1.0  -1.0182
  O  O102  1  0.838150  0.365360  0.210000  1.0  -0.9567
  O  O103  1  0.897500  0.331020  0.961700  1.0  -1.0026
  O  O104  1  0.999500  0.345740  0.184700  1.0  -1.0027
  O  O105  1  0.681390  0.136170  0.187900  1.0  -0.9716
  O  O106  1  0.820500  0.184540  0.211000  1.0  -1.0251
  O  O107  1  0.785100  0.144690  0.960800  1.0  -0.9759
  O  O108  1  0.825200  0.093670  0.193300  1.0  -0.9862
  O  O109  1  0.013000  0.075020  0.207600  1.0  -1.0308
  O  O110  1  0.113800  0.000860  0.192300  1.0  -0.961
  O  O111  1  0.181500  0.080610  0.208600  1.0  -1.0426
  O  O112  1  0.101100  0.054720  0.965700  1.0  -0.9706
  O  O113  1  0.620500  0.765900  0.721100  1.0  -1.0591
  O  O114  1  0.508000  0.698050  0.703700  1.0  -1.0065
  O  O115  1  0.671900  0.681200  0.667000  1.0  -1.0576
  O  O116  1  0.591300  0.727830  0.467900  1.0  -0.9982
  O  O117  1  0.388100  0.778020  0.690600  1.0  -1.0182
  O  O118  1  0.338150  0.865360  0.710000  1.0  -0.9567
  O  O119  1  0.397500  0.831020  0.461700  1.0  -1.0026
  O  O120  1  0.499500  0.845740  0.684700  1.0  -1.0027
  O  O121  1  0.181390  0.636170  0.687900  1.0  -0.9716
  O  O122  1  0.320500  0.684540  0.711000  1.0  -1.0251
  O  O123  1  0.285100  0.644690  0.460800  1.0  -0.9759
  O  O124  1  0.325200  0.593670  0.693300  1.0  -0.9862
  O  O125  1  0.513000  0.575020  0.707600  1.0  -1.0308
  O  O126  1  0.613800  0.500860  0.692300  1.0  -0.961
  O  O127  1  0.681500  0.580610  0.708600  1.0  -1.0426
  O  O128  1  0.601100  0.554720  0.465700  1.0  -0.9706
  O  O129  1  0.379500  0.765900  0.221100  1.0  -1.0603
  O  O130  1  0.492000  0.698050  0.203700  1.0  -1.0058
  O  O131  1  0.328100  0.681200  0.167000  1.0  -1.0581
  O  O132  1  0.408700  0.727830  0.967900  1.0  -0.9985
  O  O133  1  0.611900  0.778020  0.190600  1.0  -1.0176
  O  O134  1  0.661850  0.865360  0.210000  1.0  -0.9569
  O  O135  1  0.602500  0.831020  0.961700  1.0  -1.0028
  O  O136  1  0.500500  0.845740  0.184700  1.0  -1.003
  O  O137  1  0.818610  0.636170  0.187900  1.0  -0.9721
  O  O138  1  0.679500  0.684540  0.211000  1.0  -1.025
  O  O139  1  0.714900  0.644690  0.960800  1.0  -0.9774
  O  O140  1  0.674800  0.593670  0.193300  1.0  -0.9858
  O  O141  1  0.487000  0.575020  0.207600  1.0  -1.0305
  O  O142  1  0.386200  0.500860  0.192300  1.0  -0.9609
  O  O143  1  0.318500  0.580610  0.208600  1.0  -1.0427
  O  O144  1  0.398900  0.554720  0.965700  1.0  -0.9712
  O  O145  1  0.879500  0.265900  0.721100  1.0  -1.0603
  O  O146  1  0.992000  0.198050  0.703700  1.0  -1.0058
  O  O147  1  0.828100  0.181200  0.667000  1.0  -1.0581
  O  O148  1  0.908700  0.227830  0.467900  1.0  -0.9985
  O  O149  1  0.111900  0.278020  0.690600  1.0  -1.0176
  O  O150  1  0.161850  0.365360  0.710000  1.0  -0.9569
  O  O151  1  0.102500  0.331020  0.461700  1.0  -1.0028
  O  O152  1  0.000500  0.345740  0.684700  1.0  -1.003
  O  O153  1  0.318610  0.136170  0.687900  1.0  -0.9721
  O  O154  1  0.179500  0.184540  0.711000  1.0  -1.025
  O  O155  1  0.214900  0.144690  0.460800  1.0  -0.9774
  O  O156  1  0.174800  0.093670  0.693300  1.0  -0.9858
  O  O157  1  0.987000  0.075020  0.707600  1.0  -1.0305
  O  O158  1  0.886200  0.000860  0.692300  1.0  -0.9609
  O  O159  1  0.818500  0.080610  0.708600  1.0  -1.0427
  O  O160  1  0.898900  0.054720  0.465700  1.0  -0.9712
  O  O161  1  0.620500  0.234100  0.221100  1.0  -1.0592
  O  O162  1  0.508000  0.301950  0.203700  1.0  -1.0065
  O  O163  1  0.671900  0.318800  0.167000  1.0  -1.058
  O  O164  1  0.591300  0.272170  0.967900  1.0  -0.9981
  O  O165  1  0.388100  0.221980  0.190600  1.0  -1.0178
  O  O166  1  0.338150  0.134640  0.210000  1.0  -0.9572
  O  O167  1  0.397500  0.168980  0.961700  1.0  -1.0016
  O  O168  1  0.499500  0.154260  0.184700  1.0  -1.002
  O  O169  1  0.181390  0.363830  0.187900  1.0  -0.9725
  O  O170  1  0.320500  0.315460  0.211000  1.0  -1.0245
  O  O171  1  0.285100  0.355310  0.960800  1.0  -0.9762
  O  O172  1  0.325200  0.406330  0.193300  1.0  -0.9888
  O  O173  1  0.513000  0.424980  0.207600  1.0  -1.0294
  O  O174  1  0.613800  0.499140  0.192300  1.0  -0.9615
  O  O175  1  0.681500  0.419390  0.208600  1.0  -1.0426
  O  O176  1  0.601100  0.445280  0.965700  1.0  -0.9706
  O  O177  1  0.120500  0.734100  0.721100  1.0  -1.0592
  O  O178  1  0.008000  0.801950  0.703700  1.0  -1.0065
  O  O179  1  0.171900  0.818800  0.667000  1.0  -1.058
  O  O180  1  0.091300  0.772170  0.467900  1.0  -0.9981
  O  O181  1  0.888100  0.721980  0.690600  1.0  -1.0178
  O  O182  1  0.838150  0.634640  0.710000  1.0  -0.9572
  O  O183  1  0.897500  0.668980  0.461700  1.0  -1.0016
  O  O184  1  0.999500  0.654260  0.684700  1.0  -1.002
  O  O185  1  0.681390  0.863830  0.687900  1.0  -0.9725
  O  O186  1  0.820500  0.815460  0.711000  1.0  -1.0245
  O  O187  1  0.785100  0.855310  0.460800  1.0  -0.9762
  O  O188  1  0.825200  0.906330  0.693300  1.0  -0.9888
  O  O189  1  0.013000  0.924980  0.707600  1.0  -1.0294
  O  O190  1  0.113800  0.999140  0.692300  1.0  -0.9615
  O  O191  1  0.181500  0.919390  0.708600  1.0  -1.0426
  O  O192  1  0.101100  0.945280  0.465700  1.0  -0.9706
