# generated using pymatgen
data_NiH33C32N4O5
_symmetry_space_group_name_H-M   'P 1'
_cell_length_a   13.89000000
_cell_length_b   14.33000000
_cell_length_c   19.01700000
_cell_angle_alpha   68.31000000
_cell_angle_beta   75.83000000
_cell_angle_gamma   84.36000000
_symmetry_Int_Tables_number   1
_chemical_formula_structural   NiH33C32N4O5
_chemical_formula_sum   'Ni4 H132 C128 N16 O20'
_cell_volume   3410.06612562
_cell_formula_units_Z   4
loop_
 _symmetry_equiv_pos_site_id
 _symmetry_equiv_pos_as_xyz
  1  'x, y, z'
loop_
 _atom_site_type_symbol
 _atom_site_label
 _atom_site_symmetry_multiplicity
 _atom_site_fract_x
 _atom_site_fract_y
 _atom_site_fract_z
 _atom_site_occupancy
 _atom_site_charge
  Ni  Ni1  1  0.422230  0.623700  0.217670  1.0  0.6611
  Ni  Ni2  1  0.171120  0.864470  0.611850  1.0  0.8238
  Ni  Ni3  1  0.577770  0.376300  0.782330  1.0  0.6614
  Ni  Ni4  1  0.828880  0.135530  0.388150  1.0  0.822
  H  H5  1  0.616600  0.487800  0.184000  1.0  0.1108
  H  H6  1  0.674300  0.558500  0.916500  1.0  0.1109
  H  H7  1  0.781900  0.456100  0.988400  1.0  0.0864
  H  H8  1  0.753400  0.420100  0.120500  1.0  0.0914
  H  H9  1  0.316400  0.717000  0.095300  1.0  0.1141
  H  H10  1  0.304800  0.691400  0.024500  1.0  0.1117
  H  H11  1  0.365200  0.786000  0.010400  1.0  0.1188
  H  H12  1  0.418900  0.689900  0.905200  1.0  0.0709
  H  H13  1  0.519100  0.639600  0.877400  1.0  0.0622
  H  H14  1  0.508100  0.833400  0.887700  1.0  0.0886
  H  H15  1  0.607000  0.783300  0.857400  1.0  0.0688
  H  H16  1  0.449400  0.848600  0.780100  1.0  0.081
  H  H17  1  0.554100  0.898700  0.751400  1.0  0.0766
  H  H18  1  0.510500  0.713500  0.750100  1.0  0.0762
  H  H19  1  0.619900  0.743700  0.738100  1.0  0.0821
  H  H20  1  0.616200  0.866400  0.619000  1.0  0.0856
  H  H21  1  0.579400  0.766200  0.619300  1.0  0.0754
  H  H22  1  0.575800  0.041200  0.596200  1.0  0.1126
  H  H23  1  0.507900  0.199400  0.558600  1.0  0.0881
  H  H24  1  0.348500  0.225600  0.537000  1.0  0.0941
  H  H25  1  0.249500  0.091400  0.563500  1.0  0.1088
  H  H26  1  0.326300  0.704400  0.622500  1.0  0.1276
  H  H27  1  0.363200  0.681600  0.698900  1.0  0.1158
  H  H28  1  0.440100  0.691200  0.621000  1.0  0.1063
  H  H29  1  0.519600  0.808000  0.059200  1.0  0.0952
  H  H30  1  0.615700  0.939000  0.968900  1.0  0.0951
  H  H31  1  0.747900  0.988300  0.994700  1.0  0.0907
  H  H32  1  0.785600  0.916200  0.114200  1.0  0.1116
  H  H33  1  0.529800  0.573900  0.351800  1.0  0.1381
  H  H34  1  0.614400  0.619400  0.370500  1.0  0.1002
  H  H35  1  0.640200  0.539400  0.330300  1.0  0.1326
  H  H36  1  0.771800  0.838100  0.249500  1.0  0.0621
  H  H37  1  0.707600  0.765000  0.327100  1.0  0.0803
  H  H38  1  0.856000  0.692400  0.234000  1.0  0.0717
  H  H39  1  0.804400  0.635500  0.321300  1.0  0.0553
  H  H40  1  0.882500  0.783700  0.338100  1.0  0.074
  H  H41  1  0.942500  0.682900  0.344600  1.0  0.0683
  H  H42  1  0.036300  0.747200  0.223900  1.0  0.0817
  H  H43  1  0.954700  0.825700  0.194600  1.0  0.0697
  H  H44  1  0.070900  0.845400  0.291500  1.0  0.082
  H  H45  1  0.093600  0.903400  0.201400  1.0  0.0957
  H  H46  1  0.975600  0.969100  0.426200  1.0  0.1302
  H  H47  1  0.051900  0.908900  0.382900  1.0  0.1008
  H  H48  1  0.944800  0.867000  0.425700  1.0  0.1187
  H  H49  1  0.965200  0.994800  0.102900  1.0  0.1189
  H  H50  1  0.872600  0.125000  0.037100  1.0  0.0917
  H  H51  1  0.774200  0.220900  0.098100  1.0  0.0842
  H  H52  1  0.772900  0.203900  0.225100  1.0  0.1186
  H  H53  1  0.865000  0.385500  0.842400  1.0  0.1082
  H  H54  1  0.104000  0.555000  0.787700  1.0  0.1008
  H  H55  1  0.876500  0.664700  0.683800  1.0  0.1106
  H  H56  1  0.172200  0.395200  0.854800  1.0  0.0591
  H  H57  1  0.114600  0.460900  0.902500  1.0  0.0547
  H  H58  1  0.196100  0.315500  0.977900  1.0  0.0613
  H  H59  1  0.121000  0.248900  0.968200  1.0  0.0785
  H  H60  1  0.302800  0.946200  0.178300  1.0  0.1168
  H  H61  1  0.199500  0.058600  0.347500  1.0  0.1152
  H  H62  1  0.291700  0.771400  0.400900  1.0  0.1039
  H  H63  1  0.228300  0.211100  0.236800  1.0  0.0617
  H  H64  1  0.122000  0.166000  0.255000  1.0  0.0642
  H  H65  1  0.222600  0.268800  0.100200  1.0  0.0679
  H  H66  1  0.155000  0.328800  0.148100  1.0  0.0685
  H  H67  1  0.016500  0.238900  0.159600  1.0  0.0663
  H  H68  1  0.083900  0.177500  0.112800  1.0  0.0641
  H  H69  1  0.989600  0.314000  0.038000  1.0  0.0786
  H  H70  1  0.060900  0.388100  0.043500  1.0  0.0751
  H  H71  1  0.383400  0.512200  0.816000  1.0  0.1109
  H  H72  1  0.325700  0.441500  0.083500  1.0  0.1109
  H  H73  1  0.218100  0.543900  0.011600  1.0  0.087
  H  H74  1  0.246600  0.579900  0.879500  1.0  0.091
  H  H75  1  0.683600  0.283000  0.904700  1.0  0.1144
  H  H76  1  0.695200  0.308600  0.975500  1.0  0.1117
  H  H77  1  0.634800  0.214000  0.989600  1.0  0.1185
  H  H78  1  0.581100  0.310100  0.094800  1.0  0.0734
  H  H79  1  0.480900  0.360400  0.122600  1.0  0.0628
  H  H80  1  0.491900  0.166600  0.112300  1.0  0.0912
  H  H81  1  0.393000  0.216700  0.142600  1.0  0.0678
  H  H82  1  0.550600  0.151400  0.219900  1.0  0.0795
  H  H83  1  0.445900  0.101300  0.248600  1.0  0.0771
  H  H84  1  0.489500  0.286500  0.249900  1.0  0.0741
  H  H85  1  0.380100  0.256300  0.261900  1.0  0.0773
  H  H86  1  0.383800  0.133600  0.381000  1.0  0.0866
  H  H87  1  0.420600  0.233800  0.380700  1.0  0.077
  H  H88  1  0.424200  0.958800  0.403800  1.0  0.1123
  H  H89  1  0.492100  0.800600  0.441400  1.0  0.0898
  H  H90  1  0.651500  0.774400  0.463000  1.0  0.0946
  H  H91  1  0.750500  0.908600  0.436500  1.0  0.1091
  H  H92  1  0.673700  0.295600  0.377500  1.0  0.129
  H  H93  1  0.636800  0.318400  0.301100  1.0  0.116
  H  H94  1  0.559900  0.308800  0.379000  1.0  0.1061
  H  H95  1  0.480400  0.192000  0.940800  1.0  0.0952
  H  H96  1  0.384300  0.061000  0.031100  1.0  0.0957
  H  H97  1  0.252100  0.011700  0.005300  1.0  0.0903
  H  H98  1  0.214400  0.083800  0.885800  1.0  0.1115
  H  H99  1  0.470200  0.426100  0.648200  1.0  0.1395
  H  H100  1  0.385600  0.380600  0.629500  1.0  0.1016
  H  H101  1  0.359800  0.460600  0.669700  1.0  0.1302
  H  H102  1  0.228200  0.161900  0.750500  1.0  0.065
  H  H103  1  0.292400  0.235000  0.672900  1.0  0.0807
  H  H104  1  0.144000  0.307600  0.766000  1.0  0.0731
  H  H105  1  0.195600  0.364500  0.678700  1.0  0.0561
  H  H106  1  0.117500  0.216300  0.661900  1.0  0.0724
  H  H107  1  0.057500  0.317100  0.655400  1.0  0.0659
  H  H108  1  0.963700  0.252800  0.776100  1.0  0.0809
  H  H109  1  0.045300  0.174300  0.805400  1.0  0.07
  H  H110  1  0.929100  0.154600  0.708500  1.0  0.0823
  H  H111  1  0.906400  0.096600  0.798600  1.0  0.0965
  H  H112  1  0.024400  0.030900  0.573800  1.0  0.131
  H  H113  1  0.948100  0.091100  0.617100  1.0  0.1009
  H  H114  1  0.055200  0.133000  0.574300  1.0  0.1176
  H  H115  1  0.034800  0.005200  0.897100  1.0  0.119
  H  H116  1  0.127400  0.875000  0.962900  1.0  0.0918
  H  H117  1  0.225800  0.779100  0.901900  1.0  0.0826
  H  H118  1  0.227100  0.796100  0.774900  1.0  0.1185
  H  H119  1  0.135000  0.614500  0.157600  1.0  0.1088
  H  H120  1  0.896000  0.445000  0.212300  1.0  0.1019
  H  H121  1  0.123500  0.335300  0.316200  1.0  0.1098
  H  H122  1  0.827800  0.604800  0.145200  1.0  0.0579
  H  H123  1  0.885400  0.539100  0.097500  1.0  0.0552
  H  H124  1  0.803900  0.684500  0.022100  1.0  0.0595
  H  H125  1  0.879000  0.751100  0.031800  1.0  0.0768
  H  H126  1  0.697200  0.053800  0.821700  1.0  0.1161
  H  H127  1  0.800500  0.941400  0.652500  1.0  0.1153
  H  H128  1  0.708300  0.228600  0.599100  1.0  0.1038
  H  H129  1  0.771700  0.788900  0.763200  1.0  0.0622
  H  H130  1  0.878000  0.834000  0.745000  1.0  0.0648
  H  H131  1  0.777400  0.731200  0.899800  1.0  0.0655
  H  H132  1  0.845000  0.671200  0.851900  1.0  0.0679
  H  H133  1  0.983500  0.761100  0.840400  1.0  0.067
  H  H134  1  0.916100  0.822500  0.887200  1.0  0.0632
  H  H135  1  0.010400  0.686000  0.962000  1.0  0.0784
  H  H136  1  0.939100  0.611900  0.956500  1.0  0.0766
  C  C137  1  0.627500  0.501200  0.131000  1.0  -0.1099
  C  C138  1  0.562800  0.560900  0.088360  1.0  0.1663
  C  C139  1  0.579600  0.582500  0.009100  1.0  0.1401
  C  C140  1  0.662700  0.543800  0.969800  1.0  -0.1568
  C  C141  1  0.726200  0.483300  0.012900  1.0  -0.0906
  C  C142  1  0.709200  0.461600  0.092700  1.0  -0.0984
  C  C143  1  0.439900  0.656500  0.047940  1.0  0.3629
  C  C144  1  0.348600  0.718100  0.044200  1.0  -0.4069
  C  C145  1  0.489300  0.684700  0.904410  1.0  -0.0275
  C  C146  1  0.536200  0.788900  0.859700  1.0  -0.1345
  C  C147  1  0.519800  0.835000  0.777400  1.0  -0.125
  C  C148  1  0.555000  0.770200  0.729800  1.0  -0.1521
  C  C149  1  0.563000  0.817800  0.642010  1.0  -0.0269
  C  C150  1  0.451800  0.969600  0.602750  1.0  0.1029
  C  C151  1  0.511000  0.051000  0.589600  1.0  -0.1441
  C  C152  1  0.470400  0.144500  0.566700  1.0  -0.0789
  C  C153  1  0.373200  0.160500  0.554900  1.0  -0.0835
  C  C154  1  0.314600  0.081000  0.569600  1.0  -0.0865
  C  C155  1  0.354000  0.984700  0.593540  1.0  0.1035
  C  C156  1  0.386000  0.824000  0.625800  1.0  0.3742
  C  C157  1  0.378200  0.716000  0.643600  1.0  -0.4116
  C  C158  1  0.574900  0.826600  0.070300  1.0  -0.1395
  C  C159  1  0.631500  0.905600  0.016900  1.0  -0.0983
  C  C160  1  0.709500  0.935600  0.032800  1.0  -0.0976
  C  C161  1  0.734400  0.891800  0.102400  1.0  -0.1439
  C  C162  1  0.679300  0.807800  0.155900  1.0  0.14
  C  C163  1  0.599800  0.774600  0.140400  1.0  0.1533
  C  C164  1  0.611500  0.678400  0.255300  1.0  0.3953
  C  C165  1  0.597700  0.595200  0.334200  1.0  -0.3912
  C  C166  1  0.746500  0.770300  0.275900  1.0  -0.0011
  C  C167  1  0.827900  0.700400  0.283500  1.0  -0.1467
  C  C168  1  0.911400  0.739200  0.310400  1.0  -0.1435
  C  C169  1  0.987700  0.794900  0.237200  1.0  -0.161
  C  C170  1  0.040800  0.875700  0.247100  1.0  -0.0026
  C  C171  1  0.983100  0.926800  0.396000  1.0  -0.4104
  C  C172  1  0.947600  0.981500  0.323600  1.0  0.3923
  C  C173  1  0.925100  0.024100  0.203800  1.0  0.096
  C  C174  1  0.927400  0.036700  0.126800  1.0  -0.1058
  C  C175  1  0.871600  0.112700  0.088800  1.0  -0.1142
  C  C176  1  0.813900  0.171700  0.125400  1.0  -0.1147
  C  C177  1  0.811500  0.162100  0.201700  1.0  -0.1687
  C  C178  1  0.870500  0.085700  0.240040  1.0  0.1899
  C  C179  1  0.752000  0.509500  0.755300  1.0  0.7189
  C  C180  1  0.854900  0.523100  0.762800  1.0  -0.1649
  C  C181  1  0.898100  0.446000  0.814460  1.0  -0.1452
  C  C182  1  0.990000  0.458200  0.824970  1.0  0.2483
  C  C183  1  0.041400  0.547300  0.781300  1.0  -0.1968
  C  C184  1  0.999200  0.624600  0.728140  1.0  -0.1502
  C  C185  1  0.905400  0.612900  0.718950  1.0  -0.0551
  C  C186  1  0.057400  0.719500  0.682680  1.0  0.657
  C  C187  1  0.116600  0.396000  0.897000  1.0  0.0613
  C  C188  1  0.129200  0.313300  0.971800  1.0  -0.1349
  C  C189  1  0.344200  0.759300  0.260410  1.0  0.6414
  C  C190  1  0.303400  0.845700  0.285400  1.0  -0.1582
  C  C191  1  0.286600  0.937500  0.230800  1.0  -0.157
  C  C192  1  0.246000  0.016000  0.253800  1.0  0.2753
  C  C193  1  0.224700  0.004800  0.332080  1.0  -0.1455
  C  C194  1  0.241500  0.912400  0.386750  1.0  -0.1275
  C  C195  1  0.280600  0.833100  0.363990  1.0  -0.0212
  C  C196  1  0.212100  0.896700  0.471570  1.0  0.6428
  C  C197  1  0.183700  0.185500  0.216160  1.0  0.0756
  C  C198  1  0.164500  0.264200  0.141790  1.0  -0.1486
  C  C199  1  0.074800  0.242600  0.118400  1.0  -0.1548
  C  C200  1  0.056400  0.321700  0.042200  1.0  -0.1453
  C  C201  1  0.372500  0.498800  0.869000  1.0  -0.1094
  C  C202  1  0.437200  0.439100  0.911640  1.0  0.1677
  C  C203  1  0.420400  0.417500  0.990900  1.0  0.1411
  C  C204  1  0.337300  0.456200  0.030200  1.0  -0.1584
  C  C205  1  0.273800  0.516700  0.987100  1.0  -0.0917
  C  C206  1  0.290800  0.538400  0.907300  1.0  -0.0976
  C  C207  1  0.560100  0.343500  0.952060  1.0  0.3645
  C  C208  1  0.651400  0.281900  0.955800  1.0  -0.4082
  C  C209  1  0.510700  0.315300  0.095590  1.0  -0.028
  C  C210  1  0.463800  0.211100  0.140300  1.0  -0.1336
  C  C211  1  0.480200  0.165000  0.222600  1.0  -0.1261
  C  C212  1  0.445000  0.229800  0.270200  1.0  -0.1507
  C  C213  1  0.437000  0.182200  0.357990  1.0  -0.0281
  C  C214  1  0.548200  0.030400  0.397250  1.0  0.104
  C  C215  1  0.489000  0.949000  0.410400  1.0  -0.1439
  C  C216  1  0.529600  0.855500  0.433300  1.0  -0.0815
  C  C217  1  0.626800  0.839500  0.445100  1.0  -0.0849
  C  C218  1  0.685400  0.919000  0.430400  1.0  -0.0873
  C  C219  1  0.646000  0.015300  0.406460  1.0  0.104
  C  C220  1  0.614000  0.176000  0.374200  1.0  0.3744
  C  C221  1  0.621800  0.284000  0.356400  1.0  -0.4111
  C  C222  1  0.425100  0.173400  0.929700  1.0  -0.1402
  C  C223  1  0.368500  0.094400  0.983100  1.0  -0.0982
  C  C224  1  0.290500  0.064400  0.967200  1.0  -0.0955
  C  C225  1  0.265600  0.108200  0.897600  1.0  -0.1421
  C  C226  1  0.320700  0.192200  0.844100  1.0  0.1396
  C  C227  1  0.400200  0.225400  0.859600  1.0  0.1532
  C  C228  1  0.388500  0.321600  0.744700  1.0  0.395
  C  C229  1  0.402300  0.404800  0.665800  1.0  -0.3902
  C  C230  1  0.253500  0.229700  0.724100  1.0  -0.002
  C  C231  1  0.172100  0.299600  0.716500  1.0  -0.1465
  C  C232  1  0.088600  0.260800  0.689600  1.0  -0.1468
  C  C233  1  0.012300  0.205100  0.762800  1.0  -0.1621
  C  C234  1  0.959200  0.124300  0.752900  1.0  -0.004
  C  C235  1  0.016900  0.073200  0.604000  1.0  -0.4088
  C  C236  1  0.052400  0.018500  0.676400  1.0  0.3918
  C  C237  1  0.074900  0.975900  0.796200  1.0  0.096
  C  C238  1  0.072600  0.963300  0.873200  1.0  -0.1048
  C  C239  1  0.128400  0.887300  0.911200  1.0  -0.1143
  C  C240  1  0.186100  0.828300  0.874600  1.0  -0.1135
  C  C241  1  0.188500  0.837900  0.798300  1.0  -0.168
  C  C242  1  0.129500  0.914300  0.759960  1.0  0.1893
  C  C243  1  0.248000  0.490500  0.244700  1.0  0.72
  C  C244  1  0.145100  0.476900  0.237200  1.0  -0.1659
  C  C245  1  0.101900  0.554000  0.185540  1.0  -0.1456
  C  C246  1  0.010000  0.541800  0.175030  1.0  0.2471
  C  C247  1  0.958600  0.452700  0.218700  1.0  -0.1991
  C  C248  1  0.000800  0.375400  0.271860  1.0  -0.1516
  C  C249  1  0.094600  0.387100  0.281050  1.0  -0.0563
  C  C250  1  0.942600  0.280500  0.317320  1.0  0.6567
  C  C251  1  0.883400  0.604000  0.103000  1.0  0.0602
  C  C252  1  0.870800  0.686700  0.028200  1.0  -0.1369
  C  C253  1  0.655800  0.240700  0.739590  1.0  0.6418
  C  C254  1  0.696600  0.154300  0.714600  1.0  -0.1572
  C  C255  1  0.713400  0.062500  0.769200  1.0  -0.1587
  C  C256  1  0.754000  0.984000  0.746200  1.0  0.2731
  C  C257  1  0.775300  0.995200  0.667920  1.0  -0.1466
  C  C258  1  0.758500  0.087600  0.613250  1.0  -0.1282
  C  C259  1  0.719400  0.166900  0.636010  1.0  -0.021
  C  C260  1  0.787900  0.103300  0.528430  1.0  0.6424
  C  C261  1  0.816300  0.814500  0.783840  1.0  0.0751
  C  C262  1  0.835500  0.735800  0.858210  1.0  -0.1483
  C  C263  1  0.925200  0.757400  0.881600  1.0  -0.1567
  C  C264  1  0.943600  0.678300  0.957800  1.0  -0.1469
  N  N265  1  0.474710  0.608000  0.111710  1.0  -0.4772
  N  N266  1  0.502300  0.642100  0.984690  1.0  -0.0577
  N  N267  1  0.469910  0.868000  0.623850  1.0  -0.0258
  N  N268  1  0.314120  0.891140  0.609150  1.0  -0.4394
  N  N269  1  0.558600  0.691800  0.205000  1.0  -0.399
  N  N270  1  0.681700  0.749600  0.230900  1.0  -0.0602
  N  N271  1  0.974100  0.956500  0.258450  1.0  -0.1119
  N  N272  1  0.885720  0.059100  0.314710  1.0  -0.4517
  N  N273  1  0.525290  0.392000  0.888290  1.0  -0.4783
  N  N274  1  0.497700  0.357900  0.015310  1.0  -0.0565
  N  N275  1  0.530090  0.132000  0.376150  1.0  -0.0265
  N  N276  1  0.685880  0.108860  0.390850  1.0  -0.4396
  N  N277  1  0.441400  0.308200  0.795000  1.0  -0.3981
  N  N278  1  0.318300  0.250400  0.769100  1.0  -0.0581
  N  N279  1  0.025900  0.043500  0.741550  1.0  -0.1123
  N  N280  1  0.114280  0.940900  0.685290  1.0  -0.4498
  O  O281  1  0.720250  0.424600  0.774680  1.0  -0.5851
  O  O282  1  0.705000  0.585300  0.729100  1.0  -0.507
  O  O283  1  0.362210  0.770890  0.189560  1.0  -0.5819
  O  O284  1  0.361360  0.675710  0.310430  1.0  -0.5692
  O  O285  1  0.141100  0.724630  0.697020  1.0  -0.5754
  O  O286  1  0.025260  0.792440  0.633310  1.0  -0.5763
  O  O287  1  0.219850  0.809990  0.520250  1.0  -0.5753
  O  O288  1  0.180470  0.967750  0.495190  1.0  -0.5827
  O  O289  1  0.026050  0.379700  0.880590  1.0  -0.2749
  O  O290  1  0.228120  0.101680  0.195440  1.0  -0.2734
  O  O291  1  0.279750  0.575400  0.225320  1.0  -0.5878
  O  O292  1  0.295000  0.414700  0.270900  1.0  -0.5051
  O  O293  1  0.637790  0.229110  0.810440  1.0  -0.5834
  O  O294  1  0.638640  0.324290  0.689570  1.0  -0.5679
  O  O295  1  0.858900  0.275370  0.302980  1.0  -0.5757
  O  O296  1  0.974740  0.207560  0.366690  1.0  -0.5763
  O  O297  1  0.780150  0.190010  0.479750  1.0  -0.5741
  O  O298  1  0.819530  0.032250  0.504810  1.0  -0.5834
  O  O299  1  0.973950  0.620300  0.119410  1.0  -0.2719
  O  O300  1  0.771880  0.898320  0.804560  1.0  -0.2749
