# generated using pymatgen
data_VPH4C3O5
_symmetry_space_group_name_H-M   'P 1'
_cell_length_a   6.40410000
_cell_length_b   17.62520000
_cell_length_c   7.72710000
_cell_angle_alpha   90.00000000
_cell_angle_beta   95.58600000
_cell_angle_gamma   90.00000000
_symmetry_Int_Tables_number   1
_chemical_formula_structural   VPH4C3O5
_chemical_formula_sum   'V4 P4 H16 C12 O20'
_cell_volume   868.04333616
_cell_formula_units_Z   4
loop_
 _symmetry_equiv_pos_site_id
 _symmetry_equiv_pos_as_xyz
  1  'x, y, z'
loop_
 _atom_site_type_symbol
 _atom_site_label
 _atom_site_symmetry_multiplicity
 _atom_site_fract_x
 _atom_site_fract_y
 _atom_site_fract_z
 _atom_site_occupancy
 _atom_site_charge
  V  V1  1  0.488400  0.433300  0.682100  1.0  1.3933
  V  V2  1  0.016100  0.251100  0.818700  1.0  1.4195
  V  V3  1  0.511600  0.933300  0.317900  1.0  1.3979
  V  V4  1  0.983900  0.751100  0.181300  1.0  1.4171
  P  P5  1  0.006100  0.429900  0.755300  1.0  1.5736
  P  P6  1  0.503000  0.255100  0.743500  1.0  1.5978
  P  P7  1  0.993900  0.929900  0.244700  1.0  1.5752
  P  P8  1  0.497000  0.755100  0.256500  1.0  1.5963
  H  H9  1  0.892600  0.503700  0.973000  1.0  0.1517
  H  H10  1  0.137700  0.507800  0.978600  1.0  0.1462
  H  H11  1  0.368900  0.176200  0.522900  1.0  0.1486
  H  H12  1  0.613400  0.179400  0.527600  1.0  0.1575
  H  H13  1  0.642100  0.093200  0.765300  1.0  0.1356
  H  H14  1  0.397100  0.089300  0.757300  1.0  0.1452
  H  H15  1  0.865800  0.584200  0.728200  1.0  0.1234
  H  H16  1  0.111100  0.590600  0.743400  1.0  0.129
  H  H17  1  0.107400  0.003700  0.027000  1.0  0.1497
  H  H18  1  0.862300  0.007800  0.021400  1.0  0.1451
  H  H19  1  0.631100  0.676200  0.477100  1.0  0.1506
  H  H20  1  0.386600  0.679400  0.472400  1.0  0.1588
  H  H21  1  0.357900  0.593200  0.234700  1.0  0.1347
  H  H22  1  0.602900  0.589300  0.242700  1.0  0.1443
  H  H23  1  0.134200  0.084200  0.271800  1.0  0.123
  H  H24  1  0.888900  0.090600  0.256600  1.0  0.1305
  C  C25  1  0.008500  0.508800  0.901800  1.0  -0.3794
  C  C26  1  0.498100  0.174400  0.599500  1.0  -0.418
  C  C27  1  0.513900  0.095300  0.687500  1.0  -0.3249
  C  C28  1  0.991100  0.584100  0.809500  1.0  -0.3355
  C  C29  1  0.512900  0.031700  0.564800  1.0  0.7352
  C  C30  1  0.981400  0.651000  0.935900  1.0  0.7422
  C  C31  1  0.991500  0.008800  0.098200  1.0  -0.3764
  C  C32  1  0.501900  0.674400  0.400500  1.0  -0.4205
  C  C33  1  0.486100  0.595300  0.312500  1.0  -0.3273
  C  C34  1  0.008900  0.084100  0.190500  1.0  -0.336
  C  C35  1  0.487100  0.531700  0.435200  1.0  0.7364
  C  C36  1  0.018600  0.151000  0.064100  1.0  0.7426
  O  O37  1  0.047500  0.360400  0.874000  1.0  -0.7885
  O  O38  1  0.463800  0.324400  0.623700  1.0  -0.7848
  O  O39  1  0.795100  0.426400  0.648800  1.0  -0.8177
  O  O40  1  0.712200  0.258000  0.853600  1.0  -0.7936
  O  O41  1  0.171100  0.442600  0.631300  1.0  -0.7642
  O  O42  1  0.326200  0.247000  0.863500  1.0  -0.7822
  O  O43  1  0.975900  0.717500  0.878700  1.0  -0.6119
  O  O44  1  0.996600  0.640900  0.101700  1.0  -0.5829
  O  O45  1  0.531900  0.964400  0.617700  1.0  -0.631
  O  O46  1  0.503600  0.044200  0.404500  1.0  -0.5829
  O  O47  1  0.952500  0.860400  0.126000  1.0  -0.7888
  O  O48  1  0.536200  0.824400  0.376300  1.0  -0.7829
  O  O49  1  0.204900  0.926400  0.351200  1.0  -0.82
  O  O50  1  0.287800  0.758000  0.146400  1.0  -0.7935
  O  O51  1  0.828900  0.942600  0.368700  1.0  -0.765
  O  O52  1  0.673800  0.747000  0.136500  1.0  -0.7835
  O  O53  1  0.024100  0.217500  0.121300  1.0  -0.6104
  O  O54  1  0.003400  0.140900  0.898300  1.0  -0.5825
  O  O55  1  0.468100  0.464400  0.382300  1.0  -0.6341
  O  O56  1  0.496400  0.544200  0.595500  1.0  -0.5821
