# generated using pymatgen
data_V6Zn2H24C24N18O11
_symmetry_space_group_name_H-M   'P 1'
_cell_length_a   8.97110000
_cell_length_b   14.14390000
_cell_length_c   19.87820000
_cell_angle_alpha   82.15100000
_cell_angle_beta   82.39700000
_cell_angle_gamma   74.90100000
_symmetry_Int_Tables_number   1
_chemical_formula_structural   V6Zn2H24C24N18O11
_chemical_formula_sum   'V12 Zn4 H48 C48 N36 O22'
_cell_volume   2400.01109864
_cell_formula_units_Z   2
loop_
 _symmetry_equiv_pos_site_id
 _symmetry_equiv_pos_as_xyz
  1  'x, y, z'
loop_
 _atom_site_type_symbol
 _atom_site_label
 _atom_site_symmetry_multiplicity
 _atom_site_fract_x
 _atom_site_fract_y
 _atom_site_fract_z
 _atom_site_occupancy
 _atom_site_charge
  V  V1  1  0.991300  0.559900  0.582550  1.0  1.2438
  V  V2  1  0.779080  0.414810  0.692760  1.0  1.1864
  V  V3  1  0.972730  0.196680  0.747610  1.0  0.7263
  V  V4  1  0.832820  0.109770  0.900500  1.0  2.042
  V  V5  1  0.843900  0.071870  0.063920  1.0  1.1679
  V  V6  1  0.013100  0.515600  0.560890  1.0  1.2928
  V  V7  1  0.008700  0.440100  0.417450  1.0  1.2347
  V  V8  1  0.220920  0.585190  0.307240  1.0  1.1909
  V  V9  1  0.027270  0.803320  0.252390  1.0  0.7235
  V  V10  1  0.167180  0.890230  0.099500  1.0  2.0438
  V  V11  1  0.156100  0.928130  0.936080  1.0  1.1581
  V  V12  1  0.986900  0.484400  0.439110  1.0  1.3016
  Zn  Zn13  1  0.382890  0.481840  0.636630  1.0  0.8469
  Zn  Zn14  1  0.490460  0.026070  0.883110  1.0  0.8878
  Zn  Zn15  1  0.617110  0.518160  0.363370  1.0  0.8462
  Zn  Zn16  1  0.509540  0.973930  0.116890  1.0  0.8885
  H  H17  1  0.882700  0.533100  0.844400  1.0  0.0925
  H  H18  1  0.899800  0.637400  0.855300  1.0  0.076
  H  H19  1  0.418900  0.570400  0.770200  1.0  0.0421
  H  H20  1  0.063500  0.488800  0.734700  1.0  0.0881
  H  H21  1  0.931700  0.317000  0.925200  1.0  0.0751
  H  H22  1  0.966300  0.391900  0.863000  1.0  0.1099
  H  H23  1  0.493000  0.253600  0.841900  1.0  0.0681
  H  H24  1  0.138100  0.157800  0.921200  1.0  0.097
  H  H25  1  0.969800  0.291800  0.096000  1.0  0.0904
  H  H26  1  0.978100  0.265400  0.021400  1.0  0.0815
  H  H27  1  0.530700  0.188300  0.028200  1.0  0.0566
  H  H28  1  0.166000  0.102100  0.100900  1.0  0.0865
  H  H29  1  0.190500  0.164600  0.565300  1.0  0.0845
  H  H30  1  0.248100  0.092700  0.629200  1.0  0.1017
  H  H31  1  0.216200  0.336900  0.581700  1.0  0.091
  H  H32  1  0.595700  0.262700  0.669800  1.0  0.0705
  H  H33  1  0.286900  0.948600  0.645800  1.0  0.0858
  H  H34  1  0.422800  0.853300  0.640700  1.0  0.0726
  H  H35  1  0.303200  0.007300  0.760900  1.0  0.0812
  H  H36  1  0.744500  0.964700  0.754300  1.0  0.0725
  H  H37  1  0.730800  0.773700  0.525900  1.0  0.0784
  H  H38  1  0.661100  0.800700  0.599400  1.0  0.0746
  H  H39  1  0.624300  0.617000  0.620100  1.0  0.0818
  H  H40  1  0.274900  0.660600  0.518200  1.0  0.0583
  H  H41  1  0.117300  0.466900  0.155600  1.0  0.0935
  H  H42  1  0.100200  0.362600  0.144700  1.0  0.0771
  H  H43  1  0.581100  0.429600  0.229800  1.0  0.0433
  H  H44  1  0.936500  0.511200  0.265300  1.0  0.0877
  H  H45  1  0.068300  0.683000  0.074800  1.0  0.0753
  H  H46  1  0.033700  0.608100  0.137000  1.0  0.109
  H  H47  1  0.507000  0.746400  0.158100  1.0  0.0695
  H  H48  1  0.861900  0.842200  0.078800  1.0  0.0985
  H  H49  1  0.030200  0.708200  0.904000  1.0  0.0892
  H  H50  1  0.021900  0.734600  0.978600  1.0  0.0824
  H  H51  1  0.469300  0.811700  0.971800  1.0  0.0563
  H  H52  1  0.834000  0.897900  0.899100  1.0  0.0865
  H  H53  1  0.809500  0.835400  0.434700  1.0  0.0852
  H  H54  1  0.751900  0.907300  0.370800  1.0  0.1039
  H  H55  1  0.783800  0.663100  0.418300  1.0  0.0913
  H  H56  1  0.404300  0.737300  0.330200  1.0  0.0706
  H  H57  1  0.713100  0.051400  0.354200  1.0  0.0842
  H  H58  1  0.577200  0.146700  0.359300  1.0  0.073
  H  H59  1  0.696800  0.992700  0.239100  1.0  0.0808
  H  H60  1  0.255500  0.035300  0.245700  1.0  0.0717
  H  H61  1  0.269200  0.226300  0.474100  1.0  0.0788
  H  H62  1  0.338900  0.199300  0.400600  1.0  0.0752
  H  H63  1  0.375700  0.383000  0.379900  1.0  0.0816
  H  H64  1  0.725100  0.339400  0.481800  1.0  0.0582
  C  C65  1  0.979300  0.532100  0.931500  1.0  0.0083
  C  C66  1  0.999700  0.432600  0.954800  1.0  -0.0179
  C  C67  1  0.018200  0.401100  0.024000  1.0  -0.0386
  C  C68  1  0.393000  0.063200  0.542400  1.0  -0.0173
  C  C69  1  0.454100  0.965300  0.566500  1.0  -0.0324
  C  C70  1  0.559900  0.901600  0.524600  1.0  -0.0465
  C  C71  1  0.951200  0.567700  0.858800  1.0  -0.0942
  C  C72  1  0.320400  0.559000  0.775100  1.0  0.2547
  C  C73  1  0.130000  0.514900  0.754600  1.0  0.1174
  C  C74  1  0.002300  0.357300  0.905700  1.0  -0.108
  C  C75  1  0.392500  0.251300  0.859400  1.0  0.2582
  C  C76  1  0.202400  0.198700  0.902300  1.0  0.1373
  C  C77  1  0.027300  0.294200  0.051200  1.0  -0.1152
  C  C78  1  0.427200  0.188800  0.041600  1.0  0.2323
  C  C79  1  0.232700  0.141000  0.081200  1.0  0.1317
  C  C80  1  0.281500  0.130900  0.588400  1.0  -0.0991
  C  C81  1  0.305200  0.300900  0.601400  1.0  0.1293
  C  C82  1  0.510400  0.258400  0.649500  1.0  0.2558
  C  C83  1  0.398700  0.924600  0.637800  1.0  -0.0961
  C  C84  1  0.409200  0.989700  0.747700  1.0  0.119
  C  C85  1  0.646700  0.966800  0.742500  1.0  0.2624
  C  C86  1  0.635000  0.798600  0.553900  1.0  -0.0902
  C  C87  1  0.547000  0.645400  0.591400  1.0  0.1215
  C  C88  1  0.359700  0.670000  0.536300  1.0  0.2425
  C  C89  1  0.020700  0.467900  0.068500  1.0  0.0071
  C  C90  1  0.000300  0.567400  0.045200  1.0  -0.0191
  C  C91  1  0.981800  0.598900  0.976000  1.0  -0.0388
  C  C92  1  0.607000  0.936800  0.457600  1.0  -0.0177
  C  C93  1  0.545900  0.034700  0.433500  1.0  -0.0329
  C  C94  1  0.440100  0.098400  0.475400  1.0  -0.0462
  C  C95  1  0.048800  0.432300  0.141200  1.0  -0.0964
  C  C96  1  0.679600  0.441000  0.224900  1.0  0.2538
  C  C97  1  0.870000  0.485100  0.245400  1.0  0.1179
  C  C98  1  0.997700  0.642700  0.094300  1.0  -0.1065
  C  C99  1  0.607500  0.748700  0.140600  1.0  0.2588
  C  C100  1  0.797600  0.801300  0.097700  1.0  0.1365
  C  C101  1  0.972700  0.705800  0.948800  1.0  -0.115
  C  C102  1  0.572800  0.811200  0.958400  1.0  0.2337
  C  C103  1  0.767300  0.859000  0.918800  1.0  0.1304
  C  C104  1  0.718500  0.869100  0.411600  1.0  -0.0985
  C  C105  1  0.694800  0.699100  0.398600  1.0  0.1286
  C  C106  1  0.489600  0.741600  0.350500  1.0  0.2551
  C  C107  1  0.601300  0.075400  0.362200  1.0  -0.0954
  C  C108  1  0.590800  0.010300  0.252300  1.0  0.1217
  C  C109  1  0.353300  0.033200  0.257500  1.0  0.2617
  C  C110  1  0.365000  0.201400  0.446100  1.0  -0.0921
  C  C111  1  0.453000  0.354600  0.408600  1.0  0.1231
  C  C112  1  0.640300  0.330000  0.463700  1.0  0.242
  N  N113  1  0.439600  0.603500  0.580800  1.0  -0.4227
  N  N114  1  0.410300  0.749500  0.520200  1.0  -0.3976
  N  N115  1  0.097100  0.552300  0.812500  1.0  0.1082
  N  N116  1  0.222000  0.580500  0.827900  1.0  -0.3817
  N  N117  1  0.269700  0.519100  0.728300  1.0  -0.4086
  N  N118  1  0.157600  0.293900  0.892200  1.0  0.1576
  N  N119  1  0.277600  0.331300  0.863900  1.0  -0.4007
  N  N120  1  0.352900  0.167100  0.881800  1.0  -0.3996
  N  N121  1  0.187900  0.234800  0.056300  1.0  0.1208
  N  N122  1  0.312100  0.267200  0.029800  1.0  -0.407
  N  N123  1  0.383100  0.111400  0.074100  1.0  -0.3918
  N  N124  1  0.354800  0.203900  0.607500  1.0  0.1568
  N  N125  1  0.485400  0.174900  0.639900  1.0  -0.3891
  N  N126  1  0.401000  0.338500  0.627400  1.0  -0.402
  N  N127  1  0.471700  0.953600  0.690400  1.0  0.1517
  N  N128  1  0.628000  0.940500  0.686500  1.0  -0.3675
  N  N129  1  0.516300  0.997800  0.783900  1.0  -0.4148
  N  N130  1  0.532800  0.730000  0.557500  1.0  0.0776
  N  N131  1  0.560400  0.396500  0.419200  1.0  -0.4209
  N  N132  1  0.589700  0.250500  0.479800  1.0  -0.4009
  N  N133  1  0.902900  0.447700  0.187500  1.0  0.1076
  N  N134  1  0.778000  0.419500  0.172100  1.0  -0.3787
  N  N135  1  0.730300  0.480900  0.271700  1.0  -0.4089
  N  N136  1  0.842400  0.706100  0.107800  1.0  0.1583
  N  N137  1  0.722400  0.668700  0.136100  1.0  -0.4003
  N  N138  1  0.647100  0.832900  0.118200  1.0  -0.404
  N  N139  1  0.812100  0.765200  0.943700  1.0  0.1205
  N  N140  1  0.687900  0.732800  0.970200  1.0  -0.4068
  N  N141  1  0.616900  0.888600  0.925900  1.0  -0.3927
  N  N142  1  0.645200  0.796100  0.392500  1.0  0.1567
  N  N143  1  0.514600  0.825100  0.360100  1.0  -0.3858
  N  N144  1  0.599000  0.661500  0.372600  1.0  -0.4004
  N  N145  1  0.528300  0.046400  0.309600  1.0  0.1501
  N  N146  1  0.372000  0.059500  0.313500  1.0  -0.3664
  N  N147  1  0.483700  0.002200  0.216100  1.0  -0.4154
  N  N148  1  0.467200  0.270000  0.442500  1.0  0.078
  O  O149  1  0.176800  0.517900  0.587300  1.0  -0.9147
  O  O150  1  0.939100  0.595600  0.509100  1.0  -0.6462
  O  O151  1  0.894300  0.478900  0.632600  1.0  -0.9434
  O  O152  1  0.846800  0.284500  0.694400  1.0  -0.7382
  O  O153  1  0.890600  0.194100  0.836100  1.0  -0.8244
  O  O154  1  0.673700  0.080000  0.892400  1.0  -0.8468
  O  O155  1  0.984200  0.003400  0.901300  1.0  -0.8703
  O  O156  1  0.836200  0.147400  0.980600  1.0  -0.7892
  O  O157  1  0.704000  0.019700  0.079500  1.0  -0.8207
  O  O158  1  0.942900  0.666500  0.609100  1.0  -0.628
  O  O159  1  0.601200  0.444900  0.673400  1.0  -0.7954
  O  O160  1  0.823200  0.482100  0.412700  1.0  -0.9129
  O  O161  1  0.060900  0.404400  0.490900  1.0  -0.6449
  O  O162  1  0.105700  0.521100  0.367400  1.0  -0.9424
  O  O163  1  0.153200  0.715500  0.305600  1.0  -0.7378
  O  O164  1  0.109400  0.805900  0.163900  1.0  -0.825
  O  O165  1  0.326300  0.920000  0.107600  1.0  -0.8468
  O  O166  1  0.015800  0.996600  0.098700  1.0  -0.8684
  O  O167  1  0.163800  0.852600  0.019400  1.0  -0.7887
  O  O168  1  0.296000  0.980300  0.920500  1.0  -0.8206
  O  O169  1  0.057100  0.333500  0.390900  1.0  -0.6259
  O  O170  1  0.398800  0.555100  0.326600  1.0  -0.7962
