# generated using pymatgen
data_V10Zn5H48C48(N9O5)4
_symmetry_space_group_name_H-M   'P 1'
_cell_length_a   13.07370000
_cell_length_b   20.21920000
_cell_length_c   19.61960000
_cell_angle_alpha   90.00000000
_cell_angle_beta   115.52900000
_cell_angle_gamma   90.00000000
_symmetry_Int_Tables_number   1
_chemical_formula_structural   V10Zn5H48C48(N9O5)4
_chemical_formula_sum   'V20 Zn10 H96 C96 N72 O40'
_cell_volume   4679.89345019
_cell_formula_units_Z   2
loop_
 _symmetry_equiv_pos_site_id
 _symmetry_equiv_pos_as_xyz
  1  'x, y, z'
loop_
 _atom_site_type_symbol
 _atom_site_label
 _atom_site_symmetry_multiplicity
 _atom_site_fract_x
 _atom_site_fract_y
 _atom_site_fract_z
 _atom_site_occupancy
 _atom_site_charge
  V  V1  1  0.164550  0.552120  0.991490  1.0  1.1588
  V  V2  1  0.036560  0.414480  0.950750  1.0  1.1906
  V  V3  1  0.784780  0.529270  0.559390  1.0  2.1044
  V  V4  1  0.023410  0.612310  0.639930  1.0  1.1874
  V  V5  1  0.179420  0.587920  0.548750  1.0  0.7335
  V  V6  1  0.835450  0.052120  0.508510  1.0  1.1639
  V  V7  1  0.963440  0.914480  0.549250  1.0  1.1914
  V  V8  1  0.215220  0.029270  0.940610  1.0  2.104
  V  V9  1  0.976590  0.112310  0.860070  1.0  1.1854
  V  V10  1  0.820580  0.087920  0.951250  1.0  0.7341
  V  V11  1  0.835450  0.447880  0.008510  1.0  1.1637
  V  V12  1  0.963440  0.585520  0.049250  1.0  1.2017
  V  V13  1  0.215220  0.470730  0.440610  1.0  2.1043
  V  V14  1  0.976590  0.387690  0.360070  1.0  1.1755
  V  V15  1  0.820580  0.412080  0.451250  1.0  0.7196
  V  V16  1  0.164550  0.947880  0.491490  1.0  1.1591
  V  V17  1  0.036560  0.085520  0.450750  1.0  1.2005
  V  V18  1  0.784780  0.970730  0.059390  1.0  2.1045
  V  V19  1  0.023410  0.887690  0.139930  1.0  1.1768
  V  V20  1  0.179420  0.912080  0.048750  1.0  0.7186
  Zn  Zn21  1  0.144440  0.626580  0.825070  1.0  0.9902
  Zn  Zn22  1  0.897550  0.464950  0.751130  1.0  0.7836
  Zn  Zn23  1  0.855560  0.126580  0.674930  1.0  0.99
  Zn  Zn24  1  0.102450  0.964950  0.748870  1.0  0.7827
  Zn  Zn25  1  0.855560  0.373420  0.174930  1.0  0.9897
  Zn  Zn26  1  0.102450  0.535050  0.248870  1.0  0.7823
  Zn  Zn27  1  0.144440  0.873420  0.325070  1.0  0.99
  Zn  Zn28  1  0.897550  0.035050  0.251130  1.0  0.7834
  Zn  Zn29  1  0.500000  0.500000  0.500000  1.0  0.9759
  Zn  Zn30  1  0.500000  0.000000  0.000000  1.0  0.9759
  H  H31  1  0.906900  0.832800  0.919800  1.0  0.1074
  H  H32  1  0.892000  0.761700  0.946400  1.0  0.0954
  H  H33  1  0.006300  0.755400  0.734000  1.0  0.0648
  H  H34  1  0.035300  0.687100  0.927200  1.0  0.0975
  H  H35  1  0.809700  0.676800  0.916600  1.0  0.0808
  H  H36  1  0.689700  0.643400  0.882000  1.0  0.0868
  H  H37  1  0.816500  0.612100  0.682300  1.0  0.069
  H  H38  1  0.828400  0.542200  0.868800  1.0  0.0957
  H  H39  1  0.461300  0.671500  0.708900  1.0  0.0699
  H  H40  1  0.559800  0.634900  0.775600  1.0  0.071
  H  H41  1  0.393400  0.660200  0.939200  1.0  0.0751
  H  H42  1  0.280200  0.641800  0.722800  1.0  0.0874
  H  H43  1  0.385300  0.822900  0.658200  1.0  0.0819
  H  H44  1  0.368900  0.753900  0.688600  1.0  0.091
  H  H45  1  0.259100  0.847700  0.862400  1.0  0.0663
  H  H46  1  0.237900  0.898700  0.666667  1.0  0.0939
  H  H47  1  0.581700  0.944600  0.726100  1.0  0.0809
  H  H48  1  0.461900  0.911000  0.695400  1.0  0.0807
  H  H49  1  0.548300  0.901500  0.887900  1.0  0.0919
  H  H50  1  0.424600  0.077400  0.843100  1.0  0.0756
  H  H51  1  0.719500  0.952600  0.834800  1.0  0.0683
  H  H52  1  0.825700  0.914800  0.893600  1.0  0.0895
  H  H53  1  0.834000  0.943900  0.643600  1.0  0.0668
  H  H54  1  0.994500  0.930400  0.861000  1.0  0.0904
  H  H55  1  0.093100  0.332800  0.580200  1.0  0.1086
  H  H56  1  0.108000  0.261700  0.553600  1.0  0.0959
  H  H57  1  0.993700  0.255400  0.766000  1.0  0.0647
  H  H58  1  0.964700  0.187100  0.572800  1.0  0.0975
  H  H59  1  0.190300  0.176800  0.583400  1.0  0.0819
  H  H60  1  0.310300  0.143400  0.618000  1.0  0.0857
  H  H61  1  0.183500  0.112100  0.817700  1.0  0.0688
  H  H62  1  0.171600  0.042200  0.631200  1.0  0.0966
  H  H63  1  0.538700  0.171500  0.791100  1.0  0.0695
  H  H64  1  0.440200  0.134900  0.724400  1.0  0.0709
  H  H65  1  0.606600  0.160200  0.560800  1.0  0.075
  H  H66  1  0.719800  0.141800  0.777200  1.0  0.0875
  H  H67  1  0.614700  0.322900  0.841800  1.0  0.0825
  H  H68  1  0.631100  0.253900  0.811400  1.0  0.09
  H  H69  1  0.740900  0.347700  0.637600  1.0  0.0661
  H  H70  1  0.762100  0.398700  0.833300  1.0  0.0934
  H  H71  1  0.418300  0.444600  0.773900  1.0  0.082
  H  H72  1  0.538100  0.411000  0.804600  1.0  0.0794
  H  H73  1  0.451700  0.401500  0.612100  1.0  0.0926
  H  H74  1  0.575400  0.577400  0.656900  1.0  0.0755
  H  H75  1  0.280500  0.452600  0.665200  1.0  0.0676
  H  H76  1  0.174300  0.414800  0.606400  1.0  0.0895
  H  H77  1  0.166000  0.443900  0.856400  1.0  0.0664
  H  H78  1  0.005500  0.430400  0.639000  1.0  0.0904
  H  H79  1  0.093100  0.167200  0.080200  1.0  0.1081
  H  H80  1  0.108000  0.238300  0.053600  1.0  0.0963
  H  H81  1  0.993700  0.244600  0.266000  1.0  0.0648
  H  H82  1  0.964700  0.312900  0.072800  1.0  0.0973
  H  H83  1  0.190300  0.323200  0.083400  1.0  0.0819
  H  H84  1  0.310300  0.356600  0.118000  1.0  0.0862
  H  H85  1  0.183500  0.387900  0.317700  1.0  0.0688
  H  H86  1  0.171600  0.457800  0.131200  1.0  0.0965
  H  H87  1  0.538700  0.328500  0.291100  1.0  0.0692
  H  H88  1  0.440200  0.365100  0.224400  1.0  0.07
  H  H89  1  0.606600  0.339800  0.060800  1.0  0.0749
  H  H90  1  0.719800  0.358200  0.277200  1.0  0.0873
  H  H91  1  0.614700  0.177100  0.341800  1.0  0.0825
  H  H92  1  0.631100  0.246100  0.311400  1.0  0.0894
  H  H93  1  0.740900  0.152300  0.137600  1.0  0.0663
  H  H94  1  0.762100  0.101300  0.333333  1.0  0.0938
  H  H95  1  0.418300  0.055400  0.273900  1.0  0.0817
  H  H96  1  0.538100  0.089000  0.304600  1.0  0.08
  H  H97  1  0.451700  0.098500  0.112100  1.0  0.0933
  H  H98  1  0.575400  0.922600  0.156900  1.0  0.0761
  H  H99  1  0.280500  0.047400  0.165200  1.0  0.0685
  H  H100  1  0.174300  0.085200  0.106400  1.0  0.0892
  H  H101  1  0.166000  0.056100  0.356400  1.0  0.0663
  H  H102  1  0.005500  0.069600  0.139000  1.0  0.0902
  H  H103  1  0.906900  0.667200  0.419800  1.0  0.1078
  H  H104  1  0.892000  0.738300  0.446400  1.0  0.0953
  H  H105  1  0.006300  0.744600  0.234000  1.0  0.065
  H  H106  1  0.035300  0.812900  0.427200  1.0  0.0972
  H  H107  1  0.809700  0.823200  0.416600  1.0  0.0805
  H  H108  1  0.689700  0.856600  0.382000  1.0  0.0859
  H  H109  1  0.816500  0.887900  0.182300  1.0  0.0688
  H  H110  1  0.828400  0.957800  0.368800  1.0  0.0959
  H  H111  1  0.461300  0.828500  0.208900  1.0  0.0699
  H  H112  1  0.559800  0.865100  0.275600  1.0  0.0695
  H  H113  1  0.393400  0.839800  0.439200  1.0  0.0752
  H  H114  1  0.280200  0.858200  0.222800  1.0  0.0873
  H  H115  1  0.385300  0.677100  0.158200  1.0  0.0816
  H  H116  1  0.368900  0.746100  0.188600  1.0  0.0915
  H  H117  1  0.259100  0.652300  0.362400  1.0  0.0661
  H  H118  1  0.237900  0.601300  0.166700  1.0  0.094
  H  H119  1  0.581700  0.555400  0.226100  1.0  0.08
  H  H120  1  0.461900  0.589000  0.195400  1.0  0.0802
  H  H121  1  0.548300  0.598500  0.387900  1.0  0.0922
  H  H122  1  0.424600  0.422600  0.343100  1.0  0.0761
  H  H123  1  0.719500  0.547400  0.334800  1.0  0.0692
  H  H124  1  0.825700  0.585200  0.393600  1.0  0.0898
  H  H125  1  0.834000  0.556100  0.143600  1.0  0.0669
  H  H126  1  0.994500  0.569600  0.361000  1.0  0.0906
  C  C127  1  0.753800  0.791700  0.852200  1.0  -0.0238
  C  C128  1  0.689300  0.733900  0.834900  1.0  -0.0586
  C  C129  1  0.573900  0.735800  0.785300  1.0  -0.0919
  C  C130  1  0.522300  0.796100  0.755700  1.0  -0.0411
  C  C131  1  0.586600  0.853900  0.774000  1.0  -0.0785
  C  C132  1  0.703000  0.851600  0.822100  1.0  -0.0906
  C  C133  1  0.878900  0.788600  0.902400  1.0  -0.0832
  C  C134  1  0.996600  0.749800  0.777900  1.0  0.2702
  C  C135  1  0.013600  0.711700  0.883200  1.0  0.0941
  C  C136  1  0.742800  0.668600  0.869900  1.0  -0.0963
  C  C137  1  0.809700  0.608500  0.727400  1.0  0.2421
  C  C138  1  0.816600  0.569600  0.828000  1.0  0.1431
  C  C139  1  0.507600  0.671900  0.763000  1.0  -0.0801
  C  C140  1  0.390200  0.659000  0.890900  1.0  0.2695
  C  C141  1  0.327100  0.648900  0.773700  1.0  0.1041
  C  C142  1  0.396800  0.798500  0.703500  1.0  -0.0996
  C  C143  1  0.270400  0.848900  0.818700  1.0  0.2583
  C  C144  1  0.258100  0.877800  0.712900  1.0  0.1176
  C  C145  1  0.531300  0.919100  0.740500  1.0  -0.0995
  C  C146  1  0.519500  0.941400  0.863700  1.0  0.1512
  C  C147  1  0.452400  0.036300  0.838200  1.0  0.2474
  C  C148  1  0.770400  0.915800  0.841200  1.0  -0.0967
  C  C149  1  0.848900  0.939600  0.694200  1.0  0.2544
  C  C150  1  0.937700  0.932200  0.811900  1.0  0.1328
  C  C151  1  0.246200  0.291700  0.647800  1.0  -0.0229
  C  C152  1  0.310700  0.233900  0.665100  1.0  -0.0587
  C  C153  1  0.426100  0.235800  0.714700  1.0  -0.0911
  C  C154  1  0.477700  0.296100  0.744300  1.0  -0.0403
  C  C155  1  0.413400  0.353900  0.726000  1.0  -0.0782
  C  C156  1  0.297000  0.351600  0.677900  1.0  -0.0915
  C  C157  1  0.121100  0.288600  0.597600  1.0  -0.084
  C  C158  1  0.003400  0.249800  0.722100  1.0  0.2701
  C  C159  1  0.986400  0.211700  0.616800  1.0  0.0942
  C  C160  1  0.257200  0.168600  0.630100  1.0  -0.0926
  C  C161  1  0.190300  0.108500  0.772600  1.0  0.2431
  C  C162  1  0.183400  0.069600  0.672000  1.0  0.1425
  C  C163  1  0.492400  0.171900  0.737000  1.0  -0.0803
  C  C164  1  0.609800  0.159000  0.609100  1.0  0.2706
  C  C165  1  0.672900  0.148900  0.726300  1.0  0.1052
  C  C166  1  0.603200  0.298500  0.796500  1.0  -0.1004
  C  C167  1  0.729600  0.348900  0.681300  1.0  0.2578
  C  C168  1  0.741900  0.377800  0.787100  1.0  0.117
  C  C169  1  0.468700  0.419100  0.759500  1.0  -0.1009
  C  C170  1  0.480500  0.441400  0.636300  1.0  0.1526
  C  C171  1  0.547600  0.536300  0.661800  1.0  0.2453
  C  C172  1  0.229600  0.415800  0.658800  1.0  -0.0953
  C  C173  1  0.151100  0.439600  0.805800  1.0  0.2532
  C  C174  1  0.062300  0.432200  0.688100  1.0  0.1346
  C  C175  1  0.246200  0.208300  0.147800  1.0  -0.0229
  C  C176  1  0.310700  0.266100  0.165100  1.0  -0.0587
  C  C177  1  0.426100  0.264200  0.214700  1.0  -0.0916
  C  C178  1  0.477700  0.203900  0.244300  1.0  -0.0404
  C  C179  1  0.413400  0.146100  0.226000  1.0  -0.0783
  C  C180  1  0.297000  0.148400  0.177900  1.0  -0.0914
  C  C181  1  0.121100  0.211400  0.097600  1.0  -0.0838
  C  C182  1  0.003400  0.250200  0.222100  1.0  0.2708
  C  C183  1  0.986400  0.288300  0.116800  1.0  0.0946
  C  C184  1  0.257200  0.331400  0.130100  1.0  -0.0941
  C  C185  1  0.190300  0.391500  0.272600  1.0  0.2431
  C  C186  1  0.183400  0.430400  0.172000  1.0  0.1425
  C  C187  1  0.492400  0.328100  0.237000  1.0  -0.0804
  C  C188  1  0.609800  0.341000  0.109100  1.0  0.2706
  C  C189  1  0.672900  0.351100  0.226300  1.0  0.105
  C  C190  1  0.603200  0.201500  0.296500  1.0  -0.1008
  C  C191  1  0.729600  0.151100  0.181300  1.0  0.2577
  C  C192  1  0.741900  0.122200  0.287100  1.0  0.1185
  C  C193  1  0.468700  0.080900  0.259500  1.0  -0.1022
  C  C194  1  0.480500  0.058600  0.136300  1.0  0.1518
  C  C195  1  0.547600  0.963700  0.161800  1.0  0.2457
  C  C196  1  0.229600  0.084200  0.158800  1.0  -0.0957
  C  C197  1  0.151100  0.060400  0.305800  1.0  0.2525
  C  C198  1  0.062300  0.067800  0.188100  1.0  0.1348
  C  C199  1  0.753800  0.708300  0.352200  1.0  -0.0237
  C  C200  1  0.689300  0.766100  0.334900  1.0  -0.0587
  C  C201  1  0.573900  0.764200  0.285300  1.0  -0.0924
  C  C202  1  0.522300  0.703900  0.255700  1.0  -0.0412
  C  C203  1  0.586600  0.646100  0.274000  1.0  -0.0781
  C  C204  1  0.703000  0.648400  0.322100  1.0  -0.0907
  C  C205  1  0.878900  0.711400  0.402400  1.0  -0.0834
  C  C206  1  0.996600  0.750200  0.277900  1.0  0.2708
  C  C207  1  0.013600  0.788300  0.383200  1.0  0.0946
  C  C208  1  0.742800  0.831400  0.369900  1.0  -0.0954
  C  C209  1  0.809700  0.891500  0.227400  1.0  0.2422
  C  C210  1  0.816600  0.930400  0.328000  1.0  0.1433
  C  C211  1  0.507600  0.828100  0.263000  1.0  -0.0806
  C  C212  1  0.390200  0.841000  0.390900  1.0  0.269
  C  C213  1  0.327100  0.851100  0.273700  1.0  0.1041
  C  C214  1  0.396800  0.701500  0.203500  1.0  -0.1007
  C  C215  1  0.270400  0.651100  0.318700  1.0  0.258
  C  C216  1  0.258100  0.622200  0.212900  1.0  0.116
  C  C217  1  0.531300  0.580900  0.240500  1.0  -0.099
  C  C218  1  0.519500  0.558600  0.363700  1.0  0.1515
  C  C219  1  0.452400  0.463700  0.338200  1.0  0.2458
  C  C220  1  0.770400  0.584200  0.341200  1.0  -0.0977
  C  C221  1  0.848900  0.560400  0.194200  1.0  0.2541
  C  C222  1  0.937700  0.567800  0.311900  1.0  0.133
  N  N223  1  0.940800  0.760630  0.862600  1.0  0.1667
  N  N224  1  0.928400  0.786500  0.795400  1.0  -0.3915
  N  N225  1  0.051600  0.702800  0.830600  1.0  -0.4312
  N  N226  1  0.774400  0.630050  0.818700  1.0  0.1263
  N  N227  1  0.770300  0.656010  0.754200  1.0  -0.3976
  N  N228  1  0.839600  0.553740  0.770600  1.0  -0.4155
  N  N229  1  0.435300  0.664250  0.801600  1.0  0.1638
  N  N230  1  0.477700  0.670700  0.877000  1.0  -0.3699
  N  N231  1  0.295000  0.645100  0.828600  1.0  -0.4186
  N  N232  1  0.332300  0.829930  0.739600  1.0  0.1587
  N  N233  1  0.340100  0.809300  0.807100  1.0  -0.3882
  N  N234  1  0.216200  0.891780  0.761900  1.0  -0.4205
  N  N235  1  0.505500  0.956700  0.794600  1.0  0.1446
  N  N236  1  0.461100  0.018200  0.776600  1.0  -0.3947
  N  N237  1  0.486500  0.991140  0.893200  1.0  -0.4044
  N  N238  1  0.828900  0.925950  0.792900  1.0  0.1691
  N  N239  1  0.769800  0.931200  0.717100  1.0  -0.372
  N  N240  1  0.954300  0.941620  0.750900  1.0  -0.4078
  N  N241  1  0.059200  0.260630  0.637400  1.0  0.1683
  N  N242  1  0.071600  0.286500  0.704600  1.0  -0.3932
  N  N243  1  0.948400  0.202800  0.669400  1.0  -0.433
  N  N244  1  0.225600  0.130050  0.681300  1.0  0.1264
  N  N245  1  0.229700  0.156010  0.745800  1.0  -0.3974
  N  N246  1  0.160400  0.053740  0.729400  1.0  -0.4162
  N  N247  1  0.564700  0.164250  0.698400  1.0  0.163
  N  N248  1  0.522300  0.170700  0.623000  1.0  -0.3675
  N  N249  1  0.705000  0.145100  0.671400  1.0  -0.4205
  N  N250  1  0.667700  0.329930  0.760400  1.0  0.1595
  N  N251  1  0.659900  0.309300  0.692900  1.0  -0.3893
  N  N252  1  0.783800  0.391780  0.738100  1.0  -0.4192
  N  N253  1  0.494500  0.456700  0.705400  1.0  0.1441
  N  N254  1  0.538900  0.518200  0.723400  1.0  -0.3966
  N  N255  1  0.513500  0.491140  0.606800  1.0  -0.4053
  N  N256  1  0.171100  0.425950  0.707100  1.0  0.1692
  N  N257  1  0.230200  0.431200  0.782900  1.0  -0.3752
  N  N258  1  0.045700  0.441620  0.749100  1.0  -0.4078
  N  N259  1  0.059200  0.239370  0.137400  1.0  0.168
  N  N260  1  0.071600  0.213500  0.204600  1.0  -0.3921
  N  N261  1  0.948400  0.297200  0.169400  1.0  -0.433
  N  N262  1  0.225600  0.369950  0.181300  1.0  0.1257
  N  N263  1  0.229700  0.343990  0.245800  1.0  -0.3953
  N  N264  1  0.160400  0.446260  0.229400  1.0  -0.4183
  N  N265  1  0.564700  0.335750  0.198400  1.0  0.1631
  N  N266  1  0.522300  0.329300  0.123000  1.0  -0.3672
  N  N267  1  0.705000  0.354900  0.171400  1.0  -0.4203
  N  N268  1  0.667700  0.170070  0.260400  1.0  0.1589
  N  N269  1  0.659900  0.190700  0.192900  1.0  -0.387
  N  N270  1  0.783800  0.108220  0.238100  1.0  -0.4193
  N  N271  1  0.494500  0.043300  0.205400  1.0  0.1444
  N  N272  1  0.538900  0.981800  0.223400  1.0  -0.396
  N  N273  1  0.513500  0.008860  0.106800  1.0  -0.4058
  N  N274  1  0.171100  0.074050  0.207100  1.0  0.1692
  N  N275  1  0.230200  0.068800  0.282900  1.0  -0.3752
  N  N276  1  0.045700  0.058380  0.249100  1.0  -0.4081
  N  N277  1  0.940800  0.739370  0.362600  1.0  0.167
  N  N278  1  0.928400  0.713500  0.295400  1.0  -0.3919
  N  N279  1  0.051600  0.797200  0.330600  1.0  -0.4317
  N  N280  1  0.774400  0.869950  0.318700  1.0  0.126
  N  N281  1  0.770300  0.843990  0.254200  1.0  -0.3973
  N  N282  1  0.839600  0.946260  0.270600  1.0  -0.4161
  N  N283  1  0.435300  0.835750  0.301600  1.0  0.163
  N  N284  1  0.477700  0.829300  0.377000  1.0  -0.3701
  N  N285  1  0.295000  0.854900  0.328600  1.0  -0.4188
  N  N286  1  0.332300  0.670070  0.239600  1.0  0.1586
  N  N287  1  0.340100  0.690700  0.307100  1.0  -0.3883
  N  N288  1  0.216200  0.608220  0.261900  1.0  -0.4206
  N  N289  1  0.505500  0.543300  0.294600  1.0  0.1446
  N  N290  1  0.461100  0.481800  0.276600  1.0  -0.3956
  N  N291  1  0.486500  0.508860  0.393200  1.0  -0.4035
  N  N292  1  0.828900  0.574050  0.292900  1.0  0.1685
  N  N293  1  0.769800  0.568800  0.217100  1.0  -0.3717
  N  N294  1  0.954300  0.558380  0.250900  1.0  -0.4085
  O  O295  1  0.166900  0.573310  0.911000  1.0  -0.8257
  O  O296  1  0.041900  0.587750  0.994300  1.0  -0.9014
  O  O297  1  0.159800  0.464200  0.000600  1.0  -0.7583
  O  O298  1  0.963000  0.448500  0.868730  1.0  -0.7769
  O  O299  1  0.831400  0.482200  0.634370  1.0  -0.798
  O  O300  1  0.656100  0.552970  0.540600  1.0  -0.7939
  O  O301  1  0.875300  0.600670  0.579800  1.0  -0.7681
  O  O302  1  0.054100  0.587980  0.727800  1.0  -0.776
  O  O303  1  0.110400  0.568200  0.608500  1.0  -0.771
  O  O304  1  0.218400  0.511700  0.519900  1.0  -0.8977
  O  O305  1  0.833100  0.073310  0.589000  1.0  -0.8258
  O  O306  1  0.958100  0.087750  0.505700  1.0  -0.9026
  O  O307  1  0.840200  0.964200  0.499400  1.0  -0.7583
  O  O308  1  0.037000  0.948500  0.631270  1.0  -0.7765
  O  O309  1  0.168600  0.982200  0.865630  1.0  -0.8022
  O  O310  1  0.343900  0.052970  0.959400  1.0  -0.7943
  O  O311  1  0.124700  0.100670  0.920200  1.0  -0.7662
  O  O312  1  0.945900  0.087980  0.772200  1.0  -0.7754
  O  O313  1  0.889600  0.068200  0.891500  1.0  -0.7706
  O  O314  1  0.781600  0.011700  0.980100  1.0  -0.8976
  O  O315  1  0.833100  0.426690  0.089000  1.0  -0.8254
  O  O316  1  0.958100  0.412250  0.005700  1.0  -0.9031
  O  O317  1  0.840200  0.535800  0.999400  1.0  -0.7575
  O  O318  1  0.037000  0.551500  0.131270  1.0  -0.7771
  O  O319  1  0.168600  0.517800  0.365630  1.0  -0.8013
  O  O320  1  0.343900  0.447030  0.459400  1.0  -0.7936
  O  O321  1  0.124700  0.399330  0.420200  1.0  -0.7677
  O  O322  1  0.945900  0.412020  0.272200  1.0  -0.7748
  O  O323  1  0.889600  0.431800  0.391500  1.0  -0.7695
  O  O324  1  0.781600  0.488300  0.480100  1.0  -0.8965
  O  O325  1  0.166900  0.926690  0.411000  1.0  -0.8255
  O  O326  1  0.041900  0.912250  0.494300  1.0  -0.9016
  O  O327  1  0.159800  0.035800  0.500600  1.0  -0.7578
  O  O328  1  0.963000  0.051500  0.368730  1.0  -0.7769
  O  O329  1  0.831400  0.017800  0.134370  1.0  -0.7993
  O  O330  1  0.656100  0.947030  0.040600  1.0  -0.792
  O  O331  1  0.875300  0.899330  0.079800  1.0  -0.7692
  O  O332  1  0.054100  0.912020  0.227800  1.0  -0.7756
  O  O333  1  0.110400  0.931800  0.108500  1.0  -0.77
  O  O334  1  0.218400  0.988300  0.019900  1.0  -0.8968
