# generated using pymatgen
data_AgH8(C4N3)2
_symmetry_space_group_name_H-M   'P 1'
_cell_length_a   10.51970000
_cell_length_b   10.51970000
_cell_length_c   66.08400000
_cell_angle_alpha   90.00000000
_cell_angle_beta   90.00000000
_cell_angle_gamma   120.00000000
_symmetry_Int_Tables_number   1
_chemical_formula_structural   AgH8(C4N3)2
_chemical_formula_sum   'Ag18 H144 C144 N108'
_cell_volume   6333.35254836
_cell_formula_units_Z   18
loop_
 _symmetry_equiv_pos_site_id
 _symmetry_equiv_pos_as_xyz
  1  'x, y, z'
loop_
 _atom_site_type_symbol
 _atom_site_label
 _atom_site_symmetry_multiplicity
 _atom_site_fract_x
 _atom_site_fract_y
 _atom_site_fract_z
 _atom_site_occupancy
 _atom_site_charge
  Ag  Ag1  1  0.594140  0.666667  0.416670  1.0  0.216
  Ag  Ag2  1  0.260810  0.000000  0.750000  1.0  0.2058
  Ag  Ag3  1  0.333333  0.927480  0.416670  1.0  0.2151
  Ag  Ag4  1  0.000000  0.260810  0.750000  1.0  0.2061
  Ag  Ag5  1  0.072520  0.405860  0.416670  1.0  0.2005
  Ag  Ag6  1  0.739190  0.739190  0.750000  1.0  0.2329
  Ag  Ag7  1  0.666667  0.594140  0.083330  1.0  0.2154
  Ag  Ag8  1  0.927480  0.333333  0.083330  1.0  0.2153
  Ag  Ag9  1  0.405860  0.072520  0.083330  1.0  0.2005
  Ag  Ag10  1  0.405860  0.333333  0.583330  1.0  0.216
  Ag  Ag11  1  0.666667  0.072520  0.583330  1.0  0.2146
  Ag  Ag12  1  0.927480  0.594140  0.583330  1.0  0.199
  Ag  Ag13  1  0.333333  0.405860  0.916670  1.0  0.2158
  Ag  Ag14  1  0.000000  0.739190  0.250000  1.0  0.206
  Ag  Ag15  1  0.072520  0.666667  0.916670  1.0  0.2157
  Ag  Ag16  1  0.739190  0.000000  0.250000  1.0  0.2065
  Ag  Ag17  1  0.594140  0.927480  0.916670  1.0  0.199
  Ag  Ag18  1  0.260810  0.260810  0.250000  1.0  0.2312
  H  H19  1  0.695600  0.678900  0.508600  1.0  0.0807
  H  H20  1  0.640600  0.792600  0.508500  1.0  0.0789
  H  H21  1  0.381200  0.505200  0.454900  1.0  0.057
  H  H22  1  0.778700  0.816100  0.460100  1.0  0.0786
  H  H23  1  0.362270  0.012230  0.841930  1.0  0.0807
  H  H24  1  0.307270  0.125930  0.841830  1.0  0.0789
  H  H25  1  0.047870  0.838530  0.788230  1.0  0.057
  H  H26  1  0.445370  0.149430  0.793430  1.0  0.0786
  H  H27  1  0.028930  0.345570  0.175270  1.0  0.0807
  H  H28  1  0.973930  0.459270  0.175170  1.0  0.0789
  H  H29  1  0.714530  0.171870  0.121570  1.0  0.063
  H  H30  1  0.112030  0.482770  0.126770  1.0  0.0835
  H  H31  1  0.321100  0.016700  0.508600  1.0  0.0797
  H  H32  1  0.207400  0.848000  0.508500  1.0  0.0795
  H  H33  1  0.494800  0.876000  0.454900  1.0  0.0575
  H  H34  1  0.183900  0.962600  0.460100  1.0  0.0785
  H  H35  1  0.987770  0.350030  0.841930  1.0  0.0797
  H  H36  1  0.874070  0.181330  0.841830  1.0  0.0795
  H  H37  1  0.161470  0.209330  0.788230  1.0  0.0575
  H  H38  1  0.850570  0.295930  0.793430  1.0  0.0785
  H  H39  1  0.654430  0.683370  0.175270  1.0  0.0797
  H  H40  1  0.540730  0.514670  0.175170  1.0  0.0795
  H  H41  1  0.828130  0.542670  0.121570  1.0  0.0566
  H  H42  1  0.517230  0.629270  0.126770  1.0  0.08
  H  H43  1  0.983300  0.304400  0.508600  1.0  0.0784
  H  H44  1  0.152000  0.359400  0.508500  1.0  0.078
  H  H45  1  0.124000  0.618800  0.454900  1.0  0.0636
  H  H46  1  0.037400  0.221300  0.460100  1.0  0.0846
  H  H47  1  0.649970  0.637730  0.841930  1.0  0.0784
  H  H48  1  0.818670  0.692730  0.841830  1.0  0.078
  H  H49  1  0.790670  0.952130  0.788230  1.0  0.0636
  H  H50  1  0.704070  0.554630  0.793430  1.0  0.0843
  H  H51  1  0.316630  0.971070  0.175270  1.0  0.0784
  H  H52  1  0.485330  0.026070  0.175170  1.0  0.078
  H  H53  1  0.457330  0.285470  0.121570  1.0  0.0576
  H  H54  1  0.370730  0.887970  0.126770  1.0  0.0805
  H  H55  1  0.678900  0.695600  0.991400  1.0  0.0785
  H  H56  1  0.792600  0.640600  0.991500  1.0  0.0784
  H  H57  1  0.505200  0.381200  0.045100  1.0  0.0593
  H  H58  1  0.816100  0.778700  0.039900  1.0  0.079
  H  H59  1  0.345570  0.028930  0.324730  1.0  0.0785
  H  H60  1  0.459270  0.973930  0.324830  1.0  0.0784
  H  H61  1  0.171870  0.714530  0.378430  1.0  0.0657
  H  H62  1  0.482770  0.112030  0.373230  1.0  0.0843
  H  H63  1  0.012230  0.362270  0.658070  1.0  0.0785
  H  H64  1  0.125930  0.307270  0.658170  1.0  0.0784
  H  H65  1  0.838530  0.047870  0.711770  1.0  0.0593
  H  H66  1  0.149430  0.445370  0.706570  1.0  0.079
  H  H67  1  0.016700  0.321100  0.991400  1.0  0.0811
  H  H68  1  0.848000  0.207400  0.991500  1.0  0.0787
  H  H69  1  0.876000  0.494800  0.045100  1.0  0.0579
  H  H70  1  0.962600  0.183900  0.039900  1.0  0.0788
  H  H71  1  0.683370  0.654430  0.324730  1.0  0.0811
  H  H72  1  0.514670  0.540730  0.324830  1.0  0.0787
  H  H73  1  0.542670  0.828130  0.378430  1.0  0.0575
  H  H74  1  0.629270  0.517230  0.373230  1.0  0.0801
  H  H75  1  0.350030  0.987770  0.658070  1.0  0.0811
  H  H76  1  0.181330  0.874070  0.658170  1.0  0.0787
  H  H77  1  0.209330  0.161470  0.711770  1.0  0.0579
  H  H78  1  0.295930  0.850570  0.706570  1.0  0.0788
  H  H79  1  0.304400  0.983300  0.991400  1.0  0.0797
  H  H80  1  0.359400  0.152000  0.991500  1.0  0.08
  H  H81  1  0.618800  0.124000  0.045100  1.0  0.0645
  H  H82  1  0.221300  0.037400  0.039900  1.0  0.0822
  H  H83  1  0.971070  0.316630  0.324730  1.0  0.0797
  H  H84  1  0.026070  0.485330  0.324830  1.0  0.08
  H  H85  1  0.285470  0.457330  0.378430  1.0  0.0587
  H  H86  1  0.887970  0.370730  0.373230  1.0  0.0774
  H  H87  1  0.637730  0.649970  0.658070  1.0  0.0797
  H  H88  1  0.692730  0.818670  0.658170  1.0  0.08
  H  H89  1  0.952130  0.790670  0.711770  1.0  0.0645
  H  H90  1  0.554630  0.704070  0.706570  1.0  0.082
  H  H91  1  0.304400  0.321100  0.491400  1.0  0.0811
  H  H92  1  0.359400  0.207400  0.491500  1.0  0.079
  H  H93  1  0.618800  0.494800  0.545100  1.0  0.0581
  H  H94  1  0.221300  0.183900  0.539900  1.0  0.0782
  H  H95  1  0.971070  0.654430  0.824730  1.0  0.0811
  H  H96  1  0.026070  0.540730  0.824830  1.0  0.079
  H  H97  1  0.285470  0.828130  0.878430  1.0  0.0647
  H  H98  1  0.887970  0.517230  0.873230  1.0  0.0831
  H  H99  1  0.637730  0.987770  0.158070  1.0  0.0811
  H  H100  1  0.692730  0.874070  0.158170  1.0  0.079
  H  H101  1  0.952130  0.161470  0.211770  1.0  0.058
  H  H102  1  0.554630  0.850570  0.206570  1.0  0.0782
  H  H103  1  0.678900  0.983300  0.491400  1.0  0.0799
  H  H104  1  0.792600  0.152000  0.491500  1.0  0.0799
  H  H105  1  0.505200  0.124000  0.545100  1.0  0.0582
  H  H106  1  0.816100  0.037400  0.539900  1.0  0.078
  H  H107  1  0.345570  0.316630  0.824730  1.0  0.0799
  H  H108  1  0.459270  0.485330  0.824830  1.0  0.0799
  H  H109  1  0.171870  0.457330  0.878430  1.0  0.0576
  H  H110  1  0.482770  0.370730  0.873230  1.0  0.0803
  H  H111  1  0.012230  0.649970  0.158070  1.0  0.0799
  H  H112  1  0.125930  0.818670  0.158170  1.0  0.0799
  H  H113  1  0.838530  0.790670  0.211770  1.0  0.0582
  H  H114  1  0.149430  0.704070  0.206570  1.0  0.078
  H  H115  1  0.016700  0.695600  0.491400  1.0  0.0785
  H  H116  1  0.848000  0.640600  0.491500  1.0  0.0788
  H  H117  1  0.876000  0.381200  0.545100  1.0  0.065
  H  H118  1  0.962600  0.778700  0.539900  1.0  0.084
  H  H119  1  0.683370  0.028930  0.824730  1.0  0.0785
  H  H120  1  0.514670  0.973930  0.824830  1.0  0.0788
  H  H121  1  0.542670  0.714530  0.878430  1.0  0.0591
  H  H122  1  0.629270  0.112030  0.873230  1.0  0.0796
  H  H123  1  0.350030  0.362270  0.158070  1.0  0.0785
  H  H124  1  0.181330  0.307270  0.158170  1.0  0.0788
  H  H125  1  0.209330  0.047870  0.211770  1.0  0.065
  H  H126  1  0.295930  0.445370  0.206570  1.0  0.0838
  H  H127  1  0.321100  0.304400  0.008600  1.0  0.0786
  H  H128  1  0.207400  0.359400  0.008500  1.0  0.0778
  H  H129  1  0.494800  0.618800  0.954900  1.0  0.0578
  H  H130  1  0.183900  0.221300  0.960100  1.0  0.0793
  H  H131  1  0.987770  0.637730  0.341930  1.0  0.0786
  H  H132  1  0.874070  0.692730  0.341830  1.0  0.0778
  H  H133  1  0.161470  0.952130  0.288230  1.0  0.0578
  H  H134  1  0.850570  0.554630  0.293430  1.0  0.0793
  H  H135  1  0.654430  0.971070  0.675270  1.0  0.0786
  H  H136  1  0.540730  0.026070  0.675170  1.0  0.0778
  H  H137  1  0.828130  0.285470  0.621570  1.0  0.0645
  H  H138  1  0.517230  0.887970  0.626770  1.0  0.0839
  H  H139  1  0.983300  0.678900  0.008600  1.0  0.0803
  H  H140  1  0.152000  0.792600  0.008500  1.0  0.0786
  H  H141  1  0.124000  0.505200  0.954900  1.0  0.0578
  H  H142  1  0.037400  0.816100  0.960100  1.0  0.0796
  H  H143  1  0.649970  0.012230  0.341930  1.0  0.0803
  H  H144  1  0.818670  0.125930  0.341830  1.0  0.0786
  H  H145  1  0.790670  0.838530  0.288230  1.0  0.0578
  H  H146  1  0.704070  0.149430  0.293430  1.0  0.0796
  H  H147  1  0.316630  0.345570  0.675270  1.0  0.0803
  H  H148  1  0.485330  0.459270  0.675170  1.0  0.0786
  H  H149  1  0.457330  0.171870  0.621570  1.0  0.0571
  H  H150  1  0.370730  0.482770  0.626770  1.0  0.0794
  H  H151  1  0.695600  0.016700  0.008600  1.0  0.0803
  H  H152  1  0.640600  0.848000  0.008500  1.0  0.0797
  H  H153  1  0.381200  0.876000  0.954900  1.0  0.0633
  H  H154  1  0.778700  0.962600  0.960100  1.0  0.0837
  H  H155  1  0.362270  0.350030  0.341930  1.0  0.0803
  H  H156  1  0.307270  0.181330  0.341830  1.0  0.0797
  H  H157  1  0.047870  0.209330  0.288230  1.0  0.0633
  H  H158  1  0.445370  0.295930  0.293430  1.0  0.0834
  H  H159  1  0.028930  0.683370  0.675270  1.0  0.0803
  H  H160  1  0.973930  0.514670  0.675170  1.0  0.0797
  H  H161  1  0.714530  0.542670  0.621570  1.0  0.0574
  H  H162  1  0.112030  0.629270  0.626770  1.0  0.0793
  C  C163  1  0.855000  0.883500  0.500110  1.0  -0.0535
  C  C164  1  0.698600  0.759600  0.501130  1.0  -0.0873
  C  C165  1  0.469900  0.575500  0.460470  1.0  0.2515
  C  C166  1  0.684000  0.741100  0.462990  1.0  0.1677
  C  C167  1  0.521670  0.216830  0.833440  1.0  -0.0535
  C  C168  1  0.365270  0.092930  0.834460  1.0  -0.0873
  C  C169  1  0.136570  0.908830  0.793800  1.0  0.2515
  C  C170  1  0.350670  0.074430  0.796320  1.0  0.1677
  C  C171  1  0.188330  0.550170  0.166780  1.0  -0.0535
  C  C172  1  0.031930  0.426270  0.167800  1.0  -0.0873
  C  C173  1  0.803230  0.242170  0.127140  1.0  0.2516
  C  C174  1  0.017330  0.407770  0.129660  1.0  0.1677
  C  C175  1  0.116500  0.971500  0.500110  1.0  -0.0528
  C  C176  1  0.240400  0.939000  0.501130  1.0  -0.0861
  C  C177  1  0.424500  0.894400  0.460470  1.0  0.2551
  C  C178  1  0.258900  0.942900  0.462990  1.0  0.1685
  C  C179  1  0.783170  0.304830  0.833440  1.0  -0.0528
  C  C180  1  0.907070  0.272330  0.834460  1.0  -0.0861
  C  C181  1  0.091170  0.227730  0.793800  1.0  0.2551
  C  C182  1  0.925570  0.276230  0.796320  1.0  0.1685
  C  C183  1  0.449830  0.638170  0.166780  1.0  -0.0528
  C  C184  1  0.573730  0.605670  0.167800  1.0  -0.0861
  C  C185  1  0.757830  0.561070  0.127140  1.0  0.2552
  C  C186  1  0.592230  0.609570  0.129660  1.0  0.1685
  C  C187  1  0.028500  0.145000  0.500110  1.0  -0.054
  C  C188  1  0.061000  0.301400  0.501130  1.0  -0.0863
  C  C189  1  0.105600  0.530100  0.460470  1.0  0.2552
  C  C190  1  0.057100  0.316000  0.462990  1.0  0.1666
  C  C191  1  0.695170  0.478330  0.833440  1.0  -0.054
  C  C192  1  0.727670  0.634730  0.834460  1.0  -0.0863
  C  C193  1  0.772270  0.863430  0.793800  1.0  0.2552
  C  C194  1  0.723770  0.649330  0.796320  1.0  0.1666
  C  C195  1  0.361830  0.811670  0.166780  1.0  -0.054
  C  C196  1  0.394330  0.968070  0.167800  1.0  -0.0863
  C  C197  1  0.438930  0.196770  0.127140  1.0  0.2553
  C  C198  1  0.390430  0.982670  0.129660  1.0  0.1666
  C  C199  1  0.883500  0.855000  0.999890  1.0  -0.0532
  C  C200  1  0.759600  0.698600  0.998870  1.0  -0.0863
  C  C201  1  0.575500  0.469900  0.039530  1.0  0.2563
  C  C202  1  0.741100  0.684000  0.037010  1.0  0.1704
  C  C203  1  0.550170  0.188330  0.333220  1.0  -0.0532
  C  C204  1  0.426270  0.031930  0.332200  1.0  -0.0863
  C  C205  1  0.242170  0.803230  0.372860  1.0  0.2564
  C  C206  1  0.407770  0.017330  0.370340  1.0  0.1704
  C  C207  1  0.216830  0.521670  0.666560  1.0  -0.0532
  C  C208  1  0.092930  0.365270  0.665540  1.0  -0.0863
  C  C209  1  0.908830  0.136570  0.706200  1.0  0.2563
  C  C210  1  0.074430  0.350670  0.703680  1.0  0.1704
  C  C211  1  0.971500  0.116500  0.999890  1.0  -0.0544
  C  C212  1  0.939000  0.240400  0.998870  1.0  -0.0871
  C  C213  1  0.894400  0.424500  0.039530  1.0  0.2535
  C  C214  1  0.942900  0.258900  0.037010  1.0  0.171
  C  C215  1  0.638170  0.449830  0.333220  1.0  -0.0544
  C  C216  1  0.605670  0.573730  0.332200  1.0  -0.0871
  C  C217  1  0.561070  0.757830  0.372860  1.0  0.2536
  C  C218  1  0.609570  0.592230  0.370340  1.0  0.171
  C  C219  1  0.304830  0.783170  0.666560  1.0  -0.0544
  C  C220  1  0.272330  0.907070  0.665540  1.0  -0.0871
  C  C221  1  0.227730  0.091170  0.706200  1.0  0.2535
  C  C222  1  0.276230  0.925570  0.703680  1.0  0.171
  C  C223  1  0.145000  0.028500  0.999890  1.0  -0.0529
  C  C224  1  0.301400  0.061000  0.998870  1.0  -0.0863
  C  C225  1  0.530100  0.105600  0.039530  1.0  0.2557
  C  C226  1  0.316000  0.057100  0.037010  1.0  0.1704
  C  C227  1  0.811670  0.361830  0.333220  1.0  -0.0529
  C  C228  1  0.968070  0.394330  0.332200  1.0  -0.0863
  C  C229  1  0.196770  0.438930  0.372860  1.0  0.2558
  C  C230  1  0.982670  0.390430  0.370340  1.0  0.1704
  C  C231  1  0.478330  0.695170  0.666560  1.0  -0.0529
  C  C232  1  0.634730  0.727670  0.665540  1.0  -0.0863
  C  C233  1  0.863430  0.772270  0.706200  1.0  0.2557
  C  C234  1  0.649330  0.723770  0.703680  1.0  0.1704
  C  C235  1  0.145000  0.116500  0.499890  1.0  -0.0538
  C  C236  1  0.301400  0.240400  0.498870  1.0  -0.0877
  C  C237  1  0.530100  0.424500  0.539530  1.0  0.2545
  C  C238  1  0.316000  0.258900  0.537010  1.0  0.1695
  C  C239  1  0.811670  0.449830  0.833220  1.0  -0.0538
  C  C240  1  0.968070  0.573730  0.832200  1.0  -0.0877
  C  C241  1  0.196770  0.757830  0.872860  1.0  0.2546
  C  C242  1  0.982670  0.592230  0.870340  1.0  0.1695
  C  C243  1  0.478330  0.783170  0.166560  1.0  -0.0538
  C  C244  1  0.634730  0.907070  0.165540  1.0  -0.0877
  C  C245  1  0.863430  0.091170  0.206200  1.0  0.2545
  C  C246  1  0.649330  0.925570  0.203680  1.0  0.1695
  C  C247  1  0.883500  0.028500  0.499890  1.0  -0.0525
  C  C248  1  0.759600  0.061000  0.498870  1.0  -0.0862
  C  C249  1  0.575500  0.105600  0.539530  1.0  0.2556
  C  C250  1  0.741100  0.057100  0.537010  1.0  0.1714
  C  C251  1  0.550170  0.361830  0.833220  1.0  -0.0525
  C  C252  1  0.426270  0.394330  0.832200  1.0  -0.0862
  C  C253  1  0.242170  0.438930  0.872860  1.0  0.2557
  C  C254  1  0.407770  0.390430  0.870340  1.0  0.1714
  C  C255  1  0.216830  0.695170  0.166560  1.0  -0.0525
  C  C256  1  0.092930  0.727670  0.165540  1.0  -0.0862
  C  C257  1  0.908830  0.772270  0.206200  1.0  0.2556
  C  C258  1  0.074430  0.723770  0.203680  1.0  0.1714
  C  C259  1  0.971500  0.855000  0.499890  1.0  -0.0533
  C  C260  1  0.939000  0.698600  0.498870  1.0  -0.0863
  C  C261  1  0.894400  0.469900  0.539530  1.0  0.2564
  C  C262  1  0.942900  0.684000  0.537010  1.0  0.1701
  C  C263  1  0.638170  0.188330  0.833220  1.0  -0.0533
  C  C264  1  0.605670  0.031930  0.832200  1.0  -0.0863
  C  C265  1  0.561070  0.803230  0.872860  1.0  0.2565
  C  C266  1  0.609570  0.017330  0.870340  1.0  0.1701
  C  C267  1  0.304830  0.521670  0.166560  1.0  -0.0533
  C  C268  1  0.272330  0.365270  0.165540  1.0  -0.0863
  C  C269  1  0.227730  0.136570  0.206200  1.0  0.2564
  C  C270  1  0.276230  0.350670  0.203680  1.0  0.1701
  C  C271  1  0.116500  0.145000  0.000110  1.0  -0.0541
  C  C272  1  0.240400  0.301400  0.001130  1.0  -0.0853
  C  C273  1  0.424500  0.530100  0.960470  1.0  0.2551
  C  C274  1  0.258900  0.316000  0.962990  1.0  0.1667
  C  C275  1  0.783170  0.478330  0.333440  1.0  -0.0541
  C  C276  1  0.907070  0.634730  0.334460  1.0  -0.0853
  C  C277  1  0.091170  0.863430  0.293800  1.0  0.2551
  C  C278  1  0.925570  0.649330  0.296320  1.0  0.1667
  C  C279  1  0.449830  0.811670  0.666780  1.0  -0.0541
  C  C280  1  0.573730  0.968070  0.667800  1.0  -0.0853
  C  C281  1  0.757830  0.196770  0.627140  1.0  0.2552
  C  C282  1  0.592230  0.982670  0.629660  1.0  0.1667
  C  C283  1  0.028500  0.883500  0.000110  1.0  -0.0531
  C  C284  1  0.061000  0.759600  0.001130  1.0  -0.0868
  C  C285  1  0.105600  0.575500  0.960470  1.0  0.2519
  C  C286  1  0.057100  0.741100  0.962990  1.0  0.168
  C  C287  1  0.695170  0.216830  0.333440  1.0  -0.0531
  C  C288  1  0.727670  0.092930  0.334460  1.0  -0.0868
  C  C289  1  0.772270  0.908830  0.293800  1.0  0.2519
  C  C290  1  0.723770  0.074430  0.296320  1.0  0.168
  C  C291  1  0.361830  0.550170  0.666780  1.0  -0.0531
  C  C292  1  0.394330  0.426270  0.667800  1.0  -0.0868
  C  C293  1  0.438930  0.242170  0.627140  1.0  0.252
  C  C294  1  0.390430  0.407770  0.629660  1.0  0.168
  C  C295  1  0.855000  0.971500  0.000110  1.0  -0.0523
  C  C296  1  0.698600  0.939000  0.001130  1.0  -0.086
  C  C297  1  0.469900  0.894400  0.960470  1.0  0.2556
  C  C298  1  0.684000  0.942900  0.962990  1.0  0.1686
  C  C299  1  0.521670  0.304830  0.333440  1.0  -0.0523
  C  C300  1  0.365270  0.272330  0.334460  1.0  -0.086
  C  C301  1  0.136570  0.227730  0.293800  1.0  0.2556
  C  C302  1  0.350670  0.276230  0.296320  1.0  0.1686
  C  C303  1  0.188330  0.638170  0.666780  1.0  -0.0523
  C  C304  1  0.031930  0.605670  0.667800  1.0  -0.086
  C  C305  1  0.803230  0.561070  0.627140  1.0  0.2557
  C  C306  1  0.017330  0.609570  0.629660  1.0  0.1686
  N  N307  1  0.631800  0.706100  0.481190  1.0  0.1227
  N  N308  1  0.488200  0.600000  0.480040  1.0  -0.3862
  N  N309  1  0.589400  0.660000  0.449110  1.0  -0.4204
  N  N310  1  0.298470  0.039430  0.814520  1.0  0.1227
  N  N311  1  0.154870  0.933330  0.813370  1.0  -0.3862
  N  N312  1  0.256070  0.993330  0.782440  1.0  -0.4205
  N  N313  1  0.965130  0.372770  0.147860  1.0  0.1226
  N  N314  1  0.821530  0.266670  0.146710  1.0  -0.3862
  N  N315  1  0.922730  0.326670  0.115780  1.0  -0.4255
  N  N316  1  0.293900  0.925700  0.481190  1.0  0.123
  N  N317  1  0.400000  0.888200  0.480040  1.0  -0.3885
  N  N318  1  0.340000  0.929400  0.449110  1.0  -0.4237
  N  N319  1  0.960570  0.259030  0.814520  1.0  0.123
  N  N320  1  0.066670  0.221530  0.813370  1.0  -0.3885
  N  N321  1  0.006670  0.262730  0.782440  1.0  -0.4237
  N  N322  1  0.627230  0.592370  0.147860  1.0  0.123
  N  N323  1  0.733330  0.554870  0.146710  1.0  -0.3885
  N  N324  1  0.673330  0.596070  0.115780  1.0  -0.4214
  N  N325  1  0.074300  0.368200  0.481190  1.0  0.1235
  N  N326  1  0.111800  0.511800  0.480040  1.0  -0.3879
  N  N327  1  0.070600  0.410600  0.449110  1.0  -0.4255
  N  N328  1  0.740970  0.701530  0.814520  1.0  0.1235
  N  N329  1  0.778470  0.845130  0.813370  1.0  -0.3879
  N  N330  1  0.737270  0.743930  0.782440  1.0  -0.4255
  N  N331  1  0.407630  0.034870  0.147860  1.0  0.1235
  N  N332  1  0.445130  0.178470  0.146710  1.0  -0.3879
  N  N333  1  0.403930  0.077270  0.115780  1.0  -0.4276
  N  N334  1  0.706100  0.631800  0.018810  1.0  0.1231
  N  N335  1  0.600000  0.488200  0.019960  1.0  -0.389
  N  N336  1  0.660000  0.589400  0.050890  1.0  -0.423
  N  N337  1  0.372770  0.965130  0.352140  1.0  0.1231
  N  N338  1  0.266670  0.821530  0.353290  1.0  -0.389
  N  N339  1  0.326670  0.922730  0.384220  1.0  -0.4271
  N  N340  1  0.039430  0.298470  0.685480  1.0  0.1231
  N  N341  1  0.933330  0.154870  0.686630  1.0  -0.389
  N  N342  1  0.993330  0.256070  0.717560  1.0  -0.423
  N  N343  1  0.925700  0.293900  0.018810  1.0  0.1223
  N  N344  1  0.888200  0.400000  0.019960  1.0  -0.3851
  N  N345  1  0.929400  0.340000  0.050890  1.0  -0.4264
  N  N346  1  0.592370  0.627230  0.352140  1.0  0.1223
  N  N347  1  0.554870  0.733330  0.353290  1.0  -0.3851
  N  N348  1  0.596070  0.673330  0.384220  1.0  -0.4238
  N  N349  1  0.259030  0.960570  0.685480  1.0  0.1223
  N  N350  1  0.221530  0.066670  0.686630  1.0  -0.3851
  N  N351  1  0.262730  0.006670  0.717560  1.0  -0.4264
  N  N352  1  0.368200  0.074300  0.018810  1.0  0.1227
  N  N353  1  0.511800  0.111800  0.019960  1.0  -0.3888
  N  N354  1  0.410600  0.070600  0.050890  1.0  -0.4266
  N  N355  1  0.034870  0.407630  0.352140  1.0  0.1227
  N  N356  1  0.178470  0.445130  0.353290  1.0  -0.3888
  N  N357  1  0.077270  0.403930  0.384220  1.0  -0.4278
  N  N358  1  0.701530  0.740970  0.685480  1.0  0.1227
  N  N359  1  0.845130  0.778470  0.686630  1.0  -0.3888
  N  N360  1  0.743930  0.737270  0.717560  1.0  -0.4266
  N  N361  1  0.368200  0.293900  0.518810  1.0  0.1226
  N  N362  1  0.511800  0.400000  0.519960  1.0  -0.3861
  N  N363  1  0.410600  0.340000  0.550890  1.0  -0.4228
  N  N364  1  0.034870  0.627230  0.852140  1.0  0.1226
  N  N365  1  0.178470  0.733330  0.853290  1.0  -0.3861
  N  N366  1  0.077270  0.673330  0.884220  1.0  -0.4267
  N  N367  1  0.701530  0.960570  0.185480  1.0  0.1226
  N  N368  1  0.845130  0.066670  0.186630  1.0  -0.3861
  N  N369  1  0.743930  0.006670  0.217560  1.0  -0.4228
  N  N370  1  0.706100  0.074300  0.518810  1.0  0.1232
  N  N371  1  0.600000  0.111800  0.519960  1.0  -0.3876
  N  N372  1  0.660000  0.070600  0.550890  1.0  -0.4262
  N  N373  1  0.372770  0.407630  0.852140  1.0  0.1232
  N  N374  1  0.266670  0.445130  0.853290  1.0  -0.3876
  N  N375  1  0.326670  0.403930  0.884220  1.0  -0.4233
  N  N376  1  0.039430  0.740970  0.185480  1.0  0.1232
  N  N377  1  0.933330  0.778470  0.186630  1.0  -0.3876
  N  N378  1  0.993330  0.737270  0.217560  1.0  -0.4262
  N  N379  1  0.925700  0.631800  0.518810  1.0  0.1228
  N  N380  1  0.888200  0.488200  0.519960  1.0  -0.3883
  N  N381  1  0.929400  0.589400  0.550890  1.0  -0.4269
  N  N382  1  0.592370  0.965130  0.852140  1.0  0.1228
  N  N383  1  0.554870  0.821530  0.853290  1.0  -0.3883
  N  N384  1  0.596070  0.922730  0.884220  1.0  -0.428
  N  N385  1  0.259030  0.298470  0.185480  1.0  0.1228
  N  N386  1  0.221530  0.154870  0.186630  1.0  -0.3883
  N  N387  1  0.262730  0.256070  0.217560  1.0  -0.4269
  N  N388  1  0.293900  0.368200  0.981190  1.0  0.1232
  N  N389  1  0.400000  0.511800  0.980040  1.0  -0.3877
  N  N390  1  0.340000  0.410600  0.949110  1.0  -0.421
  N  N391  1  0.960570  0.701530  0.314520  1.0  0.1232
  N  N392  1  0.066670  0.845130  0.313370  1.0  -0.3877
  N  N393  1  0.006670  0.743930  0.282440  1.0  -0.421
  N  N394  1  0.627230  0.034870  0.647860  1.0  0.1232
  N  N395  1  0.733330  0.178470  0.646710  1.0  -0.3877
  N  N396  1  0.673330  0.077270  0.615780  1.0  -0.4261
  N  N397  1  0.074300  0.706100  0.981190  1.0  0.1231
  N  N398  1  0.111800  0.600000  0.980040  1.0  -0.3852
  N  N399  1  0.070600  0.660000  0.949110  1.0  -0.4241
  N  N400  1  0.740970  0.039430  0.314520  1.0  0.1231
  N  N401  1  0.778470  0.933330  0.313370  1.0  -0.3852
  N  N402  1  0.737270  0.993330  0.282440  1.0  -0.4241
  N  N403  1  0.407630  0.372770  0.647860  1.0  0.1231
  N  N404  1  0.445130  0.266670  0.646710  1.0  -0.3852
  N  N405  1  0.403930  0.326670  0.615780  1.0  -0.4225
  N  N406  1  0.631800  0.925700  0.981190  1.0  0.1238
  N  N407  1  0.488200  0.888200  0.980040  1.0  -0.3878
  N  N408  1  0.589400  0.929400  0.949110  1.0  -0.4251
  N  N409  1  0.298470  0.259030  0.314520  1.0  0.1238
  N  N410  1  0.154870  0.221530  0.313370  1.0  -0.3878
  N  N411  1  0.256070  0.262730  0.282440  1.0  -0.4251
  N  N412  1  0.965130  0.592370  0.647860  1.0  0.1238
  N  N413  1  0.821530  0.554870  0.646710  1.0  -0.3878
  N  N414  1  0.922730  0.596070  0.615780  1.0  -0.427
