# generated using pymatgen
data_CuH16(C5N)4
_symmetry_space_group_name_H-M   'P 1'
_cell_length_a   12.79600000
_cell_length_b   25.62500000
_cell_length_c   16.11200000
_cell_angle_alpha   90.00000000
_cell_angle_beta   119.95500000
_cell_angle_gamma   90.00000000
_symmetry_Int_Tables_number   1
_chemical_formula_structural   CuH16(C5N)4
_chemical_formula_sum   'Cu6 H96 C120 N24'
_cell_volume   4577.35865575
_cell_formula_units_Z   6
loop_
 _symmetry_equiv_pos_site_id
 _symmetry_equiv_pos_as_xyz
  1  'x, y, z'
loop_
 _atom_site_type_symbol
 _atom_site_label
 _atom_site_symmetry_multiplicity
 _atom_site_fract_x
 _atom_site_fract_y
 _atom_site_fract_z
 _atom_site_occupancy
 _atom_site_charge
  Cu  Cu1  1  0.439900  0.255920  0.205900  1.0  0.3323
  Cu  Cu2  1  0.560100  0.755920  0.294100  1.0  0.3322
  Cu  Cu3  1  0.560100  0.744080  0.794100  1.0  0.3317
  Cu  Cu4  1  0.439900  0.244080  0.705900  1.0  0.3318
  Cu  Cu5  1  0.000000  0.000000  0.500000  1.0  0.3574
  Cu  Cu6  1  0.000000  0.500000  0.000000  1.0  0.3574
  H  H7  1  0.254000  0.035700  0.563900  1.0  0.084
  H  H8  1  0.353200  0.086300  0.510600  1.0  0.0964
  H  H9  1  0.037900  0.138800  0.296900  1.0  0.1148
  H  H10  1  0.943300  0.082700  0.353500  1.0  0.0722
  H  H11  1  0.449700  0.147500  0.273600  1.0  0.0683
  H  H12  1  0.371900  0.095400  0.346100  1.0  0.1107
  H  H13  1  0.196100  0.219700  0.365600  1.0  0.0987
  H  H14  1  0.286500  0.268900  0.298200  1.0  0.0557
  H  H15  1  0.518900  0.138500  0.706800  1.0  0.0543
  H  H16  1  0.638800  0.089700  0.669100  1.0  0.1162
  H  H17  1  0.614200  0.204800  0.494400  1.0  0.0677
  H  H18  1  0.501700  0.251000  0.540300  1.0  0.0623
  H  H19  1  0.966600  0.040000  0.652500  1.0  0.0569
  H  H20  1  0.843400  0.086700  0.691700  1.0  0.1123
  H  H21  1  0.656100  0.129000  0.416000  1.0  0.0737
  H  H22  1  0.788400  0.079600  0.389600  1.0  0.0729
  H  H23  1  0.634300  0.218800  0.911900  1.0  0.0697
  H  H24  1  0.840000  0.214700  0.007400  1.0  0.1168
  H  H25  1  0.856000  0.316100  0.824600  1.0  0.0878
  H  H26  1  0.648700  0.309900  0.727100  1.0  0.0815
  H  H27  1  0.237000  0.338500  0.133000  1.0  0.069
  H  H28  1  0.030000  0.341900  0.042800  1.0  0.1008
  H  H29  1  0.030000  0.197400  0.951500  1.0  0.0984
  H  H30  1  0.230400  0.192600  0.080500  1.0  0.063
  H  H31  1  0.746000  0.535700  0.936100  1.0  0.0836
  H  H32  1  0.646800  0.586300  0.989400  1.0  0.0958
  H  H33  1  0.962100  0.638800  0.203100  1.0  0.1153
  H  H34  1  0.056700  0.582700  0.146500  1.0  0.0716
  H  H35  1  0.550300  0.647500  0.226400  1.0  0.0678
  H  H36  1  0.628100  0.595400  0.153900  1.0  0.1101
  H  H37  1  0.803900  0.719700  0.134400  1.0  0.099
  H  H38  1  0.713500  0.768900  0.201800  1.0  0.055
  H  H39  1  0.481100  0.638500  0.793200  1.0  0.0541
  H  H40  1  0.361200  0.589700  0.830900  1.0  0.1154
  H  H41  1  0.385800  0.704800  0.005600  1.0  0.0678
  H  H42  1  0.498300  0.751000  0.959700  1.0  0.0618
  H  H43  1  0.033400  0.540000  0.847500  1.0  0.056
  H  H44  1  0.156600  0.586700  0.808300  1.0  0.1117
  H  H45  1  0.343900  0.629000  0.084000  1.0  0.0742
  H  H46  1  0.211600  0.579600  0.110400  1.0  0.0678
  H  H47  1  0.365700  0.718800  0.588100  1.0  0.0701
  H  H48  1  0.160000  0.714700  0.492600  1.0  0.1164
  H  H49  1  0.144000  0.816100  0.675400  1.0  0.0877
  H  H50  1  0.351300  0.809900  0.772900  1.0  0.0784
  H  H51  1  0.763000  0.838500  0.367000  1.0  0.0691
  H  H52  1  0.970000  0.841900  0.457200  1.0  0.1008
  H  H53  1  0.970000  0.697400  0.548500  1.0  0.0997
  H  H54  1  0.769600  0.692600  0.419500  1.0  0.0631
  H  H55  1  0.746000  0.964300  0.436100  1.0  0.084
  H  H56  1  0.646800  0.913700  0.489400  1.0  0.0961
  H  H57  1  0.962100  0.861200  0.703100  1.0  0.1156
  H  H58  1  0.056700  0.917300  0.646500  1.0  0.0699
  H  H59  1  0.550300  0.852500  0.726400  1.0  0.0679
  H  H60  1  0.628100  0.904600  0.653900  1.0  0.1087
  H  H61  1  0.803900  0.780300  0.634400  1.0  0.099
  H  H62  1  0.713500  0.731100  0.701800  1.0  0.0565
  H  H63  1  0.481100  0.861500  0.293200  1.0  0.0542
  H  H64  1  0.361200  0.910300  0.330900  1.0  0.1161
  H  H65  1  0.385800  0.795200  0.505600  1.0  0.0686
  H  H66  1  0.498300  0.749000  0.459700  1.0  0.0632
  H  H67  1  0.033400  0.960000  0.347500  1.0  0.0571
  H  H68  1  0.156600  0.913300  0.308300  1.0  0.112
  H  H69  1  0.343900  0.871000  0.584000  1.0  0.0739
  H  H70  1  0.211600  0.920400  0.610400  1.0  0.0718
  H  H71  1  0.365700  0.781200  0.088100  1.0  0.0723
  H  H72  1  0.160000  0.785300  0.992600  1.0  0.1166
  H  H73  1  0.144000  0.683900  0.175400  1.0  0.0879
  H  H74  1  0.351300  0.690100  0.272900  1.0  0.0828
  H  H75  1  0.763000  0.661500  0.867000  1.0  0.0688
  H  H76  1  0.970000  0.658100  0.957200  1.0  0.1009
  H  H77  1  0.970000  0.802600  0.048500  1.0  0.0997
  H  H78  1  0.769600  0.807400  0.919500  1.0  0.0636
  H  H79  1  0.254000  0.464300  0.063900  1.0  0.0839
  H  H80  1  0.353200  0.413700  0.010600  1.0  0.0965
  H  H81  1  0.037900  0.361200  0.796900  1.0  0.1143
  H  H82  1  0.943300  0.417300  0.853500  1.0  0.0729
  H  H83  1  0.449700  0.352500  0.773600  1.0  0.0678
  H  H84  1  0.371900  0.404600  0.846100  1.0  0.1089
  H  H85  1  0.196100  0.280300  0.865600  1.0  0.0993
  H  H86  1  0.286500  0.231100  0.798200  1.0  0.0572
  H  H87  1  0.518900  0.361500  0.206800  1.0  0.0545
  H  H88  1  0.638800  0.410300  0.169100  1.0  0.1162
  H  H89  1  0.614200  0.295200  0.994400  1.0  0.068
  H  H90  1  0.501700  0.249000  0.040300  1.0  0.0631
  H  H91  1  0.966600  0.460000  0.152500  1.0  0.0566
  H  H92  1  0.843400  0.413300  0.191700  1.0  0.1117
  H  H93  1  0.656100  0.371000  0.916000  1.0  0.0737
  H  H94  1  0.788400  0.420400  0.889600  1.0  0.0696
  H  H95  1  0.634300  0.281200  0.411900  1.0  0.0707
  H  H96  1  0.840000  0.285300  0.507400  1.0  0.1161
  H  H97  1  0.856000  0.183900  0.324600  1.0  0.0878
  H  H98  1  0.648700  0.190100  0.227100  1.0  0.078
  H  H99  1  0.237000  0.161500  0.633000  1.0  0.0692
  H  H100  1  0.030000  0.158100  0.542800  1.0  0.1008
  H  H101  1  0.030000  0.302600  0.451500  1.0  0.0996
  H  H102  1  0.230400  0.307400  0.580500  1.0  0.0641
  C  C103  1  0.210000  0.056000  0.509600  1.0  0.134
  C  C104  1  0.269000  0.086400  0.478000  1.0  -0.1539
  C  C105  1  0.206000  0.117600  0.398700  1.0  0.0242
  C  C106  1  0.083000  0.117800  0.350000  1.0  -0.2226
  C  C107  1  0.027000  0.084000  0.386000  1.0  0.1186
  C  C108  1  0.401000  0.162700  0.295100  1.0  0.1427
  C  C109  1  0.352000  0.130600  0.335800  1.0  -0.2222
  C  C110  1  0.272000  0.152400  0.360900  1.0  0.0191
  C  C111  1  0.248000  0.204200  0.348000  1.0  -0.2297
  C  C112  1  0.305000  0.233600  0.308700  1.0  0.1506
  C  C113  1  0.542000  0.153000  0.666000  1.0  0.1436
  C  C114  1  0.614000  0.122800  0.643000  1.0  -0.2613
  C  C115  1  0.646000  0.143500  0.580000  1.0  0.0668
  C  C116  1  0.599000  0.191100  0.541000  1.0  -0.1985
  C  C117  1  0.531000  0.218500  0.568000  1.0  0.135
  C  C118  1  0.903000  0.058600  0.604000  1.0  0.1575
  C  C119  1  0.829000  0.086500  0.629000  1.0  -0.2385
  C  C120  1  0.731000  0.114400  0.555100  1.0  0.034
  C  C121  1  0.719000  0.111300  0.467000  1.0  -0.1811
  C  C122  1  0.800000  0.081400  0.451000  1.0  0.1284
  C  C123  1  0.681000  0.236100  0.891000  1.0  0.1527
  C  C124  1  0.804000  0.235700  0.953000  1.0  -0.2162
  C  C125  1  0.870000  0.268000  0.930000  1.0  0.0388
  C  C126  1  0.812000  0.295000  0.843000  1.0  -0.1222
  C  C127  1  0.687000  0.290400  0.783000  1.0  0.1018
  C  C128  1  0.195000  0.309000  0.099000  1.0  0.1442
  C  C129  1  0.070000  0.311500  0.044000  1.0  -0.1566
  C  C130  1  0.008000  0.269000  0.992000  1.0  0.069
  C  C131  1  0.067000  0.225100  0.993000  1.0  -0.1595
  C  C132  1  0.192000  0.224900  0.063000  1.0  0.131
  C  C133  1  0.790000  0.556000  0.990400  1.0  0.1328
  C  C134  1  0.731000  0.586400  0.022000  1.0  -0.1543
  C  C135  1  0.794000  0.617600  0.101300  1.0  0.0241
  C  C136  1  0.917000  0.617800  0.150000  1.0  -0.2215
  C  C137  1  0.973000  0.584000  0.114000  1.0  0.1182
  C  C138  1  0.599000  0.662700  0.204900  1.0  0.143
  C  C139  1  0.648000  0.630600  0.164200  1.0  -0.2231
  C  C140  1  0.728000  0.652400  0.139100  1.0  0.0196
  C  C141  1  0.752000  0.704200  0.152000  1.0  -0.2309
  C  C142  1  0.695000  0.733600  0.191300  1.0  0.1515
  C  C143  1  0.458000  0.653000  0.834000  1.0  0.144
  C  C144  1  0.386000  0.622800  0.857000  1.0  -0.2633
  C  C145  1  0.354000  0.643500  0.920000  1.0  0.0644
  C  C146  1  0.401000  0.691100  0.959000  1.0  -0.1963
  C  C147  1  0.469000  0.718500  0.932000  1.0  0.1351
  C  C148  1  0.097000  0.558600  0.896000  1.0  0.1598
  C  C149  1  0.171000  0.586500  0.871000  1.0  -0.2372
  C  C150  1  0.269000  0.614400  0.944900  1.0  0.0334
  C  C151  1  0.281000  0.611300  0.033000  1.0  -0.1818
  C  C152  1  0.200000  0.581400  0.049000  1.0  0.1273
  C  C153  1  0.319000  0.736100  0.609000  1.0  0.1508
  C  C154  1  0.196000  0.735700  0.547000  1.0  -0.2164
  C  C155  1  0.130000  0.768000  0.570000  1.0  0.0387
  C  C156  1  0.188000  0.795000  0.657000  1.0  -0.1227
  C  C157  1  0.313000  0.790400  0.717000  1.0  0.1014
  C  C158  1  0.805000  0.809000  0.401000  1.0  0.1436
  C  C159  1  0.930000  0.811500  0.456000  1.0  -0.1584
  C  C160  1  0.992000  0.769000  0.508000  1.0  0.0695
  C  C161  1  0.933000  0.725100  0.507000  1.0  -0.1606
  C  C162  1  0.808000  0.724900  0.437000  1.0  0.1329
  C  C163  1  0.790000  0.944000  0.490400  1.0  0.1328
  C  C164  1  0.731000  0.913600  0.522000  1.0  -0.1541
  C  C165  1  0.794000  0.882400  0.601300  1.0  0.0249
  C  C166  1  0.917000  0.882200  0.650000  1.0  -0.2226
  C  C167  1  0.973000  0.916000  0.614000  1.0  0.1169
  C  C168  1  0.599000  0.837300  0.704900  1.0  0.1417
  C  C169  1  0.648000  0.869400  0.664200  1.0  -0.2217
  C  C170  1  0.728000  0.847600  0.639100  1.0  0.0207
  C  C171  1  0.752000  0.795800  0.652000  1.0  -0.2312
  C  C172  1  0.695000  0.766400  0.691300  1.0  0.1507
  C  C173  1  0.458000  0.847000  0.334000  1.0  0.1444
  C  C174  1  0.386000  0.877200  0.357000  1.0  -0.263
  C  C175  1  0.354000  0.856500  0.420000  1.0  0.0649
  C  C176  1  0.401000  0.808900  0.459000  1.0  -0.1976
  C  C177  1  0.469000  0.781500  0.432000  1.0  0.1356
  C  C178  1  0.097000  0.941400  0.396000  1.0  0.1599
  C  C179  1  0.171000  0.913500  0.371000  1.0  -0.2376
  C  C180  1  0.269000  0.885600  0.444900  1.0  0.0336
  C  C181  1  0.281000  0.888700  0.533000  1.0  -0.1817
  C  C182  1  0.200000  0.918600  0.549000  1.0  0.1272
  C  C183  1  0.319000  0.763900  0.109000  1.0  0.1513
  C  C184  1  0.196000  0.764300  0.047000  1.0  -0.217
  C  C185  1  0.130000  0.732000  0.070000  1.0  0.0389
  C  C186  1  0.188000  0.705000  0.157000  1.0  -0.123
  C  C187  1  0.313000  0.709600  0.217000  1.0  0.1022
  C  C188  1  0.805000  0.691000  0.901000  1.0  0.1437
  C  C189  1  0.930000  0.688500  0.956000  1.0  -0.1588
  C  C190  1  0.992000  0.731000  0.008000  1.0  0.0699
  C  C191  1  0.933000  0.774900  0.007000  1.0  -0.1611
  C  C192  1  0.808000  0.775100  0.937000  1.0  0.1332
  C  C193  1  0.210000  0.444000  0.009600  1.0  0.1337
  C  C194  1  0.269000  0.413600  0.978000  1.0  -0.154
  C  C195  1  0.206000  0.382400  0.898700  1.0  0.0242
  C  C196  1  0.083000  0.382200  0.850000  1.0  -0.2227
  C  C197  1  0.027000  0.416000  0.886000  1.0  0.118
  C  C198  1  0.401000  0.337300  0.795100  1.0  0.1431
  C  C199  1  0.352000  0.369400  0.835800  1.0  -0.2186
  C  C200  1  0.272000  0.347600  0.860900  1.0  0.0204
  C  C201  1  0.248000  0.295800  0.848000  1.0  -0.2293
  C  C202  1  0.305000  0.266400  0.808700  1.0  0.1505
  C  C203  1  0.542000  0.347000  0.166000  1.0  0.1439
  C  C204  1  0.614000  0.377200  0.143000  1.0  -0.2623
  C  C205  1  0.646000  0.356500  0.080000  1.0  0.0666
  C  C206  1  0.599000  0.308900  0.041000  1.0  -0.1997
  C  C207  1  0.531000  0.281500  0.068000  1.0  0.1346
  C  C208  1  0.903000  0.441400  0.104000  1.0  0.1574
  C  C209  1  0.829000  0.413500  0.129000  1.0  -0.2384
  C  C210  1  0.731000  0.385600  0.055100  1.0  0.0342
  C  C211  1  0.719000  0.388700  0.967000  1.0  -0.1813
  C  C212  1  0.800000  0.418600  0.951000  1.0  0.1281
  C  C213  1  0.681000  0.263900  0.391000  1.0  0.1511
  C  C214  1  0.804000  0.264300  0.453000  1.0  -0.2146
  C  C215  1  0.870000  0.232000  0.430000  1.0  0.0385
  C  C216  1  0.812000  0.205000  0.343000  1.0  -0.1221
  C  C217  1  0.687000  0.209600  0.283000  1.0  0.1022
  C  C218  1  0.195000  0.191000  0.599000  1.0  0.1438
  C  C219  1  0.070000  0.188500  0.544000  1.0  -0.1576
  C  C220  1  0.008000  0.231000  0.492000  1.0  0.07
  C  C221  1  0.067000  0.274900  0.493000  1.0  -0.1619
  C  C222  1  0.192000  0.275100  0.563000  1.0  0.1321
  N  N223  1  0.084900  0.054100  0.463600  1.0  -0.3577
  N  N224  1  0.383000  0.214300  0.284900  1.0  -0.3227
  N  N225  1  0.502700  0.201200  0.633500  1.0  -0.3502
  N  N226  1  0.890000  0.056500  0.519000  1.0  -0.3135
  N  N227  1  0.619800  0.258000  0.805100  1.0  -0.3511
  N  N228  1  0.257000  0.265900  0.105500  1.0  -0.3445
  N  N229  1  0.915100  0.554100  0.036400  1.0  -0.3579
  N  N230  1  0.617000  0.714300  0.215100  1.0  -0.3235
  N  N231  1  0.497300  0.701200  0.866500  1.0  -0.3498
  N  N232  1  0.110000  0.556500  0.981000  1.0  -0.3107
  N  N233  1  0.380200  0.758000  0.694900  1.0  -0.3511
  N  N234  1  0.743000  0.765900  0.394500  1.0  -0.3437
  N  N235  1  0.915100  0.945900  0.536400  1.0  -0.3581
  N  N236  1  0.617000  0.785700  0.715100  1.0  -0.3228
  N  N237  1  0.497300  0.798800  0.366500  1.0  -0.3503
  N  N238  1  0.110000  0.943500  0.481000  1.0  -0.3109
  N  N239  1  0.380200  0.742000  0.194900  1.0  -0.3514
  N  N240  1  0.743000  0.734100  0.894500  1.0  -0.3436
  N  N241  1  0.084900  0.445900  0.963600  1.0  -0.3583
  N  N242  1  0.383000  0.285700  0.784900  1.0  -0.3234
  N  N243  1  0.502700  0.298800  0.133500  1.0  -0.3502
  N  N244  1  0.890000  0.443500  0.019000  1.0  -0.3135
  N  N245  1  0.619800  0.242000  0.305100  1.0  -0.351
  N  N246  1  0.257000  0.234100  0.605500  1.0  -0.3445
