# generated using pymatgen
data_NdH16C16(NO)8
_symmetry_space_group_name_H-M   'P 1'
_cell_length_a   15.38040000
_cell_length_b   15.38040000
_cell_length_c   22.98430000
_cell_angle_alpha   90.00000000
_cell_angle_beta   90.00000000
_cell_angle_gamma   90.00000000
_symmetry_Int_Tables_number   1
_chemical_formula_structural   NdH16C16(NO)8
_chemical_formula_sum   'Nd8 H128 C128 N64 O64'
_cell_volume   5437.09025542
_cell_formula_units_Z   8
loop_
 _symmetry_equiv_pos_site_id
 _symmetry_equiv_pos_as_xyz
  1  'x, y, z'
loop_
 _atom_site_type_symbol
 _atom_site_label
 _atom_site_symmetry_multiplicity
 _atom_site_fract_x
 _atom_site_fract_y
 _atom_site_fract_z
 _atom_site_occupancy
 _atom_site_charge
  Nd  Nd1  1  0.500000  0.250000  0.375000  1.0  2.287
  Nd  Nd2  1  0.000000  0.750000  0.875000  1.0  2.287
  Nd  Nd3  1  0.000000  0.250000  0.625000  1.0  2.287
  Nd  Nd4  1  0.500000  0.750000  0.125000  1.0  2.287
  Nd  Nd5  1  0.500000  0.750000  0.625000  1.0  2.287
  Nd  Nd6  1  0.000000  0.250000  0.125000  1.0  2.287
  Nd  Nd7  1  0.000000  0.750000  0.375000  1.0  2.287
  Nd  Nd8  1  0.500000  0.250000  0.875000  1.0  2.287
  H  H9  1  0.679700  0.120200  0.231500  1.0  0.0808
  H  H10  1  0.684500  0.352500  0.309000  1.0  0.0761
  H  H11  1  0.526400  0.351100  0.238000  1.0  0.07
  H  H12  1  0.526000  0.558000  0.342600  1.0  0.0777
  H  H13  1  0.179700  0.620200  0.731500  1.0  0.0808
  H  H14  1  0.184500  0.852500  0.809000  1.0  0.0761
  H  H15  1  0.026400  0.851100  0.738000  1.0  0.07
  H  H16  1  0.026000  0.058000  0.842600  1.0  0.0777
  H  H17  1  0.820300  0.879800  0.731500  1.0  0.0813
  H  H18  1  0.815500  0.647500  0.809000  1.0  0.0763
  H  H19  1  0.973600  0.648900  0.738000  1.0  0.0699
  H  H20  1  0.974000  0.442000  0.842600  1.0  0.0776
  H  H21  1  0.320300  0.379800  0.231500  1.0  0.0813
  H  H22  1  0.315500  0.147500  0.309000  1.0  0.0763
  H  H23  1  0.473600  0.148900  0.238000  1.0  0.0699
  H  H24  1  0.474000  0.942000  0.342600  1.0  0.0776
  H  H25  1  0.129800  0.429700  0.481500  1.0  0.0826
  H  H26  1  0.897500  0.434500  0.559000  1.0  0.0763
  H  H27  1  0.898900  0.276400  0.488000  1.0  0.07
  H  H28  1  0.692000  0.276000  0.592600  1.0  0.0783
  H  H29  1  0.629800  0.929700  0.981500  1.0  0.0826
  H  H30  1  0.397500  0.934500  0.059000  1.0  0.0763
  H  H31  1  0.398900  0.776400  0.988000  1.0  0.07
  H  H32  1  0.192000  0.776000  0.092600  1.0  0.0783
  H  H33  1  0.370200  0.570300  0.981500  1.0  0.0819
  H  H34  1  0.602500  0.565500  0.059000  1.0  0.0762
  H  H35  1  0.601100  0.723600  0.988000  1.0  0.0698
  H  H36  1  0.808000  0.724000  0.092600  1.0  0.0785
  H  H37  1  0.870200  0.070300  0.481500  1.0  0.0819
  H  H38  1  0.102500  0.065500  0.559000  1.0  0.0762
  H  H39  1  0.101100  0.223600  0.488000  1.0  0.0698
  H  H40  1  0.308000  0.224000  0.592600  1.0  0.0785
  H  H41  1  0.820300  0.120200  0.768500  1.0  0.0809
  H  H42  1  0.815500  0.352500  0.691000  1.0  0.0767
  H  H43  1  0.973600  0.351100  0.762000  1.0  0.0702
  H  H44  1  0.974000  0.558000  0.657400  1.0  0.0785
  H  H45  1  0.320300  0.620200  0.268500  1.0  0.0809
  H  H46  1  0.315500  0.852500  0.191000  1.0  0.0767
  H  H47  1  0.473600  0.851100  0.262000  1.0  0.0702
  H  H48  1  0.474000  0.058000  0.157400  1.0  0.0785
  H  H49  1  0.679700  0.879800  0.268500  1.0  0.0814
  H  H50  1  0.684500  0.647500  0.191000  1.0  0.0763
  H  H51  1  0.526400  0.648900  0.262000  1.0  0.0697
  H  H52  1  0.526000  0.442000  0.157400  1.0  0.0785
  H  H53  1  0.179700  0.379800  0.768500  1.0  0.0814
  H  H54  1  0.184500  0.147500  0.691000  1.0  0.0763
  H  H55  1  0.026400  0.148900  0.762000  1.0  0.0697
  H  H56  1  0.026000  0.942000  0.657400  1.0  0.0785
  H  H57  1  0.370200  0.429700  0.518500  1.0  0.0822
  H  H58  1  0.602500  0.434500  0.441000  1.0  0.0764
  H  H59  1  0.601100  0.276400  0.512000  1.0  0.0698
  H  H60  1  0.808000  0.276000  0.407400  1.0  0.079
  H  H61  1  0.870200  0.929700  0.018500  1.0  0.0822
  H  H62  1  0.102500  0.934500  0.941000  1.0  0.0764
  H  H63  1  0.101100  0.776400  0.012000  1.0  0.0698
  H  H64  1  0.308000  0.776000  0.907400  1.0  0.079
  H  H65  1  0.129800  0.570300  0.018500  1.0  0.0818
  H  H66  1  0.897500  0.565500  0.941000  1.0  0.0764
  H  H67  1  0.898900  0.723600  0.012000  1.0  0.0703
  H  H68  1  0.692000  0.724000  0.907400  1.0  0.0792
  H  H69  1  0.629800  0.070300  0.518500  1.0  0.0818
  H  H70  1  0.397500  0.065500  0.441000  1.0  0.0764
  H  H71  1  0.398900  0.223600  0.512000  1.0  0.0703
  H  H72  1  0.192000  0.224000  0.407400  1.0  0.0792
  H  H73  1  0.320300  0.879800  0.768500  1.0  0.081
  H  H74  1  0.315500  0.647500  0.691000  1.0  0.075
  H  H75  1  0.473600  0.648900  0.762000  1.0  0.0697
  H  H76  1  0.474000  0.442000  0.657400  1.0  0.0785
  H  H77  1  0.820300  0.379800  0.268500  1.0  0.081
  H  H78  1  0.815500  0.147500  0.191000  1.0  0.075
  H  H79  1  0.973600  0.148900  0.262000  1.0  0.0697
  H  H80  1  0.974000  0.942000  0.157400  1.0  0.0785
  H  H81  1  0.179700  0.120200  0.268500  1.0  0.0809
  H  H82  1  0.184500  0.352500  0.191000  1.0  0.0756
  H  H83  1  0.026400  0.351100  0.262000  1.0  0.0702
  H  H84  1  0.026000  0.558000  0.157400  1.0  0.0784
  H  H85  1  0.679700  0.620200  0.768500  1.0  0.0809
  H  H86  1  0.684500  0.852500  0.691000  1.0  0.0756
  H  H87  1  0.526400  0.851100  0.762000  1.0  0.0702
  H  H88  1  0.526000  0.058000  0.657400  1.0  0.0784
  H  H89  1  0.870200  0.570300  0.518500  1.0  0.0817
  H  H90  1  0.102500  0.565500  0.441000  1.0  0.0751
  H  H91  1  0.101100  0.723600  0.512000  1.0  0.0699
  H  H92  1  0.308000  0.724000  0.407400  1.0  0.0791
  H  H93  1  0.370200  0.070300  0.018500  1.0  0.0817
  H  H94  1  0.602500  0.065500  0.941000  1.0  0.0751
  H  H95  1  0.601100  0.223600  0.012000  1.0  0.0699
  H  H96  1  0.808000  0.224000  0.907400  1.0  0.0791
  H  H97  1  0.629800  0.429700  0.018500  1.0  0.0824
  H  H98  1  0.397500  0.434500  0.941000  1.0  0.0755
  H  H99  1  0.398900  0.276400  0.012000  1.0  0.0703
  H  H100  1  0.192000  0.276000  0.907400  1.0  0.0791
  H  H101  1  0.129800  0.929700  0.518500  1.0  0.0824
  H  H102  1  0.897500  0.934500  0.441000  1.0  0.0755
  H  H103  1  0.898900  0.776400  0.512000  1.0  0.0703
  H  H104  1  0.692000  0.776000  0.407400  1.0  0.0791
  H  H105  1  0.179700  0.879800  0.231500  1.0  0.0815
  H  H106  1  0.184500  0.647500  0.309000  1.0  0.075
  H  H107  1  0.026400  0.648900  0.238000  1.0  0.0698
  H  H108  1  0.026000  0.442000  0.342600  1.0  0.0776
  H  H109  1  0.679700  0.379800  0.731500  1.0  0.0815
  H  H110  1  0.684500  0.147500  0.809000  1.0  0.075
  H  H111  1  0.526400  0.148900  0.738000  1.0  0.0698
  H  H112  1  0.526000  0.942000  0.842600  1.0  0.0776
  H  H113  1  0.320300  0.120200  0.731500  1.0  0.0809
  H  H114  1  0.315500  0.352500  0.809000  1.0  0.0748
  H  H115  1  0.473600  0.351100  0.738000  1.0  0.0701
  H  H116  1  0.474000  0.558000  0.842600  1.0  0.0778
  H  H117  1  0.820300  0.620200  0.231500  1.0  0.0809
  H  H118  1  0.815500  0.852500  0.309000  1.0  0.0748
  H  H119  1  0.973600  0.851100  0.238000  1.0  0.0701
  H  H120  1  0.974000  0.058000  0.342600  1.0  0.0778
  H  H121  1  0.629800  0.570300  0.481500  1.0  0.0822
  H  H122  1  0.397500  0.565500  0.559000  1.0  0.075
  H  H123  1  0.398900  0.723600  0.488000  1.0  0.0701
  H  H124  1  0.192000  0.724000  0.592600  1.0  0.0783
  H  H125  1  0.129800  0.070300  0.981500  1.0  0.0822
  H  H126  1  0.897500  0.065500  0.059000  1.0  0.075
  H  H127  1  0.898900  0.223600  0.988000  1.0  0.0701
  H  H128  1  0.692000  0.224000  0.092600  1.0  0.0783
  H  H129  1  0.870200  0.429700  0.981500  1.0  0.0821
  H  H130  1  0.102500  0.434500  0.059000  1.0  0.0747
  H  H131  1  0.101100  0.276400  0.988000  1.0  0.0697
  H  H132  1  0.308000  0.276000  0.092600  1.0  0.0784
  H  H133  1  0.370200  0.929700  0.481500  1.0  0.0821
  H  H134  1  0.602500  0.934500  0.559000  1.0  0.0747
  H  H135  1  0.601100  0.776400  0.488000  1.0  0.0697
  H  H136  1  0.808000  0.776000  0.592600  1.0  0.0784
  C  C137  1  0.708320  0.173770  0.238970  1.0  0.0036
  C  C138  1  0.711140  0.310410  0.284600  1.0  -0.0264
  C  C139  1  0.527150  0.412380  0.243140  1.0  -0.0323
  C  C140  1  0.527020  0.533830  0.304530  1.0  0.0007
  C  C141  1  0.208320  0.673770  0.738970  1.0  0.0036
  C  C142  1  0.211140  0.810410  0.784600  1.0  -0.0264
  C  C143  1  0.027150  0.912380  0.743140  1.0  -0.0323
  C  C144  1  0.027020  0.033830  0.804530  1.0  0.0007
  C  C145  1  0.791680  0.826230  0.738970  1.0  0.0066
  C  C146  1  0.788860  0.689590  0.784600  1.0  -0.0273
  C  C147  1  0.972850  0.587620  0.743140  1.0  -0.0323
  C  C148  1  0.972980  0.466170  0.804530  1.0  0.0012
  C  C149  1  0.291680  0.326230  0.238970  1.0  0.0066
  C  C150  1  0.288860  0.189590  0.284600  1.0  -0.0273
  C  C151  1  0.472850  0.087620  0.243140  1.0  -0.0323
  C  C152  1  0.472980  0.966170  0.304530  1.0  0.0012
  C  C153  1  0.076230  0.458320  0.488970  1.0  0.0088
  C  C154  1  0.939590  0.461140  0.534600  1.0  -0.0255
  C  C155  1  0.837620  0.277150  0.493140  1.0  -0.0329
  C  C156  1  0.716170  0.277020  0.554530  1.0  -0.0009
  C  C157  1  0.576230  0.958320  0.988970  1.0  0.0088
  C  C158  1  0.439590  0.961140  0.034600  1.0  -0.0255
  C  C159  1  0.337620  0.777150  0.993140  1.0  -0.0329
  C  C160  1  0.216170  0.777020  0.054530  1.0  -0.0009
  C  C161  1  0.423770  0.541680  0.988970  1.0  0.0082
  C  C162  1  0.560410  0.538860  0.034600  1.0  -0.027
  C  C163  1  0.662380  0.722850  0.993140  1.0  -0.0319
  C  C164  1  0.783830  0.722980  0.054530  1.0  -0.0005
  C  C165  1  0.923770  0.041680  0.488970  1.0  0.0082
  C  C166  1  0.060410  0.038860  0.534600  1.0  -0.027
  C  C167  1  0.162380  0.222850  0.493140  1.0  -0.0319
  C  C168  1  0.283830  0.222980  0.554530  1.0  -0.0005
  C  C169  1  0.791680  0.173770  0.761030  1.0  0.0041
  C  C170  1  0.788860  0.310410  0.715400  1.0  -0.0269
  C  C171  1  0.972850  0.412380  0.756860  1.0  -0.0326
  C  C172  1  0.972980  0.533830  0.695470  1.0  0.0028
  C  C173  1  0.291680  0.673770  0.261030  1.0  0.0041
  C  C174  1  0.288860  0.810410  0.215400  1.0  -0.0269
  C  C175  1  0.472850  0.912380  0.256860  1.0  -0.0326
  C  C176  1  0.472980  0.033830  0.195470  1.0  0.0028
  C  C177  1  0.708320  0.826230  0.261030  1.0  0.0052
  C  C178  1  0.711140  0.689590  0.215400  1.0  -0.0269
  C  C179  1  0.527150  0.587620  0.256860  1.0  -0.0328
  C  C180  1  0.527020  0.466170  0.195470  1.0  0.002
  C  C181  1  0.208320  0.326230  0.761030  1.0  0.0052
  C  C182  1  0.211140  0.189590  0.715400  1.0  -0.0269
  C  C183  1  0.027150  0.087620  0.756860  1.0  -0.0328
  C  C184  1  0.027020  0.966170  0.695470  1.0  0.002
  C  C185  1  0.423770  0.458320  0.511030  1.0  0.0086
  C  C186  1  0.560410  0.461140  0.465400  1.0  -0.0267
  C  C187  1  0.662380  0.277150  0.506860  1.0  -0.0324
  C  C188  1  0.783830  0.277020  0.445470  1.0  -1e-04
  C  C189  1  0.923770  0.958320  0.011030  1.0  0.0086
  C  C190  1  0.060410  0.961140  0.965400  1.0  -0.0267
  C  C191  1  0.162380  0.777150  0.006860  1.0  -0.0324
  C  C192  1  0.283830  0.777020  0.945470  1.0  -1e-04
  C  C193  1  0.076230  0.541680  0.011030  1.0  0.0079
  C  C194  1  0.939590  0.538860  0.965400  1.0  -0.0259
  C  C195  1  0.837620  0.722850  0.006860  1.0  -0.0333
  C  C196  1  0.716170  0.722980  0.945470  1.0  0.0011
  C  C197  1  0.576230  0.041680  0.511030  1.0  0.0079
  C  C198  1  0.439590  0.038860  0.465400  1.0  -0.0259
  C  C199  1  0.337620  0.222850  0.506860  1.0  -0.0333
  C  C200  1  0.216170  0.222980  0.445470  1.0  0.0011
  C  C201  1  0.291680  0.826230  0.761030  1.0  0.0062
  C  C202  1  0.288860  0.689590  0.715400  1.0  -0.0277
  C  C203  1  0.472850  0.587620  0.756860  1.0  -0.0324
  C  C204  1  0.472980  0.466170  0.695470  1.0  0.0013
  C  C205  1  0.791680  0.326230  0.261030  1.0  0.0062
  C  C206  1  0.788860  0.189590  0.215400  1.0  -0.0277
  C  C207  1  0.972850  0.087620  0.256860  1.0  -0.0324
  C  C208  1  0.972980  0.966170  0.195470  1.0  0.0013
  C  C209  1  0.208320  0.173770  0.261030  1.0  0.0034
  C  C210  1  0.211140  0.310410  0.215400  1.0  -0.0265
  C  C211  1  0.027150  0.412380  0.256860  1.0  -0.033
  C  C212  1  0.027020  0.533830  0.195470  1.0  0.0014
  C  C213  1  0.708320  0.673770  0.761030  1.0  0.0034
  C  C214  1  0.711140  0.810410  0.715400  1.0  -0.0265
  C  C215  1  0.527150  0.912380  0.756860  1.0  -0.033
  C  C216  1  0.527020  0.033830  0.695470  1.0  0.0014
  C  C217  1  0.923770  0.541680  0.511030  1.0  0.0081
  C  C218  1  0.060410  0.538860  0.465400  1.0  -0.0272
  C  C219  1  0.162380  0.722850  0.506860  1.0  -0.0324
  C  C220  1  0.283830  0.722980  0.445470  1.0  -0.0008
  C  C221  1  0.423770  0.041680  0.011030  1.0  0.0081
  C  C222  1  0.560410  0.038860  0.965400  1.0  -0.0272
  C  C223  1  0.662380  0.222850  0.006860  1.0  -0.0324
  C  C224  1  0.783830  0.222980  0.945470  1.0  -0.0008
  C  C225  1  0.576230  0.458320  0.011030  1.0  0.0086
  C  C226  1  0.439590  0.461140  0.965400  1.0  -0.0259
  C  C227  1  0.337620  0.277150  0.006860  1.0  -0.0334
  C  C228  1  0.216170  0.277020  0.945470  1.0  -1e-04
  C  C229  1  0.076230  0.958320  0.511030  1.0  0.0086
  C  C230  1  0.939590  0.961140  0.465400  1.0  -0.0259
  C  C231  1  0.837620  0.777150  0.506860  1.0  -0.0334
  C  C232  1  0.716170  0.777020  0.445470  1.0  -1e-04
  C  C233  1  0.208320  0.826230  0.238970  1.0  0.0056
  C  C234  1  0.211140  0.689590  0.284600  1.0  -0.0269
  C  C235  1  0.027150  0.587620  0.243140  1.0  -0.0327
  C  C236  1  0.027020  0.466170  0.304530  1.0  0.0018
  C  C237  1  0.708320  0.326230  0.738970  1.0  0.0056
  C  C238  1  0.711140  0.189590  0.784600  1.0  -0.0269
  C  C239  1  0.527150  0.087620  0.743140  1.0  -0.0327
  C  C240  1  0.527020  0.966170  0.804530  1.0  0.0018
  C  C241  1  0.291680  0.173770  0.738970  1.0  0.0043
  C  C242  1  0.288860  0.310410  0.784600  1.0  -0.0273
  C  C243  1  0.472850  0.412380  0.743140  1.0  -0.032
  C  C244  1  0.472980  0.533830  0.804530  1.0  0.0024
  C  C245  1  0.791680  0.673770  0.238970  1.0  0.0043
  C  C246  1  0.788860  0.810410  0.284600  1.0  -0.0273
  C  C247  1  0.972850  0.912380  0.243140  1.0  -0.032
  C  C248  1  0.972980  0.033830  0.304530  1.0  0.0024
  C  C249  1  0.576230  0.541680  0.488970  1.0  0.0082
  C  C250  1  0.439590  0.538860  0.534600  1.0  -0.0261
  C  C251  1  0.337620  0.722850  0.493140  1.0  -0.0329
  C  C252  1  0.216170  0.722980  0.554530  1.0  1e-04
  C  C253  1  0.076230  0.041680  0.988970  1.0  0.0082
  C  C254  1  0.939590  0.038860  0.034600  1.0  -0.0261
  C  C255  1  0.837620  0.222850  0.993140  1.0  -0.0329
  C  C256  1  0.716170  0.222980  0.054530  1.0  1e-04
  C  C257  1  0.923770  0.458320  0.988970  1.0  0.0086
  C  C258  1  0.060410  0.461140  0.034600  1.0  -0.0271
  C  C259  1  0.162380  0.277150  0.993140  1.0  -0.0319
  C  C260  1  0.283830  0.277020  0.054530  1.0  0.0004
  C  C261  1  0.423770  0.958320  0.488970  1.0  0.0086
  C  C262  1  0.560410  0.961140  0.534600  1.0  -0.0271
  C  C263  1  0.662380  0.777150  0.493140  1.0  -0.0319
  C  C264  1  0.783830  0.777020  0.554530  1.0  0.0004
  N  N265  1  0.669630  0.234490  0.272930  1.0  0.2906
  N  N266  1  0.528330  0.446420  0.297450  1.0  0.2889
  N  N267  1  0.169630  0.734490  0.772930  1.0  0.2906
  N  N268  1  0.028330  0.946420  0.797450  1.0  0.2889
  N  N269  1  0.830370  0.765510  0.772930  1.0  0.292
  N  N270  1  0.971670  0.553580  0.797450  1.0  0.2897
  N  N271  1  0.330370  0.265510  0.272930  1.0  0.292
  N  N272  1  0.471670  0.053580  0.297450  1.0  0.2897
  N  N273  1  0.015510  0.419630  0.522930  1.0  0.2878
  N  N274  1  0.803580  0.278330  0.547450  1.0  0.2878
  N  N275  1  0.515510  0.919630  0.022930  1.0  0.2878
  N  N276  1  0.303580  0.778330  0.047450  1.0  0.2878
  N  N277  1  0.484490  0.580370  0.022930  1.0  0.289
  N  N278  1  0.696420  0.721670  0.047450  1.0  0.2873
  N  N279  1  0.984490  0.080370  0.522930  1.0  0.289
  N  N280  1  0.196420  0.221670  0.547450  1.0  0.2873
  N  N281  1  0.830370  0.234490  0.727070  1.0  0.2919
  N  N282  1  0.971670  0.446420  0.702550  1.0  0.2777
  N  N283  1  0.330370  0.734490  0.227070  1.0  0.2919
  N  N284  1  0.471670  0.946420  0.202550  1.0  0.2777
  N  N285  1  0.669630  0.765510  0.227070  1.0  0.2901
  N  N286  1  0.528330  0.553580  0.202550  1.0  0.2782
  N  N287  1  0.169630  0.265510  0.727070  1.0  0.2901
  N  N288  1  0.028330  0.053580  0.702550  1.0  0.2782
  N  N289  1  0.484490  0.419630  0.477070  1.0  0.2885
  N  N290  1  0.696420  0.278330  0.452550  1.0  0.2762
  N  N291  1  0.984490  0.919630  0.977070  1.0  0.2885
  N  N292  1  0.196420  0.778330  0.952550  1.0  0.2762
  N  N293  1  0.015510  0.580370  0.977070  1.0  0.2874
  N  N294  1  0.803580  0.721670  0.952550  1.0  0.2769
  N  N295  1  0.515510  0.080370  0.477070  1.0  0.2874
  N  N296  1  0.303580  0.221670  0.452550  1.0  0.2769
  N  N297  1  0.330370  0.765510  0.727070  1.0  0.2775
  N  N298  1  0.471670  0.553580  0.702550  1.0  0.2912
  N  N299  1  0.830370  0.265510  0.227070  1.0  0.2775
  N  N300  1  0.971670  0.053580  0.202550  1.0  0.2912
  N  N301  1  0.169630  0.234490  0.227070  1.0  0.2761
  N  N302  1  0.028330  0.446420  0.202550  1.0  0.2909
  N  N303  1  0.669630  0.734490  0.727070  1.0  0.2761
  N  N304  1  0.528330  0.946420  0.702550  1.0  0.2909
  N  N305  1  0.984490  0.580370  0.477070  1.0  0.2744
  N  N306  1  0.196420  0.721670  0.452550  1.0  0.2892
  N  N307  1  0.484490  0.080370  0.977070  1.0  0.2744
  N  N308  1  0.696420  0.221670  0.952550  1.0  0.2892
  N  N309  1  0.515510  0.419630  0.977070  1.0  0.2732
  N  N310  1  0.303580  0.278330  0.952550  1.0  0.2896
  N  N311  1  0.015510  0.919630  0.477070  1.0  0.2732
  N  N312  1  0.803580  0.778330  0.452550  1.0  0.2896
  N  N313  1  0.169630  0.765510  0.272930  1.0  0.2764
  N  N314  1  0.028330  0.553580  0.297450  1.0  0.2766
  N  N315  1  0.669630  0.265510  0.772930  1.0  0.2764
  N  N316  1  0.528330  0.053580  0.797450  1.0  0.2766
  N  N317  1  0.330370  0.234490  0.772930  1.0  0.278
  N  N318  1  0.471670  0.446420  0.797450  1.0  0.2761
  N  N319  1  0.830370  0.734490  0.272930  1.0  0.278
  N  N320  1  0.971670  0.946420  0.297450  1.0  0.2761
  N  N321  1  0.515510  0.580370  0.522930  1.0  0.2737
  N  N322  1  0.303580  0.721670  0.547450  1.0  0.275
  N  N323  1  0.015510  0.080370  0.022930  1.0  0.2737
  N  N324  1  0.803580  0.221670  0.047450  1.0  0.275
  N  N325  1  0.984490  0.419630  0.022930  1.0  0.2747
  N  N326  1  0.196420  0.278330  0.047450  1.0  0.2745
  N  N327  1  0.484490  0.919630  0.522930  1.0  0.2747
  N  N328  1  0.696420  0.778330  0.547450  1.0  0.2745
  O  O329  1  0.591910  0.219650  0.293030  1.0  -0.6954
  O  O330  1  0.533380  0.396860  0.343240  1.0  -0.696
  O  O331  1  0.091910  0.719650  0.793030  1.0  -0.6954
  O  O332  1  0.033380  0.896860  0.843240  1.0  -0.696
  O  O333  1  0.908090  0.780350  0.793030  1.0  -0.6948
  O  O334  1  0.966620  0.603140  0.843240  1.0  -0.6944
  O  O335  1  0.408090  0.280350  0.293030  1.0  -0.6948
  O  O336  1  0.466620  0.103140  0.343240  1.0  -0.6944
  O  O337  1  0.030350  0.341910  0.543030  1.0  -0.6954
  O  O338  1  0.853140  0.283380  0.593240  1.0  -0.6971
  O  O339  1  0.530350  0.841910  0.043030  1.0  -0.6954
  O  O340  1  0.353140  0.783380  0.093240  1.0  -0.6971
  O  O341  1  0.469650  0.658090  0.043030  1.0  -0.6947
  O  O342  1  0.646860  0.716620  0.093240  1.0  -0.6973
  O  O343  1  0.969650  0.158090  0.543030  1.0  -0.6947
  O  O344  1  0.146860  0.216620  0.593240  1.0  -0.6973
  O  O345  1  0.908090  0.219650  0.706970  1.0  -0.6954
  O  O346  1  0.966620  0.396860  0.656760  1.0  -0.6952
  O  O347  1  0.408090  0.719650  0.206970  1.0  -0.6954
  O  O348  1  0.466620  0.896860  0.156760  1.0  -0.6952
  O  O349  1  0.591910  0.780350  0.206970  1.0  -0.6936
  O  O350  1  0.533380  0.603140  0.156760  1.0  -0.6948
  O  O351  1  0.091910  0.280350  0.706970  1.0  -0.6936
  O  O352  1  0.033380  0.103140  0.656760  1.0  -0.6948
  O  O353  1  0.469650  0.341910  0.456970  1.0  -0.6956
  O  O354  1  0.646860  0.283380  0.406760  1.0  -0.6974
  O  O355  1  0.969650  0.841910  0.956970  1.0  -0.6956
  O  O356  1  0.146860  0.783380  0.906760  1.0  -0.6974
  O  O357  1  0.030350  0.658090  0.956970  1.0  -0.6941
  O  O358  1  0.853140  0.716620  0.906760  1.0  -0.6973
  O  O359  1  0.530350  0.158090  0.456970  1.0  -0.6941
  O  O360  1  0.353140  0.216620  0.406760  1.0  -0.6973
  O  O361  1  0.408090  0.780350  0.706970  1.0  -0.6949
  O  O362  1  0.466620  0.603140  0.656760  1.0  -0.6946
  O  O363  1  0.908090  0.280350  0.206970  1.0  -0.6949
  O  O364  1  0.966620  0.103140  0.156760  1.0  -0.6946
  O  O365  1  0.091910  0.219650  0.206970  1.0  -0.6946
  O  O366  1  0.033380  0.396860  0.156760  1.0  -0.6955
  O  O367  1  0.591910  0.719650  0.706970  1.0  -0.6946
  O  O368  1  0.533380  0.896860  0.656760  1.0  -0.6955
  O  O369  1  0.969650  0.658090  0.456970  1.0  -0.6953
  O  O370  1  0.146860  0.716620  0.406760  1.0  -0.6971
  O  O371  1  0.469650  0.158090  0.956970  1.0  -0.6953
  O  O372  1  0.646860  0.216620  0.906760  1.0  -0.6971
  O  O373  1  0.530350  0.341910  0.956970  1.0  -0.6946
  O  O374  1  0.353140  0.283380  0.906760  1.0  -0.6977
  O  O375  1  0.030350  0.841910  0.456970  1.0  -0.6946
  O  O376  1  0.853140  0.783380  0.406760  1.0  -0.6977
  O  O377  1  0.091910  0.780350  0.293030  1.0  -0.6949
  O  O378  1  0.033380  0.603140  0.343240  1.0  -0.6945
  O  O379  1  0.591910  0.280350  0.793030  1.0  -0.6949
  O  O380  1  0.533380  0.103140  0.843240  1.0  -0.6945
  O  O381  1  0.408090  0.219650  0.793030  1.0  -0.6948
  O  O382  1  0.466620  0.396860  0.843240  1.0  -0.6958
  O  O383  1  0.908090  0.719650  0.293030  1.0  -0.6948
  O  O384  1  0.966620  0.896860  0.343240  1.0  -0.6958
  O  O385  1  0.530350  0.658090  0.543030  1.0  -0.695
  O  O386  1  0.353140  0.716620  0.593240  1.0  -0.6968
  O  O387  1  0.030350  0.158090  0.043030  1.0  -0.695
  O  O388  1  0.853140  0.216620  0.093240  1.0  -0.6968
  O  O389  1  0.969650  0.341910  0.043030  1.0  -0.6947
  O  O390  1  0.146860  0.283380  0.093240  1.0  -0.6974
  O  O391  1  0.469650  0.841910  0.543030  1.0  -0.6947
  O  O392  1  0.646860  0.783380  0.593240  1.0  -0.6974
