# generated using pymatgen
data_ErH16C16(NO)8
_symmetry_space_group_name_H-M   'P 1'
_cell_length_a   15.17770000
_cell_length_b   15.17770000
_cell_length_c   22.50940000
_cell_angle_alpha   90.00000000
_cell_angle_beta   90.00000000
_cell_angle_gamma   90.00000000
_symmetry_Int_Tables_number   1
_chemical_formula_structural   ErH16C16(NO)8
_chemical_formula_sum   'Er8 H128 C128 N64 O64'
_cell_volume   5185.32339725
_cell_formula_units_Z   8
loop_
 _symmetry_equiv_pos_site_id
 _symmetry_equiv_pos_as_xyz
  1  'x, y, z'
loop_
 _atom_site_type_symbol
 _atom_site_label
 _atom_site_symmetry_multiplicity
 _atom_site_fract_x
 _atom_site_fract_y
 _atom_site_fract_z
 _atom_site_occupancy
 _atom_site_charge
  Er  Er1  1  0.500000  0.250000  0.375000  1.0  1.1472
  Er  Er2  1  0.000000  0.750000  0.875000  1.0  1.1472
  Er  Er3  1  0.000000  0.250000  0.625000  1.0  1.1472
  Er  Er4  1  0.500000  0.750000  0.125000  1.0  1.1472
  Er  Er5  1  0.500000  0.750000  0.625000  1.0  1.1472
  Er  Er6  1  0.000000  0.250000  0.125000  1.0  1.1472
  Er  Er7  1  0.000000  0.750000  0.375000  1.0  1.1472
  Er  Er8  1  0.500000  0.250000  0.875000  1.0  1.1472
  H  H9  1  0.681000  0.116400  0.235100  1.0  0.1107
  H  H10  1  0.816800  0.143800  0.191800  1.0  0.1053
  H  H11  1  0.524900  0.349400  0.236100  1.0  0.105
  H  H12  1  0.524000  0.443600  0.155100  1.0  0.1087
  H  H13  1  0.181000  0.616400  0.735100  1.0  0.1107
  H  H14  1  0.316800  0.643800  0.691800  1.0  0.1053
  H  H15  1  0.024900  0.849400  0.736100  1.0  0.105
  H  H16  1  0.024000  0.943600  0.655100  1.0  0.1087
  H  H17  1  0.819000  0.883600  0.735100  1.0  0.1108
  H  H18  1  0.683200  0.856200  0.691800  1.0  0.1056
  H  H19  1  0.975100  0.650600  0.736100  1.0  0.1051
  H  H20  1  0.976000  0.556400  0.655100  1.0  0.1085
  H  H21  1  0.319000  0.383600  0.235100  1.0  0.1108
  H  H22  1  0.183200  0.356200  0.191800  1.0  0.1056
  H  H23  1  0.475100  0.150600  0.236100  1.0  0.1051
  H  H24  1  0.476000  0.056400  0.155100  1.0  0.1085
  H  H25  1  0.133600  0.431000  0.485100  1.0  0.1127
  H  H26  1  0.106200  0.566800  0.441800  1.0  0.1053
  H  H27  1  0.900600  0.274900  0.486100  1.0  0.105
  H  H28  1  0.806400  0.274000  0.405100  1.0  0.1095
  H  H29  1  0.633600  0.931000  0.985100  1.0  0.1127
  H  H30  1  0.606200  0.066800  0.941800  1.0  0.1053
  H  H31  1  0.400600  0.774900  0.986100  1.0  0.105
  H  H32  1  0.306400  0.774000  0.905100  1.0  0.1095
  H  H33  1  0.366400  0.569000  0.985100  1.0  0.1124
  H  H34  1  0.393800  0.433200  0.941800  1.0  0.1053
  H  H35  1  0.599400  0.725100  0.986100  1.0  0.1047
  H  H36  1  0.693600  0.726000  0.905100  1.0  0.1095
  H  H37  1  0.866400  0.069000  0.485100  1.0  0.1124
  H  H38  1  0.893800  0.933200  0.441800  1.0  0.1053
  H  H39  1  0.099400  0.225100  0.486100  1.0  0.1047
  H  H40  1  0.193600  0.226000  0.405100  1.0  0.1095
  H  H41  1  0.819000  0.116400  0.764900  1.0  0.1109
  H  H42  1  0.683200  0.143800  0.808200  1.0  0.1052
  H  H43  1  0.975100  0.349400  0.763900  1.0  0.1055
  H  H44  1  0.976000  0.443600  0.844900  1.0  0.1085
  H  H45  1  0.319000  0.616400  0.264900  1.0  0.1109
  H  H46  1  0.183200  0.643800  0.308200  1.0  0.1052
  H  H47  1  0.475100  0.849400  0.263900  1.0  0.1055
  H  H48  1  0.476000  0.943600  0.344900  1.0  0.1085
  H  H49  1  0.681000  0.883600  0.264900  1.0  0.1107
  H  H50  1  0.816800  0.856200  0.308200  1.0  0.1049
  H  H51  1  0.524900  0.650600  0.263900  1.0  0.1049
  H  H52  1  0.524000  0.556400  0.344900  1.0  0.1084
  H  H53  1  0.181000  0.383600  0.764900  1.0  0.1107
  H  H54  1  0.316800  0.356200  0.808200  1.0  0.1049
  H  H55  1  0.024900  0.150600  0.763900  1.0  0.1049
  H  H56  1  0.024000  0.056400  0.844900  1.0  0.1084
  H  H57  1  0.366400  0.431000  0.514900  1.0  0.1126
  H  H58  1  0.393800  0.566800  0.558200  1.0  0.1048
  H  H59  1  0.599400  0.274900  0.513900  1.0  0.1049
  H  H60  1  0.693600  0.274000  0.594900  1.0  0.1096
  H  H61  1  0.866400  0.931000  0.014900  1.0  0.1126
  H  H62  1  0.893800  0.066800  0.058200  1.0  0.1048
  H  H63  1  0.099400  0.774900  0.013900  1.0  0.1049
  H  H64  1  0.193600  0.774000  0.094900  1.0  0.1096
  H  H65  1  0.133600  0.569000  0.014900  1.0  0.1123
  H  H66  1  0.106200  0.433200  0.058200  1.0  0.1049
  H  H67  1  0.900600  0.725100  0.013900  1.0  0.1053
  H  H68  1  0.806400  0.726000  0.094900  1.0  0.1096
  H  H69  1  0.633600  0.069000  0.514900  1.0  0.1123
  H  H70  1  0.606200  0.933200  0.558200  1.0  0.1049
  H  H71  1  0.400600  0.225100  0.513900  1.0  0.1053
  H  H72  1  0.306400  0.226000  0.594900  1.0  0.1096
  H  H73  1  0.319000  0.883600  0.764900  1.0  0.1107
  H  H74  1  0.183200  0.856200  0.808200  1.0  0.1055
  H  H75  1  0.475100  0.650600  0.763900  1.0  0.1049
  H  H76  1  0.476000  0.556400  0.844900  1.0  0.1085
  H  H77  1  0.819000  0.383600  0.264900  1.0  0.1107
  H  H78  1  0.683200  0.356200  0.308200  1.0  0.1055
  H  H79  1  0.975100  0.150600  0.263900  1.0  0.1049
  H  H80  1  0.976000  0.056400  0.344900  1.0  0.1085
  H  H81  1  0.181000  0.116400  0.264900  1.0  0.1108
  H  H82  1  0.316800  0.143800  0.308200  1.0  0.1057
  H  H83  1  0.024900  0.349400  0.263900  1.0  0.1056
  H  H84  1  0.024000  0.443600  0.344900  1.0  0.1085
  H  H85  1  0.681000  0.616400  0.764900  1.0  0.1108
  H  H86  1  0.816800  0.643800  0.808200  1.0  0.1057
  H  H87  1  0.524900  0.849400  0.763900  1.0  0.1056
  H  H88  1  0.524000  0.943600  0.844900  1.0  0.1085
  H  H89  1  0.866400  0.569000  0.514900  1.0  0.1124
  H  H90  1  0.893800  0.433200  0.558200  1.0  0.1052
  H  H91  1  0.099400  0.725100  0.513900  1.0  0.1048
  H  H92  1  0.193600  0.726000  0.594900  1.0  0.1095
  H  H93  1  0.366400  0.069000  0.014900  1.0  0.1124
  H  H94  1  0.393800  0.933200  0.058200  1.0  0.1052
  H  H95  1  0.599400  0.225100  0.013900  1.0  0.1048
  H  H96  1  0.693600  0.226000  0.094900  1.0  0.1095
  H  H97  1  0.633600  0.431000  0.014900  1.0  0.1126
  H  H98  1  0.606200  0.566800  0.058200  1.0  0.1056
  H  H99  1  0.400600  0.274900  0.013900  1.0  0.1054
  H  H100  1  0.306400  0.274000  0.094900  1.0  0.1096
  H  H101  1  0.133600  0.931000  0.514900  1.0  0.1126
  H  H102  1  0.106200  0.066800  0.558200  1.0  0.1056
  H  H103  1  0.900600  0.774900  0.513900  1.0  0.1054
  H  H104  1  0.806400  0.774000  0.594900  1.0  0.1096
  H  H105  1  0.181000  0.883600  0.235100  1.0  0.1107
  H  H106  1  0.316800  0.856200  0.191800  1.0  0.1049
  H  H107  1  0.024900  0.650600  0.236100  1.0  0.1051
  H  H108  1  0.024000  0.556400  0.155100  1.0  0.1084
  H  H109  1  0.681000  0.383600  0.735100  1.0  0.1107
  H  H110  1  0.816800  0.356200  0.691800  1.0  0.1049
  H  H111  1  0.524900  0.150600  0.736100  1.0  0.1051
  H  H112  1  0.524000  0.056400  0.655100  1.0  0.1084
  H  H113  1  0.319000  0.116400  0.735100  1.0  0.1109
  H  H114  1  0.183200  0.143800  0.691800  1.0  0.1048
  H  H115  1  0.475100  0.349400  0.736100  1.0  0.1051
  H  H116  1  0.476000  0.443600  0.655100  1.0  0.1087
  H  H117  1  0.819000  0.616400  0.235100  1.0  0.1109
  H  H118  1  0.683200  0.643800  0.191800  1.0  0.1048
  H  H119  1  0.975100  0.849400  0.236100  1.0  0.1051
  H  H120  1  0.976000  0.943600  0.155100  1.0  0.1087
  H  H121  1  0.633600  0.569000  0.485100  1.0  0.1126
  H  H122  1  0.606200  0.433200  0.441800  1.0  0.1049
  H  H123  1  0.400600  0.725100  0.486100  1.0  0.105
  H  H124  1  0.306400  0.726000  0.405100  1.0  0.1096
  H  H125  1  0.133600  0.069000  0.985100  1.0  0.1126
  H  H126  1  0.106200  0.933200  0.941800  1.0  0.1049
  H  H127  1  0.900600  0.225100  0.986100  1.0  0.105
  H  H128  1  0.806400  0.226000  0.905100  1.0  0.1096
  H  H129  1  0.866400  0.431000  0.985100  1.0  0.1125
  H  H130  1  0.893800  0.566800  0.941800  1.0  0.1044
  H  H131  1  0.099400  0.274900  0.986100  1.0  0.1048
  H  H132  1  0.193600  0.274000  0.905100  1.0  0.1094
  H  H133  1  0.366400  0.931000  0.485100  1.0  0.1125
  H  H134  1  0.393800  0.066800  0.441800  1.0  0.1044
  H  H135  1  0.599400  0.774900  0.486100  1.0  0.1048
  H  H136  1  0.693600  0.774000  0.405100  1.0  0.1094
  C  C137  1  0.709080  0.171640  0.241230  1.0  -0.0027
  C  C138  1  0.789670  0.187590  0.215860  1.0  -0.0019
  C  C139  1  0.525310  0.411390  0.242100  1.0  0.0284
  C  C140  1  0.525040  0.467180  0.194150  1.0  -0.0102
  C  C141  1  0.209080  0.671640  0.741230  1.0  -0.0027
  C  C142  1  0.289670  0.687590  0.715860  1.0  -0.0019
  C  C143  1  0.025310  0.911390  0.742100  1.0  0.0284
  C  C144  1  0.025040  0.967180  0.694150  1.0  -0.0102
  C  C145  1  0.790920  0.828360  0.741230  1.0  0.0025
  C  C146  1  0.710330  0.812410  0.715860  1.0  -0.0014
  C  C147  1  0.974690  0.588610  0.742100  1.0  0.0286
  C  C148  1  0.974960  0.532820  0.694150  1.0  -0.0092
  C  C149  1  0.290920  0.328360  0.241230  1.0  0.0025
  C  C150  1  0.210330  0.312410  0.215860  1.0  -0.0014
  C  C151  1  0.474690  0.088610  0.242100  1.0  0.0286
  C  C152  1  0.474960  0.032820  0.194150  1.0  -0.0092
  C  C153  1  0.078360  0.459080  0.491230  1.0  0.001
  C  C154  1  0.062410  0.539670  0.465860  1.0  -0.0007
  C  C155  1  0.838610  0.275310  0.492100  1.0  0.0263
  C  C156  1  0.782820  0.275040  0.444150  1.0  -0.0124
  C  C157  1  0.578360  0.959080  0.991230  1.0  0.001
  C  C158  1  0.562410  0.039670  0.965860  1.0  -0.0007
  C  C159  1  0.338610  0.775310  0.992100  1.0  0.0263
  C  C160  1  0.282820  0.775040  0.944150  1.0  -0.0124
  C  C161  1  0.421640  0.540920  0.991230  1.0  0.0013
  C  C162  1  0.437590  0.460330  0.965860  1.0  -0.0003
  C  C163  1  0.661390  0.724690  0.992100  1.0  0.0291
  C  C164  1  0.717180  0.724960  0.944150  1.0  -0.011
  C  C165  1  0.921640  0.040920  0.491230  1.0  0.0013
  C  C166  1  0.937590  0.960330  0.465860  1.0  -0.0003
  C  C167  1  0.161390  0.224690  0.492100  1.0  0.0291
  C  C168  1  0.217180  0.224960  0.444150  1.0  -0.011
  C  C169  1  0.790920  0.171640  0.758770  1.0  -0.0027
  C  C170  1  0.710330  0.187590  0.784140  1.0  -0.0007
  C  C171  1  0.974690  0.411390  0.757900  1.0  0.0284
  C  C172  1  0.974960  0.467180  0.805850  1.0  -0.0098
  C  C173  1  0.290920  0.671640  0.258770  1.0  -0.0027
  C  C174  1  0.210330  0.687590  0.284140  1.0  -0.0007
  C  C175  1  0.474690  0.911390  0.257900  1.0  0.0284
  C  C176  1  0.474960  0.967180  0.305850  1.0  -0.0098
  C  C177  1  0.709080  0.828360  0.258770  1.0  0.0004
  C  C178  1  0.789670  0.812410  0.284140  1.0  -0.002
  C  C179  1  0.525310  0.588610  0.257900  1.0  0.0276
  C  C180  1  0.525040  0.532820  0.305850  1.0  -0.0098
  C  C181  1  0.209080  0.328360  0.758770  1.0  0.0004
  C  C182  1  0.289670  0.312410  0.784140  1.0  -0.002
  C  C183  1  0.025310  0.088610  0.757900  1.0  0.0276
  C  C184  1  0.025040  0.032820  0.805850  1.0  -0.0098
  C  C185  1  0.421640  0.459080  0.508770  1.0  0.0004
  C  C186  1  0.437590  0.539670  0.534140  1.0  0.0003
  C  C187  1  0.661390  0.275310  0.507900  1.0  0.0288
  C  C188  1  0.717180  0.275040  0.555850  1.0  -0.0114
  C  C189  1  0.921640  0.959080  0.008770  1.0  0.0004
  C  C190  1  0.937590  0.039670  0.034140  1.0  0.0003
  C  C191  1  0.161390  0.775310  0.007900  1.0  0.0288
  C  C192  1  0.217180  0.775040  0.055850  1.0  -0.0114
  C  C193  1  0.078360  0.540920  0.008770  1.0  0.0005
  C  C194  1  0.062410  0.460330  0.034140  1.0  -0.0006
  C  C195  1  0.838610  0.724690  0.007900  1.0  0.0257
  C  C196  1  0.782820  0.724960  0.055850  1.0  -0.0119
  C  C197  1  0.578360  0.040920  0.508770  1.0  0.0005
  C  C198  1  0.562410  0.960330  0.534140  1.0  -0.0006
  C  C199  1  0.338610  0.224690  0.507900  1.0  0.0257
  C  C200  1  0.282820  0.224960  0.555850  1.0  -0.0119
  C  C201  1  0.290920  0.828360  0.758770  1.0  0.0032
  C  C202  1  0.210330  0.812410  0.784140  1.0  -0.0013
  C  C203  1  0.474690  0.588610  0.757900  1.0  0.0282
  C  C204  1  0.474960  0.532820  0.805850  1.0  -0.0094
  C  C205  1  0.790920  0.328360  0.258770  1.0  0.0032
  C  C206  1  0.710330  0.312410  0.284140  1.0  -0.0013
  C  C207  1  0.974690  0.088610  0.257900  1.0  0.0282
  C  C208  1  0.974960  0.032820  0.305850  1.0  -0.0094
  C  C209  1  0.209080  0.171640  0.258770  1.0  -0.0015
  C  C210  1  0.289670  0.187590  0.284140  1.0  -0.0015
  C  C211  1  0.025310  0.411390  0.257900  1.0  0.0277
  C  C212  1  0.025040  0.467180  0.305850  1.0  -0.01
  C  C213  1  0.709080  0.671640  0.758770  1.0  -0.0015
  C  C214  1  0.789670  0.687590  0.784140  1.0  -0.0015
  C  C215  1  0.525310  0.911390  0.757900  1.0  0.0277
  C  C216  1  0.525040  0.967180  0.805850  1.0  -0.01
  C  C217  1  0.921640  0.540920  0.508770  1.0  0.0021
  C  C218  1  0.937590  0.460330  0.534140  1.0  -0.0004
  C  C219  1  0.161390  0.724690  0.507900  1.0  0.0287
  C  C220  1  0.217180  0.724960  0.555850  1.0  -0.0113
  C  C221  1  0.421640  0.040920  0.008770  1.0  0.0021
  C  C222  1  0.437590  0.960330  0.034140  1.0  -0.0004
  C  C223  1  0.661390  0.224690  0.007900  1.0  0.0287
  C  C224  1  0.717180  0.224960  0.055850  1.0  -0.0113
  C  C225  1  0.578360  0.459080  0.008770  1.0  0.002
  C  C226  1  0.562410  0.539670  0.034140  1.0  -0.0008
  C  C227  1  0.338610  0.275310  0.007900  1.0  0.0258
  C  C228  1  0.282820  0.275040  0.055850  1.0  -0.012
  C  C229  1  0.078360  0.959080  0.508770  1.0  0.002
  C  C230  1  0.062410  0.039670  0.534140  1.0  -0.0008
  C  C231  1  0.838610  0.775310  0.507900  1.0  0.0258
  C  C232  1  0.782820  0.775040  0.555850  1.0  -0.012
  C  C233  1  0.209080  0.828360  0.241230  1.0  0.0027
  C  C234  1  0.289670  0.812410  0.215860  1.0  -0.0025
  C  C235  1  0.025310  0.588610  0.242100  1.0  0.0279
  C  C236  1  0.025040  0.532820  0.194150  1.0  -0.0097
  C  C237  1  0.709080  0.328360  0.741230  1.0  0.0027
  C  C238  1  0.789670  0.312410  0.715860  1.0  -0.0025
  C  C239  1  0.525310  0.088610  0.742100  1.0  0.0279
  C  C240  1  0.525040  0.032820  0.694150  1.0  -0.0097
  C  C241  1  0.290920  0.171640  0.741230  1.0  -0.0004
  C  C242  1  0.210330  0.187590  0.715860  1.0  -0.0014
  C  C243  1  0.474690  0.411390  0.742100  1.0  0.029
  C  C244  1  0.474960  0.467180  0.694150  1.0  -0.0101
  C  C245  1  0.790920  0.671640  0.241230  1.0  -0.0004
  C  C246  1  0.710330  0.687590  0.215860  1.0  -0.0014
  C  C247  1  0.974690  0.911390  0.242100  1.0  0.029
  C  C248  1  0.974960  0.967180  0.194150  1.0  -0.0101
  C  C249  1  0.578360  0.540920  0.491230  1.0  0.0027
  C  C250  1  0.562410  0.460330  0.465860  1.0  -0.0013
  C  C251  1  0.338610  0.724690  0.492100  1.0  0.0263
  C  C252  1  0.282820  0.724960  0.444150  1.0  -0.0123
  C  C253  1  0.078360  0.040920  0.991230  1.0  0.0027
  C  C254  1  0.062410  0.960330  0.965860  1.0  -0.0013
  C  C255  1  0.838610  0.224690  0.992100  1.0  0.0263
  C  C256  1  0.782820  0.224960  0.944150  1.0  -0.0123
  C  C257  1  0.921640  0.459080  0.991230  1.0  0.0022
  C  C258  1  0.937590  0.539670  0.965860  1.0  -0.0005
  C  C259  1  0.161390  0.275310  0.992100  1.0  0.0292
  C  C260  1  0.217180  0.275040  0.944150  1.0  -0.0113
  C  C261  1  0.421640  0.959080  0.491230  1.0  0.0022
  C  C262  1  0.437590  0.039670  0.465860  1.0  -0.0005
  C  C263  1  0.661390  0.775310  0.492100  1.0  0.0292
  C  C264  1  0.717180  0.775040  0.444150  1.0  -0.0113
  N  N265  1  0.669160  0.233900  0.274910  1.0  0.307
  N  N266  1  0.526170  0.444270  0.297950  1.0  0.2699
  N  N267  1  0.169160  0.733900  0.774910  1.0  0.307
  N  N268  1  0.026170  0.944270  0.797950  1.0  0.2699
  N  N269  1  0.830840  0.766100  0.774910  1.0  0.3083
  N  N270  1  0.973830  0.555730  0.797950  1.0  0.2695
  N  N271  1  0.330840  0.266100  0.274910  1.0  0.3083
  N  N272  1  0.473830  0.055730  0.297950  1.0  0.2695
  N  N273  1  0.016100  0.419160  0.524910  1.0  0.3028
  N  N274  1  0.805730  0.276170  0.547950  1.0  0.2686
  N  N275  1  0.516100  0.919160  0.024910  1.0  0.3028
  N  N276  1  0.305730  0.776170  0.047950  1.0  0.2686
  N  N277  1  0.483900  0.580840  0.024910  1.0  0.3044
  N  N278  1  0.694270  0.723830  0.047950  1.0  0.2667
  N  N279  1  0.983900  0.080840  0.524910  1.0  0.3044
  N  N280  1  0.194270  0.223830  0.547950  1.0  0.2667
  N  N281  1  0.830840  0.233900  0.725090  1.0  0.3088
  N  N282  1  0.973830  0.444270  0.702050  1.0  0.2703
  N  N283  1  0.330840  0.733900  0.225090  1.0  0.3088
  N  N284  1  0.473830  0.944270  0.202050  1.0  0.2703
  N  N285  1  0.669160  0.766100  0.225090  1.0  0.3069
  N  N286  1  0.526170  0.555730  0.202050  1.0  0.2709
  N  N287  1  0.169160  0.266100  0.725090  1.0  0.3069
  N  N288  1  0.026170  0.055730  0.702050  1.0  0.2709
  N  N289  1  0.483900  0.419160  0.475090  1.0  0.3036
  N  N290  1  0.694270  0.276170  0.452050  1.0  0.268
  N  N291  1  0.983900  0.919160  0.975090  1.0  0.3036
  N  N292  1  0.194270  0.776170  0.952050  1.0  0.268
  N  N293  1  0.016100  0.580840  0.975090  1.0  0.3036
  N  N294  1  0.805730  0.723830  0.952050  1.0  0.2696
  N  N295  1  0.516100  0.080840  0.475090  1.0  0.3036
  N  N296  1  0.305730  0.223830  0.452050  1.0  0.2696
  N  N297  1  0.330840  0.766100  0.725090  1.0  0.3086
  N  N298  1  0.473830  0.555730  0.702050  1.0  0.2704
  N  N299  1  0.830840  0.266100  0.225090  1.0  0.3086
  N  N300  1  0.973830  0.055730  0.202050  1.0  0.2704
  N  N301  1  0.169160  0.233900  0.225090  1.0  0.3071
  N  N302  1  0.026170  0.444270  0.202050  1.0  0.2706
  N  N303  1  0.669160  0.733900  0.725090  1.0  0.3071
  N  N304  1  0.526170  0.944270  0.702050  1.0  0.2706
  N  N305  1  0.983900  0.580840  0.475090  1.0  0.3042
  N  N306  1  0.194270  0.723830  0.452050  1.0  0.2679
  N  N307  1  0.483900  0.080840  0.975090  1.0  0.3042
  N  N308  1  0.694270  0.223830  0.952050  1.0  0.2679
  N  N309  1  0.516100  0.419160  0.975090  1.0  0.3031
  N  N310  1  0.305730  0.276170  0.952050  1.0  0.2695
  N  N311  1  0.016100  0.919160  0.475090  1.0  0.3031
  N  N312  1  0.805730  0.776170  0.452050  1.0  0.2695
  N  N313  1  0.169160  0.766100  0.274910  1.0  0.3067
  N  N314  1  0.026170  0.555730  0.297950  1.0  0.27
  N  N315  1  0.669160  0.266100  0.774910  1.0  0.3067
  N  N316  1  0.526170  0.055730  0.797950  1.0  0.27
  N  N317  1  0.330840  0.233900  0.774910  1.0  0.3086
  N  N318  1  0.473830  0.444270  0.797950  1.0  0.2697
  N  N319  1  0.830840  0.733900  0.274910  1.0  0.3086
  N  N320  1  0.973830  0.944270  0.297950  1.0  0.2697
  N  N321  1  0.516100  0.580840  0.524910  1.0  0.3033
  N  N322  1  0.305730  0.723830  0.547950  1.0  0.2683
  N  N323  1  0.016100  0.080840  0.024910  1.0  0.3033
  N  N324  1  0.805730  0.223830  0.047950  1.0  0.2683
  N  N325  1  0.983900  0.419160  0.024910  1.0  0.3038
  N  N326  1  0.194270  0.276170  0.047950  1.0  0.2672
  N  N327  1  0.483900  0.919160  0.524910  1.0  0.3038
  N  N328  1  0.694270  0.776170  0.547950  1.0  0.2672
  O  O329  1  0.590520  0.218400  0.295940  1.0  -0.655
  O  O330  1  0.532020  0.393230  0.344400  1.0  -0.653
  O  O331  1  0.090520  0.718400  0.795940  1.0  -0.655
  O  O332  1  0.032020  0.893230  0.844400  1.0  -0.653
  O  O333  1  0.909480  0.781600  0.795940  1.0  -0.6575
  O  O334  1  0.967980  0.606770  0.844400  1.0  -0.6522
  O  O335  1  0.409480  0.281600  0.295940  1.0  -0.6575
  O  O336  1  0.467980  0.106770  0.344400  1.0  -0.6522
  O  O337  1  0.031600  0.340520  0.545940  1.0  -0.6543
  O  O338  1  0.856770  0.282020  0.594400  1.0  -0.6545
  O  O339  1  0.531600  0.840520  0.045940  1.0  -0.6543
  O  O340  1  0.356770  0.782020  0.094400  1.0  -0.6545
  O  O341  1  0.468400  0.659480  0.045940  1.0  -0.6554
  O  O342  1  0.643230  0.717980  0.094400  1.0  -0.654
  O  O343  1  0.968400  0.159480  0.545940  1.0  -0.6554
  O  O344  1  0.143230  0.217980  0.594400  1.0  -0.654
  O  O345  1  0.909480  0.218400  0.704060  1.0  -0.657
  O  O346  1  0.967980  0.393230  0.655600  1.0  -0.6545
  O  O347  1  0.409480  0.718400  0.204060  1.0  -0.657
  O  O348  1  0.467980  0.893230  0.155600  1.0  -0.6545
  O  O349  1  0.590520  0.781600  0.204060  1.0  -0.6557
  O  O350  1  0.532020  0.606770  0.155600  1.0  -0.6536
  O  O351  1  0.090520  0.281600  0.704060  1.0  -0.6557
  O  O352  1  0.032020  0.106770  0.655600  1.0  -0.6536
  O  O353  1  0.468400  0.340520  0.454060  1.0  -0.6553
  O  O354  1  0.643230  0.282020  0.405600  1.0  -0.6559
  O  O355  1  0.968400  0.840520  0.954060  1.0  -0.6553
  O  O356  1  0.143230  0.782020  0.905600  1.0  -0.6559
  O  O357  1  0.031600  0.659480  0.954060  1.0  -0.6548
  O  O358  1  0.856770  0.717980  0.905600  1.0  -0.6556
  O  O359  1  0.531600  0.159480  0.454060  1.0  -0.6548
  O  O360  1  0.356770  0.217980  0.405600  1.0  -0.6556
  O  O361  1  0.409480  0.781600  0.704060  1.0  -0.6574
  O  O362  1  0.467980  0.606770  0.655600  1.0  -0.6526
  O  O363  1  0.909480  0.281600  0.204060  1.0  -0.6574
  O  O364  1  0.967980  0.106770  0.155600  1.0  -0.6526
  O  O365  1  0.090520  0.218400  0.204060  1.0  -0.6565
  O  O366  1  0.032020  0.393230  0.155600  1.0  -0.6523
  O  O367  1  0.590520  0.718400  0.704060  1.0  -0.6565
  O  O368  1  0.532020  0.893230  0.655600  1.0  -0.6523
  O  O369  1  0.968400  0.659480  0.454060  1.0  -0.6557
  O  O370  1  0.143230  0.717980  0.405600  1.0  -0.6539
  O  O371  1  0.468400  0.159480  0.954060  1.0  -0.6557
  O  O372  1  0.643230  0.217980  0.905600  1.0  -0.6539
  O  O373  1  0.531600  0.340520  0.954060  1.0  -0.6554
  O  O374  1  0.356770  0.282020  0.905600  1.0  -0.6543
  O  O375  1  0.031600  0.840520  0.454060  1.0  -0.6554
  O  O376  1  0.856770  0.782020  0.405600  1.0  -0.6543
  O  O377  1  0.090520  0.781600  0.295940  1.0  -0.6552
  O  O378  1  0.032020  0.606770  0.344400  1.0  -0.6513
  O  O379  1  0.590520  0.281600  0.795940  1.0  -0.6552
  O  O380  1  0.532020  0.106770  0.844400  1.0  -0.6513
  O  O381  1  0.409480  0.218400  0.795940  1.0  -0.6575
  O  O382  1  0.467980  0.393230  0.844400  1.0  -0.6532
  O  O383  1  0.909480  0.718400  0.295940  1.0  -0.6575
  O  O384  1  0.967980  0.893230  0.344400  1.0  -0.6532
  O  O385  1  0.531600  0.659480  0.545940  1.0  -0.654
  O  O386  1  0.356770  0.717980  0.594400  1.0  -0.6538
  O  O387  1  0.031600  0.159480  0.045940  1.0  -0.654
  O  O388  1  0.856770  0.217980  0.094400  1.0  -0.6538
  O  O389  1  0.968400  0.340520  0.045940  1.0  -0.656
  O  O390  1  0.143230  0.282020  0.094400  1.0  -0.6538
  O  O391  1  0.468400  0.840520  0.545940  1.0  -0.656
  O  O392  1  0.643230  0.782020  0.594400  1.0  -0.6538
