# generated using pymatgen
data_DyH16C16(NO)8
_symmetry_space_group_name_H-M   'P 1'
_cell_length_a   15.25530000
_cell_length_b   15.25530000
_cell_length_c   22.66670000
_cell_angle_alpha   90.00000000
_cell_angle_beta   90.00000000
_cell_angle_gamma   90.00000000
_symmetry_Int_Tables_number   1
_chemical_formula_structural   DyH16C16(NO)8
_chemical_formula_sum   'Dy8 H128 C128 N64 O64'
_cell_volume   5275.08912751
_cell_formula_units_Z   8
loop_
 _symmetry_equiv_pos_site_id
 _symmetry_equiv_pos_as_xyz
  1  'x, y, z'
loop_
 _atom_site_type_symbol
 _atom_site_label
 _atom_site_symmetry_multiplicity
 _atom_site_fract_x
 _atom_site_fract_y
 _atom_site_fract_z
 _atom_site_occupancy
 _atom_site_charge
  Dy  Dy1  1  0.500000  0.250000  0.375000  1.0  2.2983
  Dy  Dy2  1  0.000000  0.750000  0.875000  1.0  2.2983
  Dy  Dy3  1  0.000000  0.250000  0.625000  1.0  2.2983
  Dy  Dy4  1  0.500000  0.750000  0.125000  1.0  2.2983
  Dy  Dy5  1  0.500000  0.750000  0.625000  1.0  2.2983
  Dy  Dy6  1  0.000000  0.250000  0.125000  1.0  2.2983
  Dy  Dy7  1  0.000000  0.750000  0.375000  1.0  2.2983
  Dy  Dy8  1  0.500000  0.250000  0.875000  1.0  2.2983
  H  H9  1  0.680700  0.117900  0.233500  1.0  0.0888
  H  H10  1  0.816100  0.145300  0.191400  1.0  0.0793
  H  H11  1  0.525200  0.350100  0.236800  1.0  0.0769
  H  H12  1  0.525000  0.442800  0.156000  1.0  0.084
  H  H13  1  0.180700  0.617900  0.733500  1.0  0.0888
  H  H14  1  0.316100  0.645300  0.691400  1.0  0.0793
  H  H15  1  0.025200  0.850100  0.736800  1.0  0.0769
  H  H16  1  0.025000  0.942800  0.656000  1.0  0.084
  H  H17  1  0.819300  0.882100  0.733500  1.0  0.0892
  H  H18  1  0.683900  0.854700  0.691400  1.0  0.08
  H  H19  1  0.974800  0.649900  0.736800  1.0  0.077
  H  H20  1  0.975000  0.557200  0.656000  1.0  0.0838
  H  H21  1  0.319300  0.382100  0.233500  1.0  0.0892
  H  H22  1  0.183900  0.354700  0.191400  1.0  0.08
  H  H23  1  0.474800  0.149900  0.236800  1.0  0.077
  H  H24  1  0.475000  0.057200  0.156000  1.0  0.0838
  H  H25  1  0.132100  0.430700  0.483500  1.0  0.0907
  H  H26  1  0.104700  0.566100  0.441400  1.0  0.0795
  H  H27  1  0.899900  0.275200  0.486800  1.0  0.0764
  H  H28  1  0.807200  0.275000  0.406000  1.0  0.0846
  H  H29  1  0.632100  0.930700  0.983500  1.0  0.0907
  H  H30  1  0.604700  0.066100  0.941400  1.0  0.0795
  H  H31  1  0.399900  0.775200  0.986800  1.0  0.0764
  H  H32  1  0.307200  0.775000  0.906000  1.0  0.0846
  H  H33  1  0.367900  0.569300  0.983500  1.0  0.0905
  H  H34  1  0.395300  0.433900  0.941400  1.0  0.0792
  H  H35  1  0.600100  0.724800  0.986800  1.0  0.0766
  H  H36  1  0.692800  0.725000  0.906000  1.0  0.0845
  H  H37  1  0.867900  0.069300  0.483500  1.0  0.0905
  H  H38  1  0.895300  0.933900  0.441400  1.0  0.0792
  H  H39  1  0.100100  0.224800  0.486800  1.0  0.0766
  H  H40  1  0.192800  0.225000  0.406000  1.0  0.0845
  H  H41  1  0.819300  0.117900  0.766500  1.0  0.0893
  H  H42  1  0.683900  0.145300  0.808600  1.0  0.0794
  H  H43  1  0.974800  0.350100  0.763200  1.0  0.0773
  H  H44  1  0.975000  0.442800  0.844000  1.0  0.0839
  H  H45  1  0.319300  0.617900  0.266500  1.0  0.0893
  H  H46  1  0.183900  0.645300  0.308600  1.0  0.0794
  H  H47  1  0.474800  0.850100  0.263200  1.0  0.0773
  H  H48  1  0.475000  0.942800  0.344000  1.0  0.0839
  H  H49  1  0.680700  0.882100  0.266500  1.0  0.0889
  H  H50  1  0.816100  0.854700  0.308600  1.0  0.0789
  H  H51  1  0.525200  0.649900  0.263200  1.0  0.0769
  H  H52  1  0.525000  0.557200  0.344000  1.0  0.0835
  H  H53  1  0.180700  0.382100  0.766500  1.0  0.0889
  H  H54  1  0.316100  0.354700  0.808600  1.0  0.0789
  H  H55  1  0.025200  0.149900  0.763200  1.0  0.0769
  H  H56  1  0.025000  0.057200  0.844000  1.0  0.0835
  H  H57  1  0.367900  0.430700  0.516500  1.0  0.0904
  H  H58  1  0.395300  0.566100  0.558600  1.0  0.0787
  H  H59  1  0.600100  0.275200  0.513200  1.0  0.0769
  H  H60  1  0.692800  0.275000  0.594000  1.0  0.0846
  H  H61  1  0.867900  0.930700  0.016500  1.0  0.0904
  H  H62  1  0.895300  0.066100  0.058600  1.0  0.0787
  H  H63  1  0.100100  0.775200  0.013200  1.0  0.0769
  H  H64  1  0.192800  0.775000  0.094000  1.0  0.0846
  H  H65  1  0.132100  0.569300  0.016500  1.0  0.0903
  H  H66  1  0.104700  0.433900  0.058600  1.0  0.079
  H  H67  1  0.899900  0.724800  0.013200  1.0  0.0768
  H  H68  1  0.807200  0.725000  0.094000  1.0  0.0845
  H  H69  1  0.632100  0.069300  0.516500  1.0  0.0903
  H  H70  1  0.604700  0.933900  0.558600  1.0  0.079
  H  H71  1  0.399900  0.224800  0.513200  1.0  0.0768
  H  H72  1  0.307200  0.225000  0.594000  1.0  0.0845
  H  H73  1  0.319300  0.882100  0.766500  1.0  0.089
  H  H74  1  0.183900  0.854700  0.808600  1.0  0.0795
  H  H75  1  0.474800  0.649900  0.763200  1.0  0.0769
  H  H76  1  0.475000  0.557200  0.844000  1.0  0.0837
  H  H77  1  0.819300  0.382100  0.266500  1.0  0.089
  H  H78  1  0.683900  0.354700  0.308600  1.0  0.0795
  H  H79  1  0.974800  0.149900  0.263200  1.0  0.0769
  H  H80  1  0.975000  0.057200  0.344000  1.0  0.0837
  H  H81  1  0.180700  0.117900  0.266500  1.0  0.0888
  H  H82  1  0.316100  0.145300  0.308600  1.0  0.0795
  H  H83  1  0.025200  0.350100  0.263200  1.0  0.0772
  H  H84  1  0.025000  0.442800  0.344000  1.0  0.0837
  H  H85  1  0.680700  0.617900  0.766500  1.0  0.0888
  H  H86  1  0.816100  0.645300  0.808600  1.0  0.0795
  H  H87  1  0.525200  0.850100  0.763200  1.0  0.0772
  H  H88  1  0.525000  0.942800  0.844000  1.0  0.0837
  H  H89  1  0.867900  0.569300  0.516500  1.0  0.0902
  H  H90  1  0.895300  0.433900  0.558600  1.0  0.0788
  H  H91  1  0.100100  0.724800  0.513200  1.0  0.0769
  H  H92  1  0.192800  0.725000  0.594000  1.0  0.0843
  H  H93  1  0.367900  0.069300  0.016500  1.0  0.0902
  H  H94  1  0.395300  0.933900  0.058600  1.0  0.0788
  H  H95  1  0.600100  0.224800  0.013200  1.0  0.0769
  H  H96  1  0.692800  0.225000  0.094000  1.0  0.0843
  H  H97  1  0.632100  0.430700  0.016500  1.0  0.0905
  H  H98  1  0.604700  0.566100  0.058600  1.0  0.0794
  H  H99  1  0.399900  0.275200  0.013200  1.0  0.0768
  H  H100  1  0.307200  0.275000  0.094000  1.0  0.0847
  H  H101  1  0.132100  0.930700  0.516500  1.0  0.0905
  H  H102  1  0.104700  0.066100  0.558600  1.0  0.0794
  H  H103  1  0.899900  0.775200  0.513200  1.0  0.0768
  H  H104  1  0.807200  0.775000  0.594000  1.0  0.0847
  H  H105  1  0.180700  0.882100  0.233500  1.0  0.089
  H  H106  1  0.316100  0.854700  0.191400  1.0  0.0794
  H  H107  1  0.025200  0.649900  0.236800  1.0  0.0769
  H  H108  1  0.025000  0.557200  0.156000  1.0  0.0836
  H  H109  1  0.680700  0.382100  0.733500  1.0  0.089
  H  H110  1  0.816100  0.354700  0.691400  1.0  0.0794
  H  H111  1  0.525200  0.149900  0.736800  1.0  0.0769
  H  H112  1  0.525000  0.057200  0.656000  1.0  0.0836
  H  H113  1  0.319300  0.117900  0.733500  1.0  0.0893
  H  H114  1  0.183900  0.145300  0.691400  1.0  0.0794
  H  H115  1  0.474800  0.350100  0.736800  1.0  0.0771
  H  H116  1  0.475000  0.442800  0.656000  1.0  0.0842
  H  H117  1  0.819300  0.617900  0.233500  1.0  0.0893
  H  H118  1  0.683900  0.645300  0.191400  1.0  0.0794
  H  H119  1  0.974800  0.850100  0.236800  1.0  0.0771
  H  H120  1  0.975000  0.942800  0.156000  1.0  0.0842
  H  H121  1  0.632100  0.569300  0.483500  1.0  0.0907
  H  H122  1  0.604700  0.433900  0.441400  1.0  0.0793
  H  H123  1  0.399900  0.724800  0.486800  1.0  0.0765
  H  H124  1  0.307200  0.725000  0.406000  1.0  0.0846
  H  H125  1  0.132100  0.069300  0.983500  1.0  0.0907
  H  H126  1  0.104700  0.933900  0.941400  1.0  0.0793
  H  H127  1  0.899900  0.224800  0.986800  1.0  0.0765
  H  H128  1  0.807200  0.225000  0.906000  1.0  0.0846
  H  H129  1  0.867900  0.430700  0.983500  1.0  0.0905
  H  H130  1  0.895300  0.566100  0.941400  1.0  0.0788
  H  H131  1  0.100100  0.275200  0.986800  1.0  0.0765
  H  H132  1  0.192800  0.275000  0.906000  1.0  0.0845
  H  H133  1  0.367900  0.930700  0.483500  1.0  0.0905
  H  H134  1  0.395300  0.066100  0.441400  1.0  0.0788
  H  H135  1  0.600100  0.775200  0.486800  1.0  0.0765
  H  H136  1  0.692800  0.775000  0.406000  1.0  0.0845
  C  C137  1  0.708960  0.172480  0.240200  1.0  -0.0294
  C  C138  1  0.789200  0.188380  0.215660  1.0  -0.0169
  C  C139  1  0.526000  0.411830  0.242530  1.0  -0.0052
  C  C140  1  0.525880  0.466690  0.194700  1.0  -0.0006
  C  C141  1  0.208960  0.672480  0.740200  1.0  -0.0294
  C  C142  1  0.289200  0.688380  0.715660  1.0  -0.0169
  C  C143  1  0.026000  0.911830  0.742530  1.0  -0.0052
  C  C144  1  0.025880  0.966690  0.694700  1.0  -0.0006
  C  C145  1  0.791040  0.827520  0.740200  1.0  -0.0255
  C  C146  1  0.710800  0.811620  0.715660  1.0  -0.0154
  C  C147  1  0.974000  0.588170  0.742530  1.0  -0.0056
  C  C148  1  0.974120  0.533310  0.694700  1.0  -0.0003
  C  C149  1  0.291040  0.327520  0.240200  1.0  -0.0255
  C  C150  1  0.210800  0.311620  0.215660  1.0  -0.0154
  C  C151  1  0.474000  0.088170  0.242530  1.0  -0.0056
  C  C152  1  0.474120  0.033310  0.194700  1.0  -0.0003
  C  C153  1  0.077520  0.458960  0.490200  1.0  -0.0253
  C  C154  1  0.061620  0.539200  0.465660  1.0  -0.0151
  C  C155  1  0.838170  0.276000  0.492530  1.0  -0.0061
  C  C156  1  0.783310  0.275880  0.444700  1.0  -0.0023
  C  C157  1  0.577520  0.958960  0.990200  1.0  -0.0253
  C  C158  1  0.561620  0.039200  0.965660  1.0  -0.0151
  C  C159  1  0.338170  0.776000  0.992530  1.0  -0.0061
  C  C160  1  0.283310  0.775880  0.944700  1.0  -0.0023
  C  C161  1  0.422480  0.541040  0.990200  1.0  -0.0251
  C  C162  1  0.438380  0.460800  0.965660  1.0  -0.0134
  C  C163  1  0.661830  0.724000  0.992530  1.0  -0.0057
  C  C164  1  0.716690  0.724120  0.944700  1.0  -0.0016
  C  C165  1  0.922480  0.041040  0.490200  1.0  -0.0251
  C  C166  1  0.938380  0.960800  0.465660  1.0  -0.0134
  C  C167  1  0.161830  0.224000  0.492530  1.0  -0.0057
  C  C168  1  0.216690  0.224120  0.444700  1.0  -0.0016
  C  C169  1  0.791040  0.172480  0.759800  1.0  -0.0289
  C  C170  1  0.710800  0.188380  0.784340  1.0  -0.0156
  C  C171  1  0.974000  0.411830  0.757470  1.0  -0.0048
  C  C172  1  0.974120  0.466690  0.805300  1.0  -0.0002
  C  C173  1  0.291040  0.672480  0.259800  1.0  -0.0289
  C  C174  1  0.210800  0.688380  0.284340  1.0  -0.0156
  C  C175  1  0.474000  0.911830  0.257470  1.0  -0.0048
  C  C176  1  0.474120  0.966690  0.305300  1.0  -0.0002
  C  C177  1  0.708960  0.827520  0.259800  1.0  -0.0276
  C  C178  1  0.789200  0.811620  0.284340  1.0  -0.0166
  C  C179  1  0.526000  0.588170  0.257470  1.0  -0.0062
  C  C180  1  0.525880  0.533310  0.305300  1.0  -0.0004
  C  C181  1  0.208960  0.327520  0.759800  1.0  -0.0276
  C  C182  1  0.289200  0.311620  0.784340  1.0  -0.0166
  C  C183  1  0.026000  0.088170  0.757470  1.0  -0.0062
  C  C184  1  0.025880  0.033310  0.805300  1.0  -0.0004
  C  C185  1  0.422480  0.458960  0.509800  1.0  -0.0252
  C  C186  1  0.438380  0.539200  0.534340  1.0  -0.0127
  C  C187  1  0.661830  0.276000  0.507470  1.0  -0.0061
  C  C188  1  0.716690  0.275880  0.555300  1.0  -0.002
  C  C189  1  0.922480  0.958960  0.009800  1.0  -0.0252
  C  C190  1  0.938380  0.039200  0.034340  1.0  -0.0127
  C  C191  1  0.161830  0.776000  0.007470  1.0  -0.0061
  C  C192  1  0.216690  0.775880  0.055300  1.0  -0.002
  C  C193  1  0.077520  0.541040  0.009800  1.0  -0.026
  C  C194  1  0.061620  0.460800  0.034340  1.0  -0.0153
  C  C195  1  0.838170  0.724000  0.007470  1.0  -0.006
  C  C196  1  0.783310  0.724120  0.055300  1.0  -0.0018
  C  C197  1  0.577520  0.041040  0.509800  1.0  -0.026
  C  C198  1  0.561620  0.960800  0.534340  1.0  -0.0153
  C  C199  1  0.338170  0.224000  0.507470  1.0  -0.006
  C  C200  1  0.283310  0.224120  0.555300  1.0  -0.0018
  C  C201  1  0.291040  0.827520  0.759800  1.0  -0.0252
  C  C202  1  0.210800  0.811620  0.784340  1.0  -0.0155
  C  C203  1  0.474000  0.588170  0.757470  1.0  -0.0057
  C  C204  1  0.474120  0.533310  0.805300  1.0  -1e-04
  C  C205  1  0.791040  0.327520  0.259800  1.0  -0.0252
  C  C206  1  0.710800  0.311620  0.284340  1.0  -0.0155
  C  C207  1  0.974000  0.088170  0.257470  1.0  -0.0057
  C  C208  1  0.974120  0.033310  0.305300  1.0  -1e-04
  C  C209  1  0.208960  0.172480  0.259800  1.0  -0.0289
  C  C210  1  0.289200  0.188380  0.284340  1.0  -0.0169
  C  C211  1  0.026000  0.411830  0.257470  1.0  -0.0054
  C  C212  1  0.025880  0.466690  0.305300  1.0  -0.0002
  C  C213  1  0.708960  0.672480  0.759800  1.0  -0.0289
  C  C214  1  0.789200  0.688380  0.784340  1.0  -0.0169
  C  C215  1  0.526000  0.911830  0.757470  1.0  -0.0054
  C  C216  1  0.525880  0.966690  0.805300  1.0  -0.0002
  C  C217  1  0.922480  0.541040  0.509800  1.0  -0.0248
  C  C218  1  0.938380  0.460800  0.534340  1.0  -0.0133
  C  C219  1  0.161830  0.724000  0.507470  1.0  -0.006
  C  C220  1  0.216690  0.724120  0.555300  1.0  -0.0019
  C  C221  1  0.422480  0.041040  0.009800  1.0  -0.0248
  C  C222  1  0.438380  0.960800  0.034340  1.0  -0.0133
  C  C223  1  0.661830  0.224000  0.007470  1.0  -0.006
  C  C224  1  0.716690  0.224120  0.055300  1.0  -0.0019
  C  C225  1  0.577520  0.458960  0.009800  1.0  -0.0249
  C  C226  1  0.561620  0.539200  0.034340  1.0  -0.0154
  C  C227  1  0.338170  0.276000  0.007470  1.0  -0.006
  C  C228  1  0.283310  0.275880  0.055300  1.0  -0.0015
  C  C229  1  0.077520  0.958960  0.509800  1.0  -0.0249
  C  C230  1  0.061620  0.039200  0.534340  1.0  -0.0154
  C  C231  1  0.838170  0.776000  0.507470  1.0  -0.006
  C  C232  1  0.783310  0.775880  0.555300  1.0  -0.0015
  C  C233  1  0.208960  0.827520  0.240200  1.0  -0.0259
  C  C234  1  0.289200  0.811620  0.215660  1.0  -0.017
  C  C235  1  0.026000  0.588170  0.242530  1.0  -0.0063
  C  C236  1  0.025880  0.533310  0.194700  1.0  -0.0005
  C  C237  1  0.708960  0.327520  0.740200  1.0  -0.0259
  C  C238  1  0.789200  0.311620  0.715660  1.0  -0.017
  C  C239  1  0.526000  0.088170  0.742530  1.0  -0.0063
  C  C240  1  0.525880  0.033310  0.694700  1.0  -0.0005
  C  C241  1  0.291040  0.172480  0.740200  1.0  -0.0276
  C  C242  1  0.210800  0.188380  0.715660  1.0  -0.0162
  C  C243  1  0.474000  0.411830  0.742530  1.0  -0.0046
  C  C244  1  0.474120  0.466690  0.694700  1.0  -0.0007
  C  C245  1  0.791040  0.672480  0.240200  1.0  -0.0276
  C  C246  1  0.710800  0.688380  0.215660  1.0  -0.0162
  C  C247  1  0.974000  0.911830  0.242530  1.0  -0.0046
  C  C248  1  0.974120  0.966690  0.194700  1.0  -0.0007
  C  C249  1  0.577520  0.541040  0.490200  1.0  -0.0247
  C  C250  1  0.561620  0.460800  0.465660  1.0  -0.0158
  C  C251  1  0.338170  0.724000  0.492530  1.0  -0.0061
  C  C252  1  0.283310  0.724120  0.444700  1.0  -0.0025
  C  C253  1  0.077520  0.041040  0.990200  1.0  -0.0247
  C  C254  1  0.061620  0.960800  0.965660  1.0  -0.0158
  C  C255  1  0.838170  0.224000  0.992530  1.0  -0.0061
  C  C256  1  0.783310  0.224120  0.944700  1.0  -0.0025
  C  C257  1  0.922480  0.458960  0.990200  1.0  -0.0245
  C  C258  1  0.938380  0.539200  0.965660  1.0  -0.0133
  C  C259  1  0.161830  0.276000  0.992530  1.0  -0.0058
  C  C260  1  0.216690  0.275880  0.944700  1.0  -0.0019
  C  C261  1  0.422480  0.958960  0.490200  1.0  -0.0245
  C  C262  1  0.438380  0.039200  0.465660  1.0  -0.0133
  C  C263  1  0.661830  0.776000  0.492530  1.0  -0.0058
  C  C264  1  0.716690  0.775880  0.444700  1.0  -0.0019
  N  N265  1  0.669430  0.234240  0.274150  1.0  0.2731
  N  N266  1  0.527110  0.444910  0.297790  1.0  0.2357
  N  N267  1  0.169430  0.734240  0.774150  1.0  0.2731
  N  N268  1  0.027110  0.944910  0.797790  1.0  0.2357
  N  N269  1  0.830570  0.765760  0.774150  1.0  0.2738
  N  N270  1  0.972890  0.555090  0.797790  1.0  0.2354
  N  N271  1  0.330570  0.265760  0.274150  1.0  0.2738
  N  N272  1  0.472890  0.055090  0.297790  1.0  0.2354
  N  N273  1  0.015760  0.419430  0.524150  1.0  0.2695
  N  N274  1  0.805090  0.277110  0.547790  1.0  0.235
  N  N275  1  0.515760  0.919430  0.024150  1.0  0.2695
  N  N276  1  0.305090  0.777110  0.047790  1.0  0.235
  N  N277  1  0.484240  0.580570  0.024150  1.0  0.2702
  N  N278  1  0.694910  0.722890  0.047790  1.0  0.2325
  N  N279  1  0.984240  0.080570  0.524150  1.0  0.2702
  N  N280  1  0.194910  0.222890  0.547790  1.0  0.2325
  N  N281  1  0.830570  0.234240  0.725850  1.0  0.2733
  N  N282  1  0.972890  0.444910  0.702210  1.0  0.2362
  N  N283  1  0.330570  0.734240  0.225850  1.0  0.2733
  N  N284  1  0.472890  0.944910  0.202210  1.0  0.2362
  N  N285  1  0.669430  0.765760  0.225850  1.0  0.2728
  N  N286  1  0.527110  0.555090  0.202210  1.0  0.2378
  N  N287  1  0.169430  0.265760  0.725850  1.0  0.2728
  N  N288  1  0.027110  0.055090  0.702210  1.0  0.2378
  N  N289  1  0.484240  0.419430  0.475850  1.0  0.2692
  N  N290  1  0.694910  0.277110  0.452210  1.0  0.2346
  N  N291  1  0.984240  0.919430  0.975850  1.0  0.2692
  N  N292  1  0.194910  0.777110  0.952210  1.0  0.2346
  N  N293  1  0.015760  0.580570  0.975850  1.0  0.2691
  N  N294  1  0.805090  0.722890  0.952210  1.0  0.236
  N  N295  1  0.515760  0.080570  0.475850  1.0  0.2691
  N  N296  1  0.305090  0.222890  0.452210  1.0  0.236
  N  N297  1  0.330570  0.765760  0.725850  1.0  0.2734
  N  N298  1  0.472890  0.555090  0.702210  1.0  0.2368
  N  N299  1  0.830570  0.265760  0.225850  1.0  0.2734
  N  N300  1  0.972890  0.055090  0.202210  1.0  0.2368
  N  N301  1  0.169430  0.234240  0.225850  1.0  0.2725
  N  N302  1  0.027110  0.444910  0.202210  1.0  0.2371
  N  N303  1  0.669430  0.734240  0.725850  1.0  0.2725
  N  N304  1  0.527110  0.944910  0.702210  1.0  0.2371
  N  N305  1  0.984240  0.580570  0.475850  1.0  0.2696
  N  N306  1  0.194910  0.722890  0.452210  1.0  0.2344
  N  N307  1  0.484240  0.080570  0.975850  1.0  0.2696
  N  N308  1  0.694910  0.222890  0.952210  1.0  0.2344
  N  N309  1  0.515760  0.419430  0.975850  1.0  0.2691
  N  N310  1  0.305090  0.277110  0.952210  1.0  0.236
  N  N311  1  0.015760  0.919430  0.475850  1.0  0.2691
  N  N312  1  0.805090  0.777110  0.452210  1.0  0.236
  N  N313  1  0.169430  0.765760  0.274150  1.0  0.2732
  N  N314  1  0.027110  0.555090  0.297790  1.0  0.2363
  N  N315  1  0.669430  0.265760  0.774150  1.0  0.2732
  N  N316  1  0.527110  0.055090  0.797790  1.0  0.2363
  N  N317  1  0.330570  0.234240  0.774150  1.0  0.2738
  N  N318  1  0.472890  0.444910  0.797790  1.0  0.235
  N  N319  1  0.830570  0.734240  0.274150  1.0  0.2738
  N  N320  1  0.972890  0.944910  0.297790  1.0  0.235
  N  N321  1  0.515760  0.580570  0.524150  1.0  0.2696
  N  N322  1  0.305090  0.722890  0.547790  1.0  0.2345
  N  N323  1  0.015760  0.080570  0.024150  1.0  0.2696
  N  N324  1  0.805090  0.222890  0.047790  1.0  0.2345
  N  N325  1  0.984240  0.419430  0.024150  1.0  0.2696
  N  N326  1  0.194910  0.277110  0.047790  1.0  0.2331
  N  N327  1  0.484240  0.919430  0.524150  1.0  0.2696
  N  N328  1  0.694910  0.777110  0.547790  1.0  0.2331
  O  O329  1  0.591210  0.218760  0.295100  1.0  -0.6829
  O  O330  1  0.532170  0.394510  0.343830  1.0  -0.6802
  O  O331  1  0.091210  0.718760  0.795100  1.0  -0.6829
  O  O332  1  0.032170  0.894510  0.843830  1.0  -0.6802
  O  O333  1  0.908790  0.781240  0.795100  1.0  -0.6832
  O  O334  1  0.967830  0.605490  0.843830  1.0  -0.6782
  O  O335  1  0.408790  0.281240  0.295100  1.0  -0.6832
  O  O336  1  0.467830  0.105490  0.343830  1.0  -0.6782
  O  O337  1  0.031240  0.341210  0.545100  1.0  -0.6821
  O  O338  1  0.855490  0.282170  0.593830  1.0  -0.6809
  O  O339  1  0.531240  0.841210  0.045100  1.0  -0.6821
  O  O340  1  0.355490  0.782170  0.093830  1.0  -0.6809
  O  O341  1  0.468760  0.658790  0.045100  1.0  -0.6831
  O  O342  1  0.644510  0.717830  0.093830  1.0  -0.6814
  O  O343  1  0.968760  0.158790  0.545100  1.0  -0.6831
  O  O344  1  0.144510  0.217830  0.593830  1.0  -0.6814
  O  O345  1  0.908790  0.218760  0.704900  1.0  -0.683
  O  O346  1  0.967830  0.394510  0.656170  1.0  -0.6788
  O  O347  1  0.408790  0.718760  0.204900  1.0  -0.683
  O  O348  1  0.467830  0.894510  0.156170  1.0  -0.6788
  O  O349  1  0.591210  0.781240  0.204900  1.0  -0.6825
  O  O350  1  0.532170  0.605490  0.156170  1.0  -0.6786
  O  O351  1  0.091210  0.281240  0.704900  1.0  -0.6825
  O  O352  1  0.032170  0.105490  0.656170  1.0  -0.6786
  O  O353  1  0.468760  0.341210  0.454900  1.0  -0.6827
  O  O354  1  0.644510  0.282170  0.406170  1.0  -0.6814
  O  O355  1  0.968760  0.841210  0.954900  1.0  -0.6827
  O  O356  1  0.144510  0.782170  0.906170  1.0  -0.6814
  O  O357  1  0.031240  0.658790  0.954900  1.0  -0.6825
  O  O358  1  0.855490  0.717830  0.906170  1.0  -0.6807
  O  O359  1  0.531240  0.158790  0.454900  1.0  -0.6825
  O  O360  1  0.355490  0.217830  0.406170  1.0  -0.6807
  O  O361  1  0.408790  0.781240  0.704900  1.0  -0.6825
  O  O362  1  0.467830  0.605490  0.656170  1.0  -0.6787
  O  O363  1  0.908790  0.281240  0.204900  1.0  -0.6825
  O  O364  1  0.967830  0.105490  0.156170  1.0  -0.6787
  O  O365  1  0.091210  0.218760  0.204900  1.0  -0.6836
  O  O366  1  0.032170  0.394510  0.156170  1.0  -0.6797
  O  O367  1  0.591210  0.718760  0.704900  1.0  -0.6836
  O  O368  1  0.532170  0.894510  0.656170  1.0  -0.6797
  O  O369  1  0.968760  0.658790  0.454900  1.0  -0.6832
  O  O370  1  0.144510  0.717830  0.406170  1.0  -0.6814
  O  O371  1  0.468760  0.158790  0.954900  1.0  -0.6832
  O  O372  1  0.644510  0.217830  0.906170  1.0  -0.6814
  O  O373  1  0.531240  0.341210  0.954900  1.0  -0.6823
  O  O374  1  0.355490  0.282170  0.906170  1.0  -0.6815
  O  O375  1  0.031240  0.841210  0.454900  1.0  -0.6823
  O  O376  1  0.855490  0.782170  0.406170  1.0  -0.6815
  O  O377  1  0.091210  0.781240  0.295100  1.0  -0.6826
  O  O378  1  0.032170  0.605490  0.343830  1.0  -0.679
  O  O379  1  0.591210  0.281240  0.795100  1.0  -0.6826
  O  O380  1  0.532170  0.105490  0.843830  1.0  -0.679
  O  O381  1  0.408790  0.218760  0.795100  1.0  -0.6832
  O  O382  1  0.467830  0.394510  0.843830  1.0  -0.68
  O  O383  1  0.908790  0.718760  0.295100  1.0  -0.6832
  O  O384  1  0.967830  0.894510  0.343830  1.0  -0.68
  O  O385  1  0.531240  0.658790  0.545100  1.0  -0.6821
  O  O386  1  0.355490  0.717830  0.593830  1.0  -0.6811
  O  O387  1  0.031240  0.158790  0.045100  1.0  -0.6821
  O  O388  1  0.855490  0.217830  0.093830  1.0  -0.6811
  O  O389  1  0.968760  0.341210  0.045100  1.0  -0.6831
  O  O390  1  0.144510  0.282170  0.093830  1.0  -0.6816
  O  O391  1  0.468760  0.841210  0.545100  1.0  -0.6831
  O  O392  1  0.644510  0.782170  0.593830  1.0  -0.6816
