# generated using pymatgen
data_HoH16C16(NO)8
_symmetry_space_group_name_H-M   'P 1'
_cell_length_a   15.23020000
_cell_length_b   15.23020000
_cell_length_c   22.63340000
_cell_angle_alpha   90.00000000
_cell_angle_beta   90.00000000
_cell_angle_gamma   90.00000000
_symmetry_Int_Tables_number   1
_chemical_formula_structural   HoH16C16(NO)8
_chemical_formula_sum   'Ho8 H128 C128 N64 O64'
_cell_volume   5250.02065044
_cell_formula_units_Z   8
loop_
 _symmetry_equiv_pos_site_id
 _symmetry_equiv_pos_as_xyz
  1  'x, y, z'
loop_
 _atom_site_type_symbol
 _atom_site_label
 _atom_site_symmetry_multiplicity
 _atom_site_fract_x
 _atom_site_fract_y
 _atom_site_fract_z
 _atom_site_occupancy
 _atom_site_charge
  Ho  Ho1  1  0.500000  0.250000  0.375000  1.0  2.2099
  Ho  Ho2  1  0.000000  0.750000  0.875000  1.0  2.2099
  Ho  Ho3  1  0.000000  0.250000  0.625000  1.0  2.2099
  Ho  Ho4  1  0.500000  0.750000  0.125000  1.0  2.2099
  Ho  Ho5  1  0.500000  0.750000  0.625000  1.0  2.2099
  Ho  Ho6  1  0.000000  0.250000  0.125000  1.0  2.2099
  Ho  Ho7  1  0.000000  0.750000  0.375000  1.0  2.2099
  Ho  Ho8  1  0.500000  0.250000  0.875000  1.0  2.2099
  H  H9  1  0.680000  0.117800  0.233600  1.0  0.0887
  H  H10  1  0.816300  0.144800  0.191400  1.0  0.0805
  H  H11  1  0.525900  0.349900  0.236600  1.0  0.0777
  H  H12  1  0.524900  0.443000  0.155700  1.0  0.0887
  H  H13  1  0.180000  0.617800  0.733600  1.0  0.0887
  H  H14  1  0.316300  0.644800  0.691400  1.0  0.0805
  H  H15  1  0.025900  0.849900  0.736600  1.0  0.0777
  H  H16  1  0.024900  0.943000  0.655700  1.0  0.0887
  H  H17  1  0.820000  0.882200  0.733600  1.0  0.0892
  H  H18  1  0.683700  0.855200  0.691400  1.0  0.0807
  H  H19  1  0.974100  0.650100  0.736600  1.0  0.0779
  H  H20  1  0.975100  0.557000  0.655700  1.0  0.0889
  H  H21  1  0.320000  0.382200  0.233600  1.0  0.0892
  H  H22  1  0.183700  0.355200  0.191400  1.0  0.0807
  H  H23  1  0.474100  0.150100  0.236600  1.0  0.0779
  H  H24  1  0.475100  0.057000  0.155700  1.0  0.0889
  H  H25  1  0.132200  0.430000  0.483600  1.0  0.0908
  H  H26  1  0.105200  0.566300  0.441400  1.0  0.0802
  H  H27  1  0.900100  0.275900  0.486600  1.0  0.0776
  H  H28  1  0.807000  0.274900  0.405700  1.0  0.0895
  H  H29  1  0.632200  0.930000  0.983600  1.0  0.0908
  H  H30  1  0.605200  0.066300  0.941400  1.0  0.0802
  H  H31  1  0.400100  0.775900  0.986600  1.0  0.0776
  H  H32  1  0.307000  0.774900  0.905700  1.0  0.0895
  H  H33  1  0.367800  0.570000  0.983600  1.0  0.0905
  H  H34  1  0.394800  0.433700  0.941400  1.0  0.0804
  H  H35  1  0.599900  0.724100  0.986600  1.0  0.0772
  H  H36  1  0.693000  0.725100  0.905700  1.0  0.0894
  H  H37  1  0.867800  0.070000  0.483600  1.0  0.0905
  H  H38  1  0.894800  0.933700  0.441400  1.0  0.0804
  H  H39  1  0.099900  0.224100  0.486600  1.0  0.0772
  H  H40  1  0.193000  0.225100  0.405700  1.0  0.0894
  H  H41  1  0.820000  0.117800  0.766400  1.0  0.0891
  H  H42  1  0.683700  0.144800  0.808600  1.0  0.0797
  H  H43  1  0.974100  0.349900  0.763400  1.0  0.0783
  H  H44  1  0.975100  0.443000  0.844300  1.0  0.0882
  H  H45  1  0.320000  0.617800  0.266400  1.0  0.0891
  H  H46  1  0.183700  0.644800  0.308600  1.0  0.0797
  H  H47  1  0.474100  0.849900  0.263400  1.0  0.0783
  H  H48  1  0.475100  0.943000  0.344300  1.0  0.0882
  H  H49  1  0.680000  0.882200  0.266400  1.0  0.089
  H  H50  1  0.816300  0.855200  0.308600  1.0  0.0806
  H  H51  1  0.525900  0.650100  0.263400  1.0  0.0778
  H  H52  1  0.524900  0.557000  0.344300  1.0  0.0882
  H  H53  1  0.180000  0.382200  0.766400  1.0  0.089
  H  H54  1  0.316300  0.355200  0.808600  1.0  0.0806
  H  H55  1  0.025900  0.150100  0.763400  1.0  0.0778
  H  H56  1  0.024900  0.057000  0.844300  1.0  0.0882
  H  H57  1  0.367800  0.430000  0.516400  1.0  0.0905
  H  H58  1  0.394800  0.566300  0.558600  1.0  0.0803
  H  H59  1  0.599900  0.275900  0.513400  1.0  0.0775
  H  H60  1  0.693000  0.274900  0.594300  1.0  0.0891
  H  H61  1  0.867800  0.930000  0.016400  1.0  0.0905
  H  H62  1  0.894800  0.066300  0.058600  1.0  0.0803
  H  H63  1  0.099900  0.775900  0.013400  1.0  0.0775
  H  H64  1  0.193000  0.774900  0.094300  1.0  0.0891
  H  H65  1  0.132200  0.570000  0.016400  1.0  0.0904
  H  H66  1  0.105200  0.433700  0.058600  1.0  0.0804
  H  H67  1  0.900100  0.724100  0.013400  1.0  0.0779
  H  H68  1  0.807000  0.725100  0.094300  1.0  0.0891
  H  H69  1  0.632200  0.070000  0.516400  1.0  0.0904
  H  H70  1  0.605200  0.933700  0.558600  1.0  0.0803
  H  H71  1  0.400100  0.224100  0.513400  1.0  0.0779
  H  H72  1  0.307000  0.225100  0.594300  1.0  0.0891
  H  H73  1  0.320000  0.882200  0.766400  1.0  0.089
  H  H74  1  0.183700  0.855200  0.808600  1.0  0.0804
  H  H75  1  0.474100  0.650100  0.763400  1.0  0.0778
  H  H76  1  0.475100  0.557000  0.844300  1.0  0.0883
  H  H77  1  0.820000  0.382200  0.266400  1.0  0.089
  H  H78  1  0.683700  0.355200  0.308600  1.0  0.0804
  H  H79  1  0.974100  0.150100  0.263400  1.0  0.0778
  H  H80  1  0.975100  0.057000  0.344300  1.0  0.0883
  H  H81  1  0.180000  0.117800  0.266400  1.0  0.0887
  H  H82  1  0.316300  0.144800  0.308600  1.0  0.0809
  H  H83  1  0.025900  0.349900  0.263400  1.0  0.0783
  H  H84  1  0.024900  0.443000  0.344300  1.0  0.088
  H  H85  1  0.680000  0.617800  0.766400  1.0  0.0887
  H  H86  1  0.816300  0.644800  0.808600  1.0  0.0809
  H  H87  1  0.525900  0.849900  0.763400  1.0  0.0783
  H  H88  1  0.524900  0.943000  0.844300  1.0  0.088
  H  H89  1  0.867800  0.570000  0.516400  1.0  0.0903
  H  H90  1  0.894800  0.433700  0.558600  1.0  0.0802
  H  H91  1  0.099900  0.724100  0.513400  1.0  0.0774
  H  H92  1  0.193000  0.725100  0.594300  1.0  0.0889
  H  H93  1  0.367800  0.070000  0.016400  1.0  0.0903
  H  H94  1  0.394800  0.933700  0.058600  1.0  0.0802
  H  H95  1  0.599900  0.224100  0.013400  1.0  0.0774
  H  H96  1  0.693000  0.225100  0.094300  1.0  0.0889
  H  H97  1  0.632200  0.430000  0.016400  1.0  0.0906
  H  H98  1  0.605200  0.566300  0.058600  1.0  0.0803
  H  H99  1  0.400100  0.275900  0.013400  1.0  0.078
  H  H100  1  0.307000  0.274900  0.094300  1.0  0.0893
  H  H101  1  0.132200  0.930000  0.516400  1.0  0.0906
  H  H102  1  0.105200  0.066300  0.558600  1.0  0.0803
  H  H103  1  0.900100  0.775900  0.513400  1.0  0.078
  H  H104  1  0.807000  0.774900  0.594300  1.0  0.0893
  H  H105  1  0.180000  0.882200  0.233600  1.0  0.0891
  H  H106  1  0.316300  0.855200  0.191400  1.0  0.0808
  H  H107  1  0.025900  0.650100  0.236600  1.0  0.078
  H  H108  1  0.024900  0.557000  0.155700  1.0  0.0888
  H  H109  1  0.680000  0.382200  0.733600  1.0  0.0891
  H  H110  1  0.816300  0.355200  0.691400  1.0  0.0808
  H  H111  1  0.525900  0.150100  0.736600  1.0  0.078
  H  H112  1  0.524900  0.057000  0.655700  1.0  0.0888
  H  H113  1  0.320000  0.117800  0.733600  1.0  0.0891
  H  H114  1  0.183700  0.144800  0.691400  1.0  0.0803
  H  H115  1  0.474100  0.349900  0.736600  1.0  0.0778
  H  H116  1  0.475100  0.443000  0.655700  1.0  0.0888
  H  H117  1  0.820000  0.617800  0.233600  1.0  0.0891
  H  H118  1  0.683700  0.644800  0.191400  1.0  0.0803
  H  H119  1  0.974100  0.849900  0.236600  1.0  0.0778
  H  H120  1  0.975100  0.943000  0.155700  1.0  0.0888
  H  H121  1  0.632200  0.570000  0.483600  1.0  0.0907
  H  H122  1  0.605200  0.433700  0.441400  1.0  0.0805
  H  H123  1  0.400100  0.724100  0.486600  1.0  0.0775
  H  H124  1  0.307000  0.725100  0.405700  1.0  0.0895
  H  H125  1  0.132200  0.070000  0.983600  1.0  0.0907
  H  H126  1  0.105200  0.933700  0.941400  1.0  0.0805
  H  H127  1  0.900100  0.224100  0.986600  1.0  0.0775
  H  H128  1  0.807000  0.225100  0.905700  1.0  0.0895
  H  H129  1  0.867800  0.430000  0.983600  1.0  0.0906
  H  H130  1  0.894800  0.566300  0.941400  1.0  0.0801
  H  H131  1  0.099900  0.275900  0.986600  1.0  0.0773
  H  H132  1  0.193000  0.274900  0.905700  1.0  0.0894
  H  H133  1  0.367800  0.930000  0.483600  1.0  0.0906
  H  H134  1  0.394800  0.066300  0.441400  1.0  0.0801
  H  H135  1  0.599900  0.775900  0.486600  1.0  0.0773
  H  H136  1  0.693000  0.774900  0.405700  1.0  0.0894
  C  C137  1  0.708540  0.172330  0.240340  1.0  -0.024
  C  C138  1  0.789320  0.188050  0.215580  1.0  -0.0327
  C  C139  1  0.526200  0.411700  0.242380  1.0  0.0038
  C  C140  1  0.525900  0.466760  0.194480  1.0  0.0013
  C  C141  1  0.208540  0.672330  0.740340  1.0  -0.024
  C  C142  1  0.289320  0.688050  0.715580  1.0  -0.0327
  C  C143  1  0.026200  0.911700  0.742380  1.0  0.0045
  C  C144  1  0.025900  0.966760  0.694480  1.0  0.0013
  C  C145  1  0.791460  0.827670  0.740340  1.0  -0.0224
  C  C146  1  0.710680  0.811950  0.715580  1.0  -0.0322
  C  C147  1  0.973800  0.588300  0.742380  1.0  0.0046
  C  C148  1  0.974100  0.533240  0.694480  1.0  0.0016
  C  C149  1  0.291460  0.327670  0.240340  1.0  -0.0224
  C  C150  1  0.210680  0.311950  0.215580  1.0  -0.0322
  C  C151  1  0.473800  0.088300  0.242380  1.0  0.0046
  C  C152  1  0.474100  0.033240  0.194480  1.0  0.0016
  C  C153  1  0.077670  0.458540  0.490340  1.0  -0.02
  C  C154  1  0.061950  0.539320  0.465580  1.0  -0.0326
  C  C155  1  0.838300  0.276200  0.492380  1.0  0.0029
  C  C156  1  0.783240  0.275900  0.444480  1.0  -0.0014
  C  C157  1  0.577670  0.958540  0.990340  1.0  -0.0216
  C  C158  1  0.561950  0.039320  0.965580  1.0  -0.0326
  C  C159  1  0.338300  0.776200  0.992380  1.0  0.0029
  C  C160  1  0.283240  0.775900  0.944480  1.0  -0.0014
  C  C161  1  0.422330  0.541460  0.990340  1.0  -0.023
  C  C162  1  0.438050  0.460680  0.965580  1.0  -0.0323
  C  C163  1  0.661700  0.723800  0.992380  1.0  0.0051
  C  C164  1  0.716760  0.724100  0.944480  1.0  0.0
  C  C165  1  0.922330  0.041460  0.490340  1.0  -0.023
  C  C166  1  0.938050  0.960680  0.465580  1.0  -0.0322
  C  C167  1  0.161700  0.223800  0.492380  1.0  0.0051
  C  C168  1  0.216760  0.224100  0.444480  1.0  0.0
  C  C169  1  0.791460  0.172330  0.759660  1.0  -0.0271
  C  C170  1  0.710680  0.188050  0.784420  1.0  -0.0316
  C  C171  1  0.973800  0.411700  0.757620  1.0  0.0049
  C  C172  1  0.974100  0.466760  0.805520  1.0  0.0009
  C  C173  1  0.291460  0.672330  0.259660  1.0  -0.0271
  C  C174  1  0.210680  0.688050  0.284420  1.0  -0.0316
  C  C175  1  0.473800  0.911700  0.257620  1.0  0.0049
  C  C176  1  0.474100  0.966760  0.305520  1.0  0.0009
  C  C177  1  0.708540  0.827670  0.259660  1.0  -0.0238
  C  C178  1  0.789320  0.811950  0.284420  1.0  -0.0326
  C  C179  1  0.526200  0.588300  0.257620  1.0  0.004
  C  C180  1  0.525900  0.533240  0.305520  1.0  0.0004
  C  C181  1  0.208540  0.327670  0.759660  1.0  -0.0238
  C  C182  1  0.289320  0.311950  0.784420  1.0  -0.0326
  C  C183  1  0.026200  0.088300  0.757620  1.0  0.004
  C  C184  1  0.025900  0.033240  0.805520  1.0  0.0004
  C  C185  1  0.422330  0.458540  0.509660  1.0  -0.0234
  C  C186  1  0.438050  0.539320  0.534420  1.0  -0.0312
  C  C187  1  0.661700  0.276200  0.507620  1.0  0.0049
  C  C188  1  0.716760  0.275900  0.555520  1.0  -0.0003
  C  C189  1  0.922330  0.958540  0.009660  1.0  -0.0234
  C  C190  1  0.938050  0.039320  0.034420  1.0  -0.0317
  C  C191  1  0.161700  0.776200  0.007620  1.0  0.0049
  C  C192  1  0.216760  0.775900  0.055520  1.0  -0.0007
  C  C193  1  0.077670  0.541460  0.009660  1.0  -0.0232
  C  C194  1  0.061950  0.460680  0.034420  1.0  -0.0327
  C  C195  1  0.838300  0.723800  0.007620  1.0  0.0031
  C  C196  1  0.783240  0.724100  0.055520  1.0  -0.0017
  C  C197  1  0.577670  0.041460  0.509660  1.0  -0.023
  C  C198  1  0.561950  0.960680  0.534420  1.0  -0.0327
  C  C199  1  0.338300  0.223800  0.507620  1.0  0.0031
  C  C200  1  0.283240  0.224100  0.555520  1.0  -0.0017
  C  C201  1  0.291460  0.827670  0.759660  1.0  -0.0228
  C  C202  1  0.210680  0.811950  0.784420  1.0  -0.032
  C  C203  1  0.473800  0.588300  0.757620  1.0  0.0051
  C  C204  1  0.474100  0.533240  0.805520  1.0  0.0007
  C  C205  1  0.791460  0.327670  0.259660  1.0  -0.0228
  C  C206  1  0.710680  0.311950  0.284420  1.0  -0.032
  C  C207  1  0.973800  0.088300  0.257620  1.0  0.0051
  C  C208  1  0.974100  0.033240  0.305520  1.0  0.0007
  C  C209  1  0.208540  0.172330  0.259660  1.0  -0.0264
  C  C210  1  0.289320  0.188050  0.284420  1.0  -0.0323
  C  C211  1  0.026200  0.411700  0.257620  1.0  0.004
  C  C212  1  0.025900  0.466760  0.305520  1.0  0.0015
  C  C213  1  0.708540  0.672330  0.759660  1.0  -0.0264
  C  C214  1  0.789320  0.688050  0.784420  1.0  -0.0323
  C  C215  1  0.526200  0.911700  0.757620  1.0  0.0037
  C  C216  1  0.525900  0.966760  0.805520  1.0  0.0015
  C  C217  1  0.922330  0.541460  0.509660  1.0  -0.0233
  C  C218  1  0.938050  0.460680  0.534420  1.0  -0.0318
  C  C219  1  0.161700  0.723800  0.507620  1.0  0.0052
  C  C220  1  0.216760  0.724100  0.555520  1.0  -0.0013
  C  C221  1  0.422330  0.041460  0.009660  1.0  -0.0233
  C  C222  1  0.438050  0.960680  0.034420  1.0  -0.0315
  C  C223  1  0.661700  0.223800  0.007620  1.0  0.0052
  C  C224  1  0.716760  0.224100  0.055520  1.0  -0.0003
  C  C225  1  0.577670  0.458540  0.009660  1.0  -0.0232
  C  C226  1  0.561950  0.539320  0.034420  1.0  -0.0324
  C  C227  1  0.338300  0.276200  0.007620  1.0  0.0027
  C  C228  1  0.283240  0.275900  0.055520  1.0  -0.0016
  C  C229  1  0.077670  0.958540  0.509660  1.0  -0.0231
  C  C230  1  0.061950  0.039320  0.534420  1.0  -0.0324
  C  C231  1  0.838300  0.776200  0.507620  1.0  0.0027
  C  C232  1  0.783240  0.775900  0.555520  1.0  -0.0016
  C  C233  1  0.208540  0.827670  0.240340  1.0  -0.0201
  C  C234  1  0.289320  0.811950  0.215580  1.0  -0.0327
  C  C235  1  0.026200  0.588300  0.242380  1.0  0.0045
  C  C236  1  0.025900  0.533240  0.194480  1.0  0.0018
  C  C237  1  0.708540  0.327670  0.740340  1.0  -0.0201
  C  C238  1  0.789320  0.311950  0.715580  1.0  -0.0327
  C  C239  1  0.526200  0.088300  0.742380  1.0  0.0045
  C  C240  1  0.525900  0.033240  0.694480  1.0  0.0018
  C  C241  1  0.291460  0.172330  0.740340  1.0  -0.0266
  C  C242  1  0.210680  0.188050  0.715580  1.0  -0.0319
  C  C243  1  0.473800  0.411700  0.742380  1.0  0.0045
  C  C244  1  0.474100  0.466760  0.694480  1.0  0.0011
  C  C245  1  0.791460  0.672330  0.240340  1.0  -0.0266
  C  C246  1  0.710680  0.688050  0.215580  1.0  -0.0319
  C  C247  1  0.973800  0.911700  0.242380  1.0  0.0045
  C  C248  1  0.974100  0.966760  0.194480  1.0  0.0011
  C  C249  1  0.577670  0.541460  0.490340  1.0  -0.0229
  C  C250  1  0.561950  0.460680  0.465580  1.0  -0.0331
  C  C251  1  0.338300  0.723800  0.492380  1.0  0.0028
  C  C252  1  0.283240  0.724100  0.444480  1.0  -0.0013
  C  C253  1  0.077670  0.041460  0.990340  1.0  -0.0231
  C  C254  1  0.061950  0.960680  0.965580  1.0  -0.0331
  C  C255  1  0.838300  0.223800  0.992380  1.0  0.0028
  C  C256  1  0.783240  0.224100  0.944480  1.0  -0.0013
  C  C257  1  0.922330  0.458540  0.990340  1.0  -0.0205
  C  C258  1  0.938050  0.539320  0.965580  1.0  -0.0319
  C  C259  1  0.161700  0.276200  0.992380  1.0  0.0055
  C  C260  1  0.216760  0.275900  0.944480  1.0  0.0002
  C  C261  1  0.422330  0.958540  0.490340  1.0  -0.0216
  C  C262  1  0.438050  0.039320  0.465580  1.0  -0.0315
  C  C263  1  0.661700  0.776200  0.492380  1.0  0.0055
  C  C264  1  0.716760  0.775900  0.444480  1.0  -1e-04
  N  N265  1  0.669320  0.234220  0.274250  1.0  0.2935
  N  N266  1  0.526910  0.444630  0.297710  1.0  0.2383
  N  N267  1  0.169320  0.734220  0.774250  1.0  0.2935
  N  N268  1  0.026910  0.944630  0.797710  1.0  0.2383
  N  N269  1  0.830680  0.765780  0.774250  1.0  0.2794
  N  N270  1  0.973090  0.555370  0.797710  1.0  0.238
  N  N271  1  0.330680  0.265780  0.274250  1.0  0.2794
  N  N272  1  0.473090  0.055370  0.297710  1.0  0.238
  N  N273  1  0.015780  0.419320  0.524250  1.0  0.2793
  N  N274  1  0.805370  0.276910  0.547710  1.0  0.2378
  N  N275  1  0.515780  0.919320  0.024250  1.0  0.2894
  N  N276  1  0.305370  0.776910  0.047710  1.0  0.2378
  N  N277  1  0.484220  0.580680  0.024250  1.0  0.2776
  N  N278  1  0.694630  0.723090  0.047710  1.0  0.2353
  N  N279  1  0.984220  0.080680  0.524250  1.0  0.2767
  N  N280  1  0.194630  0.223090  0.547710  1.0  0.2353
  N  N281  1  0.830680  0.234220  0.725750  1.0  0.2738
  N  N282  1  0.973090  0.444630  0.702290  1.0  0.2394
  N  N283  1  0.330680  0.734220  0.225750  1.0  0.2738
  N  N284  1  0.473090  0.944630  0.202290  1.0  0.2394
  N  N285  1  0.669320  0.765780  0.225750  1.0  0.2821
  N  N286  1  0.526910  0.555370  0.202290  1.0  0.2401
  N  N287  1  0.169320  0.265780  0.725750  1.0  0.2821
  N  N288  1  0.026910  0.055370  0.702290  1.0  0.2401
  N  N289  1  0.484220  0.419320  0.475750  1.0  0.2758
  N  N290  1  0.694630  0.276910  0.452290  1.0  0.2378
  N  N291  1  0.984220  0.919320  0.975750  1.0  0.2758
  N  N292  1  0.194630  0.776910  0.952290  1.0  0.2378
  N  N293  1  0.015780  0.580680  0.975750  1.0  0.2713
  N  N294  1  0.805370  0.723090  0.952290  1.0  0.239
  N  N295  1  0.515780  0.080680  0.475750  1.0  0.2721
  N  N296  1  0.305370  0.223090  0.452290  1.0  0.239
  N  N297  1  0.330680  0.765780  0.725750  1.0  0.2754
  N  N298  1  0.473090  0.555370  0.702290  1.0  0.2395
  N  N299  1  0.830680  0.265780  0.225750  1.0  0.2754
  N  N300  1  0.973090  0.055370  0.202290  1.0  0.2395
  N  N301  1  0.169320  0.234220  0.225750  1.0  0.2787
  N  N302  1  0.026910  0.444630  0.202290  1.0  0.2399
  N  N303  1  0.669320  0.734220  0.725750  1.0  0.2787
  N  N304  1  0.526910  0.944630  0.702290  1.0  0.2399
  N  N305  1  0.984220  0.580680  0.475750  1.0  0.2725
  N  N306  1  0.194630  0.723090  0.452290  1.0  0.2373
  N  N307  1  0.484220  0.080680  0.975750  1.0  0.2729
  N  N308  1  0.694630  0.223090  0.952290  1.0  0.2373
  N  N309  1  0.515780  0.419320  0.975750  1.0  0.2752
  N  N310  1  0.305370  0.276910  0.952290  1.0  0.2393
  N  N311  1  0.015780  0.919320  0.475750  1.0  0.2752
  N  N312  1  0.805370  0.776910  0.452290  1.0  0.2393
  N  N313  1  0.169320  0.765780  0.274250  1.0  0.2934
  N  N314  1  0.026910  0.555370  0.297710  1.0  0.2384
  N  N315  1  0.669320  0.265780  0.774250  1.0  0.2934
  N  N316  1  0.526910  0.055370  0.797710  1.0  0.2384
  N  N317  1  0.330680  0.234220  0.774250  1.0  0.2765
  N  N318  1  0.473090  0.444630  0.797710  1.0  0.2381
  N  N319  1  0.830680  0.734220  0.274250  1.0  0.2765
  N  N320  1  0.973090  0.944630  0.297710  1.0  0.2381
  N  N321  1  0.515780  0.580680  0.524250  1.0  0.2753
  N  N322  1  0.305370  0.723090  0.547710  1.0  0.237
  N  N323  1  0.015780  0.080680  0.024250  1.0  0.2769
  N  N324  1  0.805370  0.223090  0.047710  1.0  0.237
  N  N325  1  0.984220  0.419320  0.024250  1.0  0.2906
  N  N326  1  0.194630  0.276910  0.047710  1.0  0.2362
  N  N327  1  0.484220  0.919320  0.524250  1.0  0.2906
  N  N328  1  0.694630  0.776910  0.547710  1.0  0.2362
  O  O329  1  0.591060  0.218810  0.295290  1.0  -0.6868
  O  O330  1  0.532020  0.394240  0.343960  1.0  -0.6706
  O  O331  1  0.091060  0.718810  0.795290  1.0  -0.6868
  O  O332  1  0.032020  0.894240  0.843960  1.0  -0.6704
  O  O333  1  0.908940  0.781190  0.795290  1.0  -0.6882
  O  O334  1  0.967980  0.605760  0.843960  1.0  -0.6688
  O  O335  1  0.408940  0.281190  0.295290  1.0  -0.6882
  O  O336  1  0.467980  0.105760  0.343960  1.0  -0.6691
  O  O337  1  0.031190  0.341060  0.545290  1.0  -0.6861
  O  O338  1  0.855760  0.282020  0.593960  1.0  -0.6717
  O  O339  1  0.531190  0.841060  0.045290  1.0  -0.6861
  O  O340  1  0.355760  0.782020  0.093960  1.0  -0.6717
  O  O341  1  0.468810  0.658940  0.045290  1.0  -0.6865
  O  O342  1  0.644240  0.717980  0.093960  1.0  -0.6719
  O  O343  1  0.968810  0.158940  0.545290  1.0  -0.6856
  O  O344  1  0.144240  0.217980  0.593960  1.0  -0.6719
  O  O345  1  0.908940  0.218810  0.704710  1.0  -0.6866
  O  O346  1  0.967980  0.394240  0.656040  1.0  -0.6696
  O  O347  1  0.408940  0.718810  0.204710  1.0  -0.6866
  O  O348  1  0.467980  0.894240  0.156040  1.0  -0.6693
  O  O349  1  0.591060  0.781190  0.204710  1.0  -0.6847
  O  O350  1  0.532020  0.605760  0.156040  1.0  -0.6693
  O  O351  1  0.091060  0.281190  0.704710  1.0  -0.6847
  O  O352  1  0.032020  0.105760  0.656040  1.0  -0.6693
  O  O353  1  0.468810  0.341060  0.454710  1.0  -0.6857
  O  O354  1  0.644240  0.282020  0.406040  1.0  -0.6713
  O  O355  1  0.968810  0.841060  0.954710  1.0  -0.6815
  O  O356  1  0.144240  0.782020  0.906040  1.0  -0.6667
  O  O357  1  0.031190  0.658940  0.954710  1.0  -0.6841
  O  O358  1  0.855760  0.717980  0.906040  1.0  -0.6709
  O  O359  1  0.531190  0.158940  0.454710  1.0  -0.6841
  O  O360  1  0.355760  0.217980  0.406040  1.0  -0.6714
  O  O361  1  0.408940  0.781190  0.704710  1.0  -0.6861
  O  O362  1  0.467980  0.605760  0.656040  1.0  -0.6697
  O  O363  1  0.908940  0.281190  0.204710  1.0  -0.6861
  O  O364  1  0.967980  0.105760  0.156040  1.0  -0.6696
  O  O365  1  0.091060  0.218810  0.204710  1.0  -0.6856
  O  O366  1  0.032020  0.394240  0.156040  1.0  -0.6697
  O  O367  1  0.591060  0.718810  0.704710  1.0  -0.6856
  O  O368  1  0.532020  0.894240  0.656040  1.0  -0.6693
  O  O369  1  0.968810  0.658940  0.454710  1.0  -0.6812
  O  O370  1  0.144240  0.717980  0.406040  1.0  -0.6716
  O  O371  1  0.468810  0.158940  0.954710  1.0  -0.6854
  O  O372  1  0.644240  0.217980  0.906040  1.0  -0.6709
  O  O373  1  0.531190  0.341060  0.954710  1.0  -0.6846
  O  O374  1  0.355760  0.282020  0.906040  1.0  -0.6673
  O  O375  1  0.031190  0.841060  0.454710  1.0  -0.6846
  O  O376  1  0.855760  0.782020  0.406040  1.0  -0.6714
  O  O377  1  0.091060  0.781190  0.295290  1.0  -0.6865
  O  O378  1  0.032020  0.605760  0.343960  1.0  -0.6694
  O  O379  1  0.591060  0.281190  0.795290  1.0  -0.6865
  O  O380  1  0.532020  0.105760  0.843960  1.0  -0.6694
  O  O381  1  0.408940  0.218810  0.795290  1.0  -0.6878
  O  O382  1  0.467980  0.394240  0.843960  1.0  -0.6705
  O  O383  1  0.908940  0.718810  0.295290  1.0  -0.6878
  O  O384  1  0.967980  0.894240  0.343960  1.0  -0.6705
  O  O385  1  0.531190  0.658940  0.545290  1.0  -0.6853
  O  O386  1  0.355760  0.717980  0.593960  1.0  -0.6713
  O  O387  1  0.031190  0.158940  0.045290  1.0  -0.6853
  O  O388  1  0.855760  0.217980  0.093960  1.0  -0.6709
  O  O389  1  0.968810  0.341060  0.045290  1.0  -0.6861
  O  O390  1  0.144240  0.282020  0.093960  1.0  -0.6713
  O  O391  1  0.468810  0.841060  0.545290  1.0  -0.6869
  O  O392  1  0.644240  0.782020  0.593960  1.0  -0.6712
