# generated using pymatgen
data_ZnCo(PO4)2
_symmetry_space_group_name_H-M   'P 1'
_cell_length_a   14.72360000
_cell_length_b   14.72360000
_cell_length_c   8.95440000
_cell_angle_alpha   90.00000000
_cell_angle_beta   90.00000000
_cell_angle_gamma   90.00000000
_symmetry_Int_Tables_number   1
_chemical_formula_structural   ZnCo(PO4)2
_chemical_formula_sum   'Zn8 Co8 P16 O64'
_cell_volume   1941.17420414
_cell_formula_units_Z   8
loop_
 _symmetry_equiv_pos_site_id
 _symmetry_equiv_pos_as_xyz
  1  'x, y, z'
loop_
 _atom_site_type_symbol
 _atom_site_label
 _atom_site_symmetry_multiplicity
 _atom_site_fract_x
 _atom_site_fract_y
 _atom_site_fract_z
 _atom_site_occupancy
 _atom_site_charge
  Zn  Zn1  1  0.001170  0.368540  0.663410  1.0  1.1817
  Zn  Zn2  1  0.131480  0.011710  0.849720  1.0  1.2347
  Zn  Zn3  1  0.998830  0.631460  0.663410  1.0  1.1825
  Zn  Zn4  1  0.868520  0.988290  0.849720  1.0  1.2349
  Zn  Zn5  1  0.631460  0.001170  0.163410  1.0  1.1805
  Zn  Zn6  1  0.368540  0.998830  0.163410  1.0  1.182
  Zn  Zn7  1  0.631480  0.488290  0.849720  1.0  1.2347
  Zn  Zn8  1  0.368520  0.511710  0.849720  1.0  1.2351
  Co  Co9  1  0.988290  0.131480  0.349720  1.0  1.1385
  Co  Co10  1  0.131460  0.498830  0.163410  1.0  1.0348
  Co  Co11  1  0.011710  0.868520  0.349720  1.0  1.1379
  Co  Co12  1  0.868540  0.501170  0.163410  1.0  1.0383
  Co  Co13  1  0.501170  0.131460  0.663410  1.0  1.0331
  Co  Co14  1  0.498830  0.868540  0.663410  1.0  1.0347
  Co  Co15  1  0.488290  0.368520  0.349720  1.0  1.1392
  Co  Co16  1  0.511710  0.631480  0.349720  1.0  1.1372
  P  P17  1  0.999810  0.352670  0.305500  1.0  1.9242
  P  P18  1  0.987490  0.146630  0.708800  1.0  1.7502
  P  P19  1  0.000190  0.647330  0.305500  1.0  1.9234
  P  P20  1  0.012510  0.853370  0.708800  1.0  1.7502
  P  P21  1  0.647330  0.999810  0.805500  1.0  1.9245
  P  P22  1  0.853370  0.987490  0.208800  1.0  1.7488
  P  P23  1  0.352670  0.000190  0.805500  1.0  1.9231
  P  P24  1  0.146630  0.012510  0.208800  1.0  1.7426
  P  P25  1  0.499810  0.147330  0.305500  1.0  1.9236
  P  P26  1  0.487490  0.353370  0.708800  1.0  1.7595
  P  P27  1  0.500190  0.852670  0.305500  1.0  1.9238
  P  P28  1  0.512510  0.646630  0.708800  1.0  1.7502
  P  P29  1  0.147330  0.500190  0.805500  1.0  1.9273
  P  P30  1  0.353370  0.512510  0.208800  1.0  1.7488
  P  P31  1  0.852670  0.499810  0.805500  1.0  1.9238
  P  P32  1  0.646630  0.487490  0.208800  1.0  1.7426
  O  O33  1  0.083800  0.390400  0.234000  1.0  -0.8115
  O  O34  1  0.003500  0.247800  0.753400  1.0  -0.6898
  O  O35  1  0.946200  0.138900  0.553700  1.0  -0.7614
  O  O36  1  0.994500  0.252500  0.264400  1.0  -0.6812
  O  O37  1  0.080000  0.099600  0.715800  1.0  -0.7072
  O  O38  1  0.923200  0.109000  0.827800  1.0  -0.7063
  O  O39  1  0.921100  0.401800  0.244000  1.0  -0.85
  O  O40  1  0.993000  0.363700  0.460900  1.0  -0.7539
  O  O41  1  0.916200  0.609600  0.234000  1.0  -0.8082
  O  O42  1  0.996500  0.752200  0.753400  1.0  -0.6904
  O  O43  1  0.053800  0.861100  0.553700  1.0  -0.7603
  O  O44  1  0.005500  0.747500  0.264400  1.0  -0.6818
  O  O45  1  0.920000  0.900400  0.715800  1.0  -0.7078
  O  O46  1  0.076800  0.891000  0.827800  1.0  -0.707
  O  O47  1  0.078900  0.598200  0.244000  1.0  -0.8499
  O  O48  1  0.007000  0.636300  0.460900  1.0  -0.7538
  O  O49  1  0.609600  0.083800  0.734000  1.0  -0.8099
  O  O50  1  0.752200  0.003500  0.253400  1.0  -0.6895
  O  O51  1  0.861100  0.946200  0.053700  1.0  -0.764
  O  O52  1  0.747500  0.994500  0.764400  1.0  -0.6778
  O  O53  1  0.900400  0.080000  0.215800  1.0  -0.7121
  O  O54  1  0.891000  0.923200  0.327800  1.0  -0.7076
  O  O55  1  0.598200  0.921100  0.744000  1.0  -0.852
  O  O56  1  0.636300  0.993000  0.960900  1.0  -0.7533
  O  O57  1  0.390400  0.916200  0.734000  1.0  -0.8087
  O  O58  1  0.247800  0.996500  0.253400  1.0  -0.6887
  O  O59  1  0.138900  0.053800  0.053700  1.0  -0.7644
  O  O60  1  0.252500  0.005500  0.764400  1.0  -0.6789
  O  O61  1  0.099600  0.920000  0.215800  1.0  -0.7109
  O  O62  1  0.109000  0.076800  0.327800  1.0  -0.7083
  O  O63  1  0.401800  0.078900  0.744000  1.0  -0.8535
  O  O64  1  0.363700  0.007000  0.960900  1.0  -0.7527
  O  O65  1  0.583800  0.109600  0.234000  1.0  -0.8172
  O  O66  1  0.503500  0.252200  0.753400  1.0  -0.6907
  O  O67  1  0.446200  0.361100  0.553700  1.0  -0.7611
  O  O68  1  0.494500  0.247500  0.264400  1.0  -0.6815
  O  O69  1  0.580000  0.400400  0.715800  1.0  -0.7072
  O  O70  1  0.423200  0.391000  0.827800  1.0  -0.7067
  O  O71  1  0.421100  0.098200  0.244000  1.0  -0.8534
  O  O72  1  0.493000  0.136300  0.460900  1.0  -0.7535
  O  O73  1  0.416200  0.890400  0.234000  1.0  -0.8154
  O  O74  1  0.496500  0.747800  0.753400  1.0  -0.6909
  O  O75  1  0.553800  0.638900  0.553700  1.0  -0.7606
  O  O76  1  0.505500  0.752500  0.264400  1.0  -0.6815
  O  O77  1  0.420000  0.599600  0.715800  1.0  -0.7078
  O  O78  1  0.576800  0.609000  0.827800  1.0  -0.7067
  O  O79  1  0.578900  0.901800  0.244000  1.0  -0.8534
  O  O80  1  0.507000  0.863700  0.460900  1.0  -0.7536
  O  O81  1  0.109600  0.416200  0.734000  1.0  -0.8144
  O  O82  1  0.252200  0.496500  0.253400  1.0  -0.6902
  O  O83  1  0.361100  0.553800  0.053700  1.0  -0.7652
  O  O84  1  0.247500  0.505500  0.764400  1.0  -0.6777
  O  O85  1  0.400400  0.420000  0.215800  1.0  -0.7117
  O  O86  1  0.391000  0.576800  0.327800  1.0  -0.7084
  O  O87  1  0.098200  0.578900  0.744000  1.0  -0.8573
  O  O88  1  0.136300  0.507000  0.960900  1.0  -0.7529
  O  O89  1  0.890400  0.583800  0.734000  1.0  -0.8178
  O  O90  1  0.747800  0.503500  0.253400  1.0  -0.6892
  O  O91  1  0.638900  0.446200  0.053700  1.0  -0.7635
  O  O92  1  0.752500  0.494500  0.764400  1.0  -0.6788
  O  O93  1  0.599600  0.580000  0.215800  1.0  -0.7109
  O  O94  1  0.609000  0.423200  0.327800  1.0  -0.7077
  O  O95  1  0.901800  0.421100  0.744000  1.0  -0.8541
  O  O96  1  0.863700  0.493000  0.960900  1.0  -0.7525
