# generated using pymatgen
data_Cd2H24(C11O4)3
_symmetry_space_group_name_H-M   'P 1'
_cell_length_a   8.89620000
_cell_length_b   16.57820000
_cell_length_c   16.57820000
_cell_angle_alpha   85.87170000
_cell_angle_beta   74.43630000
_cell_angle_gamma   74.43620000
_symmetry_Int_Tables_number   1
_chemical_formula_structural   Cd2H24(C11O4)3
_chemical_formula_sum   'Cd4 H48 C66 O24'
_cell_volume   2268.98552470
_cell_formula_units_Z   2
loop_
 _symmetry_equiv_pos_site_id
 _symmetry_equiv_pos_as_xyz
  1  'x, y, z'
loop_
 _atom_site_type_symbol
 _atom_site_label
 _atom_site_symmetry_multiplicity
 _atom_site_fract_x
 _atom_site_fract_y
 _atom_site_fract_z
 _atom_site_occupancy
 _atom_site_charge
  Cd  Cd1  1  0.009310  0.097950  0.535950  1.0  1.0404
  Cd  Cd2  1  0.643210  0.902050  0.464050  1.0  1.0411
  Cd  Cd3  1  0.454740  0.535950  0.902050  1.0  1.0394
  Cd  Cd4  1  0.892740  0.464050  0.097950  1.0  1.0383
  H  H5  1  0.784000  0.372300  0.494900  1.0  0.0663
  H  H6  1  0.668200  0.421800  0.440800  1.0  0.0683
  H  H7  1  0.656000  0.277900  0.479300  1.0  0.1281
  H  H8  1  0.504500  0.183800  0.481400  1.0  0.1024
  H  H9  1  0.128900  0.331900  0.646300  1.0  0.1042
  H  H10  1  0.280800  0.423500  0.644900  1.0  0.1103
  H  H11  1  0.128600  0.087500  0.952300  1.0  0.0755
  H  H12  1  0.064000  0.055300  0.884500  1.0  0.069
  H  H13  1  0.252000  0.101500  0.797100  1.0  0.1323
  H  H14  1  0.470700  0.128800  0.694400  1.0  0.0992
  H  H15  1  0.775500  0.934800  0.778600  1.0  0.1193
  H  H16  1  0.555400  0.905700  0.877100  1.0  0.1137
  H  H17  1  0.651200  0.627700  0.505100  1.0  0.0652
  H  H18  1  0.530800  0.578200  0.559200  1.0  0.0676
  H  H19  1  0.413200  0.722100  0.520700  1.0  0.1299
  H  H20  1  0.169700  0.816200  0.518600  1.0  0.1026
  H  H21  1  0.107100  0.668100  0.353700  1.0  0.1039
  H  H22  1  0.349200  0.576500  0.355100  1.0  0.1119
  H  H23  1  0.168400  0.912500  0.047700  1.0  0.0778
  H  H24  1  0.003800  0.944700  0.115500  1.0  0.0693
  H  H25  1  0.150600  0.898500  0.202900  1.0  0.1315
  H  H26  1  0.293900  0.871200  0.305600  1.0  0.0988
  H  H27  1  0.488900  0.065200  0.221400  1.0  0.1189
  H  H28  1  0.338200  0.094300  0.122900  1.0  0.1131
  H  H29  1  0.721100  0.494900  0.627700  1.0  0.0671
  H  H30  1  0.891000  0.440800  0.578200  1.0  0.0694
  H  H31  1  0.864700  0.479300  0.722100  1.0  0.128
  H  H32  1  0.014100  0.481400  0.816200  1.0  0.1036
  H  H33  1  0.224800  0.646300  0.668100  1.0  0.1038
  H  H34  1  0.074300  0.644900  0.576500  1.0  0.1124
  H  H35  1  0.919100  0.952300  0.912500  1.0  0.0782
  H  H36  1  0.051500  0.884500  0.944700  1.0  0.0678
  H  H37  1  0.950900  0.797100  0.898500  1.0  0.1319
  H  H38  1  0.834900  0.694400  0.871200  1.0  0.0993
  H  H39  1  0.445900  0.778600  0.065200  1.0  0.1208
  H  H40  1  0.567500  0.877100  0.094300  1.0  0.1125
  H  H41  1  0.843700  0.505100  0.372300  1.0  0.0656
  H  H42  1  0.910000  0.559200  0.421800  1.0  0.0683
  H  H43  1  0.066100  0.520700  0.277900  1.0  0.1287
  H  H44  1  0.311700  0.518600  0.183800  1.0  0.103
  H  H45  1  0.539200  0.353700  0.331900  1.0  0.1041
  H  H46  1  0.295700  0.355100  0.423500  1.0  0.112
  H  H47  1  0.783900  0.047700  0.087500  1.0  0.078
  H  H48  1  0.880700  0.115500  0.055300  1.0  0.0679
  H  H49  1  0.646500  0.202900  0.101500  1.0  0.134
  H  H50  1  0.400500  0.305600  0.128800  1.0  0.0991
  H  H51  1  0.289700  0.221400  0.934800  1.0  0.1209
  H  H52  1  0.538900  0.122900  0.905700  1.0  0.1132
  C  C53  1  0.696800  0.421700  0.493300  1.0  0.0757
  C  C54  1  0.480500  0.361300  0.560500  1.0  0.3041
  C  C55  1  0.550100  0.288400  0.512000  1.0  -0.2645
  C  C56  1  0.459100  0.232200  0.513600  1.0  0.0209
  C  C57  1  0.299000  0.247200  0.563000  1.0  -0.186
  C  C58  1  0.234200  0.321000  0.612600  1.0  -0.002
  C  C59  1  0.324200  0.376000  0.611400  1.0  -0.2235
  C  C60  1  0.194700  0.191900  0.559100  1.0  0.6826
  C  C61  1  0.111700  0.038400  0.931200  1.0  0.0705
  C  C62  1  0.383800  0.998600  0.845400  1.0  0.2887
  C  C63  1  0.356000  0.067500  0.792100  1.0  -0.2549
  C  C64  1  0.487800  0.084300  0.731300  1.0  -0.0046
  C  C65  1  0.641300  0.035900  0.725900  1.0  -0.1824
  C  C66  1  0.671100  0.967200  0.781600  1.0  -0.0494
  C  C67  1  0.538900  0.950400  0.840400  1.0  -0.2196
  C  C68  1  0.780300  0.054400  0.660000  1.0  0.673
  C  C69  1  0.611800  0.578300  0.506700  1.0  0.0742
  C  C70  1  0.402300  0.638700  0.439500  1.0  0.3015
  C  C71  1  0.350500  0.711600  0.488000  1.0  -0.2647
  C  C72  1  0.204900  0.767800  0.486400  1.0  0.0239
  C  C73  1  0.109200  0.752800  0.437000  1.0  -0.1788
  C  C74  1  0.167800  0.679000  0.387400  1.0  -0.0014
  C  C75  1  0.311600  0.624000  0.388600  1.0  -0.2256
  C  C76  1  0.945700  0.808100  0.440900  1.0  0.6825
  C  C77  1  0.081300  0.961600  0.068800  1.0  0.0685
  C  C78  1  0.227800  0.001400  0.154600  1.0  0.2888
  C  C79  1  0.215600  0.932500  0.207900  1.0  -0.2625
  C  C80  1  0.303400  0.915700  0.268700  1.0  -0.0059
  C  C81  1  0.403100  0.964100  0.274100  1.0  -0.1808
  C  C82  1  0.419900  0.032800  0.218400  1.0  -0.0576
  C  C83  1  0.329700  0.049600  0.159600  1.0  -0.2197
  C  C84  1  0.494700  0.945600  0.340000  1.0  0.6754
  C  C85  1  0.809900  0.493300  0.578300  1.0  0.073
  C  C86  1  0.959000  0.560500  0.638700  1.0  0.3004
  C  C87  1  0.937900  0.512000  0.711600  1.0  -0.2656
  C  C88  1  0.027300  0.513600  0.767800  1.0  0.0268
  C  C89  1  0.138000  0.563000  0.752800  1.0  -0.1803
  C  C90  1  0.153200  0.612600  0.679000  1.0  -0.0039
  C  C91  1  0.064400  0.611400  0.624000  1.0  -0.2215
  C  C92  1  0.246200  0.559100  0.808100  1.0  0.6857
  C  C93  1  0.957100  0.931200  0.961600  1.0  0.0681
  C  C94  1  0.770800  0.845400  0.001400  1.0  0.2929
  C  C95  1  0.851900  0.792100  0.932500  1.0  -0.2621
  C  C96  1  0.780900  0.731300  0.915700  1.0  -0.006
  C  C97  1  0.632800  0.725900  0.964100  1.0  -0.1822
  C  C98  1  0.547300  0.781600  0.032800  1.0  -0.0469
  C  C99  1  0.620700  0.840400  0.049600  1.0  -0.2168
  C  C100  1  0.559700  0.660000  0.945600  1.0  0.6738
  C  C101  1  0.881500  0.506700  0.421700  1.0  0.0728
  C  C102  1  0.158200  0.439500  0.361300  1.0  0.3017
  C  C103  1  0.161500  0.488000  0.288400  1.0  -0.2612
  C  C104  1  0.308700  0.486400  0.232200  1.0  0.0225
  C  C105  1  0.453800  0.437000  0.247200  1.0  -0.1862
  C  C106  1  0.444800  0.387400  0.321000  1.0  -0.0032
  C  C107  1  0.299800  0.388600  0.376000  1.0  -0.2248
  C  C108  1  0.613400  0.440900  0.191900  1.0  0.6838
  C  C109  1  0.849900  0.068800  0.038400  1.0  0.0686
  C  C110  1  0.617600  0.154600  0.998600  1.0  0.2932
  C  C111  1  0.576500  0.207900  0.067500  1.0  -0.2629
  C  C112  1  0.427900  0.268700  0.084300  1.0  -0.0063
  C  C113  1  0.322800  0.274100  0.035900  1.0  -0.1804
  C  C114  1  0.361700  0.218400  0.967200  1.0  -0.0497
  C  C115  1  0.510700  0.159600  0.950400  1.0  -0.2196
  C  C116  1  0.165300  0.340000  0.054400  1.0  0.672
  C  C117  1  0.750000  0.500000  0.500000  1.0  -0.0436
  C  C118  1  0.000000  0.000000  0.000000  1.0  -0.0404
  O  O119  1  0.560340  0.420660  0.561860  1.0  -0.264
  O  O120  1  0.262400  0.119100  0.527700  1.0  -0.6169
  O  O121  1  0.047400  0.216700  0.583900  1.0  -0.5875
  O  O122  1  0.263100  0.976250  0.904550  1.0  -0.2714
  O  O123  1  0.751000  0.090700  0.593500  1.0  -0.5975
  O  O124  1  0.919200  0.035200  0.671800  1.0  -0.5993
  O  O125  1  0.542860  0.579340  0.438140  1.0  -0.2614
  O  O126  1  0.909200  0.880900  0.472300  1.0  -0.6187
  O  O127  1  0.848000  0.783300  0.416100  1.0  -0.5864
  O  O128  1  0.143900  0.023750  0.095450  1.0  -0.2714
  O  O129  1  0.435200  0.909300  0.406500  1.0  -0.5988
  O  O130  1  0.626200  0.964800  0.328200  1.0  -0.5977
  O  O131  1  0.877800  0.561860  0.579340  1.0  -0.2631
  O  O132  1  0.209900  0.527700  0.880900  1.0  -0.624
  O  O133  1  0.368700  0.583900  0.783300  1.0  -0.5882
  O  O134  1  0.832350  0.904550  0.023750  1.0  -0.2703
  O  O135  1  0.655500  0.593500  0.909300  1.0  -0.5957
  O  O136  1  0.409000  0.671800  0.964800  1.0  -0.5977
  O  O137  1  0.019000  0.438140  0.420660  1.0  -0.2627
  O  O138  1  0.618500  0.472300  0.119100  1.0  -0.6208
  O  O139  1  0.735900  0.416100  0.216700  1.0  -0.5894
  O  O140  1  0.760650  0.095450  0.976250  1.0  -0.2685
  O  O141  1  0.158300  0.406500  0.090700  1.0  -0.5953
  O  O142  1  0.045600  0.328200  0.035200  1.0  -0.5996
