# generated using pymatgen
data_ZnH6(C3O4)2
_symmetry_space_group_name_H-M   'P 1'
_cell_length_a   19.04270000
_cell_length_b   19.04270000
_cell_length_c   5.81080000
_cell_angle_alpha   90.00000000
_cell_angle_beta   90.00000000
_cell_angle_gamma   90.00000000
_symmetry_Int_Tables_number   1
_chemical_formula_structural   ZnH6(C3O4)2
_chemical_formula_sum   'Zn8 H48 C48 O64'
_cell_volume   2107.13799885
_cell_formula_units_Z   8
loop_
 _symmetry_equiv_pos_site_id
 _symmetry_equiv_pos_as_xyz
  1  'x, y, z'
loop_
 _atom_site_type_symbol
 _atom_site_label
 _atom_site_symmetry_multiplicity
 _atom_site_fract_x
 _atom_site_fract_y
 _atom_site_fract_z
 _atom_site_occupancy
 _atom_site_charge
  Zn  Zn1  1  0.270420  0.729580  0.750000  1.0  1.0669
  Zn  Zn2  1  0.729580  0.270420  0.250000  1.0  1.0656
  Zn  Zn3  1  0.770420  0.770420  0.000000  1.0  1.066
  Zn  Zn4  1  0.229580  0.229580  0.500000  1.0  1.0667
  Zn  Zn5  1  0.222520  0.777480  0.250000  1.0  1.0864
  Zn  Zn6  1  0.777480  0.222520  0.750000  1.0  1.0867
  Zn  Zn7  1  0.722520  0.722520  0.500000  1.0  1.0866
  Zn  Zn8  1  0.277480  0.277480  0.000000  1.0  1.0864
  H  H9  1  0.397000  0.732000  0.565000  1.0  0.4238
  H  H10  1  0.504900  0.694700  0.023500  1.0  0.1467
  H  H11  1  0.539800  0.784200  0.592800  1.0  0.1323
  H  H12  1  0.611000  0.748000  0.303000  1.0  0.4306
  H  H13  1  0.452100  0.792500  0.828200  1.0  0.1447
  H  H14  1  0.495400  0.673300  0.542300  1.0  0.1474
  H  H15  1  0.603000  0.268000  0.065000  1.0  0.4244
  H  H16  1  0.495100  0.305300  0.523500  1.0  0.1471
  H  H17  1  0.460200  0.215800  0.092800  1.0  0.1344
  H  H18  1  0.389000  0.252000  0.803000  1.0  0.43
  H  H19  1  0.547900  0.207500  0.328200  1.0  0.1411
  H  H20  1  0.504600  0.326700  0.042300  1.0  0.1469
  H  H21  1  0.768000  0.897000  0.815000  1.0  0.426
  H  H22  1  0.805300  0.004900  0.273500  1.0  0.1475
  H  H23  1  0.715800  0.039800  0.842800  1.0  0.1294
  H  H24  1  0.752000  0.111000  0.553000  1.0  0.4327
  H  H25  1  0.707500  0.952100  0.078200  1.0  0.1508
  H  H26  1  0.826700  0.995400  0.792300  1.0  0.1467
  H  H27  1  0.232000  0.103000  0.315000  1.0  0.424
  H  H28  1  0.194700  0.995100  0.773500  1.0  0.1467
  H  H29  1  0.284200  0.960200  0.342800  1.0  0.1318
  H  H30  1  0.248000  0.889000  0.053000  1.0  0.4318
  H  H31  1  0.292500  0.047900  0.578200  1.0  0.152
  H  H32  1  0.173300  0.004600  0.292300  1.0  0.1467
  H  H33  1  0.103000  0.232000  0.685000  1.0  0.4239
  H  H34  1  0.995100  0.194700  0.226500  1.0  0.1471
  H  H35  1  0.960200  0.284200  0.657200  1.0  0.1334
  H  H36  1  0.889000  0.248000  0.947000  1.0  0.431
  H  H37  1  0.047900  0.292500  0.421800  1.0  0.1457
  H  H38  1  0.004600  0.173300  0.707700  1.0  0.1467
  H  H39  1  0.897000  0.768000  0.185000  1.0  0.423
  H  H40  1  0.004900  0.805300  0.726500  1.0  0.1471
  H  H41  1  0.039800  0.715800  0.157200  1.0  0.1336
  H  H42  1  0.111000  0.752000  0.447000  1.0  0.4336
  H  H43  1  0.952100  0.707500  0.921800  1.0  0.1421
  H  H44  1  0.995400  0.826700  0.207700  1.0  0.1464
  H  H45  1  0.732000  0.397000  0.435000  1.0  0.4233
  H  H46  1  0.694700  0.504900  0.976500  1.0  0.1465
  H  H47  1  0.784200  0.539800  0.407200  1.0  0.1318
  H  H48  1  0.748000  0.611000  0.697000  1.0  0.4343
  H  H49  1  0.792500  0.452100  0.171800  1.0  0.1525
  H  H50  1  0.673300  0.495400  0.457700  1.0  0.1461
  H  H51  1  0.268000  0.603000  0.935000  1.0  0.4254
  H  H52  1  0.305300  0.495100  0.476500  1.0  0.1473
  H  H53  1  0.215800  0.460200  0.907200  1.0  0.1299
  H  H54  1  0.252000  0.389000  0.197000  1.0  0.4336
  H  H55  1  0.207500  0.547900  0.671800  1.0  0.1507
  H  H56  1  0.326700  0.504600  0.957700  1.0  0.1463
  C  C57  1  0.381000  0.759200  0.089000  1.0  0.7236
  C  C58  1  0.475500  0.686300  0.888000  1.0  0.0173
  C  C59  1  0.569900  0.743700  0.627000  1.0  0.0912
  C  C60  1  0.617200  0.762000  0.832000  1.0  0.6799
  C  C61  1  0.425700  0.749600  0.864000  1.0  0.102
  C  C62  1  0.524600  0.682000  0.678000  1.0  0.0991
  C  C63  1  0.619000  0.240800  0.589000  1.0  0.7249
  C  C64  1  0.524500  0.313700  0.388000  1.0  0.0176
  C  C65  1  0.430100  0.256300  0.127000  1.0  0.091
  C  C66  1  0.382800  0.238000  0.332000  1.0  0.6794
  C  C67  1  0.574300  0.250400  0.364000  1.0  0.1026
  C  C68  1  0.475400  0.318000  0.178000  1.0  0.0998
  C  C69  1  0.740800  0.881000  0.339000  1.0  0.7268
  C  C70  1  0.813700  0.975500  0.138000  1.0  0.0174
  C  C71  1  0.756300  0.069900  0.877000  1.0  0.0921
  C  C72  1  0.738000  0.117200  0.082000  1.0  0.6823
  C  C73  1  0.750400  0.925700  0.114000  1.0  0.1013
  C  C74  1  0.818000  0.024600  0.928000  1.0  0.0966
  C  C75  1  0.259200  0.119000  0.839000  1.0  0.7262
  C  C76  1  0.186300  0.024500  0.638000  1.0  0.0167
  C  C77  1  0.243700  0.930100  0.377000  1.0  0.0922
  C  C78  1  0.262000  0.882800  0.582000  1.0  0.6832
  C  C79  1  0.249600  0.074300  0.614000  1.0  0.1009
  C  C80  1  0.182000  0.975400  0.428000  1.0  0.0955
  C  C81  1  0.119000  0.259200  0.161000  1.0  0.7236
  C  C82  1  0.024500  0.186300  0.362000  1.0  0.018
  C  C83  1  0.930100  0.243700  0.623000  1.0  0.0916
  C  C84  1  0.882800  0.262000  0.418000  1.0  0.6802
  C  C85  1  0.074300  0.249600  0.386000  1.0  0.1031
  C  C86  1  0.975400  0.182000  0.572000  1.0  0.1004
  C  C87  1  0.881000  0.740800  0.661000  1.0  0.7235
  C  C88  1  0.975500  0.813700  0.862000  1.0  0.0184
  C  C89  1  0.069900  0.756300  0.123000  1.0  0.0912
  C  C90  1  0.117200  0.738000  0.918000  1.0  0.6797
  C  C91  1  0.925700  0.750400  0.886000  1.0  0.1014
  C  C92  1  0.024600  0.818000  0.072000  1.0  0.0999
  C  C93  1  0.759200  0.381000  0.911000  1.0  0.7249
  C  C94  1  0.686300  0.475500  0.112000  1.0  0.0169
  C  C95  1  0.743700  0.569900  0.373000  1.0  0.0928
  C  C96  1  0.762000  0.617200  0.168000  1.0  0.683
  C  C97  1  0.749600  0.425700  0.136000  1.0  0.1012
  C  C98  1  0.682000  0.524600  0.322000  1.0  0.0961
  C  C99  1  0.240800  0.619000  0.411000  1.0  0.727
  C  C100  1  0.313700  0.524500  0.612000  1.0  0.0185
  C  C101  1  0.256300  0.430100  0.873000  1.0  0.0924
  C  C102  1  0.238000  0.382800  0.668000  1.0  0.682
  C  C103  1  0.250400  0.574300  0.636000  1.0  0.1012
  C  C104  1  0.318000  0.475400  0.822000  1.0  0.0967
  O  O105  1  0.315500  0.756200  0.060000  1.0  -0.6153
  O  O106  1  0.410500  0.769300  0.262000  1.0  -0.479
  O  O107  1  0.375500  0.734100  0.682600  1.0  -0.5225
  O  O108  1  0.439700  0.626100  0.925200  1.0  -0.4266
  O  O109  1  0.570300  0.621000  0.709300  1.0  -0.4995
  O  O110  1  0.613600  0.728800  0.424400  1.0  -0.5306
  O  O111  1  0.682200  0.753400  0.805900  1.0  -0.6147
  O  O112  1  0.585600  0.786400  0.009000  1.0  -0.5393
  O  O113  1  0.684500  0.243800  0.560000  1.0  -0.6157
  O  O114  1  0.589500  0.230700  0.762000  1.0  -0.4794
  O  O115  1  0.624500  0.265900  0.182600  1.0  -0.5213
  O  O116  1  0.560300  0.373900  0.425200  1.0  -0.4189
  O  O117  1  0.429700  0.379000  0.209300  1.0  -0.4841
  O  O118  1  0.386400  0.271200  0.924400  1.0  -0.5295
  O  O119  1  0.317800  0.246600  0.305900  1.0  -0.612
  O  O120  1  0.414400  0.213600  0.509000  1.0  -0.5385
  O  O121  1  0.743800  0.815500  0.310000  1.0  -0.616
  O  O122  1  0.730700  0.910500  0.512000  1.0  -0.4802
  O  O123  1  0.765900  0.875500  0.932600  1.0  -0.5208
  O  O124  1  0.873900  0.939700  0.175200  1.0  -0.4324
  O  O125  1  0.879000  0.070300  0.959300  1.0  -0.4908
  O  O126  1  0.771200  0.113600  0.674400  1.0  -0.5291
  O  O127  1  0.746600  0.182200  0.055900  1.0  -0.6132
  O  O128  1  0.713600  0.085600  0.259000  1.0  -0.5416
  O  O129  1  0.256200  0.184500  0.810000  1.0  -0.6161
  O  O130  1  0.269300  0.089500  0.012000  1.0  -0.4801
  O  O131  1  0.234100  0.124500  0.432600  1.0  -0.522
  O  O132  1  0.126100  0.060300  0.675200  1.0  -0.4285
  O  O133  1  0.121000  0.929700  0.459300  1.0  -0.4903
  O  O134  1  0.228800  0.886400  0.174400  1.0  -0.5312
  O  O135  1  0.253400  0.817800  0.555900  1.0  -0.6133
  O  O136  1  0.286400  0.914400  0.759000  1.0  -0.5397
  O  O137  1  0.184500  0.256200  0.190000  1.0  -0.6161
  O  O138  1  0.089500  0.269300  0.988000  1.0  -0.4808
  O  O139  1  0.124500  0.234100  0.567400  1.0  -0.5231
  O  O140  1  0.060300  0.126100  0.324800  1.0  -0.4264
  O  O141  1  0.929700  0.121000  0.540700  1.0  -0.4997
  O  O142  1  0.886400  0.228800  0.825600  1.0  -0.5308
  O  O143  1  0.817800  0.253400  0.444100  1.0  -0.6121
  O  O144  1  0.914400  0.286400  0.241000  1.0  -0.5413
  O  O145  1  0.815500  0.743800  0.690000  1.0  -0.6158
  O  O146  1  0.910500  0.730700  0.488000  1.0  -0.4805
  O  O147  1  0.875500  0.765900  0.067400  1.0  -0.5232
  O  O148  1  0.939700  0.873900  0.824800  1.0  -0.4187
  O  O149  1  0.070300  0.879000  0.040700  1.0  -0.4848
  O  O150  1  0.113600  0.771200  0.325600  1.0  -0.5331
  O  O151  1  0.182200  0.746600  0.944100  1.0  -0.614
  O  O152  1  0.085600  0.713600  0.741000  1.0  -0.5412
  O  O153  1  0.756200  0.315500  0.940000  1.0  -0.6173
  O  O154  1  0.769300  0.410500  0.738000  1.0  -0.4815
  O  O155  1  0.734100  0.375500  0.317400  1.0  -0.5217
  O  O156  1  0.626100  0.439700  0.074800  1.0  -0.4289
  O  O157  1  0.621000  0.570300  0.290700  1.0  -0.4892
  O  O158  1  0.728800  0.613600  0.575600  1.0  -0.532
  O  O159  1  0.753400  0.682200  0.194100  1.0  -0.613
  O  O160  1  0.786400  0.585600  0.991000  1.0  -0.5437
  O  O161  1  0.243800  0.684500  0.440000  1.0  -0.6161
  O  O162  1  0.230700  0.589500  0.238000  1.0  -0.4818
  O  O163  1  0.265900  0.624500  0.817400  1.0  -0.5219
  O  O164  1  0.373900  0.560300  0.574800  1.0  -0.4304
  O  O165  1  0.379000  0.429700  0.790700  1.0  -0.4919
  O  O166  1  0.271200  0.386400  0.075600  1.0  -0.5311
  O  O167  1  0.246600  0.317800  0.694100  1.0  -0.6131
  O  O168  1  0.213600  0.414400  0.491000  1.0  -0.5438
