# generated using pymatgen
data_ZnH6(C3O4)2
_symmetry_space_group_name_H-M   'P 1'
_cell_length_a   5.82650000
_cell_length_b   19.05130000
_cell_length_c   19.05130000
_cell_angle_alpha   90.00000000
_cell_angle_beta   90.00000000
_cell_angle_gamma   90.00000000
_symmetry_Int_Tables_number   1
_chemical_formula_structural   ZnH6(C3O4)2
_chemical_formula_sum   'Zn8 H48 C48 O64'
_cell_volume   2114.74001264
_cell_formula_units_Z   8
loop_
 _symmetry_equiv_pos_site_id
 _symmetry_equiv_pos_as_xyz
  1  'x, y, z'
loop_
 _atom_site_type_symbol
 _atom_site_label
 _atom_site_symmetry_multiplicity
 _atom_site_fract_x
 _atom_site_fract_y
 _atom_site_fract_z
 _atom_site_occupancy
 _atom_site_charge
  Zn  Zn1  1  0.250000  0.727610  0.272390  1.0  1.0084
  Zn  Zn2  1  0.750000  0.272390  0.727610  1.0  1.0081
  Zn  Zn3  1  0.000000  0.227610  0.227610  1.0  1.0087
  Zn  Zn4  1  0.500000  0.772390  0.772390  1.0  1.0077
  Zn  Zn5  1  0.750000  0.775650  0.224350  1.0  1.0219
  Zn  Zn6  1  0.250000  0.224350  0.775650  1.0  1.0225
  Zn  Zn7  1  0.500000  0.275650  0.275650  1.0  1.022
  Zn  Zn8  1  0.000000  0.724350  0.724350  1.0  1.0225
  H  H9  1  0.406000  0.624000  0.239000  1.0  0.3852
  H  H10  1  0.978000  0.493000  0.303500  1.0  0.1133
  H  H11  1  0.405200  0.460000  0.216400  1.0  0.1065
  H  H12  1  0.686000  0.390000  0.250000  1.0  0.3991
  H  H13  1  0.174200  0.549600  0.206900  1.0  0.11
  H  H14  1  0.454200  0.503300  0.329400  1.0  0.1281
  H  H15  1  0.906000  0.376000  0.761000  1.0  0.3854
  H  H16  1  0.478000  0.507000  0.696500  1.0  0.1139
  H  H17  1  0.905200  0.540000  0.783600  1.0  0.1062
  H  H18  1  0.186000  0.610000  0.750000  1.0  0.3989
  H  H19  1  0.674200  0.450400  0.793100  1.0  0.1105
  H  H20  1  0.954200  0.496700  0.670600  1.0  0.1282
  H  H21  1  0.156000  0.261000  0.124000  1.0  0.3849
  H  H22  1  0.728000  0.196500  0.993000  1.0  0.1137
  H  H23  1  0.155200  0.283600  0.960000  1.0  0.1065
  H  H24  1  0.436000  0.250000  0.890000  1.0  0.3992
  H  H25  1  0.924200  0.293100  0.049600  1.0  0.108
  H  H26  1  0.204200  0.170600  0.003300  1.0  0.1292
  H  H27  1  0.656000  0.739000  0.876000  1.0  0.3857
  H  H28  1  0.228000  0.803500  0.007000  1.0  0.1133
  H  H29  1  0.655200  0.716400  0.040000  1.0  0.1061
  H  H30  1  0.936000  0.750000  0.110000  1.0  0.3996
  H  H31  1  0.424200  0.706900  0.950400  1.0  0.1064
  H  H32  1  0.704200  0.829400  0.996700  1.0  0.1297
  H  H33  1  0.344000  0.876000  0.739000  1.0  0.3862
  H  H34  1  0.772000  0.007000  0.803500  1.0  0.1121
  H  H35  1  0.344800  0.040000  0.716400  1.0  0.1064
  H  H36  1  0.064000  0.110000  0.750000  1.0  0.3983
  H  H37  1  0.575800  0.950400  0.706900  1.0  0.1095
  H  H38  1  0.295800  0.996700  0.829400  1.0  0.1288
  H  H39  1  0.844000  0.124000  0.261000  1.0  0.3855
  H  H40  1  0.272000  0.993000  0.196500  1.0  0.1131
  H  H41  1  0.844800  0.960000  0.283600  1.0  0.1061
  H  H42  1  0.564000  0.890000  0.250000  1.0  0.3986
  H  H43  1  0.075800  0.049600  0.293100  1.0  0.1107
  H  H44  1  0.795800  0.003300  0.170600  1.0  0.1282
  H  H45  1  0.594000  0.239000  0.624000  1.0  0.3861
  H  H46  1  0.022000  0.303500  0.493000  1.0  0.1128
  H  H47  1  0.594800  0.216400  0.460000  1.0  0.1071
  H  H48  1  0.314000  0.250000  0.390000  1.0  0.3989
  H  H49  1  0.825800  0.206900  0.549600  1.0  0.1057
  H  H50  1  0.545800  0.329400  0.503300  1.0  0.1295
  H  H51  1  0.094000  0.761000  0.376000  1.0  0.386
  H  H52  1  0.522000  0.696500  0.507000  1.0  0.1131
  H  H53  1  0.094800  0.783600  0.540000  1.0  0.1074
  H  H54  1  0.814000  0.750000  0.610000  1.0  0.3994
  H  H55  1  0.325800  0.793100  0.450400  1.0  0.1084
  H  H56  1  0.045800  0.670600  0.496700  1.0  0.1292
  C  C57  1  0.918500  0.617500  0.241900  1.0  0.6607
  C  C58  1  0.113600  0.522100  0.312500  1.0  0.0808
  C  C59  1  0.369700  0.429400  0.256300  1.0  0.055
  C  C60  1  0.169200  0.382500  0.237600  1.0  0.6534
  C  C61  1  0.140200  0.575000  0.250400  1.0  0.0399
  C  C62  1  0.319200  0.474000  0.320200  1.0  0.0836
  C  C63  1  0.418500  0.382500  0.758100  1.0  0.6611
  C  C64  1  0.613600  0.477900  0.687500  1.0  0.081
  C  C65  1  0.869700  0.570600  0.743700  1.0  0.0565
  C  C66  1  0.669200  0.617500  0.762400  1.0  0.6532
  C  C67  1  0.640200  0.425000  0.749600  1.0  0.0408
  C  C68  1  0.819200  0.526000  0.679800  1.0  0.0836
  C  C69  1  0.668500  0.258100  0.117500  1.0  0.6633
  C  C70  1  0.863600  0.187500  0.022100  1.0  0.0808
  C  C71  1  0.119700  0.243700  0.929400  1.0  0.0558
  C  C72  1  0.919200  0.262400  0.882500  1.0  0.6498
  C  C73  1  0.890200  0.249600  0.075000  1.0  0.0402
  C  C74  1  0.069200  0.179800  0.974000  1.0  0.0828
  C  C75  1  0.168500  0.741900  0.882500  1.0  0.6604
  C  C76  1  0.363600  0.812500  0.977900  1.0  0.0825
  C  C77  1  0.619700  0.756300  0.070600  1.0  0.0564
  C  C78  1  0.419200  0.737600  0.117500  1.0  0.6524
  C  C79  1  0.390200  0.750400  0.925000  1.0  0.0395
  C  C80  1  0.569200  0.820200  0.026000  1.0  0.0826
  C  C81  1  0.831500  0.882500  0.741900  1.0  0.6604
  C  C82  1  0.636400  0.977900  0.812500  1.0  0.081
  C  C83  1  0.380300  0.070600  0.756300  1.0  0.0554
  C  C84  1  0.580800  0.117500  0.737600  1.0  0.6535
  C  C85  1  0.609800  0.925000  0.750400  1.0  0.0394
  C  C86  1  0.430800  0.026000  0.820200  1.0  0.0825
  C  C87  1  0.331500  0.117500  0.258100  1.0  0.6605
  C  C88  1  0.136400  0.022100  0.187500  1.0  0.0802
  C  C89  1  0.880300  0.929400  0.243700  1.0  0.0567
  C  C90  1  0.080800  0.882500  0.262400  1.0  0.6533
  C  C91  1  0.109800  0.075000  0.249600  1.0  0.0401
  C  C92  1  0.930800  0.974000  0.179800  1.0  0.0833
  C  C93  1  0.081500  0.241900  0.617500  1.0  0.6626
  C  C94  1  0.886400  0.312500  0.522100  1.0  0.0812
  C  C95  1  0.630300  0.256300  0.429400  1.0  0.0558
  C  C96  1  0.830800  0.237600  0.382500  1.0  0.6505
  C  C97  1  0.859800  0.250400  0.575000  1.0  0.0414
  C  C98  1  0.680800  0.320200  0.474000  1.0  0.082
  C  C99  1  0.581500  0.758100  0.382500  1.0  0.6602
  C  C100  1  0.386400  0.687500  0.477900  1.0  0.0805
  C  C101  1  0.130300  0.743700  0.570600  1.0  0.0561
  C  C102  1  0.330800  0.762400  0.617500  1.0  0.6515
  C  C103  1  0.359800  0.749600  0.425000  1.0  0.0388
  C  C104  1  0.180800  0.679800  0.526000  1.0  0.0828
  O  O105  1  0.939300  0.683800  0.243000  1.0  -0.6358
  O  O106  1  0.738600  0.584600  0.231800  1.0  -0.5561
  O  O107  1  0.324400  0.622100  0.266800  1.0  -0.5095
  O  O108  1  0.075400  0.560100  0.374600  1.0  -0.1986
  O  O109  1  0.287700  0.429200  0.379100  1.0  -0.2038
  O  O110  1  0.566800  0.385200  0.271500  1.0  -0.5393
  O  O111  1  0.194200  0.315800  0.246900  1.0  -0.63
  O  O112  1  0.991100  0.408600  0.213600  1.0  -0.5518
  O  O113  1  0.439300  0.316200  0.757000  1.0  -0.6362
  O  O114  1  0.238600  0.415400  0.768200  1.0  -0.5563
  O  O115  1  0.824400  0.377900  0.733200  1.0  -0.5114
  O  O116  1  0.575400  0.439900  0.625400  1.0  -0.1977
  O  O117  1  0.787700  0.570800  0.620900  1.0  -0.1997
  O  O118  1  0.066800  0.614800  0.728500  1.0  -0.5406
  O  O119  1  0.694200  0.684200  0.753100  1.0  -0.6298
  O  O120  1  0.491100  0.591400  0.786400  1.0  -0.5499
  O  O121  1  0.689300  0.257000  0.183800  1.0  -0.6354
  O  O122  1  0.488600  0.268200  0.084600  1.0  -0.5573
  O  O123  1  0.074400  0.233200  0.122100  1.0  -0.5067
  O  O124  1  0.825400  0.125400  0.060100  1.0  -0.2115
  O  O125  1  0.037700  0.120900  0.929200  1.0  -0.216
  O  O126  1  0.316800  0.228500  0.885200  1.0  -0.5388
  O  O127  1  0.944200  0.253100  0.815800  1.0  -0.6309
  O  O128  1  0.741100  0.286400  0.908600  1.0  -0.5491
  O  O129  1  0.189300  0.743000  0.816200  1.0  -0.6348
  O  O130  1  0.988600  0.731800  0.915400  1.0  -0.5569
  O  O131  1  0.574400  0.766800  0.877900  1.0  -0.5064
  O  O132  1  0.325400  0.874600  0.939900  1.0  -0.2013
  O  O133  1  0.537700  0.879100  0.070800  1.0  -0.2072
  O  O134  1  0.816800  0.771500  0.114800  1.0  -0.5379
  O  O135  1  0.444200  0.746900  0.184200  1.0  -0.63
  O  O136  1  0.241100  0.713600  0.091400  1.0  -0.5517
  O  O137  1  0.810700  0.816200  0.743000  1.0  -0.6354
  O  O138  1  0.011400  0.915400  0.731800  1.0  -0.5573
  O  O139  1  0.425600  0.877900  0.766800  1.0  -0.511
  O  O140  1  0.674600  0.939900  0.874600  1.0  -0.1991
  O  O141  1  0.462300  0.070800  0.879100  1.0  -0.2026
  O  O142  1  0.183200  0.114800  0.771500  1.0  -0.5396
  O  O143  1  0.555800  0.184200  0.746900  1.0  -0.6294
  O  O144  1  0.758900  0.091400  0.713600  1.0  -0.5544
  O  O145  1  0.310700  0.183800  0.257000  1.0  -0.6353
  O  O146  1  0.511400  0.084600  0.268200  1.0  -0.5566
  O  O147  1  0.925600  0.122100  0.233200  1.0  -0.5118
  O  O148  1  0.174600  0.060100  0.125400  1.0  -0.1976
  O  O149  1  0.962300  0.929200  0.120900  1.0  -0.1999
  O  O150  1  0.683200  0.885200  0.228500  1.0  -0.5405
  O  O151  1  0.055800  0.815800  0.253100  1.0  -0.6301
  O  O152  1  0.258900  0.908600  0.286400  1.0  -0.5506
  O  O153  1  0.060700  0.243000  0.683800  1.0  -0.6345
  O  O154  1  0.261400  0.231800  0.584600  1.0  -0.5583
  O  O155  1  0.675600  0.266800  0.622100  1.0  -0.5071
  O  O156  1  0.924600  0.374600  0.560100  1.0  -0.2027
  O  O157  1  0.712300  0.379100  0.429200  1.0  -0.208
  O  O158  1  0.433200  0.271500  0.385200  1.0  -0.539
  O  O159  1  0.805800  0.246900  0.315800  1.0  -0.6305
  O  O160  1  0.008900  0.213600  0.408600  1.0  -0.5514
  O  O161  1  0.560700  0.757000  0.316200  1.0  -0.6347
  O  O162  1  0.761400  0.768200  0.415400  1.0  -0.5573
  O  O163  1  0.175600  0.733200  0.377900  1.0  -0.5073
  O  O164  1  0.424600  0.625400  0.439900  1.0  -0.2093
  O  O165  1  0.212300  0.620900  0.570800  1.0  -0.2136
  O  O166  1  0.933200  0.728500  0.614800  1.0  -0.538
  O  O167  1  0.305800  0.753100  0.684200  1.0  -0.6297
  O  O168  1  0.508900  0.786400  0.591400  1.0  -0.5505
