# generated using pymatgen
data_ZnH6(C3O4)2
_symmetry_space_group_name_H-M   'P 1'
_cell_length_a   18.95450000
_cell_length_b   18.95450000
_cell_length_c   5.79110000
_cell_angle_alpha   90.00000000
_cell_angle_beta   90.00000000
_cell_angle_gamma   90.00000000
_symmetry_Int_Tables_number   1
_chemical_formula_structural   ZnH6(C3O4)2
_chemical_formula_sum   'Zn8 H48 C48 O64'
_cell_volume   2080.58627712
_cell_formula_units_Z   8
loop_
 _symmetry_equiv_pos_site_id
 _symmetry_equiv_pos_as_xyz
  1  'x, y, z'
loop_
 _atom_site_type_symbol
 _atom_site_label
 _atom_site_symmetry_multiplicity
 _atom_site_fract_x
 _atom_site_fract_y
 _atom_site_fract_z
 _atom_site_occupancy
 _atom_site_charge
  Zn  Zn1  1  0.270310  0.729690  0.750000  1.0  1.0775
  Zn  Zn2  1  0.729690  0.270310  0.250000  1.0  1.0748
  Zn  Zn3  1  0.770310  0.770310  0.000000  1.0  1.0769
  Zn  Zn4  1  0.229690  0.229690  0.500000  1.0  1.0753
  Zn  Zn5  1  0.221800  0.778200  0.250000  1.0  1.0688
  Zn  Zn6  1  0.778200  0.221800  0.750000  1.0  1.0698
  Zn  Zn7  1  0.721800  0.721800  0.500000  1.0  1.0691
  Zn  Zn8  1  0.278200  0.278200  0.000000  1.0  1.0694
  H  H9  1  0.398000  0.752000  0.581000  1.0  0.3255
  H  H10  1  0.506300  0.696900  0.021200  1.0  0.1297
  H  H11  1  0.538000  0.784300  0.589000  1.0  0.1182
  H  H12  1  0.605000  0.747000  0.298000  1.0  0.4124
  H  H13  1  0.450900  0.793500  0.827700  1.0  0.1215
  H  H14  1  0.493800  0.670200  0.539700  1.0  0.1285
  H  H15  1  0.602000  0.248000  0.081000  1.0  0.3265
  H  H16  1  0.493700  0.303100  0.521200  1.0  0.1298
  H  H17  1  0.462000  0.215700  0.089000  1.0  0.1187
  H  H18  1  0.395000  0.253000  0.798000  1.0  0.4135
  H  H19  1  0.549100  0.206500  0.327700  1.0  0.1183
  H  H20  1  0.506200  0.329800  0.039700  1.0  0.1288
  H  H21  1  0.748000  0.898000  0.831000  1.0  0.3272
  H  H22  1  0.803100  0.006300  0.271200  1.0  0.1298
  H  H23  1  0.715700  0.038000  0.839000  1.0  0.116
  H  H24  1  0.753000  0.105000  0.548000  1.0  0.4151
  H  H25  1  0.706500  0.950900  0.077700  1.0  0.1221
  H  H26  1  0.829800  0.993800  0.789700  1.0  0.1283
  H  H27  1  0.252000  0.102000  0.331000  1.0  0.327
  H  H28  1  0.196900  0.993700  0.771200  1.0  0.1304
  H  H29  1  0.284300  0.962000  0.339000  1.0  0.1164
  H  H30  1  0.247000  0.895000  0.048000  1.0  0.414
  H  H31  1  0.293500  0.049100  0.577700  1.0  0.1223
  H  H32  1  0.170200  0.006200  0.289700  1.0  0.1289
  H  H33  1  0.102000  0.252000  0.669000  1.0  0.325
  H  H34  1  0.993700  0.196900  0.228800  1.0  0.1305
  H  H35  1  0.962000  0.284300  0.661000  1.0  0.118
  H  H36  1  0.895000  0.247000  0.952000  1.0  0.4129
  H  H37  1  0.049100  0.293500  0.422300  1.0  0.1216
  H  H38  1  0.006200  0.170200  0.710300  1.0  0.129
  H  H39  1  0.898000  0.748000  0.169000  1.0  0.3248
  H  H40  1  0.006300  0.803100  0.728800  1.0  0.1305
  H  H41  1  0.038000  0.715700  0.161000  1.0  0.1181
  H  H42  1  0.105000  0.753000  0.452000  1.0  0.4151
  H  H43  1  0.950900  0.706500  0.922300  1.0  0.1181
  H  H44  1  0.993800  0.829800  0.210300  1.0  0.1287
  H  H45  1  0.752000  0.398000  0.419000  1.0  0.3259
  H  H46  1  0.696900  0.506300  0.978800  1.0  0.1311
  H  H47  1  0.784300  0.538000  0.411000  1.0  0.1161
  H  H48  1  0.747000  0.605000  0.702000  1.0  0.416
  H  H49  1  0.793500  0.450900  0.172300  1.0  0.1228
  H  H50  1  0.670200  0.493800  0.460300  1.0  0.129
  H  H51  1  0.248000  0.602000  0.919000  1.0  0.3266
  H  H52  1  0.303100  0.493700  0.478800  1.0  0.1308
  H  H53  1  0.215700  0.462000  0.911000  1.0  0.1158
  H  H54  1  0.253000  0.395000  0.202000  1.0  0.4161
  H  H55  1  0.206500  0.549100  0.672300  1.0  0.1212
  H  H56  1  0.329800  0.506200  0.960300  1.0  0.1287
  C  C57  1  0.380900  0.759000  0.088000  1.0  0.7101
  C  C58  1  0.476100  0.688000  0.887000  1.0  0.1182
  C  C59  1  0.568800  0.744400  0.626000  1.0  0.0819
  C  C60  1  0.615600  0.764200  0.830000  1.0  0.6736
  C  C61  1  0.424900  0.750100  0.862000  1.0  0.1073
  C  C62  1  0.523400  0.679600  0.675000  1.0  0.1297
  C  C63  1  0.619100  0.241000  0.588000  1.0  0.7109
  C  C64  1  0.523900  0.312000  0.387000  1.0  0.118
  C  C65  1  0.431200  0.255600  0.126000  1.0  0.081
  C  C66  1  0.384400  0.235800  0.330000  1.0  0.6726
  C  C67  1  0.575100  0.249900  0.362000  1.0  0.1074
  C  C68  1  0.476600  0.320400  0.175000  1.0  0.1304
  C  C69  1  0.741000  0.880900  0.338000  1.0  0.7118
  C  C70  1  0.812000  0.976100  0.137000  1.0  0.1166
  C  C71  1  0.755600  0.068800  0.876000  1.0  0.0821
  C  C72  1  0.735800  0.115600  0.080000  1.0  0.6768
  C  C73  1  0.749900  0.924900  0.112000  1.0  0.1061
  C  C74  1  0.820400  0.023400  0.925000  1.0  0.1263
  C  C75  1  0.259000  0.119100  0.838000  1.0  0.7111
  C  C76  1  0.188000  0.023900  0.637000  1.0  0.1136
  C  C77  1  0.244400  0.931200  0.376000  1.0  0.0824
  C  C78  1  0.264200  0.884400  0.580000  1.0  0.6759
  C  C79  1  0.250100  0.075100  0.612000  1.0  0.1066
  C  C80  1  0.179600  0.976600  0.425000  1.0  0.1243
  C  C81  1  0.119100  0.259000  0.162000  1.0  0.7103
  C  C82  1  0.023900  0.188000  0.363000  1.0  0.1174
  C  C83  1  0.931200  0.244400  0.624000  1.0  0.0819
  C  C84  1  0.884400  0.264200  0.420000  1.0  0.6711
  C  C85  1  0.075100  0.250100  0.388000  1.0  0.1095
  C  C86  1  0.976600  0.179600  0.575000  1.0  0.1289
  C  C87  1  0.880900  0.741000  0.662000  1.0  0.7106
  C  C88  1  0.976100  0.812000  0.863000  1.0  0.1194
  C  C89  1  0.068800  0.755600  0.124000  1.0  0.0814
  C  C90  1  0.115600  0.735800  0.920000  1.0  0.671
  C  C91  1  0.924900  0.749900  0.888000  1.0  0.1071
  C  C92  1  0.023400  0.820400  0.075000  1.0  0.1312
  C  C93  1  0.759000  0.380900  0.912000  1.0  0.7107
  C  C94  1  0.688000  0.476100  0.113000  1.0  0.113
  C  C95  1  0.744400  0.568800  0.374000  1.0  0.082
  C  C96  1  0.764200  0.615600  0.170000  1.0  0.6734
  C  C97  1  0.750100  0.424900  0.138000  1.0  0.1076
  C  C98  1  0.679600  0.523400  0.325000  1.0  0.1236
  C  C99  1  0.241000  0.619100  0.412000  1.0  0.7119
  C  C100  1  0.312000  0.523900  0.613000  1.0  0.117
  C  C101  1  0.255600  0.431200  0.874000  1.0  0.0825
  C  C102  1  0.235800  0.384400  0.670000  1.0  0.6748
  C  C103  1  0.249900  0.575100  0.638000  1.0  0.1069
  C  C104  1  0.320400  0.476600  0.825000  1.0  0.125
  O  O105  1  0.316300  0.757800  0.063500  1.0  -0.6135
  O  O106  1  0.412800  0.769900  0.262800  1.0  -0.5175
  O  O107  1  0.376300  0.734500  0.678700  1.0  -0.5504
  O  O108  1  0.438300  0.624700  0.926400  1.0  -0.285
  O  O109  1  0.569400  0.621900  0.708600  1.0  -0.4254
  O  O110  1  0.613300  0.728400  0.425500  1.0  -0.545
  O  O111  1  0.682200  0.751900  0.805300  1.0  -0.6422
  O  O112  1  0.587000  0.788900  0.008800  1.0  -0.5502
  O  O113  1  0.683700  0.242200  0.563500  1.0  -0.6133
  O  O114  1  0.587200  0.230100  0.762800  1.0  -0.5166
  O  O115  1  0.623700  0.265500  0.178700  1.0  -0.5476
  O  O116  1  0.561700  0.375300  0.426400  1.0  -0.2773
  O  O117  1  0.430600  0.378100  0.208600  1.0  -0.4141
  O  O118  1  0.386700  0.271600  0.925500  1.0  -0.5447
  O  O119  1  0.317800  0.248100  0.305300  1.0  -0.6402
  O  O120  1  0.413000  0.211100  0.508800  1.0  -0.5497
  O  O121  1  0.742200  0.816300  0.313500  1.0  -0.6158
  O  O122  1  0.730100  0.912800  0.512800  1.0  -0.5183
  O  O123  1  0.765500  0.876300  0.928700  1.0  -0.5494
  O  O124  1  0.875300  0.938300  0.176400  1.0  -0.2951
  O  O125  1  0.878100  0.069400  0.958600  1.0  -0.4257
  O  O126  1  0.771600  0.113300  0.675500  1.0  -0.5448
  O  O127  1  0.748100  0.182200  0.055300  1.0  -0.6411
  O  O128  1  0.711100  0.087000  0.258800  1.0  -0.55
  O  O129  1  0.257800  0.183700  0.813500  1.0  -0.6154
  O  O130  1  0.269900  0.087200  0.012800  1.0  -0.5157
  O  O131  1  0.234500  0.123700  0.428700  1.0  -0.5502
  O  O132  1  0.124700  0.061700  0.676400  1.0  -0.2888
  O  O133  1  0.121900  0.930600  0.458600  1.0  -0.4255
  O  O134  1  0.228400  0.886700  0.175500  1.0  -0.5447
  O  O135  1  0.251900  0.817800  0.555300  1.0  -0.6415
  O  O136  1  0.288900  0.913000  0.758800  1.0  -0.5501
  O  O137  1  0.183700  0.257800  0.186500  1.0  -0.6133
  O  O138  1  0.087200  0.269900  0.987200  1.0  -0.5182
  O  O139  1  0.123700  0.234500  0.571300  1.0  -0.5493
  O  O140  1  0.061700  0.124700  0.323600  1.0  -0.2859
  O  O141  1  0.930600  0.121900  0.541400  1.0  -0.4252
  O  O142  1  0.886700  0.228400  0.824500  1.0  -0.5462
  O  O143  1  0.817800  0.251900  0.444700  1.0  -0.6404
  O  O144  1  0.913000  0.288900  0.241200  1.0  -0.551
  O  O145  1  0.816300  0.742200  0.686500  1.0  -0.6135
  O  O146  1  0.912800  0.730100  0.487200  1.0  -0.5168
  O  O147  1  0.876300  0.765500  0.071300  1.0  -0.5522
  O  O148  1  0.938300  0.875300  0.823600  1.0  -0.2769
  O  O149  1  0.069400  0.878100  0.041400  1.0  -0.4151
  O  O150  1  0.113300  0.771600  0.324500  1.0  -0.5472
  O  O151  1  0.182200  0.748100  0.944700  1.0  -0.6414
  O  O152  1  0.087000  0.711100  0.741200  1.0  -0.5506
  O  O153  1  0.757800  0.316300  0.936500  1.0  -0.6154
  O  O154  1  0.769900  0.412800  0.737200  1.0  -0.5158
  O  O155  1  0.734500  0.376300  0.321300  1.0  -0.5523
  O  O156  1  0.624700  0.438300  0.073600  1.0  -0.2894
  O  O157  1  0.621900  0.569400  0.291400  1.0  -0.4254
  O  O158  1  0.728400  0.613300  0.574500  1.0  -0.5455
  O  O159  1  0.751900  0.682200  0.194700  1.0  -0.6408
  O  O160  1  0.788900  0.587000  0.991200  1.0  -0.5511
  O  O161  1  0.242200  0.683700  0.436500  1.0  -0.6152
  O  O162  1  0.230100  0.587200  0.237200  1.0  -0.5187
  O  O163  1  0.265500  0.623700  0.821300  1.0  -0.5505
  O  O164  1  0.375300  0.561700  0.573600  1.0  -0.2933
  O  O165  1  0.378100  0.430600  0.791400  1.0  -0.4264
  O  O166  1  0.271600  0.386700  0.074500  1.0  -0.5464
  O  O167  1  0.248100  0.317800  0.694700  1.0  -0.6412
  O  O168  1  0.211100  0.413000  0.491200  1.0  -0.5506
