# generated using pymatgen
data_NiH12(C5N2)3
_symmetry_space_group_name_H-M   'P 1'
_cell_length_a   15.77090000
_cell_length_b   23.10700000
_cell_length_c   18.32690000
_cell_angle_alpha   90.00000000
_cell_angle_beta   106.27100000
_cell_angle_gamma   90.00000000
_symmetry_Int_Tables_number   1
_chemical_formula_structural   NiH12(C5N2)3
_chemical_formula_sum   'Ni8 H96 C120 N48'
_cell_volume   6411.15698089
_cell_formula_units_Z   8
loop_
 _symmetry_equiv_pos_site_id
 _symmetry_equiv_pos_as_xyz
  1  'x, y, z'
loop_
 _atom_site_type_symbol
 _atom_site_label
 _atom_site_symmetry_multiplicity
 _atom_site_fract_x
 _atom_site_fract_y
 _atom_site_fract_z
 _atom_site_occupancy
 _atom_site_charge
  Ni  Ni1  1  0.436890  0.706700  0.192770  1.0  0.5463
  Ni  Ni2  1  0.938060  0.573460  0.251690  1.0  0.5171
  Ni  Ni3  1  0.936890  0.206700  0.192770  1.0  0.5463
  Ni  Ni4  1  0.438060  0.073460  0.251690  1.0  0.5171
  Ni  Ni5  1  0.436890  0.293300  0.692770  1.0  0.5474
  Ni  Ni6  1  0.938060  0.426540  0.751690  1.0  0.5175
  Ni  Ni7  1  0.936890  0.793300  0.692770  1.0  0.5474
  Ni  Ni8  1  0.438060  0.926540  0.751690  1.0  0.5175
  H  H9  1  0.511200  0.502100  0.465800  1.0  0.098
  H  H10  1  0.289100  0.539900  0.302300  1.0  0.0883
  H  H11  1  0.279900  0.426800  0.465400  1.0  0.1019
  H  H12  1  0.585700  0.568300  0.412000  1.0  0.0957
  H  H13  1  0.604100  0.651500  0.335600  1.0  0.0688
  H  H14  1  0.355800  0.610700  0.270000  1.0  0.0616
  H  H15  1  0.148200  0.564400  0.307500  1.0  0.0701
  H  H16  1  0.985700  0.443700  0.332500  1.0  0.0631
  H  H17  1  0.133000  0.404700  0.380200  1.0  0.0962
  H  H18  1  0.560300  0.472400  0.592100  1.0  0.104
  H  H19  1  0.368800  0.355900  0.537000  1.0  0.0661
  H  H20  1  0.584100  0.391700  0.701000  1.0  0.0758
  H  H21  1  0.834300  0.655900  0.970600  1.0  0.0948
  H  H22  1  0.660300  0.747500  0.807700  1.0  0.0964
  H  H23  1  0.622500  0.728800  0.015100  1.0  0.0905
  H  H24  1  0.858300  0.611300  0.083600  1.0  0.0639
  H  H25  1  0.685800  0.714100  0.137200  1.0  0.1001
  H  H26  1  0.772200  0.663400  0.250500  1.0  0.0699
  H  H27  1  0.883800  0.623200  0.856600  1.0  0.0981
  H  H28  1  0.964600  0.660000  0.770800  1.0  0.0733
  H  H29  1  0.791800  0.776300  0.780700  1.0  0.0639
  H  H30  1  0.577500  0.823900  0.794200  1.0  0.07
  H  H31  1  0.406000  0.861100  0.905500  1.0  0.0707
  H  H32  1  0.493900  0.781800  0.971500  1.0  0.085
  H  H33  1  0.011200  0.002100  0.465800  1.0  0.098
  H  H34  1  0.789100  0.039900  0.302300  1.0  0.0883
  H  H35  1  0.779900  0.926800  0.465400  1.0  0.1019
  H  H36  1  0.085700  0.068300  0.412000  1.0  0.0957
  H  H37  1  0.104100  0.151500  0.335600  1.0  0.0688
  H  H38  1  0.855800  0.110700  0.270000  1.0  0.0616
  H  H39  1  0.648200  0.064400  0.307500  1.0  0.0701
  H  H40  1  0.485700  0.943700  0.332500  1.0  0.0631
  H  H41  1  0.633000  0.904700  0.380200  1.0  0.0962
  H  H42  1  0.060300  0.972400  0.592100  1.0  0.104
  H  H43  1  0.868800  0.855900  0.537000  1.0  0.0661
  H  H44  1  0.084100  0.891700  0.701000  1.0  0.0758
  H  H45  1  0.334300  0.155900  0.970600  1.0  0.0948
  H  H46  1  0.160300  0.247500  0.807700  1.0  0.0964
  H  H47  1  0.122500  0.228800  0.015100  1.0  0.0905
  H  H48  1  0.358300  0.111300  0.083600  1.0  0.0639
  H  H49  1  0.185800  0.214100  0.137200  1.0  0.1001
  H  H50  1  0.272200  0.163400  0.250500  1.0  0.0699
  H  H51  1  0.383800  0.123200  0.856600  1.0  0.0981
  H  H52  1  0.464600  0.160000  0.770800  1.0  0.0733
  H  H53  1  0.291800  0.276300  0.780700  1.0  0.0639
  H  H54  1  0.077500  0.323900  0.794200  1.0  0.07
  H  H55  1  0.906000  0.361100  0.905500  1.0  0.0707
  H  H56  1  0.993900  0.281800  0.971500  1.0  0.085
  H  H57  1  0.511200  0.497900  0.965800  1.0  0.0977
  H  H58  1  0.289100  0.460100  0.802300  1.0  0.0885
  H  H59  1  0.279900  0.573200  0.965400  1.0  0.1022
  H  H60  1  0.585700  0.431700  0.912000  1.0  0.0954
  H  H61  1  0.604100  0.348500  0.835600  1.0  0.0691
  H  H62  1  0.355800  0.389300  0.770000  1.0  0.0615
  H  H63  1  0.148200  0.435600  0.807500  1.0  0.0695
  H  H64  1  0.985700  0.556300  0.832500  1.0  0.0632
  H  H65  1  0.133000  0.595300  0.880200  1.0  0.0957
  H  H66  1  0.560300  0.527600  0.092100  1.0  0.1043
  H  H67  1  0.368800  0.644100  0.037000  1.0  0.0662
  H  H68  1  0.584100  0.608300  0.201000  1.0  0.0763
  H  H69  1  0.834300  0.344100  0.470600  1.0  0.0949
  H  H70  1  0.660300  0.252500  0.307700  1.0  0.0966
  H  H71  1  0.622500  0.271200  0.515100  1.0  0.0906
  H  H72  1  0.858300  0.388700  0.583600  1.0  0.0641
  H  H73  1  0.685800  0.285900  0.637200  1.0  0.1005
  H  H74  1  0.772200  0.336600  0.750500  1.0  0.07
  H  H75  1  0.883800  0.376800  0.356600  1.0  0.0979
  H  H76  1  0.964600  0.340000  0.270800  1.0  0.0734
  H  H77  1  0.791800  0.223700  0.280700  1.0  0.0626
  H  H78  1  0.577500  0.176100  0.294200  1.0  0.07
  H  H79  1  0.406000  0.138900  0.405500  1.0  0.0707
  H  H80  1  0.493900  0.218200  0.471500  1.0  0.0846
  H  H81  1  0.011200  0.997900  0.965800  1.0  0.0977
  H  H82  1  0.789100  0.960100  0.802300  1.0  0.0885
  H  H83  1  0.779900  0.073200  0.965400  1.0  0.1022
  H  H84  1  0.085700  0.931700  0.912000  1.0  0.0954
  H  H85  1  0.104100  0.848500  0.835600  1.0  0.0691
  H  H86  1  0.855800  0.889300  0.770000  1.0  0.0615
  H  H87  1  0.648200  0.935600  0.807500  1.0  0.0695
  H  H88  1  0.485700  0.056300  0.832500  1.0  0.0632
  H  H89  1  0.633000  0.095300  0.880200  1.0  0.0957
  H  H90  1  0.060300  0.027600  0.092100  1.0  0.1043
  H  H91  1  0.868800  0.144100  0.037000  1.0  0.0662
  H  H92  1  0.084100  0.108300  0.201000  1.0  0.0763
  H  H93  1  0.334300  0.844100  0.470600  1.0  0.0949
  H  H94  1  0.160300  0.752500  0.307700  1.0  0.0966
  H  H95  1  0.122500  0.771200  0.515100  1.0  0.0906
  H  H96  1  0.358300  0.888700  0.583600  1.0  0.0641
  H  H97  1  0.185800  0.785900  0.637200  1.0  0.1005
  H  H98  1  0.272200  0.836600  0.750500  1.0  0.07
  H  H99  1  0.383800  0.876800  0.356600  1.0  0.0979
  H  H100  1  0.464600  0.840000  0.270800  1.0  0.0734
  H  H101  1  0.291800  0.723700  0.280700  1.0  0.0626
  H  H102  1  0.077500  0.676100  0.294200  1.0  0.07
  H  H103  1  0.906000  0.638900  0.405500  1.0  0.0707
  H  H104  1  0.993900  0.718200  0.471500  1.0  0.0846
  C  C105  1  0.450900  0.497400  0.444000  1.0  -0.1871
  C  C106  1  0.407400  0.528800  0.380900  1.0  0.1177
  C  C107  1  0.317300  0.520700  0.347100  1.0  -0.2114
  C  C108  1  0.270800  0.484600  0.380100  1.0  0.1607
  C  C109  1  0.312000  0.452000  0.443900  1.0  -0.1821
  C  C110  1  0.402600  0.458300  0.474700  1.0  0.1589
  C  C111  1  0.541700  0.586300  0.374200  1.0  -0.1412
  C  C112  1  0.551100  0.632600  0.332000  1.0  -0.0389
  C  C113  1  0.415700  0.610400  0.295600  1.0  0.1123
  C  C114  1  0.125700  0.529500  0.319100  1.0  0.1185
  C  C115  1  0.037500  0.463100  0.332900  1.0  -0.0083
  C  C116  1  0.118600  0.441400  0.359900  1.0  -0.1501
  C  C117  1  0.524200  0.440800  0.593300  1.0  -0.0755
  C  C118  1  0.419500  0.375600  0.563500  1.0  0.1169
  C  C119  1  0.538300  0.398500  0.647500  1.0  -0.0252
  C  C120  1  0.731400  0.687500  0.003800  1.0  0.14
  C  C121  1  0.783200  0.678100  0.955200  1.0  -0.1429
  C  C122  1  0.757300  0.702400  0.882800  1.0  0.124
  C  C123  1  0.679700  0.734300  0.857600  1.0  -0.2287
  C  C124  1  0.632300  0.745800  0.909500  1.0  0.0985
  C  C125  1  0.656300  0.721900  0.981800  1.0  -0.181
  C  C126  1  0.824400  0.629700  0.110800  1.0  0.143
  C  C127  1  0.729500  0.686700  0.139200  1.0  -0.1882
  C  C128  1  0.778200  0.658600  0.201800  1.0  -0.0144
  C  C129  1  0.874700  0.658400  0.831000  1.0  -0.1686
  C  C130  1  0.919100  0.679300  0.783600  1.0  -0.0201
  C  C131  1  0.825300  0.742500  0.788700  1.0  0.0708
  C  C132  1  0.545200  0.823200  0.829600  1.0  0.0617
  C  C133  1  0.451900  0.843400  0.891200  1.0  -0.0343
  C  C134  1  0.499700  0.799500  0.927600  1.0  -0.1372
  C  C135  1  0.950900  0.997400  0.444000  1.0  -0.1871
  C  C136  1  0.907400  0.028800  0.380900  1.0  0.1177
  C  C137  1  0.817300  0.020700  0.347100  1.0  -0.2114
  C  C138  1  0.770800  0.984600  0.380100  1.0  0.1607
  C  C139  1  0.812000  0.952000  0.443900  1.0  -0.1821
  C  C140  1  0.902600  0.958300  0.474700  1.0  0.1589
  C  C141  1  0.041700  0.086300  0.374200  1.0  -0.1412
  C  C142  1  0.051100  0.132600  0.332000  1.0  -0.0389
  C  C143  1  0.915700  0.110400  0.295600  1.0  0.1123
  C  C144  1  0.625700  0.029500  0.319100  1.0  0.1185
  C  C145  1  0.537500  0.963100  0.332900  1.0  -0.0083
  C  C146  1  0.618600  0.941400  0.359900  1.0  -0.1501
  C  C147  1  0.024200  0.940800  0.593300  1.0  -0.0755
  C  C148  1  0.919500  0.875600  0.563500  1.0  0.1169
  C  C149  1  0.038300  0.898500  0.647500  1.0  -0.0252
  C  C150  1  0.231400  0.187500  0.003800  1.0  0.14
  C  C151  1  0.283200  0.178100  0.955200  1.0  -0.1429
  C  C152  1  0.257300  0.202400  0.882800  1.0  0.124
  C  C153  1  0.179700  0.234300  0.857600  1.0  -0.2287
  C  C154  1  0.132300  0.245800  0.909500  1.0  0.0985
  C  C155  1  0.156300  0.221900  0.981800  1.0  -0.181
  C  C156  1  0.324400  0.129700  0.110800  1.0  0.143
  C  C157  1  0.229500  0.186700  0.139200  1.0  -0.1882
  C  C158  1  0.278200  0.158600  0.201800  1.0  -0.0144
  C  C159  1  0.374700  0.158400  0.831000  1.0  -0.1686
  C  C160  1  0.419100  0.179300  0.783600  1.0  -0.0201
  C  C161  1  0.325300  0.242500  0.788700  1.0  0.0708
  C  C162  1  0.045200  0.323200  0.829600  1.0  0.0617
  C  C163  1  0.951900  0.343400  0.891200  1.0  -0.0343
  C  C164  1  0.999700  0.299500  0.927600  1.0  -0.1372
  C  C165  1  0.450900  0.502600  0.944000  1.0  -0.187
  C  C166  1  0.407400  0.471200  0.880900  1.0  0.1177
  C  C167  1  0.317300  0.479300  0.847100  1.0  -0.2114
  C  C168  1  0.270800  0.515400  0.880100  1.0  0.1608
  C  C169  1  0.312000  0.548000  0.943900  1.0  -0.1822
  C  C170  1  0.402600  0.541700  0.974700  1.0  0.159
  C  C171  1  0.541700  0.413700  0.874200  1.0  -0.1411
  C  C172  1  0.551100  0.367400  0.832000  1.0  -0.0406
  C  C173  1  0.415700  0.389600  0.795600  1.0  0.1121
  C  C174  1  0.125700  0.470500  0.819100  1.0  0.1191
  C  C175  1  0.037500  0.536900  0.832900  1.0  -0.0084
  C  C176  1  0.118600  0.558600  0.859900  1.0  -0.1489
  C  C177  1  0.524200  0.559200  0.093300  1.0  -0.076
  C  C178  1  0.419500  0.624400  0.063500  1.0  0.1175
  C  C179  1  0.538300  0.601500  0.147500  1.0  -0.0244
  C  C180  1  0.731400  0.312500  0.503800  1.0  0.1401
  C  C181  1  0.783200  0.321900  0.455200  1.0  -0.1433
  C  C182  1  0.757300  0.297600  0.382800  1.0  0.1243
  C  C183  1  0.679700  0.265700  0.357600  1.0  -0.229
  C  C184  1  0.632300  0.254200  0.409500  1.0  0.0985
  C  C185  1  0.656300  0.278100  0.481800  1.0  -0.1811
  C  C186  1  0.824400  0.370300  0.610800  1.0  0.1425
  C  C187  1  0.729500  0.313300  0.639200  1.0  -0.1879
  C  C188  1  0.778200  0.341400  0.701800  1.0  -0.0139
  C  C189  1  0.874700  0.341600  0.331000  1.0  -0.1677
  C  C190  1  0.919100  0.320700  0.283600  1.0  -0.0204
  C  C191  1  0.825300  0.257500  0.288700  1.0  0.0715
  C  C192  1  0.545200  0.176800  0.329600  1.0  0.0618
  C  C193  1  0.451900  0.156600  0.391200  1.0  -0.0361
  C  C194  1  0.499700  0.200500  0.427600  1.0  -0.1375
  C  C195  1  0.950900  0.002600  0.944000  1.0  -0.187
  C  C196  1  0.907400  0.971200  0.880900  1.0  0.1177
  C  C197  1  0.817300  0.979300  0.847100  1.0  -0.2114
  C  C198  1  0.770800  0.015400  0.880100  1.0  0.1608
  C  C199  1  0.812000  0.048000  0.943900  1.0  -0.1822
  C  C200  1  0.902600  0.041700  0.974700  1.0  0.159
  C  C201  1  0.041700  0.913700  0.874200  1.0  -0.1411
  C  C202  1  0.051100  0.867400  0.832000  1.0  -0.0406
  C  C203  1  0.915700  0.889600  0.795600  1.0  0.1121
  C  C204  1  0.625700  0.970500  0.819100  1.0  0.1191
  C  C205  1  0.537500  0.036900  0.832900  1.0  -0.0084
  C  C206  1  0.618600  0.058600  0.859900  1.0  -0.1489
  C  C207  1  0.024200  0.059200  0.093300  1.0  -0.076
  C  C208  1  0.919500  0.124400  0.063500  1.0  0.1175
  C  C209  1  0.038300  0.101500  0.147500  1.0  -0.0244
  C  C210  1  0.231400  0.812500  0.503800  1.0  0.1401
  C  C211  1  0.283200  0.821900  0.455200  1.0  -0.1433
  C  C212  1  0.257300  0.797600  0.382800  1.0  0.1243
  C  C213  1  0.179700  0.765700  0.357600  1.0  -0.229
  C  C214  1  0.132300  0.754200  0.409500  1.0  0.0985
  C  C215  1  0.156300  0.778100  0.481800  1.0  -0.1811
  C  C216  1  0.324400  0.870300  0.610800  1.0  0.1425
  C  C217  1  0.229500  0.813300  0.639200  1.0  -0.1879
  C  C218  1  0.278200  0.841400  0.701800  1.0  -0.0139
  C  C219  1  0.374700  0.841600  0.331000  1.0  -0.1677
  C  C220  1  0.419100  0.820700  0.283600  1.0  -0.0204
  C  C221  1  0.325300  0.757500  0.288700  1.0  0.0715
  C  C222  1  0.045200  0.676800  0.329600  1.0  0.0618
  C  C223  1  0.951900  0.656600  0.391200  1.0  -0.0361
  C  C224  1  0.999700  0.700500  0.427600  1.0  -0.1375
  N  N225  1  0.471300  0.647370  0.283200  1.0  -0.3814
  N  N226  1  0.453900  0.571200  0.349700  1.0  -0.0126
  N  N227  1  0.041500  0.518300  0.305800  1.0  -0.4078
  N  N228  1  0.176500  0.483170  0.352100  1.0  -0.0062
  N  N229  1  0.445700  0.426980  0.540900  1.0  0.0216
  N  N230  1  0.836200  0.622900  0.183900  1.0  -0.3795
  N  N231  1  0.757700  0.666500  0.079200  1.0  0.0116
  N  N232  1  0.888300  0.732750  0.757000  1.0  -0.4154
  N  N233  1  0.813300  0.699940  0.833500  1.0  0.026
  N  N234  1  0.480000  0.859230  0.829000  1.0  -0.4009
  N  N235  1  0.559300  0.784940  0.888500  1.0  -0.0195
  N  N236  1  0.473700  0.357300  0.626700  1.0  -0.3494
  N  N237  1  0.971300  0.147370  0.283200  1.0  -0.3814
  N  N238  1  0.953900  0.071200  0.349700  1.0  -0.0126
  N  N239  1  0.541500  0.018300  0.305800  1.0  -0.4078
  N  N240  1  0.676500  0.983170  0.352100  1.0  -0.0062
  N  N241  1  0.945700  0.926980  0.540900  1.0  0.0216
  N  N242  1  0.336200  0.122900  0.183900  1.0  -0.3795
  N  N243  1  0.257700  0.166500  0.079200  1.0  0.0116
  N  N244  1  0.388300  0.232750  0.757000  1.0  -0.4154
  N  N245  1  0.313300  0.199940  0.833500  1.0  0.026
  N  N246  1  0.980000  0.359230  0.829000  1.0  -0.4009
  N  N247  1  0.059300  0.284940  0.888500  1.0  -0.0195
  N  N248  1  0.973700  0.857300  0.626700  1.0  -0.3494
  N  N249  1  0.471300  0.352630  0.783200  1.0  -0.3829
  N  N250  1  0.453900  0.428800  0.849700  1.0  -0.0131
  N  N251  1  0.041500  0.481700  0.805800  1.0  -0.4099
  N  N252  1  0.176500  0.516830  0.852100  1.0  -0.0064
  N  N253  1  0.445700  0.573020  0.040900  1.0  0.0216
  N  N254  1  0.836200  0.377100  0.683900  1.0  -0.3799
  N  N255  1  0.757700  0.333500  0.579200  1.0  0.0117
  N  N256  1  0.888300  0.267250  0.257000  1.0  -0.4172
  N  N257  1  0.813300  0.300060  0.333500  1.0  0.0263
  N  N258  1  0.480000  0.140770  0.329000  1.0  -0.4022
  N  N259  1  0.559300  0.215060  0.388500  1.0  -0.0184
  N  N260  1  0.473700  0.642700  0.126700  1.0  -0.3517
  N  N261  1  0.971300  0.852630  0.783200  1.0  -0.3829
  N  N262  1  0.953900  0.928800  0.849700  1.0  -0.0131
  N  N263  1  0.541500  0.981700  0.805800  1.0  -0.4099
  N  N264  1  0.676500  0.016830  0.852100  1.0  -0.0064
  N  N265  1  0.945700  0.073020  0.040900  1.0  0.0216
  N  N266  1  0.336200  0.877100  0.683900  1.0  -0.3799
  N  N267  1  0.257700  0.833500  0.579200  1.0  0.0117
  N  N268  1  0.388300  0.767250  0.257000  1.0  -0.4172
  N  N269  1  0.313300  0.800060  0.333500  1.0  0.0263
  N  N270  1  0.980000  0.640770  0.329000  1.0  -0.4022
  N  N271  1  0.059300  0.715060  0.388500  1.0  -0.0184
  N  N272  1  0.973700  0.142700  0.126700  1.0  -0.3517
