# generated using pymatgen
data_MnH12(C5N2)3
_symmetry_space_group_name_H-M   'P 1'
_cell_length_a   15.80200000
_cell_length_b   23.45500000
_cell_length_c   18.50600000
_cell_angle_alpha   90.00000000
_cell_angle_beta   105.89600000
_cell_angle_gamma   90.00000000
_symmetry_Int_Tables_number   1
_chemical_formula_structural   MnH12(C5N2)3
_chemical_formula_sum   'Mn8 H96 C120 N48'
_cell_volume   6596.70341467
_cell_formula_units_Z   8
loop_
 _symmetry_equiv_pos_site_id
 _symmetry_equiv_pos_as_xyz
  1  'x, y, z'
loop_
 _atom_site_type_symbol
 _atom_site_label
 _atom_site_symmetry_multiplicity
 _atom_site_fract_x
 _atom_site_fract_y
 _atom_site_fract_z
 _atom_site_occupancy
 _atom_site_charge
  Mn  Mn1  1  0.601680  0.569960  0.842320  1.0  0.8801
  Mn  Mn2  1  0.100700  0.709600  0.904010  1.0  0.8766
  Mn  Mn3  1  0.101680  0.069960  0.842320  1.0  0.8801
  Mn  Mn4  1  0.600700  0.209600  0.904010  1.0  0.8766
  Mn  Mn5  1  0.601680  0.430040  0.342320  1.0  0.8805
  Mn  Mn6  1  0.100700  0.290400  0.404010  1.0  0.8783
  Mn  Mn7  1  0.101680  0.930040  0.342320  1.0  0.8805
  Mn  Mn8  1  0.600700  0.790400  0.404010  1.0  0.8783
  H  H9  1  0.419200  0.768800  0.577100  1.0  0.0847
  H  H10  1  0.381800  0.750900  0.781900  1.0  0.0841
  H  H11  1  0.210800  0.843400  0.624300  1.0  0.0883
  H  H12  1  0.549100  0.719700  0.620700  1.0  0.0747
  H  H13  1  0.635700  0.640600  0.685200  1.0  0.0665
  H  H14  1  0.466600  0.676200  0.796100  1.0  0.0567
  H  H15  1  0.351000  0.782600  0.455400  1.0  0.0825
  H  H16  1  0.269800  0.834000  0.346200  1.0  0.0594
  H  H17  1  0.185600  0.885700  0.512000  1.0  0.0629
  H  H18  1  0.250800  0.726100  0.812600  1.0  0.0541
  H  H19  1  0.166900  0.878300  0.737900  1.0  0.0861
  H  H20  1  0.087500  0.845000  0.825500  1.0  0.0737
  H  H21  1  0.251700  0.427700  0.628600  1.0  0.0897
  H  H22  1  0.241400  0.539300  0.791000  1.0  0.0847
  H  H23  1  0.022200  0.505200  0.626300  1.0  0.097
  H  H24  1  0.386100  0.558600  0.790900  1.0  0.0577
  H  H25  1  0.541500  0.437400  0.762000  1.0  0.0573
  H  H26  1  0.392700  0.403800  0.709600  1.0  0.0864
  H  H27  1  0.176000  0.609800  0.821100  1.0  0.0601
  H  H28  1  0.930500  0.652900  0.754000  1.0  0.0606
  H  H29  1  0.947500  0.568300  0.681900  1.0  0.0914
  H  H30  1  0.160000  0.358000  0.562100  1.0  0.0601
  H  H31  1  0.953100  0.404300  0.401800  1.0  0.0548
  H  H32  1  0.981900  0.480000  0.497300  1.0  0.0986
  H  H33  1  0.919200  0.268800  0.577100  1.0  0.0847
  H  H34  1  0.881800  0.250900  0.781900  1.0  0.0841
  H  H35  1  0.710800  0.343400  0.624300  1.0  0.0883
  H  H36  1  0.049100  0.219700  0.620700  1.0  0.0747
  H  H37  1  0.135700  0.140600  0.685200  1.0  0.0665
  H  H38  1  0.966600  0.176200  0.796100  1.0  0.0567
  H  H39  1  0.851000  0.282600  0.455400  1.0  0.0825
  H  H40  1  0.769800  0.334000  0.346200  1.0  0.0594
  H  H41  1  0.685600  0.385700  0.512000  1.0  0.0629
  H  H42  1  0.750800  0.226100  0.812600  1.0  0.0541
  H  H43  1  0.666900  0.378300  0.737900  1.0  0.0864
  H  H44  1  0.587500  0.345000  0.825500  1.0  0.0737
  H  H45  1  0.751700  0.927700  0.628600  1.0  0.0897
  H  H46  1  0.741400  0.039300  0.791000  1.0  0.0847
  H  H47  1  0.522200  0.005200  0.626300  1.0  0.097
  H  H48  1  0.886100  0.058600  0.790900  1.0  0.0577
  H  H49  1  0.041500  0.937400  0.762000  1.0  0.0573
  H  H50  1  0.892700  0.903800  0.709600  1.0  0.0864
  H  H51  1  0.676000  0.109800  0.821100  1.0  0.0601
  H  H52  1  0.430500  0.152900  0.754000  1.0  0.0597
  H  H53  1  0.447500  0.068300  0.681900  1.0  0.0914
  H  H54  1  0.660000  0.858000  0.562100  1.0  0.0601
  H  H55  1  0.453100  0.904300  0.401800  1.0  0.0548
  H  H56  1  0.481900  0.980000  0.497300  1.0  0.0986
  H  H57  1  0.419200  0.231200  0.077100  1.0  0.0845
  H  H58  1  0.381800  0.249100  0.281900  1.0  0.0841
  H  H59  1  0.210800  0.156600  0.124300  1.0  0.0886
  H  H60  1  0.549100  0.280300  0.120700  1.0  0.0746
  H  H61  1  0.635700  0.359400  0.185200  1.0  0.0668
  H  H62  1  0.466600  0.323800  0.296100  1.0  0.0565
  H  H63  1  0.351000  0.217400  0.955400  1.0  0.0821
  H  H64  1  0.269800  0.166000  0.846200  1.0  0.0593
  H  H65  1  0.185600  0.114300  0.012000  1.0  0.063
  H  H66  1  0.250800  0.273900  0.312600  1.0  0.0542
  H  H67  1  0.166900  0.121700  0.237900  1.0  0.0862
  H  H68  1  0.087500  0.155000  0.325500  1.0  0.0736
  H  H69  1  0.251700  0.572300  0.128600  1.0  0.0902
  H  H70  1  0.241400  0.460700  0.291000  1.0  0.0849
  H  H71  1  0.022200  0.494800  0.126300  1.0  0.0966
  H  H72  1  0.386100  0.441400  0.290900  1.0  0.0573
  H  H73  1  0.541500  0.562600  0.262000  1.0  0.0576
  H  H74  1  0.392700  0.596200  0.209600  1.0  0.0866
  H  H75  1  0.176000  0.390200  0.321100  1.0  0.0601
  H  H76  1  0.930500  0.347100  0.254000  1.0  0.06
  H  H77  1  0.947500  0.431700  0.181900  1.0  0.0912
  H  H78  1  0.160000  0.642000  0.062100  1.0  0.0602
  H  H79  1  0.953100  0.595700  0.901800  1.0  0.0549
  H  H80  1  0.981900  0.520000  0.997300  1.0  0.098
  H  H81  1  0.919200  0.731200  0.077100  1.0  0.0845
  H  H82  1  0.881800  0.749100  0.281900  1.0  0.0841
  H  H83  1  0.710800  0.656600  0.124300  1.0  0.0886
  H  H84  1  0.049100  0.780300  0.120700  1.0  0.0746
  H  H85  1  0.135700  0.859400  0.185200  1.0  0.0668
  H  H86  1  0.966600  0.823800  0.296100  1.0  0.0565
  H  H87  1  0.851000  0.717400  0.955400  1.0  0.0821
  H  H88  1  0.769800  0.666000  0.846200  1.0  0.0593
  H  H89  1  0.685600  0.614300  0.012000  1.0  0.063
  H  H90  1  0.750800  0.773900  0.312600  1.0  0.0542
  H  H91  1  0.666900  0.621700  0.237900  1.0  0.0866
  H  H92  1  0.587500  0.655000  0.325500  1.0  0.0736
  H  H93  1  0.751700  0.072300  0.128600  1.0  0.0902
  H  H94  1  0.741400  0.960700  0.291000  1.0  0.0849
  H  H95  1  0.522200  0.994800  0.126300  1.0  0.0966
  H  H96  1  0.886100  0.941400  0.290900  1.0  0.0573
  H  H97  1  0.041500  0.062600  0.262000  1.0  0.0576
  H  H98  1  0.892700  0.096200  0.209600  1.0  0.0866
  H  H99  1  0.676000  0.890200  0.321100  1.0  0.0601
  H  H100  1  0.430500  0.847100  0.254000  1.0  0.0605
  H  H101  1  0.447500  0.931700  0.181900  1.0  0.0912
  H  H102  1  0.660000  0.142000  0.062100  1.0  0.0602
  H  H103  1  0.453100  0.095700  0.901800  1.0  0.0549
  H  H104  1  0.481900  0.020000  0.997300  1.0  0.098
  C  C105  1  0.386700  0.776600  0.610900  1.0  -0.1914
  C  C106  1  0.410700  0.753500  0.682600  1.0  0.12
  C  C107  1  0.363200  0.764800  0.733000  1.0  -0.2405
  C  C108  1  0.288100  0.797000  0.710200  1.0  0.1303
  C  C109  1  0.261500  0.821400  0.639000  1.0  -0.1578
  C  C110  1  0.313200  0.811700  0.590700  1.0  0.1356
  C  C111  1  0.542400  0.701500  0.663500  1.0  -0.1644
  C  C112  1  0.589400  0.657800  0.699100  1.0  -0.0347
  C  C113  1  0.497400  0.676900  0.759900  1.0  0.0583
  C  C114  1  0.310100  0.811300  0.454500  1.0  -0.1638
  C  C115  1  0.264900  0.839300  0.394700  1.0  -0.0489
  C  C116  1  0.220100  0.868600  0.484800  1.0  0.1273
  C  C117  1  0.219300  0.760100  0.804900  1.0  0.0751
  C  C118  1  0.174600  0.843600  0.763200  1.0  -0.1638
  C  C119  1  0.131100  0.824500  0.811700  1.0  -0.0277
  C  C120  1  0.219900  0.452900  0.649800  1.0  -0.2158
  C  C121  1  0.260100  0.484100  0.714100  1.0  0.1609
  C  C122  1  0.213800  0.520700  0.746400  1.0  -0.2302
  C  C123  1  0.125600  0.529600  0.712200  1.0  0.1145
  C  C124  1  0.082000  0.499600  0.648400  1.0  -0.2307
  C  C125  1  0.129500  0.461300  0.618400  1.0  0.1352
  C  C126  1  0.406600  0.524200  0.777100  1.0  0.1014
  C  C127  1  0.490800  0.457900  0.760900  1.0  -0.0304
  C  C128  1  0.409000  0.438900  0.732400  1.0  -0.1528
  C  C129  1  0.116500  0.610100  0.795300  1.0  0.0847
  C  C130  1  0.983000  0.633400  0.758800  1.0  -0.0323
  C  C131  1  0.991500  0.586600  0.718300  1.0  -0.1703
  C  C132  1  0.112100  0.378500  0.533600  1.0  0.0856
  C  C133  1  0.998300  0.404200  0.446300  1.0  -0.0235
  C  C134  1  0.014200  0.446700  0.498400  1.0  -0.1558
  C  C135  1  0.886700  0.276600  0.610900  1.0  -0.1914
  C  C136  1  0.910700  0.253500  0.682600  1.0  0.12
  C  C137  1  0.863200  0.264800  0.733000  1.0  -0.2405
  C  C138  1  0.788100  0.297000  0.710200  1.0  0.1303
  C  C139  1  0.761500  0.321400  0.639000  1.0  -0.1578
  C  C140  1  0.813200  0.311700  0.590700  1.0  0.1356
  C  C141  1  0.042400  0.201500  0.663500  1.0  -0.1644
  C  C142  1  0.089400  0.157800  0.699100  1.0  -0.0347
  C  C143  1  0.997400  0.176900  0.759900  1.0  0.0583
  C  C144  1  0.810100  0.311300  0.454500  1.0  -0.1638
  C  C145  1  0.764900  0.339300  0.394700  1.0  -0.0489
  C  C146  1  0.720100  0.368600  0.484800  1.0  0.1273
  C  C147  1  0.719300  0.260100  0.804900  1.0  0.0751
  C  C148  1  0.674600  0.343600  0.763200  1.0  -0.1638
  C  C149  1  0.631100  0.324500  0.811700  1.0  -0.0277
  C  C150  1  0.719900  0.952900  0.649800  1.0  -0.2158
  C  C151  1  0.760100  0.984100  0.714100  1.0  0.1609
  C  C152  1  0.713800  0.020700  0.746400  1.0  -0.2302
  C  C153  1  0.625600  0.029600  0.712200  1.0  0.1145
  C  C154  1  0.582000  0.999600  0.648400  1.0  -0.2307
  C  C155  1  0.629500  0.961300  0.618400  1.0  0.1352
  C  C156  1  0.906600  0.024200  0.777100  1.0  0.1014
  C  C157  1  0.990800  0.957900  0.760900  1.0  -0.0281
  C  C158  1  0.909000  0.938900  0.732400  1.0  -0.1528
  C  C159  1  0.616500  0.110100  0.795300  1.0  0.0847
  C  C160  1  0.483000  0.133400  0.758800  1.0  -0.0323
  C  C161  1  0.491500  0.086600  0.718300  1.0  -0.1703
  C  C162  1  0.612100  0.878500  0.533600  1.0  0.0856
  C  C163  1  0.498300  0.904200  0.446300  1.0  -0.0235
  C  C164  1  0.514200  0.946700  0.498400  1.0  -0.1558
  C  C165  1  0.386700  0.223400  0.110900  1.0  -0.1912
  C  C166  1  0.410700  0.246500  0.182600  1.0  0.12
  C  C167  1  0.363200  0.235200  0.233000  1.0  -0.2403
  C  C168  1  0.288100  0.203000  0.210200  1.0  0.1305
  C  C169  1  0.261500  0.178600  0.139000  1.0  -0.1585
  C  C170  1  0.313200  0.188300  0.090700  1.0  0.1355
  C  C171  1  0.542400  0.298500  0.163500  1.0  -0.1648
  C  C172  1  0.589400  0.342200  0.199100  1.0  -0.0327
  C  C173  1  0.497400  0.323100  0.259900  1.0  0.0577
  C  C174  1  0.310100  0.188700  0.954500  1.0  -0.1614
  C  C175  1  0.264900  0.160700  0.894700  1.0  -0.0497
  C  C176  1  0.220100  0.131400  0.984800  1.0  0.1272
  C  C177  1  0.219300  0.239900  0.304900  1.0  0.0748
  C  C178  1  0.174600  0.156400  0.263200  1.0  -0.1661
  C  C179  1  0.131100  0.175500  0.311700  1.0  -0.0277
  C  C180  1  0.219900  0.547100  0.149800  1.0  -0.2157
  C  C181  1  0.260100  0.515900  0.214100  1.0  0.1606
  C  C182  1  0.213800  0.479300  0.246400  1.0  -0.2301
  C  C183  1  0.125600  0.470400  0.212200  1.0  0.1145
  C  C184  1  0.082000  0.500400  0.148400  1.0  -0.2308
  C  C185  1  0.129500  0.538700  0.118400  1.0  0.1352
  C  C186  1  0.406600  0.475800  0.277100  1.0  0.1024
  C  C187  1  0.490800  0.542100  0.260900  1.0  -0.0312
  C  C188  1  0.409000  0.561100  0.232400  1.0  -0.1517
  C  C189  1  0.116500  0.389900  0.295300  1.0  0.0851
  C  C190  1  0.983000  0.366600  0.258800  1.0  -0.0333
  C  C191  1  0.991500  0.413400  0.218300  1.0  -0.1706
  C  C192  1  0.112100  0.621500  0.033600  1.0  0.0871
  C  C193  1  0.998300  0.595800  0.946300  1.0  -0.0237
  C  C194  1  0.014200  0.553300  0.998400  1.0  -0.1572
  C  C195  1  0.886700  0.723400  0.110900  1.0  -0.1912
  C  C196  1  0.910700  0.746500  0.182600  1.0  0.12
  C  C197  1  0.863200  0.735200  0.233000  1.0  -0.2403
  C  C198  1  0.788100  0.703000  0.210200  1.0  0.1305
  C  C199  1  0.761500  0.678600  0.139000  1.0  -0.1585
  C  C200  1  0.813200  0.688300  0.090700  1.0  0.1355
  C  C201  1  0.042400  0.798500  0.163500  1.0  -0.1648
  C  C202  1  0.089400  0.842200  0.199100  1.0  -0.0327
  C  C203  1  0.997400  0.823100  0.259900  1.0  0.0577
  C  C204  1  0.810100  0.688700  0.954500  1.0  -0.1614
  C  C205  1  0.764900  0.660700  0.894700  1.0  -0.0497
  C  C206  1  0.720100  0.631400  0.984800  1.0  0.1272
  C  C207  1  0.719300  0.739900  0.304900  1.0  0.0748
  C  C208  1  0.674600  0.656400  0.263200  1.0  -0.1661
  C  C209  1  0.631100  0.675500  0.311700  1.0  -0.0277
  C  C210  1  0.719900  0.047100  0.149800  1.0  -0.2157
  C  C211  1  0.760100  0.015900  0.214100  1.0  0.1606
  C  C212  1  0.713800  0.979300  0.246400  1.0  -0.2301
  C  C213  1  0.625600  0.970400  0.212200  1.0  0.1145
  C  C214  1  0.582000  0.000400  0.148400  1.0  -0.2308
  C  C215  1  0.629500  0.038700  0.118400  1.0  0.1352
  C  C216  1  0.906600  0.975800  0.277100  1.0  0.1024
  C  C217  1  0.990800  0.042100  0.260900  1.0  -0.0288
  C  C218  1  0.909000  0.061100  0.232400  1.0  -0.1517
  C  C219  1  0.616500  0.889900  0.295300  1.0  0.0851
  C  C220  1  0.483000  0.866600  0.258800  1.0  -0.0333
  C  C221  1  0.491500  0.913400  0.218300  1.0  -0.1706
  C  C222  1  0.612100  0.121500  0.033600  1.0  0.0871
  C  C223  1  0.498300  0.095800  0.946300  1.0  -0.0237
  C  C224  1  0.514200  0.053300  0.998400  1.0  -0.1572
  N  N225  1  0.560300  0.641700  0.758500  1.0  -0.3711
  N  N226  1  0.481800  0.714800  0.702400  1.0  -0.0209
  N  N227  1  0.158300  0.772000  0.837900  1.0  -0.4326
  N  N228  1  0.232400  0.801100  0.759100  1.0  0.0102
  N  N229  1  0.209800  0.877400  0.414500  1.0  -0.4104
  N  N230  1  0.285700  0.832200  0.515100  1.0  -0.0147
  N  N231  1  0.489100  0.512200  0.788500  1.0  -0.4044
  N  N232  1  0.353300  0.480900  0.742900  1.0  -0.0237
  N  N233  1  0.061100  0.647800  0.807000  1.0  -0.4026
  N  N234  1  0.079200  0.571800  0.742300  1.0  -0.0035
  N  N235  1  0.058800  0.361000  0.468900  1.0  -0.3905
  N  N236  1  0.087000  0.430300  0.552300  1.0  0.0412
  N  N237  1  0.060300  0.141700  0.758500  1.0  -0.3711
  N  N238  1  0.981800  0.214800  0.702400  1.0  -0.0209
  N  N239  1  0.658300  0.272000  0.837900  1.0  -0.4326
  N  N240  1  0.732400  0.301100  0.759100  1.0  0.0102
  N  N241  1  0.709800  0.377400  0.414500  1.0  -0.4104
  N  N242  1  0.785700  0.332200  0.515100  1.0  -0.0147
  N  N243  1  0.989100  0.012200  0.788500  1.0  -0.4044
  N  N244  1  0.853300  0.980900  0.742900  1.0  -0.0237
  N  N245  1  0.561100  0.147800  0.807000  1.0  -0.4026
  N  N246  1  0.579200  0.071800  0.742300  1.0  -0.0035
  N  N247  1  0.558800  0.861000  0.468900  1.0  -0.3905
  N  N248  1  0.587000  0.930300  0.552300  1.0  0.0412
  N  N249  1  0.560300  0.358300  0.258500  1.0  -0.3719
  N  N250  1  0.481800  0.285200  0.202400  1.0  -0.0208
  N  N251  1  0.158300  0.228000  0.337900  1.0  -0.4323
  N  N252  1  0.232400  0.198900  0.259100  1.0  0.01
  N  N253  1  0.209800  0.122600  0.914500  1.0  -0.4104
  N  N254  1  0.285700  0.167800  0.015100  1.0  -0.0148
  N  N255  1  0.489100  0.487800  0.288500  1.0  -0.4035
  N  N256  1  0.353300  0.519100  0.242900  1.0  -0.0243
  N  N257  1  0.061100  0.352200  0.307000  1.0  -0.4025
  N  N258  1  0.079200  0.428200  0.242300  1.0  -0.0027
  N  N259  1  0.058800  0.639000  0.968900  1.0  -0.3938
  N  N260  1  0.087000  0.569700  0.052300  1.0  0.0409
  N  N261  1  0.060300  0.858300  0.258500  1.0  -0.3719
  N  N262  1  0.981800  0.785200  0.202400  1.0  -0.0208
  N  N263  1  0.658300  0.728000  0.337900  1.0  -0.4323
  N  N264  1  0.732400  0.698900  0.259100  1.0  0.01
  N  N265  1  0.709800  0.622600  0.914500  1.0  -0.4104
  N  N266  1  0.785700  0.667800  0.015100  1.0  -0.0148
  N  N267  1  0.989100  0.987800  0.288500  1.0  -0.4035
  N  N268  1  0.853300  0.019100  0.242900  1.0  -0.0243
  N  N269  1  0.561100  0.852200  0.307000  1.0  -0.4025
  N  N270  1  0.579200  0.928200  0.242300  1.0  -0.0027
  N  N271  1  0.558800  0.139000  0.968900  1.0  -0.3938
  N  N272  1  0.587000  0.069700  0.052300  1.0  0.0409
