# generated using pymatgen
data_Cu2C25S(OF)3
_symmetry_space_group_name_H-M   'P 1'
_cell_length_a   19.61000000
_cell_length_b   9.40900000
_cell_length_c   20.32000000
_cell_angle_alpha   90.00000000
_cell_angle_beta   125.31000000
_cell_angle_gamma   90.00000000
_symmetry_Int_Tables_number   1
_chemical_formula_structural   Cu2C25S(OF)3
_chemical_formula_sum   'Cu8 C100 S4 O12 F12'
_cell_volume   3059.52825778
_cell_formula_units_Z   4
loop_
 _symmetry_equiv_pos_site_id
 _symmetry_equiv_pos_as_xyz
  1  'x, y, z'
loop_
 _atom_site_type_symbol
 _atom_site_label
 _atom_site_symmetry_multiplicity
 _atom_site_fract_x
 _atom_site_fract_y
 _atom_site_fract_z
 _atom_site_occupancy
 _atom_site_charge
  Cu  Cu1  1  0.249500  0.999100  0.066700  1.0  0.498
  Cu  Cu2  1  0.751700  0.744100  0.427100  1.0  0.6199
  Cu  Cu3  1  0.749500  0.499100  0.066700  1.0  0.498
  Cu  Cu4  1  0.251700  0.244100  0.427100  1.0  0.6199
  Cu  Cu5  1  0.750500  0.999100  0.933300  1.0  0.4991
  Cu  Cu6  1  0.248300  0.744100  0.572900  1.0  0.6202
  Cu  Cu7  1  0.250500  0.499100  0.933300  1.0  0.4991
  Cu  Cu8  1  0.748300  0.244100  0.572900  1.0  0.6202
  C  C9  1  0.976200  0.060800  0.888300  1.0  0.0072
  C  C10  1  0.067300  0.051100  0.920200  1.0  -0.0795
  C  C11  1  0.119700  0.994800  0.005200  1.0  -0.0549
  C  C12  1  0.146100  0.958300  0.072700  1.0  -0.0252
  C  C13  1  0.151400  0.916100  0.145200  1.0  -0.0309
  C  C14  1  0.938000  0.914500  0.873700  1.0  0.0313
  C  C15  1  0.380200  0.995600  0.145000  1.0  -0.0312
  C  C16  1  0.357000  0.918000  0.173100  1.0  -0.0179
  C  C17  1  0.354300  0.814200  0.226000  1.0  -0.0324
  C  C18  1  0.441400  0.762400  0.294600  1.0  0.0186
  C  C19  1  0.476400  0.662600  0.262900  1.0  -0.0077
  C  C20  1  0.570000  0.627800  0.327300  1.0  0.0242
  C  C21  1  0.624100  0.750500  0.338400  1.0  -0.0506
  C  C22  1  0.648100  0.865800  0.333800  1.0  -0.0282
  C  C23  1  0.654300  0.011000  0.314900  1.0  0.0341
  C  C24  1  0.569100  0.077500  0.260000  1.0  0.0592
  C  C25  1  0.520600  0.033100  0.172600  1.0  -0.0164
  C  C26  1  0.429800  0.083700  0.123300  1.0  -0.0767
  C  C27  1  0.882800  0.781500  0.497700  1.0  0.0153
  C  C28  1  0.856400  0.820000  0.431500  1.0  -0.0559
  C  C29  1  0.851900  0.871500  0.359300  1.0  -0.018
  C  C30  1  0.937800  0.879300  0.374900  1.0  0.0006
  C  C31  1  0.973900  0.733200  0.382000  1.0  0.005
  C  C32  1  0.932800  0.735800  0.583500  1.0  -0.0027
  C  C33  1  0.636500  0.855200  0.557700  1.0  0.4615
  C  C34  1  0.476200  0.560800  0.888300  1.0  0.0072
  C  C35  1  0.567300  0.551100  0.920200  1.0  -0.0794
  C  C36  1  0.619700  0.494800  0.005200  1.0  -0.0549
  C  C37  1  0.646100  0.458300  0.072700  1.0  -0.0252
  C  C38  1  0.651400  0.416100  0.145200  1.0  -0.0309
  C  C39  1  0.438000  0.414500  0.873700  1.0  0.0313
  C  C40  1  0.880200  0.495600  0.145000  1.0  -0.0312
  C  C41  1  0.857000  0.418000  0.173100  1.0  -0.0179
  C  C42  1  0.854300  0.314200  0.226000  1.0  -0.0324
  C  C43  1  0.941400  0.262400  0.294600  1.0  0.0186
  C  C44  1  0.976400  0.162600  0.262900  1.0  -0.0077
  C  C45  1  0.070000  0.127800  0.327300  1.0  0.0242
  C  C46  1  0.124100  0.250500  0.338400  1.0  -0.0506
  C  C47  1  0.148100  0.365800  0.333800  1.0  -0.0282
  C  C48  1  0.154300  0.511000  0.314900  1.0  0.0341
  C  C49  1  0.069100  0.577500  0.260000  1.0  0.0592
  C  C50  1  0.020600  0.533100  0.172600  1.0  -0.0164
  C  C51  1  0.929800  0.583700  0.123300  1.0  -0.0767
  C  C52  1  0.382800  0.281500  0.497700  1.0  0.0153
  C  C53  1  0.356400  0.320000  0.431500  1.0  -0.0559
  C  C54  1  0.351900  0.371500  0.359300  1.0  -0.018
  C  C55  1  0.437800  0.379300  0.374900  1.0  0.0006
  C  C56  1  0.473900  0.233200  0.382000  1.0  0.005
  C  C57  1  0.432800  0.235800  0.583500  1.0  -0.0027
  C  C58  1  0.136500  0.355200  0.557700  1.0  0.4615
  C  C59  1  0.023800  0.060800  0.111700  1.0  0.0102
  C  C60  1  0.932700  0.051100  0.079800  1.0  -0.0803
  C  C61  1  0.880300  0.994800  0.994800  1.0  -0.0591
  C  C62  1  0.853900  0.958300  0.927300  1.0  -0.0291
  C  C63  1  0.848600  0.916100  0.854800  1.0  -0.0307
  C  C64  1  0.062000  0.914500  0.126300  1.0  0.0293
  C  C65  1  0.619800  0.995600  0.855000  1.0  -0.0325
  C  C66  1  0.643000  0.918000  0.826900  1.0  -0.0182
  C  C67  1  0.645700  0.814200  0.774000  1.0  -0.0304
  C  C68  1  0.558600  0.762400  0.705400  1.0  0.0213
  C  C69  1  0.523600  0.662600  0.737100  1.0  -0.0085
  C  C70  1  0.430000  0.627800  0.672700  1.0  0.0249
  C  C71  1  0.375900  0.750500  0.661600  1.0  -0.0525
  C  C72  1  0.351900  0.865800  0.666200  1.0  -0.0287
  C  C73  1  0.345700  0.011000  0.685100  1.0  0.0339
  C  C74  1  0.430900  0.077500  0.740000  1.0  0.0614
  C  C75  1  0.479400  0.033100  0.827400  1.0  -0.0182
  C  C76  1  0.570200  0.083700  0.876700  1.0  -0.081
  C  C77  1  0.117200  0.781500  0.502300  1.0  0.01
  C  C78  1  0.143600  0.820000  0.568500  1.0  -0.0575
  C  C79  1  0.148100  0.871500  0.640700  1.0  -0.0201
  C  C80  1  0.062200  0.879300  0.625100  1.0  0.0007
  C  C81  1  0.026100  0.733200  0.618000  1.0  0.0074
  C  C82  1  0.067200  0.735800  0.416500  1.0  -0.0044
  C  C83  1  0.363500  0.855200  0.442300  1.0  0.4605
  C  C84  1  0.523800  0.560800  0.111700  1.0  0.0102
  C  C85  1  0.432700  0.551100  0.079800  1.0  -0.0807
  C  C86  1  0.380300  0.494800  0.994800  1.0  -0.0591
  C  C87  1  0.353900  0.458300  0.927300  1.0  -0.0291
  C  C88  1  0.348600  0.416100  0.854800  1.0  -0.0307
  C  C89  1  0.562000  0.414500  0.126300  1.0  0.0293
  C  C90  1  0.119800  0.495600  0.855000  1.0  -0.0325
  C  C91  1  0.143000  0.418000  0.826900  1.0  -0.0182
  C  C92  1  0.145700  0.314200  0.774000  1.0  -0.0304
  C  C93  1  0.058600  0.262400  0.705400  1.0  0.0213
  C  C94  1  0.023600  0.162600  0.737100  1.0  -0.0085
  C  C95  1  0.930000  0.127800  0.672700  1.0  0.0249
  C  C96  1  0.875900  0.250500  0.661600  1.0  -0.0525
  C  C97  1  0.851900  0.365800  0.666200  1.0  -0.0287
  C  C98  1  0.845700  0.511000  0.685100  1.0  0.0339
  C  C99  1  0.930900  0.577500  0.740000  1.0  0.0614
  C  C100  1  0.979400  0.533100  0.827400  1.0  -0.0182
  C  C101  1  0.070200  0.583700  0.876700  1.0  -0.081
  C  C102  1  0.617200  0.281500  0.502300  1.0  0.01
  C  C103  1  0.643600  0.320000  0.568500  1.0  -0.0575
  C  C104  1  0.648100  0.371500  0.640700  1.0  -0.0201
  C  C105  1  0.562200  0.379300  0.625100  1.0  0.0007
  C  C106  1  0.526100  0.233200  0.618000  1.0  0.0074
  C  C107  1  0.567200  0.235800  0.416500  1.0  -0.0044
  C  C108  1  0.863500  0.355200  0.442300  1.0  0.4605
  S  S109  1  0.739000  0.883900  0.576800  1.0  1.1628
  S  S110  1  0.239000  0.383900  0.576800  1.0  1.1628
  S  S111  1  0.261000  0.883900  0.423200  1.0  1.1624
  S  S112  1  0.761000  0.383900  0.423200  1.0  1.1624
  O  O113  1  0.744300  0.766500  0.534100  1.0  -0.6562
  O  O114  1  0.796900  0.878500  0.663100  1.0  -0.5639
  O  O115  1  0.731100  0.022400  0.541100  1.0  -0.6719
  O  O116  1  0.244300  0.266500  0.534100  1.0  -0.6562
  O  O117  1  0.296900  0.378500  0.663100  1.0  -0.5639
  O  O118  1  0.231100  0.522400  0.541100  1.0  -0.6719
  O  O119  1  0.255700  0.766500  0.465900  1.0  -0.6558
  O  O120  1  0.203100  0.878500  0.336900  1.0  -0.5653
  O  O121  1  0.268900  0.022400  0.458900  1.0  -0.6721
  O  O122  1  0.755700  0.266500  0.465900  1.0  -0.6558
  O  O123  1  0.703100  0.378500  0.336900  1.0  -0.5653
  O  O124  1  0.768900  0.522400  0.458900  1.0  -0.6721
  F  F125  1  0.634000  0.729900  0.583100  1.0  -0.1592
  F  F126  1  0.624700  0.950500  0.598300  1.0  -0.1845
  F  F127  1  0.576800  0.870200  0.481500  1.0  -0.1639
  F  F128  1  0.134000  0.229900  0.583100  1.0  -0.1595
  F  F129  1  0.124700  0.450500  0.598300  1.0  -0.1845
  F  F130  1  0.076800  0.370200  0.481500  1.0  -0.1639
  F  F131  1  0.366000  0.729900  0.416900  1.0  -0.1598
  F  F132  1  0.375300  0.950500  0.401700  1.0  -0.182
  F  F133  1  0.423200  0.870200  0.518500  1.0  -0.1646
  F  F134  1  0.866000  0.229900  0.416900  1.0  -0.1598
  F  F135  1  0.875300  0.450500  0.401700  1.0  -0.182
  F  F136  1  0.923200  0.370200  0.518500  1.0  -0.1646
