# generated using pymatgen
data_Zn(PO4)2
_symmetry_space_group_name_H-M   'P 1'
_cell_length_a   8.84900000
_cell_length_b   13.86900000
_cell_length_c   10.81800000
_cell_angle_alpha   90.00000000
_cell_angle_beta   90.00000000
_cell_angle_gamma   90.00000000
_symmetry_Int_Tables_number   1
_chemical_formula_structural   Zn(PO4)2
_chemical_formula_sum   'Zn4 P8 O32'
_cell_volume   1327.65831686
_cell_formula_units_Z   4
loop_
 _symmetry_equiv_pos_site_id
 _symmetry_equiv_pos_as_xyz
  1  'x, y, z'
loop_
 _atom_site_type_symbol
 _atom_site_label
 _atom_site_symmetry_multiplicity
 _atom_site_fract_x
 _atom_site_fract_y
 _atom_site_fract_z
 _atom_site_occupancy
 _atom_site_charge
  Zn  Zn1  1  0.037560  0.101160  0.327810  1.0  1.1792
  Zn  Zn2  1  0.962440  0.898840  0.827810  1.0  1.1799
  Zn  Zn3  1  0.537560  0.398840  0.327810  1.0  1.1795
  Zn  Zn4  1  0.462440  0.601160  0.827810  1.0  1.1796
  P  P5  1  0.989480  0.077840  0.625160  1.0  1.7017
  P  P6  1  0.828980  0.283920  0.380000  1.0  1.683
  P  P7  1  0.010520  0.922160  0.125160  1.0  1.7019
  P  P8  1  0.171020  0.716080  0.880000  1.0  1.683
  P  P9  1  0.489480  0.422160  0.625160  1.0  1.701
  P  P10  1  0.328980  0.216080  0.380000  1.0  1.683
  P  P11  1  0.510520  0.577840  0.125160  1.0  1.7017
  P  P12  1  0.671020  0.783920  0.880000  1.0  1.6829
  O  O13  1  0.898700  0.206570  0.300800  1.0  -0.6486
  O  O14  1  0.727500  0.240830  0.482300  1.0  -0.5134
  O  O15  1  0.010300  0.049530  0.493040  1.0  -0.6762
  O  O16  1  0.100000  0.163040  0.658900  1.0  -0.4622
  O  O17  1  0.016000  0.998980  0.716500  1.0  -0.7165
  O  O18  1  0.959500  0.341470  0.447600  1.0  -0.456
  O  O19  1  0.825000  0.117760  0.646900  1.0  -0.4628
  O  O20  1  0.742900  0.356600  0.303760  1.0  -0.6232
  O  O21  1  0.101300  0.793430  0.800800  1.0  -0.6478
  O  O22  1  0.272500  0.759170  0.982300  1.0  -0.51
  O  O23  1  0.989700  0.950470  0.993040  1.0  -0.6764
  O  O24  1  0.900000  0.836960  0.158900  1.0  -0.4635
  O  O25  1  0.984000  0.001020  0.216500  1.0  -0.717
  O  O26  1  0.040500  0.658530  0.947600  1.0  -0.4548
  O  O27  1  0.175000  0.882240  0.146900  1.0  -0.4638
  O  O28  1  0.257100  0.643400  0.803760  1.0  -0.6258
  O  O29  1  0.398700  0.293430  0.300800  1.0  -0.6482
  O  O30  1  0.227500  0.259170  0.482300  1.0  -0.5235
  O  O31  1  0.510300  0.450470  0.493040  1.0  -0.676
  O  O32  1  0.600000  0.336960  0.658900  1.0  -0.4635
  O  O33  1  0.516000  0.501020  0.716500  1.0  -0.7164
  O  O34  1  0.459500  0.158530  0.447600  1.0  -0.4548
  O  O35  1  0.325000  0.382240  0.646900  1.0  -0.4633
  O  O36  1  0.242900  0.143400  0.303760  1.0  -0.625
  O  O37  1  0.601300  0.706570  0.800800  1.0  -0.6481
  O  O38  1  0.772500  0.740830  0.982300  1.0  -0.5207
  O  O39  1  0.489700  0.549530  0.993040  1.0  -0.6756
  O  O40  1  0.400000  0.663040  0.158900  1.0  -0.4629
  O  O41  1  0.484000  0.498980  0.216500  1.0  -0.717
  O  O42  1  0.540500  0.841470  0.947600  1.0  -0.4563
  O  O43  1  0.675000  0.617760  0.146900  1.0  -0.463
  O  O44  1  0.757100  0.856600  0.803760  1.0  -0.6242
