# generated using pymatgen
data_Zn2H5C14(NO4)2
_symmetry_space_group_name_H-M   'P 1'
_cell_length_a   14.47110000
_cell_length_b   14.61610000
_cell_length_c   17.87450000
_cell_angle_alpha   90.00000000
_cell_angle_beta   90.23800000
_cell_angle_gamma   90.00000000
_symmetry_Int_Tables_number   1
_chemical_formula_structural   Zn2H5C14(NO4)2
_chemical_formula_sum   'Zn16 H40 C112 N16 O64'
_cell_volume   3780.62155160
_cell_formula_units_Z   8
loop_
 _symmetry_equiv_pos_site_id
 _symmetry_equiv_pos_as_xyz
  1  'x, y, z'
loop_
 _atom_site_type_symbol
 _atom_site_label
 _atom_site_symmetry_multiplicity
 _atom_site_fract_x
 _atom_site_fract_y
 _atom_site_fract_z
 _atom_site_occupancy
 _atom_site_charge
  Zn  Zn1  1  0.157210  0.598570  0.968960  1.0  0.9962
  Zn  Zn2  1  0.612880  0.845960  0.685310  1.0  1.0304
  Zn  Zn3  1  0.648350  0.892770  0.968620  1.0  1.0071
  Zn  Zn4  1  0.888430  0.365930  0.321890  1.0  1.0666
  Zn  Zn5  1  0.842790  0.098570  0.531040  1.0  0.9967
  Zn  Zn6  1  0.387120  0.345960  0.814690  1.0  1.0309
  Zn  Zn7  1  0.351650  0.392770  0.531380  1.0  1.0081
  Zn  Zn8  1  0.111570  0.865930  0.178110  1.0  1.0651
  Zn  Zn9  1  0.842790  0.401430  0.031040  1.0  0.9964
  Zn  Zn10  1  0.387120  0.154040  0.314690  1.0  1.0312
  Zn  Zn11  1  0.351650  0.107230  0.031380  1.0  1.0083
  Zn  Zn12  1  0.111570  0.634070  0.678110  1.0  1.0637
  Zn  Zn13  1  0.157210  0.901430  0.468960  1.0  0.9964
  Zn  Zn14  1  0.612880  0.654040  0.185310  1.0  1.0314
  Zn  Zn15  1  0.648350  0.607230  0.468620  1.0  1.0086
  Zn  Zn16  1  0.888430  0.134070  0.821890  1.0  1.0646
  H  H17  1  0.074300  0.256900  0.104900  1.0  0.1233
  H  H18  1  0.375200  0.774500  0.870100  1.0  0.1193
  H  H19  1  0.718200  0.252900  0.851700  1.0  0.0831
  H  H20  1  0.656000  0.393200  0.827400  1.0  0.1242
  H  H21  1  0.878800  0.450000  0.706100  1.0  0.1275
  H  H22  1  0.931400  0.306600  0.730200  1.0  0.0841
  H  H23  1  0.579900  0.686000  0.801600  1.0  0.083
  H  H24  1  0.632500  0.543600  0.829600  1.0  0.1254
  H  H25  1  0.795600  0.557100  0.653300  1.0  0.1307
  H  H26  1  0.736500  0.697900  0.629300  1.0  0.0717
  H  H27  1  0.925700  0.756900  0.395100  1.0  0.1228
  H  H28  1  0.624800  0.274500  0.629900  1.0  0.1194
  H  H29  1  0.281800  0.752900  0.648300  1.0  0.0831
  H  H30  1  0.344000  0.893200  0.672600  1.0  0.1245
  H  H31  1  0.121200  0.950000  0.793900  1.0  0.1269
  H  H32  1  0.068600  0.806600  0.769800  1.0  0.084
  H  H33  1  0.420100  0.186000  0.698400  1.0  0.0831
  H  H34  1  0.367500  0.043600  0.670400  1.0  0.1275
  H  H35  1  0.204400  0.057100  0.846700  1.0  0.13
  H  H36  1  0.263500  0.197900  0.870700  1.0  0.0712
  H  H37  1  0.925700  0.743100  0.895100  1.0  0.1233
  H  H38  1  0.624800  0.225500  0.129900  1.0  0.1198
  H  H39  1  0.281800  0.747100  0.148300  1.0  0.0832
  H  H40  1  0.344000  0.606800  0.172600  1.0  0.1245
  H  H41  1  0.121200  0.550000  0.293900  1.0  0.1265
  H  H42  1  0.068600  0.693400  0.269800  1.0  0.0835
  H  H43  1  0.420100  0.314000  0.198400  1.0  0.0833
  H  H44  1  0.367500  0.456400  0.170400  1.0  0.1275
  H  H45  1  0.204400  0.442900  0.346700  1.0  0.1299
  H  H46  1  0.263500  0.302100  0.370700  1.0  0.0709
  H  H47  1  0.074300  0.243100  0.604900  1.0  0.1237
  H  H48  1  0.375200  0.725500  0.370100  1.0  0.1198
  H  H49  1  0.718200  0.247100  0.351700  1.0  0.0831
  H  H50  1  0.656000  0.106800  0.327400  1.0  0.1242
  H  H51  1  0.878800  0.050000  0.206100  1.0  0.127
  H  H52  1  0.931400  0.193400  0.230200  1.0  0.0839
  H  H53  1  0.579900  0.814000  0.301600  1.0  0.0835
  H  H54  1  0.632500  0.956400  0.329600  1.0  0.1251
  H  H55  1  0.795600  0.942900  0.153300  1.0  0.1304
  H  H56  1  0.736500  0.802100  0.129300  1.0  0.0715
  C  C57  1  0.031800  0.567730  0.093140  1.0  0.5914
  C  C58  1  0.071910  0.474040  0.074580  1.0  0.0949
  C  C59  1  0.046310  0.392140  0.108110  1.0  -0.1094
  C  C60  1  0.968400  0.384500  0.162560  1.0  0.7392
  C  C61  1  0.089700  0.312720  0.083230  1.0  0.0075
  C  C62  1  0.154800  0.314830  0.027550  1.0  -0.0748
  C  C63  1  0.200700  0.226110  0.005740  1.0  0.6737
  C  C64  1  0.176500  0.399480  0.995680  1.0  0.106
  C  C65  1  0.245060  0.417530  0.933460  1.0  0.6383
  C  C66  1  0.480500  0.067180  0.910280  1.0  0.5938
  C  C67  1  0.425630  0.979940  0.923060  1.0  0.0903
  C  C68  1  0.436630  0.897980  0.884610  1.0  -0.1244
  C  C69  1  0.519200  0.877980  0.835750  1.0  0.7302
  C  C70  1  0.372000  0.828630  0.897270  1.0  -0.0032
  C  C71  1  0.302720  0.840140  0.950440  1.0  -0.0788
  C  C72  1  0.227600  0.769140  0.958400  1.0  0.6625
  C  C73  1  0.302400  0.920570  0.991890  1.0  0.1123
  C  C74  1  0.243120  0.940070  0.059800  1.0  0.6446
  C  C75  1  0.751100  0.293100  0.821500  1.0  0.1952
  C  C76  1  0.713100  0.377800  0.807400  1.0  -0.1904
  C  C77  1  0.760600  0.440200  0.763200  1.0  0.0953
  C  C78  1  0.843700  0.411000  0.735600  1.0  -0.1817
  C  C79  1  0.875600  0.324600  0.751300  1.0  0.2128
  C  C80  1  0.625100  0.660500  0.771300  1.0  0.1928
  C  C81  1  0.656900  0.574200  0.788600  1.0  -0.1861
  C  C82  1  0.723600  0.532800  0.746750  1.0  0.1073
  C  C83  1  0.752000  0.581800  0.685600  1.0  -0.1895
  C  C84  1  0.716100  0.667300  0.671700  1.0  0.2121
  C  C85  1  0.968200  0.067730  0.406860  1.0  0.5924
  C  C86  1  0.928090  0.974040  0.425420  1.0  0.0943
  C  C87  1  0.953690  0.892140  0.391890  1.0  -0.1111
  C  C88  1  0.031600  0.884500  0.337440  1.0  0.7394
  C  C89  1  0.910300  0.812720  0.416770  1.0  0.0089
  C  C90  1  0.845200  0.814830  0.472450  1.0  -0.074
  C  C91  1  0.799300  0.726110  0.494260  1.0  0.6741
  C  C92  1  0.823500  0.899480  0.504320  1.0  0.1098
  C  C93  1  0.754940  0.917530  0.566540  1.0  0.6379
  C  C94  1  0.519500  0.567180  0.589720  1.0  0.5937
  C  C95  1  0.574370  0.479940  0.576940  1.0  0.0896
  C  C96  1  0.563370  0.397980  0.615390  1.0  -0.1235
  C  C97  1  0.480800  0.377980  0.664250  1.0  0.7293
  C  C98  1  0.628000  0.328630  0.602730  1.0  -0.0037
  C  C99  1  0.697280  0.340140  0.549560  1.0  -0.0787
  C  C100  1  0.772400  0.269140  0.541600  1.0  0.6632
  C  C101  1  0.697600  0.420570  0.508110  1.0  0.1137
  C  C102  1  0.756880  0.440070  0.440200  1.0  0.6433
  C  C103  1  0.248900  0.793100  0.678500  1.0  0.1947
  C  C104  1  0.286900  0.877800  0.692600  1.0  -0.1909
  C  C105  1  0.239400  0.940200  0.736800  1.0  0.0951
  C  C106  1  0.156300  0.911000  0.764400  1.0  -0.1837
  C  C107  1  0.124400  0.824600  0.748700  1.0  0.2141
  C  C108  1  0.374900  0.160500  0.728700  1.0  0.1912
  C  C109  1  0.343100  0.074200  0.711400  1.0  -0.186
  C  C110  1  0.276400  0.032800  0.753250  1.0  0.1078
  C  C111  1  0.248000  0.081800  0.814400  1.0  -0.1889
  C  C112  1  0.283900  0.167300  0.828300  1.0  0.2121
  C  C113  1  0.968200  0.432270  0.906860  1.0  0.5909
  C  C114  1  0.928090  0.525960  0.925420  1.0  0.0943
  C  C115  1  0.953690  0.607860  0.891890  1.0  -0.1105
  C  C116  1  0.031600  0.615500  0.837440  1.0  0.7389
  C  C117  1  0.910300  0.687280  0.916770  1.0  0.0124
  C  C118  1  0.845200  0.685170  0.972450  1.0  -0.0738
  C  C119  1  0.799300  0.773890  0.994260  1.0  0.6733
  C  C120  1  0.823500  0.600520  0.004320  1.0  0.1095
  C  C121  1  0.754940  0.582470  0.066540  1.0  0.6383
  C  C122  1  0.519500  0.932820  0.089720  1.0  0.5945
  C  C123  1  0.574370  0.020060  0.076940  1.0  0.0892
  C  C124  1  0.563370  0.102020  0.115390  1.0  -0.1217
  C  C125  1  0.480800  0.122020  0.164250  1.0  0.7287
  C  C126  1  0.628000  0.171370  0.102730  1.0  -0.0042
  C  C127  1  0.697280  0.159860  0.049560  1.0  -0.0781
  C  C128  1  0.772400  0.230860  0.041600  1.0  0.6631
  C  C129  1  0.697600  0.079430  0.008110  1.0  0.1132
  C  C130  1  0.756880  0.059930  0.940200  1.0  0.6431
  C  C131  1  0.248900  0.706900  0.178500  1.0  0.1955
  C  C132  1  0.286900  0.622200  0.192600  1.0  -0.1908
  C  C133  1  0.239400  0.559800  0.236800  1.0  0.0953
  C  C134  1  0.156300  0.589000  0.264400  1.0  -0.1839
  C  C135  1  0.124400  0.675400  0.248700  1.0  0.214
  C  C136  1  0.374900  0.339500  0.228700  1.0  0.1909
  C  C137  1  0.343100  0.425800  0.211400  1.0  -0.186
  C  C138  1  0.276400  0.467200  0.253250  1.0  0.1078
  C  C139  1  0.248000  0.418200  0.314400  1.0  -0.1889
  C  C140  1  0.283900  0.332700  0.328300  1.0  0.2126
  C  C141  1  0.031800  0.932270  0.593140  1.0  0.5924
  C  C142  1  0.071910  0.025960  0.574580  1.0  0.0954
  C  C143  1  0.046310  0.107860  0.608110  1.0  -0.1099
  C  C144  1  0.968400  0.115500  0.662560  1.0  0.7392
  C  C145  1  0.089700  0.187280  0.583230  1.0  0.0105
  C  C146  1  0.154800  0.185170  0.527550  1.0  -0.0753
  C  C147  1  0.200700  0.273890  0.505740  1.0  0.673
  C  C148  1  0.176500  0.100520  0.495680  1.0  0.1054
  C  C149  1  0.245060  0.082470  0.433460  1.0  0.6383
  C  C150  1  0.480500  0.432820  0.410280  1.0  0.5925
  C  C151  1  0.425630  0.520060  0.423060  1.0  0.0901
  C  C152  1  0.436630  0.602020  0.384610  1.0  -0.1224
  C  C153  1  0.519200  0.622020  0.335750  1.0  0.7297
  C  C154  1  0.372000  0.671370  0.397270  1.0  -0.004
  C  C155  1  0.302720  0.659860  0.450440  1.0  -0.0782
  C  C156  1  0.227600  0.730860  0.458400  1.0  0.6623
  C  C157  1  0.302400  0.579430  0.491890  1.0  0.1118
  C  C158  1  0.243120  0.559930  0.559800  1.0  0.6447
  C  C159  1  0.751100  0.206900  0.321500  1.0  0.1943
  C  C160  1  0.713100  0.122200  0.307400  1.0  -0.1903
  C  C161  1  0.760600  0.059800  0.263200  1.0  0.0956
  C  C162  1  0.843700  0.089000  0.235600  1.0  -0.1823
  C  C163  1  0.875600  0.175400  0.251300  1.0  0.213
  C  C164  1  0.625100  0.839500  0.271300  1.0  0.193
  C  C165  1  0.656900  0.925800  0.288600  1.0  -0.1849
  C  C166  1  0.723600  0.967200  0.246750  1.0  0.1077
  C  C167  1  0.752000  0.918200  0.185600  1.0  -0.189
  C  C168  1  0.716100  0.832700  0.171700  1.0  0.2118
  N  N169  1  0.134970  0.475630  0.020560  1.0  -0.3264
  N  N170  1  0.361110  0.987960  0.975710  1.0  -0.3233
  N  N171  1  0.831880  0.265060  0.794720  1.0  -0.3859
  N  N172  1  0.654940  0.708970  0.714360  1.0  -0.378
  N  N173  1  0.865030  0.975630  0.479440  1.0  -0.3267
  N  N174  1  0.638890  0.487960  0.524290  1.0  -0.3238
  N  N175  1  0.168120  0.765060  0.705280  1.0  -0.3875
  N  N176  1  0.345060  0.208970  0.785640  1.0  -0.3793
  N  N177  1  0.865030  0.524370  0.979440  1.0  -0.3268
  N  N178  1  0.638890  0.012040  0.024290  1.0  -0.3244
  N  N179  1  0.168120  0.734940  0.205280  1.0  -0.3853
  N  N180  1  0.345060  0.291030  0.285640  1.0  -0.3794
  N  N181  1  0.134970  0.024370  0.520560  1.0  -0.3265
  N  N182  1  0.361110  0.512040  0.475710  1.0  -0.3237
  N  N183  1  0.831880  0.234940  0.294720  1.0  -0.3867
  N  N184  1  0.654940  0.791030  0.214360  1.0  -0.3797
  O  O185  1  0.975540  0.572670  0.143590  1.0  -0.5541
  O  O186  1  0.061090  0.633330  0.052180  1.0  -0.6093
  O  O187  1  0.888220  0.389470  0.135110  1.0  -0.578
  O  O188  1  0.985540  0.368480  0.229520  1.0  -0.5976
  O  O189  1  0.156590  0.166770  0.972620  1.0  -0.5626
  O  O190  1  0.283880  0.220510  0.028100  1.0  -0.6076
  O  O191  1  0.281210  0.350330  0.902100  1.0  -0.5707
  O  O192  1  0.259970  0.500620  0.919380  1.0  -0.5767
  O  O193  1  0.459120  0.133660  0.953340  1.0  -0.6258
  O  O194  1  0.539030  0.067220  0.861420  1.0  -0.5607
  O  O195  1  0.507690  0.866370  0.768150  1.0  -0.5904
  O  O196  1  0.595650  0.868840  0.869280  1.0  -0.5802
  O  O197  1  0.147990  0.789870  0.943400  1.0  -0.5528
  O  O198  1  0.255290  0.689250  0.977150  1.0  -0.6122
  O  O199  1  0.244480  0.020480  0.083910  1.0  -0.5674
  O  O200  1  0.199660  0.873460  0.086100  1.0  -0.5782
  O  O201  1  0.024460  0.072670  0.356410  1.0  -0.5537
  O  O202  1  0.938910  0.133330  0.447820  1.0  -0.6085
  O  O203  1  0.111780  0.889470  0.364890  1.0  -0.5765
  O  O204  1  0.014460  0.868480  0.270480  1.0  -0.5979
  O  O205  1  0.843410  0.666770  0.527380  1.0  -0.5606
  O  O206  1  0.716120  0.720510  0.471900  1.0  -0.607
  O  O207  1  0.718790  0.850330  0.597900  1.0  -0.5714
  O  O208  1  0.740030  0.000620  0.580620  1.0  -0.5803
  O  O209  1  0.540880  0.633660  0.546660  1.0  -0.6264
  O  O210  1  0.460970  0.567220  0.638580  1.0  -0.5589
  O  O211  1  0.492310  0.366370  0.731850  1.0  -0.5914
  O  O212  1  0.404350  0.368840  0.630720  1.0  -0.5816
  O  O213  1  0.852010  0.289870  0.556600  1.0  -0.5519
  O  O214  1  0.744710  0.189250  0.522850  1.0  -0.6115
  O  O215  1  0.755520  0.520480  0.416090  1.0  -0.5668
  O  O216  1  0.800340  0.373460  0.413900  1.0  -0.5787
  O  O217  1  0.024460  0.427330  0.856410  1.0  -0.5543
  O  O218  1  0.938910  0.366670  0.947820  1.0  -0.6087
  O  O219  1  0.111780  0.610530  0.864890  1.0  -0.5763
  O  O220  1  0.014460  0.631520  0.770480  1.0  -0.5978
  O  O221  1  0.843410  0.833230  0.027380  1.0  -0.5595
  O  O222  1  0.716120  0.779490  0.971900  1.0  -0.6073
  O  O223  1  0.718790  0.649670  0.097900  1.0  -0.5712
  O  O224  1  0.740030  0.499380  0.080620  1.0  -0.579
  O  O225  1  0.540880  0.866340  0.046660  1.0  -0.6244
  O  O226  1  0.460970  0.932780  0.138580  1.0  -0.5582
  O  O227  1  0.492310  0.133630  0.231850  1.0  -0.5915
  O  O228  1  0.404350  0.131160  0.130720  1.0  -0.5816
  O  O229  1  0.852010  0.210130  0.056600  1.0  -0.5516
  O  O230  1  0.744710  0.310750  0.022850  1.0  -0.6119
  O  O231  1  0.755520  0.979520  0.916090  1.0  -0.5672
  O  O232  1  0.800340  0.126540  0.913900  1.0  -0.5787
  O  O233  1  0.975540  0.927330  0.643590  1.0  -0.5537
  O  O234  1  0.061090  0.866670  0.552180  1.0  -0.6094
  O  O235  1  0.888220  0.110530  0.635110  1.0  -0.5783
  O  O236  1  0.985540  0.131520  0.729520  1.0  -0.5977
  O  O237  1  0.156590  0.333230  0.472620  1.0  -0.5618
  O  O238  1  0.283880  0.279490  0.528100  1.0  -0.6068
  O  O239  1  0.281210  0.149670  0.402100  1.0  -0.5705
  O  O240  1  0.259970  0.999380  0.419380  1.0  -0.5785
  O  O241  1  0.459120  0.366340  0.453340  1.0  -0.6235
  O  O242  1  0.539030  0.432780  0.361420  1.0  -0.5603
  O  O243  1  0.507690  0.633630  0.268150  1.0  -0.5902
  O  O244  1  0.595650  0.631160  0.369280  1.0  -0.5804
  O  O245  1  0.147990  0.710130  0.443400  1.0  -0.5522
  O  O246  1  0.255290  0.810750  0.477150  1.0  -0.6117
  O  O247  1  0.244480  0.479520  0.583910  1.0  -0.5667
  O  O248  1  0.199660  0.626540  0.586100  1.0  -0.5774
