# generated using pymatgen
data_ZnH17C26O5
_symmetry_space_group_name_H-M   'P 1'
_cell_length_a   13.08840000
_cell_length_b   26.61860000
_cell_length_c   26.61860000
_cell_angle_alpha   65.27790000
_cell_angle_beta   75.76790000
_cell_angle_gamma   75.76800000
_symmetry_Int_Tables_number   1
_chemical_formula_structural   ZnH17C26O5
_chemical_formula_sum   'Zn8 H136 C208 O40'
_cell_volume   8056.80985832
_cell_formula_units_Z   8
loop_
 _symmetry_equiv_pos_site_id
 _symmetry_equiv_pos_as_xyz
  1  'x, y, z'
loop_
 _atom_site_type_symbol
 _atom_site_label
 _atom_site_symmetry_multiplicity
 _atom_site_fract_x
 _atom_site_fract_y
 _atom_site_fract_z
 _atom_site_occupancy
 _atom_site_charge
  Zn  Zn1  1  0.158820  0.488960  0.362840  1.0  1.0758
  Zn  Zn2  1  0.978580  0.576440  0.287380  1.0  1.0362
  Zn  Zn3  1  0.989380  0.862840  0.988960  1.0  1.0793
  Zn  Zn4  1  0.157600  0.787380  0.076440  1.0  1.0377
  Zn  Zn5  1  0.341180  0.637160  0.511040  1.0  1.078
  Zn  Zn6  1  0.521420  0.712620  0.423560  1.0  1.0376
  Zn  Zn7  1  0.510620  0.011040  0.137160  1.0  1.0794
  Zn  Zn8  1  0.342400  0.923560  0.212620  1.0  1.0383
  H  H9  1  0.026800  0.271700  0.366900  1.0  0.1075
  H  H10  1  0.071900  0.351100  0.367700  1.0  0.1151
  H  H11  1  0.852800  0.448100  0.267700  1.0  0.1146
  H  H12  1  0.798900  0.366600  0.278200  1.0  0.0959
  H  H13  1  0.010500  0.209900  0.328100  1.0  0.1148
  H  H14  1  0.717200  0.294500  0.335500  1.0  0.0974
  H  H15  1  0.951800  0.130100  0.338500  1.0  0.1344
  H  H16  1  0.542200  0.317700  0.291500  1.0  0.1109
  H  H17  1  0.413800  0.386600  0.314600  1.0  0.1116
  H  H18  1  0.354600  0.275600  0.474400  1.0  0.118
  H  H19  1  0.482900  0.206800  0.451400  1.0  0.1288
  H  H20  1  0.496700  0.161400  0.376000  1.0  0.1752
  H  H21  1  0.805900  0.940800  0.113800  1.0  0.1196
  H  H22  1  0.770800  0.983600  0.179400  1.0  0.115
  H  H23  1  0.076300  0.929800  0.206200  1.0  0.1077
  H  H24  1  0.116100  0.889000  0.141200  1.0  0.1286
  H  H25  1  0.789400  0.053600  0.204800  1.0  0.1114
  H  H26  1  0.759300  0.095100  0.268300  1.0  0.1007
  H  H27  1  0.990800  0.925200  0.294000  1.0  0.1067
  H  H28  1  0.967500  0.958000  0.454400  1.0  0.1158
  H  H29  1  0.167400  0.936300  0.326100  1.0  0.1081
  H  H30  1  0.968600  0.854100  0.461100  1.0  0.0987
  H  H31  1  0.298400  0.857700  0.347900  1.0  0.1029
  H  H32  1  0.096800  0.777400  0.479400  1.0  0.0934
  H  H33  1  0.484500  0.028600  0.389400  1.0  0.11
  H  H34  1  0.452600  0.090400  0.390400  1.0  0.0949
  H  H35  1  0.415200  0.091700  0.307500  1.0  0.1248
  H  H36  1  0.505600  0.129200  0.292000  1.0  0.1156
  H  H37  1  0.537600  0.067600  0.291000  1.0  0.1106
  H  H38  1  0.880600  0.982200  0.518000  1.0  0.0764
  H  H39  1  0.832300  0.036000  0.534800  1.0  0.105
  H  H40  1  0.011900  0.017600  0.525600  1.0  0.1072
  H  H41  1  0.018600  0.024800  0.462200  1.0  0.1036
  H  H42  1  0.971200  0.077300  0.480300  1.0  0.1156
  H  H43  1  0.334600  0.866900  0.771700  1.0  0.1083
  H  H44  1  0.209300  0.867700  0.851100  1.0  0.1146
  H  H45  1  0.431400  0.767700  0.948100  1.0  0.1141
  H  H46  1  0.556300  0.778200  0.866600  1.0  0.097
  H  H47  1  0.451500  0.828100  0.709900  1.0  0.1155
  H  H48  1  0.652800  0.835500  0.794500  1.0  0.0979
  H  H49  1  0.579600  0.838500  0.630100  1.0  0.1354
  H  H50  1  0.848600  0.791500  0.817700  1.0  0.1084
  H  H51  1  0.885000  0.814600  0.886600  1.0  0.1122
  H  H52  1  0.895400  0.974400  0.775600  1.0  0.1212
  H  H53  1  0.858900  0.951400  0.706800  1.0  0.1285
  H  H54  1  0.965900  0.876000  0.661400  1.0  0.1743
  H  H55  1  0.139500  0.613800  0.440800  1.0  0.1193
  H  H56  1  0.066200  0.679400  0.483600  1.0  0.1129
  H  H57  1  0.787700  0.706200  0.429800  1.0  0.1106
  H  H58  1  0.853700  0.641200  0.389000  1.0  0.1288
  H  H59  1  0.952200  0.704800  0.553600  1.0  0.1117
  H  H60  1  0.877300  0.768300  0.595100  1.0  0.1006
  H  H61  1  0.790000  0.794000  0.425200  1.0  0.1053
  H  H62  1  0.620100  0.954400  0.458000  1.0  0.1163
  H  H63  1  0.570200  0.826100  0.436300  1.0  0.1069
  H  H64  1  0.716200  0.961100  0.354100  1.0  0.0987
  H  H65  1  0.496000  0.847900  0.357700  1.0  0.102
  H  H66  1  0.646400  0.979400  0.277400  1.0  0.0934
  H  H67  1  0.097500  0.889400  0.528600  1.0  0.1143
  H  H68  1  0.066600  0.890400  0.590400  1.0  0.0942
  H  H69  1  0.185600  0.807500  0.591700  1.0  0.1222
  H  H70  1  0.073200  0.792000  0.629200  1.0  0.1169
  H  H71  1  0.103800  0.791000  0.567600  1.0  0.1117
  H  H72  1  0.619200  0.018000  0.482200  1.0  0.0736
  H  H73  1  0.596900  0.034800  0.536000  1.0  0.1052
  H  H74  1  0.444900  0.025600  0.517600  1.0  0.1098
  H  H75  1  0.494400  0.962200  0.524800  1.0  0.102
  H  H76  1  0.471200  0.980300  0.577300  1.0  0.1147
  H  H77  1  0.473200  0.633100  0.728300  1.0  0.1064
  H  H78  1  0.428100  0.632300  0.648900  1.0  0.1149
  H  H79  1  0.647200  0.732300  0.551900  1.0  0.1142
  H  H80  1  0.701100  0.721800  0.633400  1.0  0.0967
  H  H81  1  0.489500  0.671900  0.790100  1.0  0.1129
  H  H82  1  0.782800  0.664500  0.705500  1.0  0.0971
  H  H83  1  0.548200  0.661500  0.869900  1.0  0.1337
  H  H84  1  0.957800  0.708500  0.682300  1.0  0.1085
  H  H85  1  0.086200  0.685400  0.613400  1.0  0.1116
  H  H86  1  0.145400  0.525600  0.724400  1.0  0.1197
  H  H87  1  0.017100  0.548600  0.793200  1.0  0.1288
  H  H88  1  0.003300  0.624000  0.838600  1.0  0.1749
  H  H89  1  0.694100  0.886200  0.059200  1.0  0.1185
  H  H90  1  0.729200  0.820600  0.016400  1.0  0.1138
  H  H91  1  0.423700  0.793800  0.070200  1.0  0.1078
  H  H92  1  0.383900  0.858800  0.111000  1.0  0.1281
  H  H93  1  0.710600  0.795200  0.946400  1.0  0.1121
  H  H94  1  0.740700  0.731700  0.904900  1.0  0.0989
  H  H95  1  0.509200  0.706000  0.074800  1.0  0.1069
  H  H96  1  0.532500  0.545600  0.042000  1.0  0.1153
  H  H97  1  0.332600  0.673900  0.063700  1.0  0.1078
  H  H98  1  0.531400  0.538900  0.145900  1.0  0.0978
  H  H99  1  0.201600  0.652100  0.142300  1.0  0.1027
  H  H100  1  0.403200  0.520600  0.222600  1.0  0.0943
  H  H101  1  0.015500  0.610600  0.971400  1.0  0.1152
  H  H102  1  0.047400  0.609600  0.909600  1.0  0.0955
  H  H103  1  0.084800  0.692500  0.908300  1.0  0.1242
  H  H104  1  0.994400  0.708000  0.870800  1.0  0.1178
  H  H105  1  0.962400  0.709000  0.932400  1.0  0.1113
  H  H106  1  0.619400  0.482000  0.017800  1.0  0.074
  H  H107  1  0.667700  0.465200  0.964000  1.0  0.105
  H  H108  1  0.488100  0.474400  0.982400  1.0  0.1082
  H  H109  1  0.481400  0.537800  0.975200  1.0  0.1008
  H  H110  1  0.528800  0.519700  0.922700  1.0  0.1141
  H  H111  1  0.165400  0.228300  0.133100  1.0  0.1074
  H  H112  1  0.290700  0.148900  0.132300  1.0  0.1157
  H  H113  1  0.068600  0.051900  0.232300  1.0  0.1131
  H  H114  1  0.943700  0.133400  0.221800  1.0  0.0974
  H  H115  1  0.048500  0.290100  0.171900  1.0  0.1151
  H  H116  1  0.847200  0.205500  0.164500  1.0  0.0963
  H  H117  1  0.920400  0.369900  0.161500  1.0  0.1328
  H  H118  1  0.651400  0.182300  0.208500  1.0  0.1095
  H  H119  1  0.615000  0.113400  0.185400  1.0  0.1117
  H  H120  1  0.604600  0.224400  0.025600  1.0  0.1168
  H  H121  1  0.641100  0.293200  0.048600  1.0  0.1295
  H  H122  1  0.534100  0.338600  0.124000  1.0  0.1746
  H  H123  1  0.360500  0.559200  0.386200  1.0  0.1198
  H  H124  1  0.433800  0.516400  0.320600  1.0  0.1139
  H  H125  1  0.712300  0.570200  0.293800  1.0  0.1111
  H  H126  1  0.646300  0.611000  0.358800  1.0  0.1276
  H  H127  1  0.547800  0.446400  0.295200  1.0  0.1119
  H  H128  1  0.622700  0.404900  0.231700  1.0  0.1007
  H  H129  1  0.710000  0.574800  0.206000  1.0  0.1055
  H  H130  1  0.879900  0.542000  0.045600  1.0  0.1146
  H  H131  1  0.929800  0.563700  0.173900  1.0  0.1084
  H  H132  1  0.783800  0.645900  0.038900  1.0  0.0983
  H  H133  1  0.004000  0.642300  0.152100  1.0  0.104
  H  H134  1  0.853600  0.722600  0.020600  1.0  0.0938
  H  H135  1  0.402500  0.471400  0.110600  1.0  0.112
  H  H136  1  0.433400  0.409600  0.109600  1.0  0.094
  H  H137  1  0.314400  0.408300  0.192500  1.0  0.1262
  H  H138  1  0.426800  0.370800  0.208000  1.0  0.1124
  H  H139  1  0.396200  0.432400  0.209000  1.0  0.1087
  H  H140  1  0.880800  0.517800  0.982000  1.0  0.0759
  H  H141  1  0.903100  0.464000  0.965200  1.0  0.1042
  H  H142  1  0.055100  0.482400  0.974400  1.0  0.1043
  H  H143  1  0.005600  0.475200  0.037800  1.0  0.1039
  H  H144  1  0.028800  0.422700  0.019700  1.0  0.114
  C  C145  1  0.907430  0.311070  0.323870  1.0  0.0609
  C  C146  1  0.988100  0.307600  0.348400  1.0  -0.091
  C  C147  1  0.017500  0.355200  0.347600  1.0  -0.073
  C  C148  1  0.967080  0.407920  0.318120  1.0  -0.1276
  C  C149  1  0.886750  0.412450  0.290050  1.0  -0.1248
  C  C150  1  0.857110  0.363490  0.295290  1.0  -0.1204
  C  C151  1  0.869610  0.260290  0.329890  1.0  0.0569
  C  C152  1  0.935970  0.210930  0.331930  1.0  -0.095
  C  C153  1  0.764870  0.260830  0.337030  1.0  -0.0938
  C  C154  1  0.721730  0.212370  0.346970  1.0  -0.0725
  C  C155  1  0.901920  0.162480  0.339280  1.0  -0.1731
  C  C156  1  0.790960  0.162640  0.348040  1.0  0.0087
  C  C157  1  0.603620  0.207880  0.361080  1.0  -0.0492
  C  C158  1  0.524560  0.255740  0.369340  1.0  0.0439
  C  C159  1  0.504090  0.309210  0.328610  1.0  -0.131
  C  C160  1  0.427900  0.350100  0.342300  1.0  -0.0286
  C  C161  1  0.372180  0.337620  0.396620  1.0  -0.1212
  C  C162  1  0.392650  0.284150  0.437350  1.0  -0.0792
  C  C163  1  0.468800  0.243300  0.423700  1.0  -0.18
  C  C164  1  0.571200  0.162300  0.368300  1.0  -0.1308
  C  C165  1  0.646160  0.112940  0.364940  1.0  0.203
  C  C166  1  0.753210  0.112990  0.356990  1.0  0.0091
  C  C167  1  0.860830  0.938970  0.132370  1.0  -0.058
  C  C168  1  0.963460  0.911140  0.121540  1.0  -0.1187
  C  C169  1  0.840330  0.964270  0.171470  1.0  -0.094
  C  C170  1  0.920280  0.961320  0.198720  1.0  0.0064
  C  C171  1  0.021970  0.932330  0.186930  1.0  -0.11
  C  C172  1  0.045950  0.907850  0.149050  1.0  -0.0526
  C  C173  1  0.898470  0.985930  0.242930  1.0  0.0564
  C  C174  1  0.825300  0.036300  0.236300  1.0  -0.1186
  C  C175  1  0.805430  0.060170  0.274770  1.0  -0.1176
  C  C176  1  0.945000  0.960100  0.288900  1.0  -0.1613
  C  C177  1  0.927510  0.983690  0.330890  1.0  -0.0215
  C  C178  1  0.850700  0.034800  0.323200  1.0  -0.0943
  C  C179  1  0.824840  0.057660  0.365060  1.0  -0.0531
  C  C180  1  0.873730  0.028470  0.413470  1.0  0.2265
  C  C181  1  0.941220  0.978380  0.419980  1.0  -0.1239
  C  C182  1  0.972110  0.956790  0.379590  1.0  -0.0047
  C  C183  1  0.053290  0.904710  0.390110  1.0  0.0952
  C  C184  1  0.151790  0.903810  0.358210  1.0  -0.1556
  C  C185  1  0.035680  0.855420  0.437020  1.0  -0.1644
  C  C186  1  0.230560  0.856540  0.371340  1.0  -0.0646
  C  C187  1  0.111660  0.810540  0.448140  1.0  -0.0872
  C  C188  1  0.214130  0.810870  0.414670  1.0  -0.0886
  C  C189  1  0.502300  0.067000  0.371000  1.0  0.0544
  C  C190  1  0.489000  0.091000  0.310000  1.0  -0.3405
  C  C191  1  0.877390  0.023210  0.505210  1.0  0.0516
  C  C192  1  0.976700  0.036600  0.492400  1.0  -0.3693
  C  C193  1  0.300420  0.759480  0.430880  1.0  0.6987
  C  C194  1  0.989300  0.886300  0.075500  1.0  0.6477
  C  C195  1  0.001130  0.458570  0.315970  1.0  0.7407
  C  C196  1  0.300700  0.390000  0.407800  1.0  0.4632
  C  C197  1  0.457630  0.823870  0.811070  1.0  0.0595
  C  C198  1  0.355900  0.848400  0.807600  1.0  -0.0844
  C  C199  1  0.279700  0.847600  0.855200  1.0  -0.0729
  C  C200  1  0.306880  0.818120  0.907920  1.0  -0.1313
  C  C201  1  0.410750  0.790050  0.912450  1.0  -0.1268
  C  C202  1  0.484110  0.795290  0.863490  1.0  -0.1231
  C  C203  1  0.540210  0.829890  0.760290  1.0  0.0561
  C  C204  1  0.521170  0.831930  0.710930  1.0  -0.0928
  C  C205  1  0.637270  0.837030  0.760830  1.0  -0.0938
  C  C206  1  0.718930  0.846970  0.712370  1.0  -0.0696
  C  C207  1  0.596320  0.839280  0.662480  1.0  -0.177
  C  C208  1  0.698360  0.848040  0.662640  1.0  0.0095
  C  C209  1  0.827420  0.861080  0.707880  1.0  -0.0512
  C  C210  1  0.850360  0.869340  0.755740  1.0  0.0392
  C  C211  1  0.858090  0.828610  0.809210  1.0  -0.1323
  C  C212  1  0.879700  0.842300  0.850100  1.0  -0.0304
  C  C213  1  0.893580  0.896620  0.837620  1.0  -0.1204
  C  C214  1  0.885850  0.937350  0.784150  1.0  -0.0729
  C  C215  1  0.864200  0.923700  0.743300  1.0  -0.183
  C  C216  1  0.898200  0.868300  0.662300  1.0  -0.1316
  C  C217  1  0.875960  0.864940  0.612940  1.0  0.2016
  C  C218  1  0.776810  0.856990  0.612990  1.0  0.0097
  C  C219  1  0.067830  0.632370  0.438970  1.0  -0.0582
  C  C220  1  0.003860  0.621540  0.411140  1.0  -0.1183
  C  C221  1  0.023930  0.671470  0.464270  1.0  -0.0928
  C  C222  1  0.919680  0.698720  0.461320  1.0  0.0097
  C  C223  1  0.858770  0.686930  0.432330  1.0  -0.1138
  C  C224  1  0.897150  0.649050  0.407850  1.0  -0.0512
  C  C225  1  0.872670  0.742930  0.485930  1.0  0.0584
  C  C226  1  0.902100  0.736300  0.536300  1.0  -0.1193
  C  C227  1  0.859630  0.774770  0.560170  1.0  -0.1201
  C  C228  1  0.806000  0.788900  0.460100  1.0  -0.16
  C  C229  1  0.757910  0.830890  0.483690  1.0  -0.0217
  C  C230  1  0.791300  0.823200  0.534800  1.0  -0.0958
  C  C231  1  0.752440  0.865060  0.557660  1.0  -0.0539
  C  C232  1  0.684330  0.913470  0.528470  1.0  0.2267
  C  C233  1  0.660420  0.919980  0.478380  1.0  -0.1281
  C  C234  1  0.691510  0.879590  0.456790  1.0  -0.0079
  C  C235  1  0.651890  0.890110  0.404710  1.0  0.0945
  C  C236  1  0.586190  0.858210  0.403810  1.0  -0.156
  C  C237  1  0.671880  0.937020  0.355420  1.0  -0.165
  C  C238  1  0.541560  0.871340  0.356540  1.0  -0.0697
  C  C239  1  0.629660  0.948140  0.310540  1.0  -0.0822
  C  C240  1  0.560330  0.914670  0.310870  1.0  -0.0867
  C  C241  1  0.059700  0.871000  0.567000  1.0  0.0542
  C  C242  1  0.110000  0.810000  0.591000  1.0  -0.3411
  C  C243  1  0.594190  0.005210  0.523210  1.0  0.0518
  C  C244  1  0.494300  0.992400  0.536600  1.0  -0.3738
  C  C245  1  0.509220  0.930880  0.259480  1.0  0.7002
  C  C246  1  0.048900  0.575500  0.386300  1.0  0.6475
  C  C247  1  0.224330  0.815970  0.958570  1.0  0.7396
  C  C248  1  0.901500  0.907800  0.890000  1.0  0.4596
  C  C249  1  0.592570  0.676130  0.688930  1.0  0.0598
  C  C250  1  0.511900  0.651600  0.692400  1.0  -0.0888
  C  C251  1  0.482500  0.652400  0.644800  1.0  -0.0725
  C  C252  1  0.532920  0.681880  0.592080  1.0  -0.1303
  C  C253  1  0.613250  0.709950  0.587550  1.0  -0.1238
  C  C254  1  0.642890  0.704710  0.636510  1.0  -0.1238
  C  C255  1  0.630390  0.670110  0.739710  1.0  0.057
  C  C256  1  0.564030  0.668070  0.789070  1.0  -0.0932
  C  C257  1  0.735130  0.662970  0.739170  1.0  -0.0941
  C  C258  1  0.778270  0.653030  0.787630  1.0  -0.0718
  C  C259  1  0.598080  0.660720  0.837520  1.0  -0.1745
  C  C260  1  0.709040  0.651960  0.837360  1.0  0.0092
  C  C261  1  0.896380  0.638920  0.792120  1.0  -0.0519
  C  C262  1  0.975440  0.630660  0.744260  1.0  0.0522
  C  C263  1  0.995910  0.671390  0.690790  1.0  -0.1338
  C  C264  1  0.072100  0.657700  0.649900  1.0  -0.032
  C  C265  1  0.127820  0.603380  0.662380  1.0  -0.118
  C  C266  1  0.107350  0.562650  0.715850  1.0  -0.0754
  C  C267  1  0.031200  0.576300  0.756700  1.0  -0.1848
  C  C268  1  0.928800  0.631700  0.837700  1.0  -0.1345
  C  C269  1  0.853840  0.635060  0.887060  1.0  0.1959
  C  C270  1  0.746790  0.643010  0.887010  1.0  0.0104
  C  C271  1  0.639170  0.867630  0.061030  1.0  -0.0574
  C  C272  1  0.536540  0.878460  0.088860  1.0  -0.1174
  C  C273  1  0.659670  0.828530  0.035730  1.0  -0.0903
  C  C274  1  0.579720  0.801280  0.038680  1.0  0.006
  C  C275  1  0.478030  0.813070  0.067670  1.0  -0.1112
  C  C276  1  0.454050  0.850950  0.092150  1.0  -0.0529
  C  C277  1  0.601530  0.757070  0.014070  1.0  0.056
  C  C278  1  0.674700  0.763700  0.963700  1.0  -0.1185
  C  C279  1  0.694570  0.725230  0.939830  1.0  -0.1186
  C  C280  1  0.555000  0.711100  0.039900  1.0  -0.1603
  C  C281  1  0.572490  0.669110  0.016310  1.0  -0.0238
  C  C282  1  0.649300  0.676800  0.965200  1.0  -0.0952
  C  C283  1  0.675160  0.634940  0.942340  1.0  -0.0535
  C  C284  1  0.626270  0.586530  0.971530  1.0  0.2269
  C  C285  1  0.558780  0.580020  0.021620  1.0  -0.1279
  C  C286  1  0.527890  0.620410  0.043210  1.0  -0.0072
  C  C287  1  0.446710  0.609890  0.095290  1.0  0.0951
  C  C288  1  0.348210  0.641790  0.096190  1.0  -0.1522
  C  C289  1  0.464320  0.562980  0.144580  1.0  -0.1639
  C  C290  1  0.269440  0.628660  0.143460  1.0  -0.0689
  C  C291  1  0.388340  0.551860  0.189460  1.0  -0.0819
  C  C292  1  0.285870  0.585330  0.189130  1.0  -0.0894
  C  C293  1  0.997700  0.629000  0.933000  1.0  0.0504
  C  C294  1  0.011000  0.690000  0.909000  1.0  -0.3398
  C  C295  1  0.622610  0.494790  0.976790  1.0  0.0479
  C  C296  1  0.523300  0.507600  0.963400  1.0  -0.3737
  C  C297  1  0.199580  0.569120  0.240520  1.0  0.6972
  C  C298  1  0.510700  0.924500  0.113700  1.0  0.6472
  C  C299  1  0.498870  0.684030  0.541430  1.0  0.7411
  C  C300  1  0.199300  0.592200  0.610000  1.0  0.4602
  C  C301  1  0.042370  0.188930  0.176130  1.0  0.0624
  C  C302  1  0.144100  0.192400  0.151600  1.0  -0.0859
  C  C303  1  0.220300  0.144800  0.152400  1.0  -0.07
  C  C304  1  0.193120  0.092080  0.181880  1.0  -0.1265
  C  C305  1  0.089250  0.087550  0.209950  1.0  -0.1228
  C  C306  1  0.015890  0.136510  0.204710  1.0  -0.1212
  C  C307  1  0.959790  0.239710  0.170110  1.0  0.0584
  C  C308  1  0.978830  0.289070  0.168070  1.0  -0.0931
  C  C309  1  0.862730  0.239170  0.162970  1.0  -0.0925
  C  C310  1  0.781070  0.287630  0.153030  1.0  -0.0726
  C  C311  1  0.903680  0.337520  0.160720  1.0  -0.1742
  C  C312  1  0.801640  0.337360  0.151960  1.0  0.0092
  C  C313  1  0.672580  0.292120  0.138920  1.0  -0.0512
  C  C314  1  0.649640  0.244260  0.130660  1.0  0.0514
  C  C315  1  0.641910  0.190790  0.171390  1.0  -0.1329
  C  C316  1  0.620300  0.149900  0.157700  1.0  -0.0304
  C  C317  1  0.606420  0.162380  0.103380  1.0  -0.1168
  C  C318  1  0.614150  0.215850  0.062650  1.0  -0.0807
  C  C319  1  0.635800  0.256700  0.076300  1.0  -0.1848
  C  C320  1  0.601800  0.337700  0.131700  1.0  -0.1342
  C  C321  1  0.624040  0.387060  0.135060  1.0  0.2008
  C  C322  1  0.723190  0.387010  0.143010  1.0  0.0098
  C  C323  1  0.432170  0.561030  0.367630  1.0  -0.0587
  C  C324  1  0.496140  0.588860  0.378460  1.0  -0.1158
  C  C325  1  0.476070  0.535730  0.328530  1.0  -0.0924
  C  C326  1  0.580320  0.538680  0.301280  1.0  0.0086
  C  C327  1  0.641230  0.567670  0.313070  1.0  -0.1091
  C  C328  1  0.602850  0.592150  0.350950  1.0  -0.0517
  C  C329  1  0.627330  0.514070  0.257070  1.0  0.0562
  C  C330  1  0.597900  0.463700  0.263700  1.0  -0.1155
  C  C331  1  0.640370  0.439830  0.225230  1.0  -0.114
  C  C332  1  0.694000  0.539900  0.211100  1.0  -0.1627
  C  C333  1  0.742090  0.516310  0.169110  1.0  -0.0206
  C  C334  1  0.708700  0.465200  0.176800  1.0  -0.0933
  C  C335  1  0.747560  0.442340  0.134940  1.0  -0.0515
  C  C336  1  0.815670  0.471530  0.086530  1.0  0.2275
  C  C337  1  0.839580  0.521620  0.080020  1.0  -0.124
  C  C338  1  0.808490  0.543210  0.120410  1.0  -0.0029
  C  C339  1  0.848110  0.595290  0.109890  1.0  0.0954
  C  C340  1  0.913810  0.596190  0.141790  1.0  -0.1552
  C  C341  1  0.828120  0.644580  0.062980  1.0  -0.1667
  C  C342  1  0.958440  0.643460  0.128660  1.0  -0.0658
  C  C343  1  0.870340  0.689460  0.051860  1.0  -0.092
  C  C344  1  0.939670  0.689130  0.085330  1.0  -0.0879
  C  C345  1  0.440300  0.433000  0.129000  1.0  0.0518
  C  C346  1  0.390000  0.409000  0.190000  1.0  -0.3385
  C  C347  1  0.905810  0.476790  0.994790  1.0  0.0585
  C  C348  1  0.005700  0.463400  0.007600  1.0  -0.3681
  C  C349  1  0.990780  0.740520  0.069120  1.0  0.6993
  C  C350  1  0.451100  0.613700  0.424500  1.0  0.6473
  C  C351  1  0.275670  0.041430  0.184030  1.0  0.7389
  C  C352  1  0.598500  0.110000  0.092200  1.0  0.4614
  O  O353  1  0.837070  0.053030  0.452430  1.0  -0.3181
  O  O354  1  0.612020  0.065380  0.375780  1.0  -0.2533
  O  O355  1  0.394150  0.766920  0.406580  1.0  -0.5773
  O  O356  1  0.270690  0.715010  0.466610  1.0  -0.6154
  O  O357  1  0.949420  0.504780  0.291380  1.0  -0.5853
  O  O358  1  0.075960  0.450840  0.340840  1.0  -0.6468
  O  O359  1  0.917000  0.891900  0.050100  1.0  -0.5642
  O  O360  1  0.086420  0.861280  0.068880  1.0  -0.6435
  O  O361  1  0.290300  0.434000  0.373000  1.0  -0.5472
  O  O362  1  0.218400  0.370100  0.451700  1.0  -0.4736
  O  O363  1  0.657470  0.952430  0.553030  1.0  -0.3195
  O  O364  1  0.946820  0.875780  0.565380  1.0  -0.2518
  O  O365  1  0.432350  0.906580  0.266920  1.0  -0.576
  O  O366  1  0.547690  0.966610  0.215010  1.0  -0.6118
  O  O367  1  0.254420  0.791380  0.004780  1.0  -0.5865
  O  O368  1  0.132360  0.840840  0.950840  1.0  -0.6487
  O  O369  1  0.141000  0.550100  0.391900  1.0  -0.5637
  O  O370  1  0.983420  0.568880  0.361280  1.0  -0.6457
  O  O371  1  0.902700  0.873000  0.934000  1.0  -0.551
  O  O372  1  0.959800  0.951700  0.870100  1.0  -0.4903
  O  O373  1  0.662930  0.547570  0.946970  1.0  -0.3162
  O  O374  1  0.887980  0.624220  0.934620  1.0  -0.2553
  O  O375  1  0.105850  0.593420  0.233080  1.0  -0.578
  O  O376  1  0.229310  0.533390  0.284990  1.0  -0.6161
  O  O377  1  0.550580  0.708620  0.495220  1.0  -0.585
  O  O378  1  0.424040  0.659160  0.549160  1.0  -0.6474
  O  O379  1  0.583000  0.949900  0.108100  1.0  -0.5659
  O  O380  1  0.413580  0.931120  0.138720  1.0  -0.6446
  O  O381  1  0.209700  0.627000  0.566000  1.0  -0.5489
  O  O382  1  0.281600  0.548300  0.629900  1.0  -0.4816
  O  O383  1  0.842530  0.446970  0.047570  1.0  -0.3187
  O  O384  1  0.553180  0.434620  0.124220  1.0  -0.2516
  O  O385  1  0.067650  0.733080  0.093420  1.0  -0.5751
  O  O386  1  0.952310  0.784990  0.033390  1.0  -0.6135
  O  O387  1  0.245580  0.995220  0.208620  1.0  -0.586
  O  O388  1  0.367640  0.049160  0.159160  1.0  -0.6442
  O  O389  1  0.359000  0.608100  0.449900  1.0  -0.5647
  O  O390  1  0.516580  0.638720  0.431120  1.0  -0.6443
  O  O391  1  0.597300  0.066000  0.127000  1.0  -0.5442
  O  O392  1  0.540200  0.129900  0.048300  1.0  -0.4898
