# generated using pymatgen
data_ZnH13C24O5
_symmetry_space_group_name_H-M   'P 1'
_cell_length_a   12.75260000
_cell_length_b   26.64650000
_cell_length_c   26.64650000
_cell_angle_alpha   60.64680000
_cell_angle_beta   76.15520000
_cell_angle_gamma   76.15540000
_symmetry_Int_Tables_number   1
_chemical_formula_structural   ZnH13C24O5
_chemical_formula_sum   'Zn8 H104 C192 O40'
_cell_volume   7582.97809858
_cell_formula_units_Z   8
loop_
 _symmetry_equiv_pos_site_id
 _symmetry_equiv_pos_as_xyz
  1  'x, y, z'
loop_
 _atom_site_type_symbol
 _atom_site_label
 _atom_site_symmetry_multiplicity
 _atom_site_fract_x
 _atom_site_fract_y
 _atom_site_fract_z
 _atom_site_occupancy
 _atom_site_charge
  Zn  Zn1  1  0.347550  0.526440  0.618540  1.0  1.0566
  Zn  Zn2  1  0.532380  0.431900  0.697720  1.0  0.7481
  Zn  Zn3  1  0.507470  0.118540  0.026440  1.0  1.0542
  Zn  Zn4  1  0.338000  0.197720  0.931900  1.0  0.7477
  Zn  Zn5  1  0.152450  0.381460  0.473560  1.0  1.0518
  Zn  Zn6  1  0.967620  0.302280  0.568100  1.0  0.7469
  Zn  Zn7  1  0.992530  0.973560  0.881460  1.0  1.0548
  Zn  Zn8  1  0.162000  0.068100  0.802280  1.0  0.7471
  H  H9  1  0.839900  0.963300  0.644500  1.0  0.3853
  H  H10  1  0.606000  0.978600  0.529600  1.0  0.4403
  H  H11  1  0.660600  0.553800  0.722800  1.0  0.1142
  H  H12  1  0.711100  0.634100  0.719500  1.0  0.099
  H  H13  1  0.477600  0.740900  0.622300  1.0  0.1171
  H  H14  1  0.426400  0.663400  0.624200  1.0  0.1022
  H  H15  1  0.796200  0.715300  0.663300  1.0  0.09
  H  H16  1  0.010100  0.846700  0.640100  1.0  0.1146
  H  H17  1  0.548900  0.870800  0.669800  1.0  0.1012
  H  H18  1  0.486300  0.791500  0.677700  1.0  0.1289
  H  H19  1  0.027800  0.816500  0.548300  1.0  0.1248
  H  H20  1  0.171100  0.753100  0.523900  1.0  0.1231
  H  H21  1  0.098600  0.618300  0.683500  1.0  0.1081
  H  H22  1  0.972300  0.685000  0.712000  1.0  0.0866
  H  H23  1  0.510100  0.048400  0.553600  1.0  0.1169
  H  H24  1  0.503200  0.076300  0.712500  1.0  0.1105
  H  H25  1  0.712200  0.940900  0.810700  1.0  0.1171
  H  H26  1  0.750700  0.907300  0.742900  1.0  0.109
  H  H27  1  0.323800  0.068500  0.689100  1.0  0.1139
  H  H28  1  0.189200  0.149900  0.661500  1.0  0.1069
  H  H29  1  0.383600  0.233700  0.510100  1.0  0.0967
  H  H30  1  0.517300  0.153200  0.535800  1.0  0.1064
  H  H31  1  0.424700  0.067700  0.800900  1.0  0.1139
  H  H32  1  0.384200  0.100600  0.872800  1.0  0.1151
  H  H33  1  0.699700  0.048200  0.900800  1.0  0.1058
  H  H34  1  0.738600  0.017800  0.828400  1.0  0.1021
  H  H35  1  0.552300  0.144500  0.463300  1.0  0.3848
  H  H36  1  0.885800  0.029600  0.478600  1.0  0.4421
  H  H37  1  0.062800  0.222800  0.053800  1.0  0.114
  H  H38  1  0.935300  0.219500  0.134100  1.0  0.0991
  H  H39  1  0.159200  0.122300  0.240900  1.0  0.1169
  H  H40  1  0.286000  0.124200  0.163400  1.0  0.1032
  H  H41  1  0.825200  0.163300  0.215300  1.0  0.0921
  H  H42  1  0.503100  0.140100  0.346700  1.0  0.1148
  H  H43  1  0.910500  0.169800  0.370800  1.0  0.1034
  H  H44  1  0.044500  0.177700  0.291500  1.0  0.1305
  H  H45  1  0.607400  0.048300  0.316500  1.0  0.1253
  H  H46  1  0.551900  0.023900  0.253100  1.0  0.1184
  H  H47  1  0.599600  0.183500  0.118300  1.0  0.1075
  H  H48  1  0.630700  0.212000  0.185000  1.0  0.086
  H  H49  1  0.887900  0.053600  0.548400  1.0  0.1162
  H  H50  1  0.708000  0.212500  0.576300  1.0  0.1094
  H  H51  1  0.536200  0.310700  0.440900  1.0  0.1171
  H  H52  1  0.599100  0.242900  0.407300  1.0  0.1107
  H  H53  1  0.918600  0.189100  0.568500  1.0  0.1141
  H  H54  1  0.999400  0.161500  0.649900  1.0  0.107
  H  H55  1  0.872600  0.010100  0.733700  1.0  0.0967
  H  H56  1  0.793700  0.035800  0.653200  1.0  0.1058
  H  H57  1  0.706700  0.300900  0.567700  1.0  0.1159
  H  H58  1  0.642400  0.372800  0.600600  1.0  0.1159
  H  H59  1  0.351300  0.400800  0.548200  1.0  0.1047
  H  H60  1  0.415200  0.328400  0.517800  1.0  0.1011
  H  H61  1  0.660100  0.355500  0.036700  1.0  0.3858
  H  H62  1  0.894000  0.470400  0.021400  1.0  0.4407
  H  H63  1  0.839400  0.277200  0.446200  1.0  0.1145
  H  H64  1  0.788900  0.280500  0.365900  1.0  0.0997
  H  H65  1  0.022400  0.377700  0.259100  1.0  0.117
  H  H66  1  0.073600  0.375800  0.336600  1.0  0.1025
  H  H67  1  0.703800  0.336700  0.284700  1.0  0.0902
  H  H68  1  0.489900  0.359900  0.153300  1.0  0.1167
  H  H69  1  0.951100  0.330200  0.129200  1.0  0.1015
  H  H70  1  0.013700  0.322300  0.208500  1.0  0.129
  H  H71  1  0.472200  0.451700  0.183500  1.0  0.1264
  H  H72  1  0.328900  0.476100  0.246900  1.0  0.125
  H  H73  1  0.401400  0.316500  0.381700  1.0  0.1081
  H  H74  1  0.527700  0.288000  0.315000  1.0  0.0864
  H  H75  1  0.989900  0.446400  0.951600  1.0  0.117
  H  H76  1  0.996800  0.287500  0.923700  1.0  0.1105
  H  H77  1  0.787800  0.189300  0.059100  1.0  0.1162
  H  H78  1  0.749300  0.257100  0.092700  1.0  0.1076
  H  H79  1  0.176200  0.310900  0.931500  1.0  0.113
  H  H80  1  0.310800  0.338500  0.850100  1.0  0.1064
  H  H81  1  0.116400  0.489900  0.766300  1.0  0.098
  H  H82  1  0.982700  0.464200  0.846800  1.0  0.1054
  H  H83  1  0.075300  0.199100  0.932300  1.0  0.1154
  H  H84  1  0.115800  0.127200  0.899400  1.0  0.1151
  H  H85  1  0.800300  0.099200  0.951800  1.0  0.1051
  H  H86  1  0.761400  0.171600  0.982200  1.0  0.1006
  H  H87  1  0.947700  0.536700  0.855500  1.0  0.3852
  H  H88  1  0.614200  0.521400  0.970400  1.0  0.4407
  H  H89  1  0.437200  0.946200  0.777200  1.0  0.1126
  H  H90  1  0.564700  0.865900  0.780500  1.0  0.0989
  H  H91  1  0.340800  0.759100  0.877700  1.0  0.1169
  H  H92  1  0.214000  0.836600  0.875800  1.0  0.103
  H  H93  1  0.674800  0.784700  0.836700  1.0  0.0884
  H  H94  1  0.996900  0.653300  0.859900  1.0  0.1154
  H  H95  1  0.589500  0.629200  0.830200  1.0  0.1013
  H  H96  1  0.455500  0.708500  0.822300  1.0  0.1298
  H  H97  1  0.892600  0.683500  0.951700  1.0  0.1251
  H  H98  1  0.948100  0.746900  0.976100  1.0  0.1175
  H  H99  1  0.900400  0.881700  0.816500  1.0  0.108
  H  H100  1  0.869300  0.815000  0.788000  1.0  0.0875
  H  H101  1  0.612100  0.451600  0.946400  1.0  0.1163
  H  H102  1  0.792000  0.423700  0.787500  1.0  0.11
  H  H103  1  0.963800  0.559100  0.689300  1.0  0.1161
  H  H104  1  0.900900  0.592700  0.757100  1.0  0.1079
  H  H105  1  0.581400  0.431500  0.810900  1.0  0.1142
  H  H106  1  0.500600  0.350100  0.838500  1.0  0.1076
  H  H107  1  0.627400  0.266300  0.989900  1.0  0.0977
  H  H108  1  0.706300  0.346800  0.964200  1.0  0.107
  H  H109  1  0.793300  0.432300  0.699100  1.0  0.1163
  H  H110  1  0.857600  0.399400  0.627200  1.0  0.115
  H  H111  1  0.148700  0.451800  0.599200  1.0  0.1054
  H  H112  1  0.084800  0.482200  0.671600  1.0  0.1011
  C  C113  1  0.511500  0.551400  0.669000  1.0  0.7486
  C  C114  1  0.539290  0.601110  0.670510  1.0  -0.1152
  C  C115  1  0.623990  0.591810  0.701610  1.0  -0.1397
  C  C116  1  0.652380  0.640220  0.700020  1.0  -0.1279
  C  C117  1  0.600060  0.696040  0.671840  1.0  0.0722
  C  C118  1  0.515490  0.702910  0.642910  1.0  -0.1217
  C  C119  1  0.485990  0.656810  0.643410  1.0  -0.0571
  C  C120  1  0.638310  0.745690  0.667890  1.0  0.0552
  C  C121  1  0.745540  0.747860  0.663260  1.0  -0.0831
  C  C122  1  0.787820  0.794280  0.658280  1.0  0.0258
  C  C123  1  0.900640  0.799660  0.647460  1.0  -0.0216
  C  C124  1  0.934250  0.846050  0.644250  1.0  -0.1311
  C  C125  1  0.858810  0.892990  0.646790  1.0  0.2518
  C  C126  1  0.749080  0.892820  0.653620  1.0  0.0132
  C  C127  1  0.712270  0.842930  0.660330  1.0  0.0016
  C  C128  1  0.600810  0.839490  0.667690  1.0  -0.0743
  C  C129  1  0.562470  0.792230  0.672030  1.0  -0.1677
  C  C130  1  0.984710  0.755090  0.635290  1.0  0.0161
  C  C131  1  0.044040  0.776960  0.575960  1.0  -0.1119
  C  C132  1  0.125010  0.739090  0.560290  1.0  -0.0646
  C  C133  1  0.135690  0.678110  0.601510  1.0  -0.1166
  C  C134  1  0.084570  0.658230  0.656230  1.0  -0.0584
  C  C135  1  0.007890  0.698710  0.672910  1.0  -0.1112
  C  C136  1  0.668610  0.946090  0.645890  1.0  -0.0098
  C  C137  1  0.621760  0.976540  0.596740  1.0  0.1916
  C  C138  1  0.543900  0.028200  0.587800  1.0  -0.1317
  C  C139  1  0.518640  0.048060  0.627460  1.0  0.0115
  C  C140  1  0.569320  0.020580  0.677980  1.0  -0.0016
  C  C141  1  0.552400  0.041500  0.718700  1.0  -0.1392
  C  C142  1  0.604360  0.013540  0.767940  1.0  0.0297
  C  C143  1  0.677510  0.961590  0.776790  1.0  -0.1486
  C  C144  1  0.215200  0.634400  0.583000  1.0  0.6258
  C  C145  1  0.698450  0.941150  0.736950  1.0  -0.1164
  C  C146  1  0.645590  0.968210  0.687410  1.0  -0.025
  C  C147  1  0.435350  0.102150  0.614150  1.0  0.0281
  C  C148  1  0.335740  0.101760  0.652760  1.0  -0.1149
  C  C149  1  0.256630  0.150570  0.636570  1.0  -0.0256
  C  C150  1  0.274850  0.201150  0.583750  1.0  -0.1619
  C  C151  1  0.371840  0.200360  0.546560  1.0  -0.0209
  C  C152  1  0.450970  0.152230  0.561630  1.0  -0.1441
  C  C153  1  0.188500  0.251400  0.566000  1.0  0.7238
  C  C154  1  0.480160  0.062840  0.821840  1.0  -0.1496
  C  C155  1  0.583530  0.035470  0.811470  1.0  0.0029
  C  C156  1  0.456400  0.083900  0.863900  1.0  -0.0775
  C  C157  1  0.540440  0.079960  0.891960  1.0  -0.0256
  C  C158  1  0.643500  0.053100  0.880300  1.0  -0.0347
  C  C159  1  0.666070  0.033090  0.838370  1.0  -0.1368
  C  C160  1  0.514920  0.099880  0.935280  1.0  0.6774
  C  C161  1  0.268100  0.169000  0.051400  1.0  0.7484
  C  C162  1  0.189090  0.170510  0.101110  1.0  -0.1191
  C  C163  1  0.082590  0.201610  0.091810  1.0  -0.1429
  C  C164  1  0.007380  0.200020  0.140220  1.0  -0.1312
  C  C165  1  0.032060  0.171840  0.196040  1.0  0.0727
  C  C166  1  0.138690  0.142910  0.202910  1.0  -0.1181
  C  C167  1  0.213790  0.143410  0.156810  1.0  -0.057
  C  C168  1  0.948110  0.167890  0.245690  1.0  0.0551
  C  C169  1  0.843340  0.163260  0.247860  1.0  -0.0826
  C  C170  1  0.759620  0.158280  0.294280  1.0  0.0245
  C  C171  1  0.652240  0.147460  0.299660  1.0  -0.0275
  C  C172  1  0.575450  0.144250  0.346050  1.0  -0.1314
  C  C173  1  0.601410  0.146790  0.392990  1.0  0.2519
  C  C174  1  0.704480  0.153620  0.392820  1.0  0.0136
  C  C175  1  0.784470  0.160330  0.342930  1.0  -0.0019
  C  C176  1  0.892010  0.167690  0.339490  1.0  -0.0782
  C  C177  1  0.973270  0.172030  0.292230  1.0  -0.169
  C  C178  1  0.624910  0.135290  0.255090  1.0  0.0164
  C  C179  1  0.603040  0.075960  0.276960  1.0  -0.1072
  C  C180  1  0.575610  0.060290  0.239090  1.0  -0.0637
  C  C181  1  0.584690  0.101510  0.178110  1.0  -0.1153
  C  C182  1  0.600970  0.156230  0.158230  1.0  -0.0588
  C  C183  1  0.620490  0.172910  0.198710  1.0  -0.1123
  C  C184  1  0.739410  0.145890  0.446090  1.0  -0.0076
  C  C185  1  0.804960  0.096740  0.476540  1.0  0.1895
  C  C186  1  0.840100  0.087800  0.528200  1.0  -0.1355
  C  C187  1  0.805840  0.127460  0.548060  1.0  0.0114
  C  C188  1  0.732120  0.177980  0.520580  1.0  1e-04
  C  C189  1  0.687400  0.218700  0.541500  1.0  -0.1388
  C  C190  1  0.614160  0.267940  0.513540  1.0  0.0333
  C  C191  1  0.584110  0.276790  0.461590  1.0  -0.1527
  C  C192  1  0.567400  0.083000  0.134400  1.0  0.624
  C  C193  1  0.623450  0.236950  0.441150  1.0  -0.1183
  C  C194  1  0.698790  0.187410  0.468210  1.0  -0.0258
  C  C195  1  0.848350  0.114150  0.602150  1.0  0.0274
  C  C196  1  0.909740  0.152760  0.601760  1.0  -0.115
  C  C197  1  0.956230  0.136570  0.650570  1.0  -0.0216
  C  C198  1  0.940250  0.083750  0.701150  1.0  -0.1637
  C  C199  1  0.881240  0.046560  0.700360  1.0  -0.022
  C  C200  1  0.835170  0.061630  0.652230  1.0  -0.1407
  C  C201  1  0.994100  0.066000  0.751400  1.0  0.7255
  C  C202  1  0.635160  0.321840  0.562840  1.0  -0.1491
  C  C203  1  0.569530  0.311470  0.535470  1.0  0.0069
  C  C204  1  0.595800  0.363900  0.583900  1.0  -0.0759
  C  C205  1  0.487640  0.391960  0.579960  1.0  -0.0248
  C  C206  1  0.423100  0.380300  0.553100  1.0  -0.0348
  C  C207  1  0.462470  0.338370  0.533090  1.0  -0.1364
  C  C208  1  0.449920  0.435280  0.599880  1.0  0.6787
  C  C209  1  0.988500  0.331000  0.448600  1.0  0.7521
  C  C210  1  0.960710  0.329490  0.398890  1.0  -0.1181
  C  C211  1  0.876010  0.298390  0.408190  1.0  -0.1433
  C  C212  1  0.847620  0.299980  0.359780  1.0  -0.1304
  C  C213  1  0.899940  0.328160  0.303960  1.0  0.0721
  C  C214  1  0.984510  0.357090  0.297090  1.0  -0.1185
  C  C215  1  0.014010  0.356590  0.343190  1.0  -0.0576
  C  C216  1  0.861690  0.332110  0.254310  1.0  0.0551
  C  C217  1  0.754460  0.336740  0.252140  1.0  -0.0833
  C  C218  1  0.712180  0.341720  0.205720  1.0  0.025
  C  C219  1  0.599360  0.352540  0.200340  1.0  -0.0268
  C  C220  1  0.565750  0.355750  0.153950  1.0  -0.1331
  C  C221  1  0.641190  0.353210  0.107010  1.0  0.2535
  C  C222  1  0.750920  0.346380  0.107180  1.0  0.0126
  C  C223  1  0.787730  0.339670  0.157070  1.0  -0.0007
  C  C224  1  0.899190  0.332310  0.160510  1.0  -0.074
  C  C225  1  0.937530  0.327970  0.207770  1.0  -0.1683
  C  C226  1  0.515290  0.364710  0.244910  1.0  0.0167
  C  C227  1  0.455960  0.424040  0.223040  1.0  -0.1109
  C  C228  1  0.374990  0.439710  0.260910  1.0  -0.0641
  C  C229  1  0.364310  0.398490  0.321890  1.0  -0.1165
  C  C230  1  0.415430  0.343770  0.341770  1.0  -0.0595
  C  C231  1  0.492110  0.327090  0.301290  1.0  -0.1141
  C  C232  1  0.831390  0.354110  0.053910  1.0  -0.0067
  C  C233  1  0.878240  0.403260  0.023460  1.0  0.1884
  C  C234  1  0.956100  0.412200  0.971800  1.0  -0.1342
  C  C235  1  0.981360  0.372540  0.951940  1.0  0.0128
  C  C236  1  0.930680  0.322020  0.979420  1.0  -0.0006
  C  C237  1  0.947600  0.281300  0.958500  1.0  -0.1387
  C  C238  1  0.895640  0.232060  0.986460  1.0  0.0327
  C  C239  1  0.822490  0.223210  0.038410  1.0  -0.1514
  C  C240  1  0.284800  0.417000  0.365600  1.0  0.6219
  C  C241  1  0.801550  0.263050  0.058850  1.0  -0.116
  C  C242  1  0.854410  0.312590  0.031790  1.0  -0.0256
  C  C243  1  0.064650  0.385850  0.897850  1.0  0.0274
  C  C244  1  0.164260  0.347240  0.898240  1.0  -0.1129
  C  C245  1  0.243370  0.363430  0.849430  1.0  -0.0236
  C  C246  1  0.225150  0.416250  0.798850  1.0  -0.1624
  C  C247  1  0.128160  0.453440  0.799640  1.0  -0.0222
  C  C248  1  0.049030  0.438370  0.847770  1.0  -0.1408
  C  C249  1  0.311500  0.434000  0.748600  1.0  0.724
  C  C250  1  0.019840  0.178160  0.937160  1.0  -0.1459
  C  C251  1  0.916470  0.188530  0.964530  1.0  0.0028
  C  C252  1  0.043600  0.136100  0.916100  1.0  -0.0781
  C  C253  1  0.959560  0.108040  0.920040  1.0  -0.0257
  C  C254  1  0.856500  0.119700  0.946900  1.0  -0.0343
  C  C255  1  0.833930  0.161630  0.966910  1.0  -0.1374
  C  C256  1  0.985080  0.064720  0.900120  1.0  0.6766
  C  C257  1  0.231900  0.948600  0.831000  1.0  0.7471
  C  C258  1  0.310910  0.898890  0.829490  1.0  -0.1121
  C  C259  1  0.417410  0.908190  0.798390  1.0  -0.1409
  C  C260  1  0.492620  0.859780  0.799980  1.0  -0.1302
  C  C261  1  0.467940  0.803960  0.828160  1.0  0.0743
  C  C262  1  0.361310  0.797090  0.857090  1.0  -0.1194
  C  C263  1  0.286210  0.843190  0.856590  1.0  -0.0565
  C  C264  1  0.551890  0.754310  0.832110  1.0  0.0548
  C  C265  1  0.656660  0.752140  0.836740  1.0  -0.0808
  C  C266  1  0.740380  0.705720  0.841720  1.0  0.0277
  C  C267  1  0.847760  0.700340  0.852540  1.0  -0.0239
  C  C268  1  0.924550  0.653950  0.855750  1.0  -0.131
  C  C269  1  0.898590  0.607010  0.853210  1.0  0.252
  C  C270  1  0.795520  0.607180  0.846380  1.0  0.0145
  C  C271  1  0.715530  0.657070  0.839670  1.0  -0.0004
  C  C272  1  0.607990  0.660510  0.832310  1.0  -0.0739
  C  C273  1  0.526730  0.707770  0.827970  1.0  -0.1669
  C  C274  1  0.875090  0.744910  0.864710  1.0  0.0161
  C  C275  1  0.896960  0.723040  0.924040  1.0  -0.1109
  C  C276  1  0.924390  0.760910  0.939710  1.0  -0.0659
  C  C277  1  0.915310  0.821890  0.898490  1.0  -0.1163
  C  C278  1  0.899030  0.841770  0.843770  1.0  -0.0588
  C  C279  1  0.879510  0.801290  0.827090  1.0  -0.1122
  C  C280  1  0.760590  0.553910  0.854110  1.0  -0.0079
  C  C281  1  0.695040  0.523460  0.903260  1.0  0.1896
  C  C282  1  0.659900  0.471800  0.912200  1.0  -0.1347
  C  C283  1  0.694160  0.451940  0.872540  1.0  0.0108
  C  C284  1  0.767880  0.479420  0.822020  1.0  -0.0014
  C  C285  1  0.812600  0.458500  0.781300  1.0  -0.1398
  C  C286  1  0.885840  0.486460  0.732060  1.0  0.0344
  C  C287  1  0.915890  0.538410  0.723210  1.0  -0.1488
  C  C288  1  0.932600  0.865600  0.917000  1.0  0.6244
  C  C289  1  0.876550  0.558850  0.763050  1.0  -0.117
  C  C290  1  0.801210  0.531790  0.812590  1.0  -0.0251
  C  C291  1  0.651650  0.397850  0.885850  1.0  0.0269
  C  C292  1  0.590260  0.398240  0.847240  1.0  -0.1141
  C  C293  1  0.543770  0.349430  0.863430  1.0  -0.0256
  C  C294  1  0.559750  0.298850  0.916250  1.0  -0.1622
  C  C295  1  0.618760  0.299640  0.953440  1.0  -0.0232
  C  C296  1  0.664830  0.347770  0.938370  1.0  -0.1458
  C  C297  1  0.505900  0.248600  0.934000  1.0  0.7229
  C  C298  1  0.864840  0.437160  0.678160  1.0  -0.1489
  C  C299  1  0.930470  0.464530  0.688530  1.0  0.0064
  C  C300  1  0.904200  0.416100  0.636100  1.0  -0.0761
  C  C301  1  0.012360  0.420040  0.608040  1.0  -0.0257
  C  C302  1  0.076900  0.446900  0.619700  1.0  -0.0343
  C  C303  1  0.037530  0.466910  0.661630  1.0  -0.1341
  C  C304  1  0.050080  0.400120  0.564720  1.0  0.6774
  O  O305  1  0.893800  0.939330  0.641070  1.0  -0.5104
  O  O306  1  0.642460  0.956200  0.556880  1.0  -0.5077
  O  O307  1  0.565720  0.501260  0.695300  1.0  -0.5935
  O  O308  1  0.437390  0.561600  0.641620  1.0  -0.6561
  O  O309  1  0.285660  0.659540  0.534740  1.0  -0.4623
  O  O310  1  0.213050  0.582860  0.613840  1.0  -0.5324
  O  O311  1  0.214340  0.299160  0.523160  1.0  -0.657
  O  O312  1  0.094860  0.246450  0.593830  1.0  -0.5741
  O  O313  1  0.416530  0.120880  0.947660  1.0  -0.6695
  O  O314  1  0.586510  0.095840  0.962140  1.0  -0.5853
  O  O315  1  0.525800  0.141070  0.439330  1.0  -0.5152
  O  O316  1  0.844460  0.056880  0.456200  1.0  -0.5098
  O  O317  1  0.237720  0.195300  0.001260  1.0  -0.5962
  O  O318  1  0.359390  0.141620  0.061600  1.0  -0.6578
  O  O319  1  0.520060  0.034740  0.159540  1.0  -0.4687
  O  O320  1  0.590250  0.113840  0.082860  1.0  -0.5288
  O  O321  1  0.963340  0.023160  0.799160  1.0  -0.6566
  O  O322  1  0.064860  0.093830  0.746450  1.0  -0.575
  O  O323  1  0.514930  0.447660  0.620880  1.0  -0.6707
  O  O324  1  0.355510  0.462140  0.595840  1.0  -0.5858
  O  O325  1  0.606200  0.358930  0.060670  1.0  -0.5115
  O  O326  1  0.857540  0.443120  0.043800  1.0  -0.5131
  O  O327  1  0.934280  0.304700  0.498740  1.0  -0.5942
  O  O328  1  0.062610  0.358380  0.438400  1.0  -0.6595
  O  O329  1  0.214340  0.465260  0.340460  1.0  -0.4648
  O  O330  1  0.286950  0.386160  0.417140  1.0  -0.5308
  O  O331  1  0.285660  0.476840  0.700840  1.0  -0.6575
  O  O332  1  0.405140  0.406170  0.753550  1.0  -0.5765
  O  O333  1  0.083470  0.052340  0.879120  1.0  -0.6678
  O  O334  1  0.913490  0.037860  0.904160  1.0  -0.5882
  O  O335  1  0.974200  0.560670  0.858930  1.0  -0.5131
  O  O336  1  0.655540  0.543800  0.943120  1.0  -0.5126
  O  O337  1  0.262280  0.998740  0.804700  1.0  -0.5964
  O  O338  1  0.140610  0.938400  0.858380  1.0  -0.6563
  O  O339  1  0.979940  0.840460  0.965260  1.0  -0.4533
  O  O340  1  0.909750  0.917140  0.886160  1.0  -0.5331
  O  O341  1  0.536660  0.200840  0.976840  1.0  -0.6578
  O  O342  1  0.435140  0.253550  0.906170  1.0  -0.5739
  O  O343  1  0.985070  0.379120  0.552340  1.0  -0.6696
  O  O344  1  0.144490  0.404160  0.537860  1.0  -0.5887
