# generated using pymatgen
data_Ni2MoH60C32(N5O)4
_symmetry_space_group_name_H-M   'P 1'
_cell_length_a   15.22460000
_cell_length_b   15.22460000
_cell_length_c   16.68600000
_cell_angle_alpha   106.34200000
_cell_angle_beta   106.34200000
_cell_angle_gamma   110.90700000
_symmetry_Int_Tables_number   1
_chemical_formula_structural   Ni2MoH60C32(N5O)4
_chemical_formula_sum   'Ni4 Mo2 H120 C64 N40 O8'
_cell_volume   3136.86504255
_cell_formula_units_Z   2
loop_
 _symmetry_equiv_pos_site_id
 _symmetry_equiv_pos_as_xyz
  1  'x, y, z'
loop_
 _atom_site_type_symbol
 _atom_site_label
 _atom_site_symmetry_multiplicity
 _atom_site_fract_x
 _atom_site_fract_y
 _atom_site_fract_z
 _atom_site_occupancy
 _atom_site_charge
  Ni  Ni1  1  0.000000  0.500000  0.000000  1.0  0.466
  Ni  Ni2  1  0.500000  0.000000  0.500000  1.0  0.466
  Ni  Ni3  1  0.000000  0.000000  0.500000  1.0  0.4925
  Ni  Ni4  1  0.000000  0.000000  0.000000  1.0  0.4925
  Mo  Mo5  1  0.871290  0.128710  0.750000  1.0  -0.1333
  Mo  Mo6  1  0.128710  0.871290  0.250000  1.0  -0.1348
  H  H7  1  0.128300  0.422100  0.901500  1.0  0.0735
  H  H8  1  0.238500  0.519500  0.965700  1.0  0.0713
  H  H9  1  0.097100  0.352700  0.018000  1.0  0.0937
  H  H10  1  0.215200  0.427200  0.081000  1.0  0.0545
  H  H11  1  0.006100  0.396500  0.189700  1.0  0.0732
  H  H12  1  0.968800  0.331400  0.084000  1.0  0.0827
  H  H13  1  0.168600  0.630200  0.955700  1.0  0.087
  H  H14  1  0.140400  0.554600  0.855500  1.0  0.0747
  H  H15  1  0.838400  0.026200  0.404500  1.0  0.0859
  H  H16  1  0.793900  0.961900  0.298000  1.0  0.0693
  H  H17  1  0.752400  0.860200  0.411100  1.0  0.0671
  H  H18  1  0.725900  0.785100  0.310700  1.0  0.0661
  H  H19  1  0.878100  0.748700  0.528900  1.0  0.066
  H  H20  1  0.850200  0.840000  0.545800  1.0  0.0856
  H  H21  1  0.942500  0.101900  0.327800  1.0  0.0652
  H  H22  1  0.982600  0.021200  0.334000  1.0  0.0947
  H  H23  1  0.152600  0.544400  0.264300  1.0  0.0912
  H  H24  1  0.219900  0.584300  0.214000  1.0  0.0619
  H  H25  1  0.260200  0.479400  0.323100  1.0  0.0663
  H  H26  1  0.325500  0.513300  0.269300  1.0  0.0222
  H  H27  1  0.872500  0.663700  0.397300  1.0  0.0813
  H  H28  1  0.897600  0.732800  0.344900  1.0  0.0639
  H  H29  1  0.697300  0.569500  0.280400  1.0  0.0596
  H  H30  1  0.737300  0.630300  0.225100  1.0  0.0401
  H  H31  1  0.190400  0.563400  0.072900  1.0  0.2397
  H  H32  1  0.978000  0.459600  0.836200  1.0  0.2649
  H  H33  1  0.893700  0.877300  0.332800  1.0  0.2691
  H  H34  1  0.977500  0.152700  0.483400  1.0  0.2753
  H  H35  1  0.408600  0.654600  0.364000  1.0  0.3335
  H  H36  1  0.853400  0.574400  0.231500  1.0  0.3474
  H  H37  1  0.577900  0.871700  0.598500  1.0  0.0762
  H  H38  1  0.480500  0.761500  0.534300  1.0  0.0691
  H  H39  1  0.647300  0.902900  0.482000  1.0  0.0942
  H  H40  1  0.572800  0.784800  0.419000  1.0  0.0564
  H  H41  1  0.603500  0.993900  0.310300  1.0  0.0719
  H  H42  1  0.668600  0.031200  0.416000  1.0  0.0818
  H  H43  1  0.369800  0.831400  0.544300  1.0  0.0876
  H  H44  1  0.445400  0.859600  0.644500  1.0  0.0749
  H  H45  1  0.973800  0.161600  0.095500  1.0  0.0863
  H  H46  1  0.038100  0.206100  0.202000  1.0  0.0735
  H  H47  1  0.139800  0.247600  0.088900  1.0  0.0668
  H  H48  1  0.214900  0.274100  0.189300  1.0  0.0645
  H  H49  1  0.251300  0.121900  0.971100  1.0  0.0646
  H  H50  1  0.160000  0.149800  0.954200  1.0  0.087
  H  H51  1  0.898100  0.057500  0.172200  1.0  0.0685
  H  H52  1  0.978800  0.017400  0.166000  1.0  0.0961
  H  H53  1  0.455600  0.847400  0.235700  1.0  0.0936
  H  H54  1  0.415700  0.780100  0.286000  1.0  0.0642
  H  H55  1  0.520600  0.739800  0.176900  1.0  0.063
  H  H56  1  0.486700  0.674500  0.230700  1.0  0.0252
  H  H57  1  0.336300  0.127500  0.102700  1.0  0.0813
  H  H58  1  0.267200  0.102400  0.155100  1.0  0.0649
  H  H59  1  0.430500  0.302700  0.219600  1.0  0.0548
  H  H60  1  0.369700  0.262700  0.274900  1.0  0.042
  H  H61  1  0.436600  0.809600  0.427100  1.0  0.2386
  H  H62  1  0.540400  0.022000  0.663800  1.0  0.2638
  H  H63  1  0.122700  0.106300  0.167200  1.0  0.2682
  H  H64  1  0.847300  0.022500  0.016600  1.0  0.2806
  H  H65  1  0.345400  0.591400  0.136000  1.0  0.3301
  H  H66  1  0.425600  0.146600  0.268500  1.0  0.3514
  H  H67  1  0.871700  0.577900  0.098500  1.0  0.0761
  H  H68  1  0.761500  0.480500  0.034300  1.0  0.0711
  H  H69  1  0.902900  0.647300  0.982000  1.0  0.0926
  H  H70  1  0.784800  0.572800  0.919000  1.0  0.0531
  H  H71  1  0.993900  0.603500  0.810300  1.0  0.0739
  H  H72  1  0.031200  0.668600  0.916000  1.0  0.0824
  H  H73  1  0.831400  0.369800  0.044300  1.0  0.0864
  H  H74  1  0.859600  0.445400  0.144500  1.0  0.075
  H  H75  1  0.161600  0.973800  0.595500  1.0  0.0848
  H  H76  1  0.206100  0.038100  0.702000  1.0  0.0773
  H  H77  1  0.247600  0.139800  0.588900  1.0  0.0674
  H  H78  1  0.274100  0.214900  0.689300  1.0  0.0647
  H  H79  1  0.121900  0.251300  0.471100  1.0  0.0654
  H  H80  1  0.149800  0.160000  0.454200  1.0  0.085
  H  H81  1  0.057500  0.898100  0.672200  1.0  0.0651
  H  H82  1  0.017400  0.978800  0.666000  1.0  0.0962
  H  H83  1  0.847400  0.455600  0.735700  1.0  0.0923
  H  H84  1  0.780100  0.415700  0.786000  1.0  0.066
  H  H85  1  0.739800  0.520600  0.676900  1.0  0.0628
  H  H86  1  0.674500  0.486700  0.730700  1.0  0.0203
  H  H87  1  0.127500  0.336300  0.602700  1.0  0.0812
  H  H88  1  0.102400  0.267200  0.655100  1.0  0.0645
  H  H89  1  0.302700  0.430500  0.719600  1.0  0.0552
  H  H90  1  0.262700  0.369700  0.774900  1.0  0.042
  H  H91  1  0.809600  0.436600  0.927100  1.0  0.2389
  H  H92  1  0.022000  0.540400  0.163800  1.0  0.264
  H  H93  1  0.106300  0.122700  0.667200  1.0  0.2682
  H  H94  1  0.022500  0.847300  0.516600  1.0  0.2823
  H  H95  1  0.591400  0.345400  0.636000  1.0  0.3308
  H  H96  1  0.146600  0.425600  0.768500  1.0  0.3498
  H  H97  1  0.422100  0.128300  0.401500  1.0  0.0757
  H  H98  1  0.519500  0.238500  0.465700  1.0  0.069
  H  H99  1  0.352700  0.097100  0.518000  1.0  0.0927
  H  H100  1  0.427200  0.215200  0.581000  1.0  0.0567
  H  H101  1  0.396500  0.006100  0.689700  1.0  0.0717
  H  H102  1  0.331400  0.968800  0.584000  1.0  0.0802
  H  H103  1  0.630200  0.168600  0.455700  1.0  0.0868
  H  H104  1  0.554600  0.140400  0.355500  1.0  0.0744
  H  H105  1  0.026200  0.838400  0.904500  1.0  0.0849
  H  H106  1  0.961900  0.793900  0.798000  1.0  0.0723
  H  H107  1  0.860200  0.752400  0.911100  1.0  0.0663
  H  H108  1  0.785100  0.725900  0.810700  1.0  0.0662
  H  H109  1  0.748700  0.878100  0.028900  1.0  0.064
  H  H110  1  0.840000  0.850200  0.045800  1.0  0.0853
  H  H111  1  0.101900  0.942500  0.827800  1.0  0.0616
  H  H112  1  0.021200  0.982600  0.834000  1.0  0.0953
  H  H113  1  0.544400  0.152600  0.764300  1.0  0.0918
  H  H114  1  0.584300  0.219900  0.714000  1.0  0.0603
  H  H115  1  0.479400  0.260200  0.823100  1.0  0.0656
  H  H116  1  0.513300  0.325500  0.769300  1.0  0.0246
  H  H117  1  0.663700  0.872500  0.897300  1.0  0.0809
  H  H118  1  0.732800  0.897600  0.844900  1.0  0.0639
  H  H119  1  0.569500  0.697300  0.780400  1.0  0.0618
  H  H120  1  0.630300  0.737300  0.725100  1.0  0.0422
  H  H121  1  0.563400  0.190400  0.572900  1.0  0.2407
  H  H122  1  0.459600  0.978000  0.336200  1.0  0.264
  H  H123  1  0.877300  0.893700  0.832800  1.0  0.2692
  H  H124  1  0.152700  0.977500  0.983400  1.0  0.2789
  H  H125  1  0.654600  0.408600  0.864000  1.0  0.3292
  H  H126  1  0.574400  0.853400  0.731500  1.0  0.3506
  C  C127  1  0.902350  0.266250  0.855900  1.0  0.1261
  C  C128  1  0.921160  0.255440  0.713800  1.0  0.1737
  C  C129  1  0.894170  0.070030  0.629400  1.0  0.1502
  C  C130  1  0.814720  0.963880  0.701800  1.0  0.1309
  C  C131  1  0.164530  0.493470  0.947600  1.0  0.0018
  C  C132  1  0.146640  0.421760  0.066300  1.0  0.1269
  C  C133  1  0.014220  0.399780  0.134800  1.0  0.1351
  C  C134  1  0.128760  0.558240  0.910300  1.0  -0.0065
  C  C135  1  0.851640  0.989360  0.356300  1.0  -0.0139
  C  C136  1  0.779680  0.827120  0.373400  1.0  0.1464
  C  C137  1  0.879650  0.805150  0.512200  1.0  0.1271
  C  C138  1  0.951850  0.060150  0.359700  1.0  -0.0024
  C  C139  1  0.193900  0.529300  0.232900  1.0  -0.0374
  C  C140  1  0.285490  0.531310  0.300800  1.0  0.1434
  C  C141  1  0.843340  0.692460  0.358700  1.0  -0.0273
  C  C142  1  0.757400  0.604400  0.270300  1.0  0.1571
  C  C143  1  0.733750  0.097650  0.644100  1.0  0.1248
  C  C144  1  0.744560  0.078840  0.786200  1.0  0.173
  C  C145  1  0.929970  0.105830  0.870600  1.0  0.15
  C  C146  1  0.036120  0.185280  0.798200  1.0  0.1322
  C  C147  1  0.506530  0.835470  0.552400  1.0  0.0041
  C  C148  1  0.578240  0.853360  0.433700  1.0  0.1281
  C  C149  1  0.600220  0.985780  0.365200  1.0  0.1299
  C  C150  1  0.441760  0.871240  0.589700  1.0  -0.0064
  C  C151  1  0.010640  0.148360  0.143700  1.0  -0.0172
  C  C152  1  0.172880  0.220320  0.126600  1.0  0.1468
  C  C153  1  0.194850  0.120350  0.987800  1.0  0.1101
  C  C154  1  0.939850  0.048150  0.140300  1.0  -0.0059
  C  C155  1  0.470700  0.806100  0.267100  1.0  -0.0328
  C  C156  1  0.468690  0.714510  0.199200  1.0  0.14
  C  C157  1  0.307540  0.156660  0.141300  1.0  -0.0277
  C  C158  1  0.395600  0.242600  0.229700  1.0  0.1492
  C  C159  1  0.097650  0.733750  0.144100  1.0  0.1269
  C  C160  1  0.078840  0.744560  0.286200  1.0  0.174
  C  C161  1  0.105830  0.929970  0.370600  1.0  0.1512
  C  C162  1  0.185280  0.036120  0.298200  1.0  0.1303
  C  C163  1  0.835470  0.506530  0.052400  1.0  0.0022
  C  C164  1  0.853360  0.578240  0.933700  1.0  0.1286
  C  C165  1  0.985780  0.600220  0.865200  1.0  0.1295
  C  C166  1  0.871240  0.441760  0.089700  1.0  -0.0053
  C  C167  1  0.148360  0.010640  0.643700  1.0  -0.0177
  C  C168  1  0.220320  0.172880  0.626600  1.0  0.1461
  C  C169  1  0.120350  0.194850  0.487800  1.0  0.1244
  C  C170  1  0.048150  0.939850  0.640300  1.0  -0.0025
  C  C171  1  0.806100  0.470700  0.767100  1.0  -0.036
  C  C172  1  0.714510  0.468690  0.699200  1.0  0.1314
  C  C173  1  0.156660  0.307540  0.641300  1.0  -0.0266
  C  C174  1  0.242600  0.395600  0.729700  1.0  0.1411
  C  C175  1  0.266250  0.902350  0.355900  1.0  0.1238
  C  C176  1  0.255440  0.921160  0.213800  1.0  0.1728
  C  C177  1  0.070030  0.894170  0.129400  1.0  0.1506
  C  C178  1  0.963880  0.814720  0.201800  1.0  0.1336
  C  C179  1  0.493470  0.164530  0.447600  1.0  0.0055
  C  C180  1  0.421760  0.146640  0.566300  1.0  0.1298
  C  C181  1  0.399780  0.014220  0.634800  1.0  0.1321
  C  C182  1  0.558240  0.128760  0.410300  1.0  -0.0081
  C  C183  1  0.989360  0.851640  0.856300  1.0  -0.0158
  C  C184  1  0.827120  0.779680  0.873400  1.0  0.1466
  C  C185  1  0.805150  0.879650  0.012200  1.0  0.1278
  C  C186  1  0.060150  0.951850  0.859700  1.0  -0.0046
  C  C187  1  0.529300  0.193900  0.732900  1.0  -0.0357
  C  C188  1  0.531310  0.285490  0.800800  1.0  0.143
  C  C189  1  0.692460  0.843340  0.858700  1.0  -0.0277
  C  C190  1  0.604400  0.757400  0.770300  1.0  0.1527
  N  N191  1  0.921060  0.341680  0.916400  1.0  -0.4197
  N  N192  1  0.944780  0.324020  0.697700  1.0  -0.5141
  N  N193  1  0.909780  0.036760  0.566600  1.0  -0.4324
  N  N194  1  0.789300  0.879300  0.680600  1.0  -0.5061
  N  N195  1  0.141580  0.499620  0.026900  1.0  -0.3646
  N  N196  1  0.126130  0.430870  0.150200  1.0  -0.3491
  N  N197  1  0.015860  0.521740  0.886700  1.0  -0.3769
  N  N198  1  0.874680  0.907640  0.375400  1.0  -0.361
  N  N199  1  0.815220  0.761780  0.411200  1.0  -0.3822
  N  N200  1  0.009820  0.119380  0.460000  1.0  -0.3709
  N  N201  1  0.658320  0.078940  0.583600  1.0  -0.4182
  N  N202  1  0.675980  0.055220  0.802300  1.0  -0.5143
  N  N203  1  0.963240  0.090220  0.933400  1.0  -0.4358
  N  N204  1  0.120700  0.210700  0.819400  1.0  -0.509
  N  N205  1  0.500380  0.858420  0.473100  1.0  -0.3635
  N  N206  1  0.569130  0.873870  0.349800  1.0  -0.3485
  N  N207  1  0.478260  0.984140  0.613300  1.0  -0.3767
  N  N208  1  0.092360  0.125320  0.124600  1.0  -0.3608
  N  N209  1  0.238220  0.184780  0.088800  1.0  -0.3755
  N  N210  1  0.880620  0.990180  0.040000  1.0  -0.3702
  N  N211  1  0.078940  0.658320  0.083600  1.0  -0.4183
  N  N212  1  0.055220  0.675980  0.302300  1.0  -0.5127
  N  N213  1  0.090220  0.963240  0.433400  1.0  -0.4318
  N  N214  1  0.210700  0.120700  0.319400  1.0  -0.5066
  N  N215  1  0.858420  0.500380  0.973100  1.0  -0.3625
  N  N216  1  0.873870  0.569130  0.849800  1.0  -0.3482
  N  N217  1  0.984140  0.478260  0.113300  1.0  -0.3756
  N  N218  1  0.125320  0.092360  0.624600  1.0  -0.361
  N  N219  1  0.184780  0.238220  0.588800  1.0  -0.3682
  N  N220  1  0.990180  0.880620  0.540000  1.0  -0.3687
  N  N221  1  0.341680  0.921060  0.416400  1.0  -0.4166
  N  N222  1  0.324020  0.944780  0.197700  1.0  -0.5151
  N  N223  1  0.036760  0.909780  0.066600  1.0  -0.4293
  N  N224  1  0.879300  0.789300  0.180600  1.0  -0.5085
  N  N225  1  0.499620  0.141580  0.526900  1.0  -0.3643
  N  N226  1  0.430870  0.126130  0.650200  1.0  -0.3497
  N  N227  1  0.521740  0.015860  0.386700  1.0  -0.3766
  N  N228  1  0.907640  0.874680  0.875400  1.0  -0.3608
  N  N229  1  0.761780  0.815220  0.911200  1.0  -0.3801
  N  N230  1  0.119380  0.009820  0.960000  1.0  -0.3697
  O  O231  1  0.346420  0.622740  0.371600  1.0  -0.515
  O  O232  1  0.792810  0.536450  0.238700  1.0  -0.5758
  O  O233  1  0.377260  0.653580  0.128400  1.0  -0.5131
  O  O234  1  0.463550  0.207190  0.261300  1.0  -0.5777
  O  O235  1  0.653580  0.377260  0.628400  1.0  -0.5139
  O  O236  1  0.207190  0.463550  0.761300  1.0  -0.5781
  O  O237  1  0.622740  0.346420  0.871600  1.0  -0.5144
  O  O238  1  0.536450  0.792810  0.738700  1.0  -0.5698
