# generated using pymatgen
data_Ni2H60W(C8N5)4
_symmetry_space_group_name_H-M   'P 1'
_cell_length_a   15.90070000
_cell_length_b   15.90070000
_cell_length_c   15.90070000
_cell_angle_alpha   63.15630000
_cell_angle_beta   74.08440000
_cell_angle_gamma   105.91600000
_symmetry_Int_Tables_number   1
_chemical_formula_structural   Ni2H60W(C8N5)4
_chemical_formula_sum   'Ni4 H120 W2 C64 N40'
_cell_volume   3055.84524895
_cell_formula_units_Z   2
loop_
 _symmetry_equiv_pos_site_id
 _symmetry_equiv_pos_as_xyz
  1  'x, y, z'
loop_
 _atom_site_type_symbol
 _atom_site_label
 _atom_site_symmetry_multiplicity
 _atom_site_fract_x
 _atom_site_fract_y
 _atom_site_fract_z
 _atom_site_occupancy
 _atom_site_charge
  Ni  Ni1  1  0.000000  0.500000  0.500000  1.0  0.5213
  Ni  Ni2  1  0.500000  0.000000  0.500000  1.0  0.5214
  Ni  Ni3  1  0.000000  0.500000  0.000000  1.0  0.5214
  Ni  Ni4  1  0.500000  0.500000  0.500000  1.0  0.5213
  H  H5  1  0.159200  0.544200  0.297400  1.0  0.0843
  H  H6  1  0.255800  0.615800  0.289400  1.0  0.0792
  H  H7  1  0.086800  0.663900  0.257900  1.0  0.0926
  H  H8  1  0.186900  0.753700  0.223800  1.0  0.0798
  H  H9  1  0.936600  0.731900  0.387700  1.0  0.0789
  H  H10  1  0.934800  0.654300  0.352300  1.0  0.0937
  H  H11  1  0.201400  0.432900  0.418500  1.0  0.0779
  H  H12  1  0.200000  0.494500  0.472900  1.0  0.0775
  H  H13  1  0.117900  0.753500  0.419800  1.0  0.0814
  H  H14  1  0.198700  0.839000  0.300900  1.0  0.0888
  H  H15  1  0.147700  0.928000  0.366300  1.0  0.1124
  H  H16  1  0.107600  0.936400  0.284600  1.0  0.1174
  H  H17  1  0.036700  0.854800  0.407100  1.0  0.1024
  H  H18  1  0.170600  0.655000  0.387800  1.0  0.2661
  H  H19  1  0.040200  0.369400  0.475800  1.0  0.2652
  H  H20  1  0.340800  0.043400  0.615000  1.0  0.0821
  H  H21  1  0.244200  0.954800  0.640000  1.0  0.079
  H  H22  1  0.413200  0.155300  0.422900  1.0  0.0926
  H  H23  1  0.313100  0.089300  0.433200  1.0  0.0828
  H  H24  1  0.563400  0.175700  0.204700  1.0  0.0792
  H  H25  1  0.565200  0.212900  0.280500  1.0  0.0903
  H  H26  1  0.298600  0.880100  0.768500  1.0  0.0831
  H  H27  1  0.300000  0.827100  0.705500  1.0  0.0729
  H  H28  1  0.382100  0.962300  0.364400  1.0  0.0814
  H  H29  1  0.301300  0.000400  0.359700  1.0  0.0953
  H  H30  1  0.352300  0.986000  0.219700  1.0  0.1132
  H  H31  1  0.392400  0.107800  0.171200  1.0  0.1184
  H  H32  1  0.463300  0.056200  0.181900  1.0  0.0989
  H  H33  1  0.329400  0.941600  0.515600  1.0  0.2662
  H  H34  1  0.459800  0.984000  0.670800  1.0  0.2643
  H  H35  1  0.158400  0.702600  0.956600  1.0  0.0806
  H  H36  1  0.094800  0.710600  0.045200  1.0  0.0816
  H  H37  1  0.078200  0.742100  0.844700  1.0  0.0964
  H  H38  1  0.022500  0.776200  0.910700  1.0  0.0799
  H  H39  1  0.880400  0.612300  0.824300  1.0  0.0797
  H  H40  1  0.993400  0.647700  0.787100  1.0  0.0904
  H  H41  1  0.148600  0.581500  0.119900  1.0  0.0791
  H  H42  1  0.032600  0.527100  0.172900  1.0  0.0778
  H  H43  1  0.826700  0.580200  0.037700  1.0  0.0793
  H  H44  1  0.860100  0.699100  0.999600  1.0  0.0918
  H  H45  1  0.705700  0.633700  0.014000  1.0  0.1083
  H  H46  1  0.779000  0.715400  0.892200  1.0  0.1191
  H  H47  1  0.738100  0.592900  0.943800  1.0  0.0975
  H  H48  1  0.957200  0.612200  0.058400  1.0  0.2655
  H  H49  1  0.154800  0.524200  0.016000  1.0  0.2639
  H  H50  1  0.341600  0.385000  0.455800  1.0  0.0801
  H  H51  1  0.405200  0.360000  0.384200  1.0  0.0819
  H  H52  1  0.421800  0.577100  0.336100  1.0  0.0913
  H  H53  1  0.477500  0.566800  0.246300  1.0  0.08
  H  H54  1  0.619600  0.795300  0.268100  1.0  0.0795
  H  H55  1  0.506600  0.719500  0.345700  1.0  0.0879
  H  H56  1  0.351400  0.231500  0.567100  1.0  0.0797
  H  H57  1  0.467400  0.294500  0.505500  1.0  0.0718
  H  H58  1  0.673300  0.635600  0.246500  1.0  0.0799
  H  H59  1  0.639900  0.640300  0.161000  1.0  0.0948
  H  H60  1  0.794300  0.780300  0.072000  1.0  0.1074
  H  H61  1  0.721000  0.828800  0.063600  1.0  0.1163
  H  H62  1  0.761900  0.818100  0.145200  1.0  0.0978
  H  H63  1  0.542800  0.484400  0.345000  1.0  0.2681
  H  H64  1  0.345200  0.329200  0.630600  1.0  0.2694
  H  H65  1  0.840800  0.455800  0.702600  1.0  0.0849
  H  H66  1  0.744200  0.384200  0.710600  1.0  0.0781
  H  H67  1  0.913200  0.336100  0.742100  1.0  0.0931
  H  H68  1  0.813100  0.246300  0.776200  1.0  0.0795
  H  H69  1  0.063400  0.268100  0.612300  1.0  0.0779
  H  H70  1  0.065200  0.345700  0.647700  1.0  0.0914
  H  H71  1  0.798600  0.567100  0.581500  1.0  0.0762
  H  H72  1  0.800000  0.505500  0.527100  1.0  0.078
  H  H73  1  0.882100  0.246500  0.580200  1.0  0.0811
  H  H74  1  0.801300  0.161000  0.699100  1.0  0.0879
  H  H75  1  0.852300  0.072000  0.633700  1.0  0.1147
  H  H76  1  0.892400  0.063600  0.715400  1.0  0.117
  H  H77  1  0.963300  0.145200  0.592900  1.0  0.103
  H  H78  1  0.829400  0.345000  0.612200  1.0  0.2668
  H  H79  1  0.959800  0.630600  0.524200  1.0  0.2617
  H  H80  1  0.659200  0.956600  0.385000  1.0  0.0826
  H  H81  1  0.755800  0.045200  0.360000  1.0  0.0798
  H  H82  1  0.586800  0.844700  0.577100  1.0  0.093
  H  H83  1  0.686900  0.910700  0.566800  1.0  0.0815
  H  H84  1  0.436600  0.824300  0.795300  1.0  0.0787
  H  H85  1  0.434800  0.787100  0.719500  1.0  0.0915
  H  H86  1  0.701400  0.119900  0.231500  1.0  0.0834
  H  H87  1  0.700000  0.172900  0.294500  1.0  0.0734
  H  H88  1  0.617900  0.037700  0.635600  1.0  0.0826
  H  H89  1  0.698700  0.999600  0.640300  1.0  0.0998
  H  H90  1  0.647700  0.014000  0.780300  1.0  0.1116
  H  H91  1  0.607600  0.892200  0.828800  1.0  0.1167
  H  H92  1  0.536700  0.943800  0.818100  1.0  0.1032
  H  H93  1  0.670600  0.058400  0.484400  1.0  0.2662
  H  H94  1  0.540200  0.016000  0.329200  1.0  0.264
  H  H95  1  0.841600  0.297400  0.043400  1.0  0.081
  H  H96  1  0.905200  0.289400  0.954800  1.0  0.0818
  H  H97  1  0.921800  0.257900  0.155300  1.0  0.094
  H  H98  1  0.977500  0.223800  0.089300  1.0  0.078
  H  H99  1  0.119600  0.387700  0.175700  1.0  0.0785
  H  H100  1  0.006600  0.352300  0.212900  1.0  0.0924
  H  H101  1  0.851400  0.418500  0.880100  1.0  0.0798
  H  H102  1  0.967400  0.472900  0.827100  1.0  0.0776
  H  H103  1  0.173300  0.419800  0.962300  1.0  0.082
  H  H104  1  0.139900  0.300900  0.000400  1.0  0.0935
  H  H105  1  0.294300  0.366300  0.986000  1.0  0.1126
  H  H106  1  0.221000  0.284600  0.107800  1.0  0.1198
  H  H107  1  0.261900  0.407100  0.056200  1.0  0.0988
  H  H108  1  0.042800  0.387800  0.941600  1.0  0.2669
  H  H109  1  0.845200  0.475800  0.984000  1.0  0.2616
  H  H110  1  0.658400  0.615000  0.544200  1.0  0.081
  H  H111  1  0.594800  0.640000  0.615800  1.0  0.0823
  H  H112  1  0.578200  0.422900  0.663900  1.0  0.0932
  H  H113  1  0.522500  0.433200  0.753700  1.0  0.0792
  H  H114  1  0.380400  0.204700  0.731900  1.0  0.0793
  H  H115  1  0.493400  0.280500  0.654300  1.0  0.0872
  H  H116  1  0.648600  0.768500  0.432900  1.0  0.0791
  H  H117  1  0.532600  0.705500  0.494500  1.0  0.0725
  H  H118  1  0.326700  0.364400  0.753500  1.0  0.0809
  H  H119  1  0.360100  0.359700  0.839000  1.0  0.0969
  H  H120  1  0.205700  0.219700  0.928000  1.0  0.1079
  H  H121  1  0.279000  0.171200  0.936400  1.0  0.1162
  H  H122  1  0.238100  0.181900  0.854800  1.0  0.0993
  H  H123  1  0.457200  0.515600  0.655000  1.0  0.2664
  H  H124  1  0.654800  0.670800  0.369400  1.0  0.2717
  W  W125  1  0.750000  0.375000  0.375000  1.0  0.0854
  W  W126  1  0.250000  0.625000  0.625000  1.0  0.0855
  C  C127  1  0.878020  0.438220  0.391200  1.0  0.1172
  C  C128  1  0.700910  0.289100  0.545390  1.0  0.1177
  C  C129  1  0.185800  0.567100  0.335700  1.0  -0.0314
  C  C130  1  0.122200  0.698900  0.283100  1.0  0.1042
  C  C131  1  0.964300  0.685700  0.383600  1.0  0.0981
  C  C132  1  0.170500  0.471300  0.436400  1.0  -0.0144
  C  C133  1  0.129000  0.805400  0.349400  1.0  -0.0191
  C  C134  1  0.102800  0.888600  0.352200  1.0  -0.313
  C  C135  1  0.621980  0.230780  0.439800  1.0  0.1155
  C  C136  1  0.799090  0.253700  0.411810  1.0  0.1179
  C  C137  1  0.314200  0.978500  0.618700  1.0  -0.0351
  C  C138  1  0.377800  0.094700  0.423300  1.0  0.1045
  C  C139  1  0.535700  0.152100  0.278600  1.0  0.0993
  C  C140  1  0.329500  0.893100  0.699200  1.0  -0.0159
  C  C141  1  0.371000  0.021600  0.323600  1.0  -0.0225
  C  C142  1  0.397200  0.045000  0.214200  1.0  -0.311
  C  C143  1  0.170580  0.608800  0.769220  1.0  0.1194
  C  C144  1  0.165510  0.454610  0.746300  1.0  0.1173
  C  C145  1  0.097200  0.664300  0.021500  1.0  -0.0323
  C  C146  1  0.018000  0.716900  0.905300  1.0  0.1069
  C  C147  1  0.930700  0.616400  0.847900  1.0  0.0994
  C  C148  1  0.092300  0.563600  0.106900  1.0  -0.015
  C  C149  1  0.845200  0.650600  0.978400  1.0  -0.0229
  C  C150  1  0.759200  0.647800  0.955000  1.0  -0.3093
  C  C151  1  0.329420  0.560200  0.561780  1.0  0.1201
  C  C152  1  0.334490  0.588190  0.710900  1.0  0.1183
  C  C153  1  0.402800  0.381300  0.432900  1.0  -0.0292
  C  C154  1  0.482000  0.576700  0.301100  1.0  0.1019
  C  C155  1  0.569300  0.721400  0.314300  1.0  0.0981
  C  C156  1  0.407700  0.300800  0.528700  1.0  -0.0142
  C  C157  1  0.654800  0.676400  0.194600  1.0  -0.0197
  C  C158  1  0.740800  0.785800  0.111400  1.0  -0.3108
  C  C159  1  0.121980  0.561780  0.608800  1.0  0.1154
  C  C160  1  0.299090  0.710900  0.454610  1.0  0.1167
  C  C161  1  0.814200  0.432900  0.664300  1.0  -0.0313
  C  C162  1  0.877800  0.301100  0.716900  1.0  0.1077
  C  C163  1  0.035700  0.314300  0.616400  1.0  0.0968
  C  C164  1  0.829500  0.528700  0.563600  1.0  -0.014
  C  C165  1  0.871000  0.194600  0.650600  1.0  -0.0206
  C  C166  1  0.897200  0.111400  0.647800  1.0  -0.3116
  C  C167  1  0.378020  0.769220  0.560200  1.0  0.1184
  C  C168  1  0.200910  0.746300  0.588190  1.0  0.1171
  C  C169  1  0.685800  0.021500  0.381300  1.0  -0.0336
  C  C170  1  0.622200  0.905300  0.576700  1.0  0.1039
  C  C171  1  0.464300  0.847900  0.721400  1.0  0.102
  C  C172  1  0.670500  0.106900  0.300800  1.0  -0.0169
  C  C173  1  0.629000  0.978400  0.676400  1.0  -0.023
  C  C174  1  0.602800  0.955000  0.785800  1.0  -0.3109
  C  C175  1  0.829420  0.391200  0.230780  1.0  0.1199
  C  C176  1  0.834490  0.545390  0.253700  1.0  0.1173
  C  C177  1  0.902800  0.335700  0.978500  1.0  -0.032
  C  C178  1  0.982000  0.283100  0.094700  1.0  0.1076
  C  C179  1  0.069300  0.383600  0.152100  1.0  0.1034
  C  C180  1  0.907700  0.436400  0.893100  1.0  -0.0143
  C  C181  1  0.154800  0.349400  0.021600  1.0  -0.0222
  C  C182  1  0.240800  0.352200  0.045000  1.0  -0.3106
  C  C183  1  0.670580  0.439800  0.438220  1.0  0.1195
  C  C184  1  0.665510  0.411810  0.289100  1.0  0.1162
  C  C185  1  0.597200  0.618700  0.567100  1.0  -0.0278
  C  C186  1  0.518000  0.423300  0.698900  1.0  0.1011
  C  C187  1  0.430700  0.278600  0.685700  1.0  0.0961
  C  C188  1  0.592300  0.699200  0.471300  1.0  -0.0126
  C  C189  1  0.345200  0.323600  0.805400  1.0  -0.0189
  C  C190  1  0.259200  0.214200  0.888600  1.0  -0.3104
  N  N191  1  0.942990  0.469260  0.406330  1.0  -0.4888
  N  N192  1  0.676950  0.245420  0.636370  1.0  -0.4806
  N  N193  1  0.134750  0.620640  0.367090  1.0  -0.379
  N  N194  1  0.070150  0.749260  0.314910  1.0  -0.3224
  N  N195  1  0.062560  0.401210  0.506050  1.0  -0.3703
  N  N196  1  0.557010  0.150680  0.473730  1.0  -0.4916
  N  N197  1  0.823050  0.186680  0.431530  1.0  -0.4831
  N  N198  1  0.365250  0.998160  0.514110  1.0  -0.3755
  N  N199  1  0.429850  0.114940  0.320890  1.0  -0.3236
  N  N200  1  0.437440  0.931390  0.661350  1.0  -0.3691
  N  N201  1  0.124410  0.593670  0.849320  1.0  -0.487
  N  N202  1  0.118210  0.363630  0.813320  1.0  -0.479
  N  N203  1  0.012270  0.632910  0.001840  1.0  -0.3754
  N  N204  1  0.935830  0.685090  0.885060  1.0  -0.3248
  N  N205  1  0.092740  0.493950  0.068610  1.0  -0.3654
  N  N206  1  0.375590  0.526270  0.530740  1.0  -0.4879
  N  N207  1  0.381790  0.568470  0.754580  1.0  -0.483
  N  N208  1  0.487730  0.485890  0.379360  1.0  -0.3782
  N  N209  1  0.564170  0.679110  0.250740  1.0  -0.3214
  N  N210  1  0.407260  0.338650  0.598790  1.0  -0.3689
  N  N211  1  0.057010  0.530740  0.593670  1.0  -0.49
  N  N212  1  0.323050  0.754580  0.363630  1.0  -0.483
  N  N213  1  0.865250  0.379360  0.632910  1.0  -0.3767
  N  N214  1  0.929850  0.250740  0.685090  1.0  -0.3211
  N  N215  1  0.937440  0.598790  0.493950  1.0  -0.3691
  N  N216  1  0.442990  0.849320  0.526270  1.0  -0.4913
  N  N217  1  0.176950  0.813320  0.568470  1.0  -0.4824
  N  N218  1  0.634750  0.001840  0.485890  1.0  -0.3746
  N  N219  1  0.570150  0.885060  0.679110  1.0  -0.3227
  N  N220  1  0.562560  0.068610  0.338650  1.0  -0.3702
  N  N221  1  0.875590  0.406330  0.150680  1.0  -0.4881
  N  N222  1  0.881790  0.636370  0.186680  1.0  -0.482
  N  N223  1  0.987730  0.367090  0.998160  1.0  -0.3777
  N  N224  1  0.064170  0.314910  0.114940  1.0  -0.324
  N  N225  1  0.907260  0.506050  0.931390  1.0  -0.3673
  N  N226  1  0.624410  0.473730  0.469260  1.0  -0.4857
  N  N227  1  0.618210  0.431530  0.245420  1.0  -0.4839
  N  N228  1  0.512270  0.514110  0.620640  1.0  -0.3758
  N  N229  1  0.435830  0.320890  0.749260  1.0  -0.3221
  N  N230  1  0.592740  0.661350  0.401210  1.0  -0.3672
