# generated using pymatgen
data_CdH12C12(NO)4
_symmetry_space_group_name_H-M   'P 1'
_cell_length_a   16.00690000
_cell_length_b   16.00690000
_cell_length_c   16.55260000
_cell_angle_alpha   118.91500000
_cell_angle_beta   118.91500000
_cell_angle_gamma   90.00000000
_symmetry_Int_Tables_number   1
_chemical_formula_structural   CdH12C12(NO)4
_chemical_formula_sum   'Cd8 H96 C96 N32 O32'
_cell_volume   3094.66200155
_cell_formula_units_Z   8
loop_
 _symmetry_equiv_pos_site_id
 _symmetry_equiv_pos_as_xyz
  1  'x, y, z'
loop_
 _atom_site_type_symbol
 _atom_site_label
 _atom_site_symmetry_multiplicity
 _atom_site_fract_x
 _atom_site_fract_y
 _atom_site_fract_z
 _atom_site_occupancy
 _atom_site_charge
  Cd  Cd1  1  0.535340  0.733720  0.818930  1.0  0.9544
  Cd  Cd2  1  0.283580  0.085210  0.818920  1.0  0.9543
  Cd  Cd3  1  0.266290  0.716420  0.181090  1.0  0.956
  Cd  Cd4  1  0.914790  0.464660  0.181070  1.0  0.9527
  Cd  Cd5  1  0.966420  0.016280  0.681080  1.0  0.9534
  Cd  Cd6  1  0.714660  0.664800  0.681080  1.0  0.9547
  Cd  Cd7  1  0.335210  0.033580  0.318920  1.0  0.9544
  Cd  Cd8  1  0.983720  0.285340  0.318930  1.0  0.9548
  H  H9  1  0.166400  0.560600  0.356400  1.0  0.1121
  H  H10  1  0.265700  0.648500  0.557600  1.0  0.1139
  H  H11  1  0.102000  0.608600  0.646400  1.0  0.0734
  H  H12  1  0.181000  0.704800  0.694200  1.0  0.0872
  H  H13  1  0.230800  0.528300  0.664000  1.0  0.128
  H  H14  1  0.244100  0.610100  0.775400  1.0  0.1292
  H  H15  1  0.784800  0.333100  0.352200  1.0  0.1212
  H  H16  1  0.773300  0.500700  0.453800  1.0  0.1489
  H  H17  1  0.991500  0.690600  0.552200  1.0  0.0643
  H  H18  1  0.930600  0.685500  0.601400  1.0  0.0867
  H  H19  1  0.787600  0.677900  0.459000  1.0  0.1252
  H  H20  1  0.842100  0.672000  0.400000  1.0  0.1162
  H  H21  1  0.190000  0.795800  0.356400  1.0  0.111
  H  H22  1  0.291900  0.909100  0.557600  1.0  0.1144
  H  H23  1  0.544400  0.037800  0.646400  1.0  0.0738
  H  H24  1  0.513200  0.989400  0.694200  1.0  0.0878
  H  H25  1  0.433200  0.135700  0.664000  1.0  0.1271
  H  H26  1  0.531300  0.165300  0.775400  1.0  0.1316
  H  H27  1  0.567400  0.019100  0.352200  1.0  0.1197
  H  H28  1  0.680500  0.953100  0.453800  1.0  0.1521
  H  H29  1  0.560700  0.861600  0.552200  1.0  0.0643
  H  H30  1  0.670800  0.915900  0.601400  1.0  0.085
  H  H31  1  0.671400  0.781100  0.459000  1.0  0.1217
  H  H32  1  0.557900  0.728000  0.400000  1.0  0.113
  H  H33  1  0.439400  0.810000  0.643600  1.0  0.1114
  H  H34  1  0.351500  0.708100  0.442400  1.0  0.113
  H  H35  1  0.391400  0.455600  0.353600  1.0  0.0739
  H  H36  1  0.295200  0.486800  0.305800  1.0  0.0899
  H  H37  1  0.471700  0.566800  0.336000  1.0  0.1266
  H  H38  1  0.389900  0.468700  0.224600  1.0  0.1322
  H  H39  1  0.666900  0.432600  0.647800  1.0  0.1204
  H  H40  1  0.499300  0.319500  0.546200  1.0  0.1478
  H  H41  1  0.309400  0.439300  0.447800  1.0  0.0657
  H  H42  1  0.314500  0.329200  0.398600  1.0  0.0866
  H  H43  1  0.322100  0.328600  0.541000  1.0  0.1223
  H  H44  1  0.328000  0.442100  0.600000  1.0  0.1152
  H  H45  1  0.204200  0.833600  0.643600  1.0  0.1109
  H  H46  1  0.090900  0.734300  0.442400  1.0  0.1134
  H  H47  1  0.962200  0.898000  0.353600  1.0  0.0745
  H  H48  1  0.010600  0.819000  0.305800  1.0  0.0874
  H  H49  1  0.864300  0.769200  0.336000  1.0  0.1264
  H  H50  1  0.834700  0.755900  0.224600  1.0  0.1317
  H  H51  1  0.980900  0.215200  0.647800  1.0  0.1183
  H  H52  1  0.046900  0.226700  0.546200  1.0  0.1494
  H  H53  1  0.138400  0.008500  0.447800  1.0  0.0654
  H  H54  1  0.084100  0.069400  0.398600  1.0  0.0867
  H  H55  1  0.218900  0.212400  0.541000  1.0  0.1205
  H  H56  1  0.272000  0.157900  0.600000  1.0  0.1144
  H  H57  1  0.060000  0.189400  0.143600  1.0  0.1116
  H  H58  1  0.958100  0.101500  0.942400  1.0  0.1124
  H  H59  1  0.705600  0.141400  0.853600  1.0  0.0741
  H  H60  1  0.736800  0.045200  0.805800  1.0  0.087
  H  H61  1  0.816800  0.221700  0.836000  1.0  0.1285
  H  H62  1  0.718700  0.139900  0.724600  1.0  0.126
  H  H63  1  0.682600  0.416900  0.147800  1.0  0.12
  H  H64  1  0.569500  0.249300  0.046200  1.0  0.15
  H  H65  1  0.689300  0.059400  0.947800  1.0  0.064
  H  H66  1  0.579200  0.064500  0.898600  1.0  0.0871
  H  H67  1  0.578600  0.072100  0.041000  1.0  0.1208
  H  H68  1  0.692100  0.078000  0.100000  1.0  0.1148
  H  H69  1  0.083600  0.954200  0.143600  1.0  0.1112
  H  H70  1  0.984300  0.840900  0.942400  1.0  0.1142
  H  H71  1  0.148000  0.712200  0.853600  1.0  0.0754
  H  H72  1  0.069000  0.760600  0.805800  1.0  0.088
  H  H73  1  0.019200  0.614300  0.836000  1.0  0.1255
  H  H74  1  0.005900  0.584700  0.724600  1.0  0.1304
  H  H75  1  0.465200  0.730900  0.147800  1.0  0.1192
  H  H76  1  0.476700  0.796900  0.046200  1.0  0.1474
  H  H77  1  0.258500  0.888400  0.947800  1.0  0.0691
  H  H78  1  0.319400  0.834100  0.898600  1.0  0.0854
  H  H79  1  0.462400  0.968900  0.041000  1.0  0.1269
  H  H80  1  0.407900  0.022000  0.100000  1.0  0.1152
  H  H81  1  0.045800  0.940000  0.856400  1.0  0.1121
  H  H82  1  0.159100  0.041900  0.057600  1.0  0.114
  H  H83  1  0.287800  0.294400  0.146400  1.0  0.0753
  H  H84  1  0.239400  0.263200  0.194200  1.0  0.0887
  H  H85  1  0.385700  0.183200  0.164000  1.0  0.1262
  H  H86  1  0.415300  0.281300  0.275400  1.0  0.1309
  H  H87  1  0.269100  0.317400  0.852200  1.0  0.12
  H  H88  1  0.203100  0.430500  0.953800  1.0  0.1509
  H  H89  1  0.111600  0.310700  0.052200  1.0  0.065
  H  H90  1  0.165900  0.420800  0.101400  1.0  0.0855
  H  H91  1  0.031100  0.421400  0.959000  1.0  0.1236
  H  H92  1  0.978000  0.307900  0.900000  1.0  0.1143
  H  H93  1  0.810600  0.916400  0.856400  1.0  0.1116
  H  H94  1  0.898500  0.015700  0.057600  1.0  0.1141
  H  H95  1  0.858600  0.852000  0.146400  1.0  0.0748
  H  H96  1  0.954800  0.931000  0.194200  1.0  0.0857
  H  H97  1  0.778300  0.980800  0.164000  1.0  0.1243
  H  H98  1  0.860100  0.994100  0.275400  1.0  0.1328
  H  H99  1  0.583100  0.534800  0.852200  1.0  0.12
  H  H100  1  0.750700  0.523300  0.953800  1.0  0.1502
  H  H101  1  0.940600  0.741500  0.052200  1.0  0.0647
  H  H102  1  0.935500  0.680600  0.101400  1.0  0.086
  H  H103  1  0.927900  0.537600  0.959000  1.0  0.1243
  H  H104  1  0.922000  0.592100  0.900000  1.0  0.1144
  C  C105  1  0.043930  0.539330  0.444460  1.0  0.1706
  C  C106  1  0.142780  0.563280  0.398760  1.0  0.0665
  C  C107  1  0.198300  0.611500  0.510000  1.0  -0.1226
  C  C108  1  0.161300  0.632200  0.651600  1.0  0.0175
  C  C109  1  0.244730  0.599630  0.712860  1.0  -0.3585
  C  C110  1  0.349190  0.653090  0.755180  1.0  0.6788
  C  C111  1  0.955210  0.498910  0.434220  1.0  0.1885
  C  C112  1  0.829700  0.393100  0.383600  1.0  0.0363
  C  C113  1  0.822700  0.485800  0.439600  1.0  -0.1319
  C  C114  1  0.926150  0.662050  0.532900  1.0  0.0165
  C  C115  1  0.851550  0.699850  0.471500  1.0  -0.3445
  C  C116  1  0.887430  0.814330  0.536860  1.0  0.7109
  C  C117  1  0.400530  0.905130  0.444460  1.0  0.1749
  C  C118  1  0.255980  0.835480  0.398760  1.0  0.0642
  C  C119  1  0.311700  0.898500  0.510000  1.0  -0.1239
  C  C120  1  0.490300  0.019400  0.651600  1.0  0.0183
  C  C121  1  0.468130  0.113230  0.712860  1.0  -0.3551
  C  C122  1  0.405990  0.102090  0.755180  1.0  0.6851
  C  C123  1  0.479010  0.935310  0.434220  1.0  0.1861
  C  C124  1  0.553900  0.990500  0.383600  1.0  0.0382
  C  C125  1  0.616900  0.953800  0.439600  1.0  -0.1307
  C  C126  1  0.606750  0.870850  0.532900  1.0  0.0188
  C  C127  1  0.619950  0.771650  0.471500  1.0  -0.3492
  C  C128  1  0.649430  0.722530  0.536860  1.0  0.711
  C  C129  1  0.460670  0.599470  0.555540  1.0  0.1722
  C  C130  1  0.436720  0.744020  0.601240  1.0  0.0651
  C  C131  1  0.388500  0.688300  0.490000  1.0  -0.1229
  C  C132  1  0.367800  0.509700  0.348400  1.0  0.0166
  C  C133  1  0.400370  0.531870  0.287140  1.0  -0.3573
  C  C134  1  0.346910  0.594010  0.244820  1.0  0.6828
  C  C135  1  0.501090  0.520990  0.565780  1.0  0.1882
  C  C136  1  0.606900  0.446100  0.616400  1.0  0.0379
  C  C137  1  0.514200  0.383100  0.560400  1.0  -0.1314
  C  C138  1  0.337950  0.393250  0.467100  1.0  0.0156
  C  C139  1  0.300150  0.380050  0.528500  1.0  -0.3483
  C  C140  1  0.185670  0.350570  0.463140  1.0  0.7084
  C  C141  1  0.094870  0.956070  0.555540  1.0  0.1712
  C  C142  1  0.164520  0.857220  0.601240  1.0  0.0665
  C  C143  1  0.101500  0.801700  0.490000  1.0  -0.1234
  C  C144  1  0.980600  0.838700  0.348400  1.0  0.0166
  C  C145  1  0.886770  0.755270  0.287140  1.0  -0.3559
  C  C146  1  0.897910  0.650810  0.244820  1.0  0.6814
  C  C147  1  0.064690  0.044790  0.565780  1.0  0.1964
  C  C148  1  0.009500  0.170300  0.616400  1.0  0.0369
  C  C149  1  0.046200  0.177300  0.560400  1.0  -0.1325
  C  C150  1  0.129150  0.073850  0.467100  1.0  0.0151
  C  C151  1  0.228350  0.148450  0.528500  1.0  -0.3468
  C  C152  1  0.277470  0.112570  0.463140  1.0  0.7102
  C  C153  1  0.849470  0.210670  0.055540  1.0  0.1702
  C  C154  1  0.994020  0.186720  0.101240  1.0  0.0677
  C  C155  1  0.938300  0.138500  0.990000  1.0  -0.1231
  C  C156  1  0.759700  0.117800  0.848400  1.0  0.0183
  C  C157  1  0.781870  0.150370  0.787140  1.0  -0.3563
  C  C158  1  0.844010  0.096910  0.744820  1.0  0.6853
  C  C159  1  0.770990  0.251090  0.065780  1.0  0.193
  C  C160  1  0.696100  0.356900  0.116400  1.0  0.0356
  C  C161  1  0.633100  0.264200  0.060400  1.0  -0.1321
  C  C162  1  0.643250  0.087950  0.967100  1.0  0.0169
  C  C163  1  0.630050  0.050150  0.028500  1.0  -0.348
  C  C164  1  0.600570  0.935670  0.963140  1.0  0.7118
  C  C165  1  0.206070  0.844870  0.055540  1.0  0.1725
  C  C166  1  0.107220  0.914520  0.101240  1.0  0.0649
  C  C167  1  0.051700  0.851500  0.990000  1.0  -0.124
  C  C168  1  0.088700  0.730600  0.848400  1.0  0.016
  C  C169  1  0.005270  0.636770  0.787140  1.0  -0.3545
  C  C170  1  0.900810  0.647910  0.744820  1.0  0.6799
  C  C171  1  0.294790  0.814690  0.065780  1.0  0.1905
  C  C172  1  0.420300  0.759500  0.116400  1.0  0.037
  C  C173  1  0.427300  0.796200  0.060400  1.0  -0.1282
  C  C174  1  0.323850  0.879150  0.967100  1.0  0.0146
  C  C175  1  0.398450  0.978350  0.028500  1.0  -0.3449
  C  C176  1  0.362570  0.027470  0.963140  1.0  0.7127
  C  C177  1  0.155130  0.150530  0.944460  1.0  0.1746
  C  C178  1  0.085480  0.005980  0.898760  1.0  0.062
  C  C179  1  0.148500  0.061700  0.010000  1.0  -0.1223
  C  C180  1  0.269400  0.240300  0.151600  1.0  0.0169
  C  C181  1  0.363230  0.218130  0.212860  1.0  -0.3561
  C  C182  1  0.352090  0.155990  0.255180  1.0  0.6844
  C  C183  1  0.185310  0.229010  0.934220  1.0  0.1868
  C  C184  1  0.240500  0.303900  0.883600  1.0  0.0384
  C  C185  1  0.203800  0.366900  0.939600  1.0  -0.1357
  C  C186  1  0.120850  0.356750  0.032900  1.0  0.0182
  C  C187  1  0.021650  0.369950  0.971500  1.0  -0.3488
  C  C188  1  0.972530  0.399430  0.036860  1.0  0.7099
  C  C189  1  0.789330  0.793930  0.944460  1.0  0.1718
  C  C190  1  0.813280  0.892780  0.898760  1.0  0.0665
  C  C191  1  0.861500  0.948300  0.010000  1.0  -0.1236
  C  C192  1  0.882200  0.911300  0.151600  1.0  0.0178
  C  C193  1  0.849630  0.994730  0.212860  1.0  -0.3594
  C  C194  1  0.903090  0.099190  0.255180  1.0  0.6828
  C  C195  1  0.748910  0.705210  0.934220  1.0  0.1897
  C  C196  1  0.643100  0.579700  0.883600  1.0  0.035
  C  C197  1  0.735800  0.572700  0.939600  1.0  -0.1309
  C  C198  1  0.912050  0.676150  0.032900  1.0  0.0163
  C  C199  1  0.949850  0.601550  0.971500  1.0  -0.3486
  C  C200  1  0.064330  0.637430  0.036860  1.0  0.7091
  N  N201  1  0.045380  0.518580  0.357360  1.0  -0.4041
  N  N202  1  0.135850  0.595120  0.539440  1.0  0.0328
  N  N203  1  0.913060  0.401760  0.380520  1.0  -0.3963
  N  N204  1  0.901990  0.552590  0.470780  1.0  0.041
  N  N205  1  0.311980  0.838780  0.357360  1.0  -0.4005
  N  N206  1  0.403590  0.944320  0.539440  1.0  0.0324
  N  N207  1  0.467460  0.978760  0.380520  1.0  -0.4025
  N  N208  1  0.568790  0.918190  0.470780  1.0  0.041
  N  N209  1  0.481420  0.688020  0.642640  1.0  -0.4024
  N  N210  1  0.404880  0.596410  0.460560  1.0  0.0306
  N  N211  1  0.598240  0.532540  0.619480  1.0  -0.4021
  N  N212  1  0.447410  0.431210  0.529220  1.0  0.0405
  N  N213  1  0.161220  0.954620  0.642640  1.0  -0.4022
  N  N214  1  0.055680  0.864150  0.460560  1.0  0.0328
  N  N215  1  0.021240  0.086940  0.619480  1.0  -0.3968
  N  N216  1  0.081810  0.098010  0.529220  1.0  0.0409
  N  N217  1  0.938020  0.231420  0.142640  1.0  -0.4018
  N  N218  1  0.846410  0.154880  0.960560  1.0  0.0329
  N  N219  1  0.782540  0.348240  0.119480  1.0  -0.3999
  N  N220  1  0.681210  0.197410  0.029220  1.0  0.0415
  N  N221  1  0.204620  0.911220  0.142640  1.0  -0.4032
  N  N222  1  0.114150  0.805680  0.960560  1.0  0.0332
  N  N223  1  0.336940  0.771240  0.119480  1.0  -0.3977
  N  N224  1  0.348010  0.831810  0.029220  1.0  0.0405
  N  N225  1  0.088780  0.061980  0.857360  1.0  -0.4009
  N  N226  1  0.194320  0.153590  0.039440  1.0  0.0319
  N  N227  1  0.228760  0.217460  0.880520  1.0  -0.4003
  N  N228  1  0.168190  0.318790  0.970780  1.0  0.0411
  N  N229  1  0.768580  0.795380  0.857360  1.0  -0.402
  N  N230  1  0.845120  0.885850  0.039440  1.0  0.0314
  N  N231  1  0.651760  0.663060  0.880520  1.0  -0.3981
  N  N232  1  0.802590  0.651990  0.970780  1.0  0.0401
  O  O233  1  0.416230  0.612930  0.781060  1.0  -0.6316
  O  O234  1  0.366170  0.733770  0.764740  1.0  -0.5941
  O  O235  1  0.966680  0.858580  0.630960  1.0  -0.6022
  O  O236  1  0.839840  0.859640  0.497280  1.0  -0.6363
  O  O237  1  0.364830  0.168130  0.781060  1.0  -0.6281
  O  O238  1  0.398570  0.030970  0.764740  1.0  -0.5967
  O  O239  1  0.664280  0.772380  0.630960  1.0  -0.6012
  O  O240  1  0.657440  0.637640  0.497280  1.0  -0.6357
  O  O241  1  0.387070  0.635170  0.218940  1.0  -0.6297
  O  O242  1  0.266230  0.601430  0.235260  1.0  -0.593
  O  O243  1  0.141420  0.335720  0.369040  1.0  -0.5999
  O  O244  1  0.140360  0.342560  0.502720  1.0  -0.6375
  O  O245  1  0.831870  0.583770  0.218940  1.0  -0.6297
  O  O246  1  0.969030  0.633830  0.235260  1.0  -0.5935
  O  O247  1  0.227620  0.033320  0.369040  1.0  -0.6011
  O  O248  1  0.362360  0.160160  0.502720  1.0  -0.6374
  O  O249  1  0.885170  0.137070  0.718940  1.0  -0.632
  O  O250  1  0.851430  0.016230  0.735260  1.0  -0.5938
  O  O251  1  0.585720  0.891420  0.869040  1.0  -0.5998
  O  O252  1  0.592560  0.890360  0.002720  1.0  -0.6343
  O  O253  1  0.833770  0.581870  0.718940  1.0  -0.6302
  O  O254  1  0.883830  0.719030  0.735260  1.0  -0.5945
  O  O255  1  0.283320  0.977620  0.869040  1.0  -0.5983
  O  O256  1  0.410160  0.112360  0.002720  1.0  -0.6345
  O  O257  1  0.418130  0.114830  0.281060  1.0  -0.6285
  O  O258  1  0.280970  0.148570  0.264740  1.0  -0.5957
  O  O259  1  0.022380  0.414280  0.130960  1.0  -0.6025
  O  O260  1  0.887640  0.407440  0.997280  1.0  -0.6386
  O  O261  1  0.862930  0.166230  0.281060  1.0  -0.63
  O  O262  1  0.983770  0.116170  0.264740  1.0  -0.5938
  O  O263  1  0.108580  0.716680  0.130960  1.0  -0.6016
  O  O264  1  0.109640  0.589840  0.997280  1.0  -0.6373
