# generated using pymatgen
data_CdH14C12(NO)4
_symmetry_space_group_name_H-M   'P 1'
_cell_length_a   17.12400000
_cell_length_b   17.12400000
_cell_length_c   5.39210000
_cell_angle_alpha   90.00000000
_cell_angle_beta   90.00000000
_cell_angle_gamma   90.00000000
_symmetry_Int_Tables_number   1
_chemical_formula_structural   CdH14C12(NO)4
_chemical_formula_sum   'Cd4 H56 C48 N16 O16'
_cell_volume   1581.13290253
_cell_formula_units_Z   4
loop_
 _symmetry_equiv_pos_site_id
 _symmetry_equiv_pos_as_xyz
  1  'x, y, z'
loop_
 _atom_site_type_symbol
 _atom_site_label
 _atom_site_symmetry_multiplicity
 _atom_site_fract_x
 _atom_site_fract_y
 _atom_site_fract_z
 _atom_site_occupancy
 _atom_site_charge
  Cd  Cd1  1  0.384700  0.384700  0.000000  1.0  0.7994
  Cd  Cd2  1  0.615300  0.615300  0.000000  1.0  0.8031
  Cd  Cd3  1  0.115300  0.884700  0.000000  1.0  0.8009
  Cd  Cd4  1  0.884700  0.115300  0.000000  1.0  0.8009
  H  H5  1  0.202500  0.448200  0.105800  1.0  0.0914
  H  H6  1  0.108400  0.411000  0.420800  1.0  0.1283
  H  H7  1  0.138500  0.323500  0.869900  1.0  0.0759
  H  H8  1  0.190100  0.250300  0.805700  1.0  0.0726
  H  H9  1  0.047500  0.286500  0.565800  1.0  0.0871
  H  H10  1  0.099300  0.214400  0.495600  1.0  0.0901
  H  H11  1  0.041900  0.162800  0.114500  1.0  0.2274
  H  H12  1  0.797500  0.551800  0.105800  1.0  0.091
  H  H13  1  0.891600  0.589000  0.420800  1.0  0.1281
  H  H14  1  0.861500  0.676500  0.869900  1.0  0.0769
  H  H15  1  0.809900  0.749700  0.805700  1.0  0.072
  H  H16  1  0.952500  0.713500  0.565800  1.0  0.086
  H  H17  1  0.900700  0.785600  0.495600  1.0  0.0913
  H  H18  1  0.958100  0.837200  0.114500  1.0  0.2258
  H  H19  1  0.051800  0.702500  0.105800  1.0  0.0891
  H  H20  1  0.089000  0.608400  0.420800  1.0  0.1289
  H  H21  1  0.176500  0.638500  0.869900  1.0  0.0773
  H  H22  1  0.249700  0.690100  0.805700  1.0  0.0714
  H  H23  1  0.213500  0.547500  0.565800  1.0  0.086
  H  H24  1  0.285600  0.599300  0.495600  1.0  0.0908
  H  H25  1  0.337200  0.541900  0.114500  1.0  0.2269
  H  H26  1  0.948200  0.297500  0.105800  1.0  0.0896
  H  H27  1  0.911000  0.391600  0.420800  1.0  0.1285
  H  H28  1  0.823500  0.361500  0.869900  1.0  0.0763
  H  H29  1  0.750300  0.309900  0.805700  1.0  0.0723
  H  H30  1  0.786500  0.452500  0.565800  1.0  0.0865
  H  H31  1  0.714400  0.400700  0.495600  1.0  0.0916
  H  H32  1  0.662800  0.458100  0.114500  1.0  0.2254
  H  H33  1  0.297500  0.948200  0.894200  1.0  0.0913
  H  H34  1  0.391600  0.911000  0.579200  1.0  0.1282
  H  H35  1  0.361500  0.823500  0.130100  1.0  0.0769
  H  H36  1  0.309900  0.750300  0.194300  1.0  0.0729
  H  H37  1  0.452500  0.786500  0.434200  1.0  0.0859
  H  H38  1  0.400700  0.714400  0.504400  1.0  0.0898
  H  H39  1  0.458100  0.662800  0.885500  1.0  0.2276
  H  H40  1  0.702500  0.051800  0.894200  1.0  0.0914
  H  H41  1  0.608400  0.089000  0.579200  1.0  0.1287
  H  H42  1  0.638500  0.176500  0.130100  1.0  0.076
  H  H43  1  0.690100  0.249700  0.194300  1.0  0.0718
  H  H44  1  0.547500  0.213500  0.434200  1.0  0.0863
  H  H45  1  0.599300  0.285600  0.504400  1.0  0.0899
  H  H46  1  0.541900  0.337200  0.885500  1.0  0.2269
  H  H47  1  0.448200  0.202500  0.894200  1.0  0.0895
  H  H48  1  0.411000  0.108400  0.579200  1.0  0.129
  H  H49  1  0.323500  0.138500  0.130100  1.0  0.0765
  H  H50  1  0.250300  0.190100  0.194300  1.0  0.0721
  H  H51  1  0.286500  0.047500  0.434200  1.0  0.0864
  H  H52  1  0.214400  0.099300  0.504400  1.0  0.0906
  H  H53  1  0.162800  0.041900  0.885500  1.0  0.2269
  H  H54  1  0.551800  0.797500  0.894200  1.0  0.0896
  H  H55  1  0.589000  0.891600  0.579200  1.0  0.1289
  H  H56  1  0.676500  0.861500  0.130100  1.0  0.0775
  H  H57  1  0.749700  0.809900  0.194300  1.0  0.0722
  H  H58  1  0.713500  0.952500  0.434200  1.0  0.0866
  H  H59  1  0.785600  0.900700  0.504400  1.0  0.0903
  H  H60  1  0.837200  0.958100  0.885500  1.0  0.2262
  C  C61  1  0.264500  0.320680  0.448400  1.0  0.2464
  C  C62  1  0.210400  0.410400  0.227100  1.0  0.024
  C  C63  1  0.158100  0.390100  0.399500  1.0  -0.1602
  C  C64  1  0.154100  0.288400  0.737700  1.0  -0.0231
  C  C65  1  0.082900  0.247500  0.632000  1.0  -0.3393
  C  C66  1  0.040000  0.198700  0.817400  1.0  0.6304
  C  C67  1  0.735500  0.679320  0.448400  1.0  0.2464
  C  C68  1  0.789600  0.589600  0.227100  1.0  0.0246
  C  C69  1  0.841900  0.609900  0.399500  1.0  -0.1598
  C  C70  1  0.845900  0.711600  0.737700  1.0  -0.0216
  C  C71  1  0.917100  0.752500  0.632000  1.0  -0.3397
  C  C72  1  0.960000  0.801300  0.817400  1.0  0.6317
  C  C73  1  0.179320  0.764500  0.448400  1.0  0.2464
  C  C74  1  0.089600  0.710400  0.227100  1.0  0.0278
  C  C75  1  0.109900  0.658100  0.399500  1.0  -0.1629
  C  C76  1  0.211600  0.654100  0.737700  1.0  -0.0219
  C  C77  1  0.252500  0.582900  0.632000  1.0  -0.3417
  C  C78  1  0.301300  0.540000  0.817400  1.0  0.6318
  C  C79  1  0.820680  0.235500  0.448400  1.0  0.2458
  C  C80  1  0.910400  0.289600  0.227100  1.0  0.0274
  C  C81  1  0.890100  0.341900  0.399500  1.0  -0.1612
  C  C82  1  0.788400  0.345900  0.737700  1.0  -0.0202
  C  C83  1  0.747500  0.417100  0.632000  1.0  -0.3411
  C  C84  1  0.698700  0.460000  0.817400  1.0  0.6311
  C  C85  1  0.235500  0.820680  0.551600  1.0  0.2467
  C  C86  1  0.289600  0.910400  0.772900  1.0  0.0248
  C  C87  1  0.341900  0.890100  0.600500  1.0  -0.1592
  C  C88  1  0.345900  0.788400  0.262300  1.0  -0.0197
  C  C89  1  0.417100  0.747500  0.368000  1.0  -0.3391
  C  C90  1  0.460000  0.698700  0.182600  1.0  0.6314
  C  C91  1  0.764500  0.179320  0.551600  1.0  0.2466
  C  C92  1  0.710400  0.089600  0.772900  1.0  0.0242
  C  C93  1  0.658100  0.109900  0.600500  1.0  -0.1602
  C  C94  1  0.654100  0.211600  0.262300  1.0  -0.0203
  C  C95  1  0.582900  0.252500  0.368000  1.0  -0.3388
  C  C96  1  0.540000  0.301300  0.182600  1.0  0.6317
  C  C97  1  0.320680  0.264500  0.551600  1.0  0.2462
  C  C98  1  0.410400  0.210400  0.772900  1.0  0.0281
  C  C99  1  0.390100  0.158100  0.600500  1.0  -0.161
  C  C100  1  0.288400  0.154100  0.262300  1.0  -0.0176
  C  C101  1  0.247500  0.082900  0.368000  1.0  -0.3417
  C  C102  1  0.198700  0.040000  0.182600  1.0  0.6297
  C  C103  1  0.679320  0.735500  0.551600  1.0  0.2457
  C  C104  1  0.589600  0.789600  0.772900  1.0  0.0281
  C  C105  1  0.609900  0.841900  0.600500  1.0  -0.1624
  C  C106  1  0.711600  0.845900  0.262300  1.0  -0.0193
  C  C107  1  0.752500  0.917100  0.368000  1.0  -0.34
  C  C108  1  0.801300  0.960000  0.182600  1.0  0.6316
  N  N109  1  0.278010  0.366910  0.255200  1.0  -0.4452
  N  N110  1  0.192340  0.332640  0.538600  1.0  0.0494
  N  N111  1  0.721990  0.633090  0.255200  1.0  -0.4463
  N  N112  1  0.807660  0.667360  0.538600  1.0  0.051
  N  N113  1  0.133090  0.778010  0.255200  1.0  -0.4484
  N  N114  1  0.167360  0.692340  0.538600  1.0  0.0505
  N  N115  1  0.866910  0.221990  0.255200  1.0  -0.4466
  N  N116  1  0.832640  0.307660  0.538600  1.0  0.0507
  N  N117  1  0.221990  0.866910  0.744800  1.0  -0.4474
  N  N118  1  0.307660  0.832640  0.461400  1.0  0.0511
  N  N119  1  0.778010  0.133090  0.744800  1.0  -0.4451
  N  N120  1  0.692340  0.167360  0.461400  1.0  0.0499
  N  N121  1  0.366910  0.278010  0.744800  1.0  -0.4486
  N  N122  1  0.332640  0.192340  0.461400  1.0  0.0513
  N  N123  1  0.633090  0.721990  0.744800  1.0  -0.4466
  N  N124  1  0.667360  0.807660  0.461400  1.0  0.0508
  O  O125  1  0.976500  0.169600  0.749100  1.0  -0.6376
  O  O126  1  0.070100  0.190400  0.028700  1.0  -0.5196
  O  O127  1  0.023500  0.830400  0.749100  1.0  -0.6362
  O  O128  1  0.929900  0.809600  0.028700  1.0  -0.5203
  O  O129  1  0.330400  0.476500  0.749100  1.0  -0.6389
  O  O130  1  0.309600  0.570100  0.028700  1.0  -0.5193
  O  O131  1  0.669600  0.523500  0.749100  1.0  -0.6394
  O  O132  1  0.690400  0.429900  0.028700  1.0  -0.5174
  O  O133  1  0.523500  0.669600  0.250900  1.0  -0.6372
  O  O134  1  0.429900  0.690400  0.971300  1.0  -0.5213
  O  O135  1  0.476500  0.330400  0.250900  1.0  -0.6367
  O  O136  1  0.570100  0.309600  0.971300  1.0  -0.5201
  O  O137  1  0.169600  0.976500  0.250900  1.0  -0.6384
  O  O138  1  0.190400  0.070100  0.971300  1.0  -0.5202
  O  O139  1  0.830400  0.023500  0.250900  1.0  -0.6393
  O  O140  1  0.809600  0.929900  0.971300  1.0  -0.5199
