# generated using pymatgen
data_Al2P3H2CO14
_symmetry_space_group_name_H-M   'P 1'
_cell_length_a   8.61100000
_cell_length_b   9.09600000
_cell_length_c   11.37100000
_cell_angle_alpha   104.81100000
_cell_angle_beta   111.36800000
_cell_angle_gamma   94.24800000
_symmetry_Int_Tables_number   1
_chemical_formula_structural   Al2P3H2CO14
_chemical_formula_sum   'Al4 P6 H4 C2 O28'
_cell_volume   787.90843544
_cell_formula_units_Z   2
loop_
 _symmetry_equiv_pos_site_id
 _symmetry_equiv_pos_as_xyz
  1  'x, y, z'
loop_
 _atom_site_type_symbol
 _atom_site_label
 _atom_site_symmetry_multiplicity
 _atom_site_fract_x
 _atom_site_fract_y
 _atom_site_fract_z
 _atom_site_occupancy
 _atom_site_charge
  Al  Al1  1  0.048410  0.326270  0.356000  1.0  1.9945
  Al  Al2  1  0.173320  0.363800  0.896550  1.0  1.8419
  Al  Al3  1  0.951590  0.673730  0.644000  1.0  1.9945
  Al  Al4  1  0.826680  0.636200  0.103450  1.0  1.8445
  P  P5  1  0.170900  0.483180  0.180370  1.0  1.8077
  P  P6  1  0.229180  0.463880  0.665750  1.0  1.9957
  P  P7  1  0.859300  0.992240  0.209760  1.0  1.7815
  P  P8  1  0.829100  0.516820  0.819630  1.0  1.8065
  P  P9  1  0.770820  0.536120  0.334250  1.0  1.997
  P  P10  1  0.140700  0.007760  0.790240  1.0  1.7757
  H  H11  1  0.403000  0.581000  0.265000  1.0  0.4487
  H  H12  1  0.823000  0.038000  0.371000  1.0  0.5306
  H  H13  1  0.597000  0.419000  0.735000  1.0  0.4512
  H  H14  1  0.177000  0.962000  0.629000  1.0  0.5286
  C  C15  1  0.526300  0.421900  0.990800  1.0  0.6619
  C  C16  1  0.473700  0.578100  0.009200  1.0  0.6572
  O  O17  1  0.190400  0.368400  0.065700  1.0  -0.8731
  O  O18  1  0.026100  0.566700  0.137800  1.0  -0.949
  O  O19  1  0.332500  0.612000  0.257600  1.0  -0.7057
  O  O20  1  0.155300  0.395600  0.274200  1.0  -1.0302
  O  O21  1  0.418000  0.522500  0.733800  1.0  -0.6809
  O  O22  1  0.179500  0.369300  0.520600  1.0  -0.9885
  O  O23  1  0.167900  0.357200  0.730200  1.0  -0.8657
  O  O24  1  0.139500  0.604400  0.668800  1.0  -1.0105
  O  O25  1  0.923400  0.846000  0.165600  1.0  -0.7682
  O  O26  1  0.012900  0.124400  0.292100  1.0  -0.8654
  O  O27  1  0.775000  0.966500  0.306100  1.0  -0.6067
  O  O28  1  0.732800  0.033100  0.099000  1.0  -0.6512
  O  O29  1  0.408800  0.306800  0.942700  1.0  -0.5345
  O  O30  1  0.683800  0.424100  0.026000  1.0  -0.5362
  O  O31  1  0.809600  0.631600  0.934300  1.0  -0.8726
  O  O32  1  0.973900  0.433300  0.862200  1.0  -0.9493
  O  O33  1  0.667500  0.388000  0.742400  1.0  -0.7051
  O  O34  1  0.844700  0.604400  0.725800  1.0  -1.0272
  O  O35  1  0.582000  0.477500  0.266200  1.0  -0.6793
  O  O36  1  0.820500  0.630700  0.479400  1.0  -0.9868
  O  O37  1  0.832100  0.642800  0.269800  1.0  -0.865
  O  O38  1  0.860500  0.395600  0.331200  1.0  -1.0104
  O  O39  1  0.076600  0.154000  0.834400  1.0  -0.7653
  O  O40  1  0.987100  0.875600  0.707900  1.0  -0.8647
  O  O41  1  0.225000  0.033500  0.693900  1.0  -0.6031
  O  O42  1  0.267200  0.966900  0.901000  1.0  -0.6531
  O  O43  1  0.591200  0.693200  0.057300  1.0  -0.5333
  O  O44  1  0.316200  0.575900  0.974000  1.0  -0.5368
