# generated using pymatgen
data_AgH15C30(NO)3
_symmetry_space_group_name_H-M   'P 1'
_cell_length_a   10.33500000
_cell_length_b   10.33500000
_cell_length_c   17.01500000
_cell_angle_alpha   84.84120000
_cell_angle_beta   74.69060000
_cell_angle_gamma   114.66300000
_symmetry_Int_Tables_number   1
_chemical_formula_structural   AgH15C30(NO)3
_chemical_formula_sum   'Ag2 H30 C60 N6 O6'
_cell_volume   1550.95108666
_cell_formula_units_Z   2
loop_
 _symmetry_equiv_pos_site_id
 _symmetry_equiv_pos_as_xyz
  1  'x, y, z'
loop_
 _atom_site_type_symbol
 _atom_site_label
 _atom_site_symmetry_multiplicity
 _atom_site_fract_x
 _atom_site_fract_y
 _atom_site_fract_z
 _atom_site_occupancy
 _atom_site_charge
  Ag  Ag1  1  0.853690  0.374520  0.308250  1.0  0.4944
  Ag  Ag2  1  0.817230  0.838060  0.808250  1.0  0.4939
  H  H3  1  0.454800  0.599600  0.508000  1.0  0.1281
  H  H4  1  0.437900  0.794300  0.560200  1.0  0.1282
  H  H5  1  0.890600  0.037000  0.457400  1.0  0.1244
  H  H6  1  0.907000  0.843100  0.403900  1.0  0.1262
  H  H7  1  0.732100  0.339500  0.532000  1.0  0.117
  H  H8  1  0.124600  0.476500  0.579500  1.0  0.1154
  H  H9  1  0.863500  0.045400  0.603900  1.0  0.121
  H  H10  1  0.057400  0.857400  0.553200  1.0  0.1141
  H  H11  1  0.290900  0.059700  0.484400  1.0  0.1393
  H  H12  1  0.425800  0.806800  0.348600  1.0  0.1388
  H  H13  1  0.191000  0.603500  0.420500  1.0  0.1295
  H  H14  1  0.117400  0.416500  0.715900  1.0  0.1204
  H  H15  1  0.310100  0.582100  0.755600  1.0  0.135
  H  H16  1  0.586000  0.417400  0.644000  1.0  0.1281
  H  H17  1  0.391100  0.248600  0.605900  1.0  0.1227
  H  H18  1  0.392400  0.037200  0.008000  1.0  0.128
  H  H19  1  0.145500  0.001900  0.060200  1.0  0.1268
  H  H20  1  0.005600  0.652000  0.957400  1.0  0.1237
  H  H21  1  0.253000  0.689100  0.903900  1.0  0.1261
  H  H22  1  0.628500  0.735900  0.032000  1.0  0.1176
  H  H23  1  0.444000  0.295900  0.079500  1.0  0.116
  H  H24  1  0.850700  0.532600  0.103900  1.0  0.1207
  H  H25  1  0.089400  0.389400  0.053200  1.0  0.1148
  H  H26  1  0.955900  0.224700  0.984400  1.0  0.1393
  H  H27  1  0.344600  0.225600  0.848600  1.0  0.1385
  H  H28  1  0.476000  0.388500  0.920500  1.0  0.1311
  H  H29  1  0.367600  0.166700  0.215900  1.0  0.1183
  H  H30  1  0.162300  0.934300  0.255600  1.0  0.1364
  H  H31  1  0.438600  0.770000  0.144000  1.0  0.1282
  H  H32  1  0.645500  0.003000  0.105900  1.0  0.1249
  C  C33  1  0.697100  0.581700  0.420200  1.0  0.3827
  C  C34  1  0.682700  0.703100  0.451000  1.0  -0.0188
  C  C35  1  0.542500  0.688100  0.497800  1.0  -0.1424
  C  C36  1  0.532490  0.803410  0.529300  1.0  -0.0145
  C  C37  1  0.663460  0.934040  0.515100  1.0  -0.0161
  C  C38  1  0.802900  0.948600  0.467700  1.0  -0.1181
  C  C39  1  0.812700  0.833300  0.435800  1.0  -0.0963
  C  C40  1  0.648430  0.060180  0.547190  1.0  0.3117
  C  C41  1  0.781870  0.175470  0.562460  1.0  -0.0245
  C  C42  1  0.803890  0.318610  0.546900  1.0  -0.0236
  C  C43  1  0.932280  0.431320  0.553400  1.0  -0.0187
  C  C44  1  0.035860  0.399870  0.577670  1.0  -0.0541
  C  C45  1  0.009240  0.254830  0.599530  1.0  -0.1126
  C  C46  1  0.881640  0.143080  0.590680  1.0  -0.0458
  C  C47  1  0.950170  0.584710  0.537920  1.0  0.2373
  C  C48  1  0.104470  0.711010  0.494520  1.0  -0.0488
  C  C49  1  0.132800  0.847500  0.512700  1.0  -0.0263
  C  C50  1  0.270600  0.968100  0.471700  1.0  -0.1524
  C  C51  1  0.379750  0.950900  0.410550  1.0  0.0141
  C  C52  1  0.351900  0.816200  0.390300  1.0  -0.089
  C  C53  1  0.212000  0.695200  0.433200  1.0  -0.0972
  C  C54  1  0.528200  0.074800  0.369800  1.0  0.3557
  C  C55  1  0.116090  0.212310  0.626600  1.0  0.2515
  C  C56  1  0.236790  0.320340  0.654470  1.0  -0.0213
  C  C57  1  0.212350  0.417960  0.700690  1.0  -0.0636
  C  C58  1  0.326500  0.516700  0.724200  1.0  -0.1706
  C  C59  1  0.466800  0.517000  0.700200  1.0  -0.0012
  C  C60  1  0.491800  0.417500  0.657500  1.0  -0.1726
  C  C61  1  0.375900  0.317500  0.634600  1.0  -0.0471
  C  C62  1  0.590100  0.628200  0.719700  1.0  0.3536
  C  C63  1  0.498100  0.882700  0.920200  1.0  0.3821
  C  C64  1  0.345900  0.866300  0.951000  1.0  -0.0225
  C  C65  1  0.314100  0.959700  0.997800  1.0  -0.1444
  C  C66  1  0.167290  0.938210  0.029300  1.0  -0.0151
  C  C67  1  0.050860  0.821440  0.015100  1.0  -0.0187
  C  C68  1  0.083700  0.729400  0.967700  1.0  -0.1157
  C  C69  1  0.230900  0.751500  0.935800  1.0  -0.0956
  C  C70  1  0.892630  0.804380  0.047190  1.0  0.3096
  C  C71  1  0.762070  0.655670  0.062460  1.0  -0.0221
  C  C72  1  0.634490  0.649210  0.046900  1.0  -0.0243
  C  C73  1  0.515280  0.514320  0.053400  1.0  -0.0175
  C  C74  1  0.522460  0.386470  0.077670  1.0  -0.0556
  C  C75  1  0.645640  0.391230  0.099530  1.0  -0.1119
  C  C76  1  0.766240  0.527680  0.090680  1.0  -0.0435
  C  C77  1  0.377370  0.511910  0.037920  1.0  0.2354
  C  C78  1  0.294470  0.401010  0.994520  1.0  -0.047
  C  C79  1  0.139800  0.354500  0.012700  1.0  -0.0239
  C  C80  1  0.060200  0.257700  0.971700  1.0  -0.1494
  C  C81  1  0.138550  0.209700  0.910550  1.0  0.0057
  C  C82  1  0.293500  0.257800  0.890300  1.0  -0.0887
  C  C83  1  0.371600  0.354800  0.933200  1.0  -0.0962
  C  C84  1  0.055400  0.102000  0.869800  1.0  0.3611
  C  C85  1  0.661090  0.257310  0.126600  1.0  0.2516
  C  C86  1  0.525190  0.108740  0.154470  1.0  -0.0228
  C  C87  1  0.381350  0.086960  0.200690  1.0  -0.0636
  C  C88  1  0.259100  0.949300  0.224200  1.0  -0.1707
  C  C89  1  0.282800  0.833000  0.200200  1.0  -0.0007
  C  C90  1  0.425000  0.850700  0.157500  1.0  -0.1699
  C  C91  1  0.547900  0.989500  0.134600  1.0  -0.0467
  C  C92  1  0.152100  0.690200  0.219700  1.0  0.3549
  N  N93  1  0.715100  0.489200  0.396300  1.0  -0.466
  N  N94  1  0.644570  0.170100  0.339930  1.0  -0.4522
  N  N95  1  0.683800  0.717300  0.734500  1.0  -0.4556
  N  N96  1  0.614500  0.888600  0.896300  1.0  -0.4707
  N  N97  1  0.989970  0.015500  0.839930  1.0  -0.4517
  N  N98  1  0.048200  0.581700  0.234500  1.0  -0.4543
  O  O99  1  0.533540  0.072580  0.556560  1.0  -0.4319
  O  O100  1  0.839320  0.605480  0.559400  1.0  -0.4691
  O  O101  1  0.107430  0.091860  0.625110  1.0  -0.4398
  O  O102  1  0.870860  0.909900  0.056560  1.0  -0.4315
  O  O103  1  0.335120  0.601280  0.059400  1.0  -0.467
  O  O104  1  0.783030  0.267460  0.125110  1.0  -0.442
