# generated using pymatgen
data_PuP2H2CO6
_symmetry_space_group_name_H-M   'P 1'
_cell_length_a   5.25040000
_cell_length_b   8.28960000
_cell_length_c   16.46290000
_cell_angle_alpha   90.00000000
_cell_angle_beta   93.91200000
_cell_angle_gamma   90.00000000
_symmetry_Int_Tables_number   1
_chemical_formula_structural   PuP2H2CO6
_chemical_formula_sum   'Pu4 P8 H8 C4 O24'
_cell_volume   714.85708307
_cell_formula_units_Z   4
loop_
 _symmetry_equiv_pos_site_id
 _symmetry_equiv_pos_as_xyz
  1  'x, y, z'
loop_
 _atom_site_type_symbol
 _atom_site_label
 _atom_site_symmetry_multiplicity
 _atom_site_fract_x
 _atom_site_fract_y
 _atom_site_fract_z
 _atom_site_occupancy
 _atom_site_charge
  Pu  Pu1  1  0.851790  0.157090  0.632770  1.0  2.6027
  Pu  Pu2  1  0.648210  0.657090  0.867230  1.0  2.6011
  Pu  Pu3  1  0.148210  0.842910  0.367230  1.0  2.6055
  Pu  Pu4  1  0.351790  0.342910  0.132770  1.0  2.6066
  P  P5  1  0.123520  0.821050  0.743330  1.0  1.7738
  P  P6  1  0.343150  0.889240  0.578910  1.0  1.805
  P  P7  1  0.376480  0.321050  0.756670  1.0  1.7765
  P  P8  1  0.156850  0.389240  0.921090  1.0  1.8058
  P  P9  1  0.876480  0.178950  0.256670  1.0  1.773
  P  P10  1  0.656850  0.110760  0.421090  1.0  1.8061
  P  P11  1  0.623520  0.678950  0.243330  1.0  1.7776
  P  P12  1  0.843150  0.610760  0.078910  1.0  1.8055
  H  H13  1  0.039200  0.708900  0.616200  1.0  0.2737
  H  H14  1  0.315000  0.655400  0.653000  1.0  0.2629
  H  H15  1  0.460800  0.208900  0.883800  1.0  0.2735
  H  H16  1  0.185000  0.155400  0.847000  1.0  0.2631
  H  H17  1  0.960800  0.291100  0.383800  1.0  0.2733
  H  H18  1  0.685000  0.344600  0.347000  1.0  0.2618
  H  H19  1  0.539200  0.791100  0.116200  1.0  0.2739
  H  H20  1  0.815000  0.844600  0.153000  1.0  0.2613
  C  C21  1  0.198900  0.748900  0.644800  1.0  -1.0476
  C  C22  1  0.301100  0.248900  0.855200  1.0  -1.0471
  C  C23  1  0.801100  0.251100  0.355200  1.0  -1.0473
  C  C24  1  0.698900  0.751100  0.144800  1.0  -1.0482
  O  O25  1  0.363700  0.823700  0.800510  1.0  -0.9702
  O  O26  1  0.174200  0.040600  0.575240  1.0  -0.9786
  O  O27  1  0.614800  0.926800  0.611830  1.0  -0.8874
  O  O28  1  0.012200  0.990600  0.732560  1.0  -0.9166
  O  O29  1  0.925700  0.704400  0.774230  1.0  -0.9436
  O  O30  1  0.340700  0.807900  0.495650  1.0  -0.977
  O  O31  1  0.136300  0.323700  0.699490  1.0  -0.9665
  O  O32  1  0.325800  0.540600  0.924760  1.0  -0.9776
  O  O33  1  0.885200  0.426800  0.888170  1.0  -0.8867
  O  O34  1  0.487800  0.490600  0.767440  1.0  -0.9176
  O  O35  1  0.574300  0.204400  0.725770  1.0  -0.9437
  O  O36  1  0.159300  0.307900  0.004350  1.0  -0.9811
  O  O37  1  0.636300  0.176300  0.199490  1.0  -0.9663
  O  O38  1  0.825800  0.959400  0.424760  1.0  -0.9759
  O  O39  1  0.385200  0.073200  0.388170  1.0  -0.8866
  O  O40  1  0.987800  0.009400  0.267440  1.0  -0.9183
  O  O41  1  0.074300  0.295600  0.225770  1.0  -0.9433
  O  O42  1  0.659300  0.192100  0.504350  1.0  -0.9819
  O  O43  1  0.863700  0.676300  0.300510  1.0  -0.9705
  O  O44  1  0.674200  0.459400  0.075240  1.0  -0.9759
  O  O45  1  0.114800  0.573200  0.111830  1.0  -0.8873
  O  O46  1  0.512200  0.509400  0.232560  1.0  -0.9171
  O  O47  1  0.425700  0.795600  0.274230  1.0  -0.9436
  O  O48  1  0.840700  0.692100  0.995650  1.0  -0.9791
