# generated using pymatgen
data_V2CuH14C13N2O3
_symmetry_space_group_name_H-M   'P 1'
_cell_length_a   13.11870000
_cell_length_b   23.92000000
_cell_length_c   19.68900000
_cell_angle_alpha   90.00000000
_cell_angle_beta   90.00000000
_cell_angle_gamma   90.00000000
_symmetry_Int_Tables_number   1
_chemical_formula_structural   V2CuH14C13N2O3
_chemical_formula_sum   'V24 Cu12 H168 C156 N24 O36'
_cell_volume   6178.39449646
_cell_formula_units_Z   12
loop_
 _symmetry_equiv_pos_site_id
 _symmetry_equiv_pos_as_xyz
  1  'x, y, z'
loop_
 _atom_site_type_symbol
 _atom_site_label
 _atom_site_symmetry_multiplicity
 _atom_site_fract_x
 _atom_site_fract_y
 _atom_site_fract_z
 _atom_site_occupancy
 _atom_site_charge
  V  V1  1  0.841950  0.539720  0.334790  1.0  1.1524
  V  V2  1  0.662700  0.467340  0.427820  1.0  1.1313
  V  V3  1  0.441240  0.533720  0.377050  1.0  1.1586
  V  V4  1  0.250010  0.468850  0.286870  1.0  0.6296
  V  V5  1  0.078350  0.526930  0.384300  1.0  1.2032
  V  V6  1  0.258140  0.613170  0.433530  1.0  0.5238
  V  V7  1  0.158050  0.460280  0.834790  1.0  1.1423
  V  V8  1  0.337300  0.532660  0.927820  1.0  1.1465
  V  V9  1  0.558760  0.466280  0.877050  1.0  1.1467
  V  V10  1  0.749990  0.531150  0.786870  1.0  0.651
  V  V11  1  0.921650  0.473070  0.884300  1.0  1.2135
  V  V12  1  0.741860  0.386830  0.933530  1.0  0.5138
  V  V13  1  0.158050  0.039720  0.334790  1.0  1.1525
  V  V14  1  0.337300  0.967340  0.427820  1.0  1.1319
  V  V15  1  0.558760  0.033720  0.377050  1.0  1.1588
  V  V16  1  0.749990  0.968850  0.286870  1.0  0.6302
  V  V17  1  0.921650  0.026930  0.384300  1.0  1.2041
  V  V18  1  0.741860  0.113170  0.433530  1.0  0.525
  V  V19  1  0.841950  0.960280  0.834790  1.0  1.142
  V  V20  1  0.662700  0.032660  0.927820  1.0  1.1459
  V  V21  1  0.441240  0.966280  0.877050  1.0  1.1464
  V  V22  1  0.250010  0.031150  0.786870  1.0  0.6521
  V  V23  1  0.078350  0.973070  0.884300  1.0  1.2126
  V  V24  1  0.258140  0.886830  0.933530  1.0  0.5125
  Cu  Cu25  1  0.860300  0.495350  0.162080  1.0  0.4518
  Cu  Cu26  1  0.628350  0.451540  0.611010  1.0  0.3129
  Cu  Cu27  1  0.796260  0.975820  0.099520  1.0  0.1903
  Cu  Cu28  1  0.139700  0.504650  0.662080  1.0  0.4488
  Cu  Cu29  1  0.371650  0.548460  0.111010  1.0  0.3117
  Cu  Cu30  1  0.203740  0.024180  0.599520  1.0  0.1909
  Cu  Cu31  1  0.139700  0.995350  0.162080  1.0  0.4495
  Cu  Cu32  1  0.371650  0.951540  0.611010  1.0  0.3118
  Cu  Cu33  1  0.203740  0.475820  0.099520  1.0  0.1906
  Cu  Cu34  1  0.860300  0.004650  0.662080  1.0  0.4509
  Cu  Cu35  1  0.628350  0.048460  0.111010  1.0  0.3128
  Cu  Cu36  1  0.796260  0.524180  0.599520  1.0  0.1906
  H  H37  1  0.005800  0.420500  0.231500  1.0  0.0664
  H  H38  1  0.093900  0.344500  0.213300  1.0  0.1191
  H  H39  1  0.002900  0.349400  0.021800  1.0  0.1346
  H  H40  1  0.920100  0.428400  0.046800  1.0  0.0511
  H  H41  1  0.167700  0.277500  0.134900  1.0  0.0822
  H  H42  1  0.143100  0.283000  0.057300  1.0  0.091
  H  H43  1  0.989000  0.234800  0.072100  1.0  0.075
  H  H44  1  0.006600  0.232300  0.150800  1.0  0.0725
  H  H45  1  0.135600  0.175900  0.056800  1.0  0.0855
  H  H46  1  0.145500  0.171200  0.136000  1.0  0.09
  H  H47  1  0.010700  0.120100  0.001500  1.0  0.0955
  H  H48  1  0.901500  0.044200  0.001400  1.0  0.0733
  H  H49  1  0.902300  0.044200  0.201100  1.0  0.096
  H  H50  1  0.017800  0.114100  0.201000  1.0  0.1067
  H  H51  1  0.790700  0.523400  0.024500  1.0  0.072
  H  H52  1  0.678500  0.588400  0.976500  1.0  0.1026
  H  H53  1  0.588000  0.632800  0.159800  1.0  0.1256
  H  H54  1  0.698100  0.568700  0.204800  1.0  0.0615
  H  H55  1  0.486000  0.661500  0.054500  1.0  0.084
  H  H56  1  0.538200  0.651700  0.983500  1.0  0.0942
  H  H57  1  0.637800  0.719800  0.081800  1.0  0.068
  H  H58  1  0.660300  0.719200  0.003700  1.0  0.071
  H  H59  1  0.481600  0.764000  0.058300  1.0  0.074
  H  H60  1  0.515200  0.768100  0.981900  1.0  0.0804
  H  H61  1  0.640400  0.839600  0.949800  1.0  0.1105
  H  H62  1  0.743200  0.913500  0.979000  1.0  0.0864
  H  H63  1  0.682300  0.889600  0.169800  1.0  0.0511
  H  H64  1  0.582800  0.815300  0.143100  1.0  0.1033
  H  H65  1  0.691000  0.389400  0.728400  1.0  0.0423
  H  H66  1  0.748900  0.301500  0.756400  1.0  0.1083
  H  H67  1  0.764200  0.269600  0.558400  1.0  0.1024
  H  H68  1  0.713500  0.355400  0.537100  1.0  0.0541
  H  H69  1  0.814300  0.212900  0.723100  1.0  0.0842
  H  H70  1  0.839500  0.201700  0.646300  1.0  0.0806
  H  H71  1  0.638600  0.193600  0.700700  1.0  0.065
  H  H72  1  0.666100  0.180400  0.624800  1.0  0.0682
  H  H73  1  0.772700  0.105700  0.666300  1.0  0.0815
  H  H74  1  0.725300  0.116000  0.738400  1.0  0.0833
  H  H75  1  0.629700  0.094300  0.567300  1.0  0.1101
  H  H76  1  0.506000  0.032000  0.539800  1.0  0.0722
  H  H77  1  0.477900  0.988000  0.729400  1.0  0.0376
  H  H78  1  0.585900  0.052200  0.762200  1.0  0.0916
  H  H79  1  0.994200  0.579500  0.731500  1.0  0.0679
  H  H80  1  0.906100  0.655500  0.713300  1.0  0.1193
  H  H81  1  0.997100  0.650600  0.521800  1.0  0.1345
  H  H82  1  0.079900  0.571600  0.546800  1.0  0.0512
  H  H83  1  0.832300  0.722500  0.634900  1.0  0.0803
  H  H84  1  0.856900  0.717000  0.557300  1.0  0.0909
  H  H85  1  0.011000  0.765200  0.572100  1.0  0.0767
  H  H86  1  0.993400  0.767700  0.650800  1.0  0.0728
  H  H87  1  0.864400  0.824100  0.556800  1.0  0.0862
  H  H88  1  0.854500  0.828800  0.636000  1.0  0.0898
  H  H89  1  0.989300  0.879900  0.501500  1.0  0.0952
  H  H90  1  0.098500  0.955800  0.501400  1.0  0.0732
  H  H91  1  0.097700  0.955800  0.701100  1.0  0.0952
  H  H92  1  0.982200  0.885900  0.701000  1.0  0.107
  H  H93  1  0.209300  0.476600  0.524500  1.0  0.0725
  H  H94  1  0.321500  0.411600  0.476500  1.0  0.1027
  H  H95  1  0.412000  0.367200  0.659800  1.0  0.126
  H  H96  1  0.301900  0.431300  0.704800  1.0  0.0616
  H  H97  1  0.514000  0.338500  0.554500  1.0  0.0849
  H  H98  1  0.461800  0.348300  0.483500  1.0  0.0941
  H  H99  1  0.362200  0.280200  0.581800  1.0  0.0692
  H  H100  1  0.339700  0.280800  0.503700  1.0  0.0688
  H  H101  1  0.518400  0.236000  0.558300  1.0  0.0742
  H  H102  1  0.484800  0.231900  0.481900  1.0  0.0811
  H  H103  1  0.359600  0.160400  0.449800  1.0  0.1104
  H  H104  1  0.256800  0.086500  0.479000  1.0  0.0859
  H  H105  1  0.317700  0.110400  0.669800  1.0  0.0514
  H  H106  1  0.417200  0.184700  0.643100  1.0  0.1037
  H  H107  1  0.309000  0.610600  0.228400  1.0  0.0426
  H  H108  1  0.251100  0.698500  0.256400  1.0  0.1081
  H  H109  1  0.235800  0.730400  0.058400  1.0  0.103
  H  H110  1  0.286500  0.644600  0.037100  1.0  0.0543
  H  H111  1  0.185700  0.787100  0.223100  1.0  0.0839
  H  H112  1  0.160500  0.798300  0.146300  1.0  0.081
  H  H113  1  0.361400  0.806400  0.200700  1.0  0.0657
  H  H114  1  0.333900  0.819600  0.124800  1.0  0.0677
  H  H115  1  0.227300  0.894300  0.166300  1.0  0.0814
  H  H116  1  0.274700  0.884000  0.238400  1.0  0.0827
  H  H117  1  0.370300  0.905700  0.067300  1.0  0.1095
  H  H118  1  0.494000  0.968000  0.039800  1.0  0.0726
  H  H119  1  0.522100  0.012000  0.229400  1.0  0.0328
  H  H120  1  0.414100  0.947800  0.262200  1.0  0.0917
  H  H121  1  0.994200  0.920500  0.231500  1.0  0.0671
  H  H122  1  0.906100  0.844500  0.213300  1.0  0.1197
  H  H123  1  0.997100  0.849400  0.021800  1.0  0.1343
  H  H124  1  0.079900  0.928400  0.046800  1.0  0.0513
  H  H125  1  0.832300  0.777500  0.134900  1.0  0.0802
  H  H126  1  0.856900  0.783000  0.057300  1.0  0.091
  H  H127  1  0.011000  0.734800  0.072100  1.0  0.0769
  H  H128  1  0.993400  0.732300  0.150800  1.0  0.0728
  H  H129  1  0.864400  0.675900  0.056800  1.0  0.0862
  H  H130  1  0.854500  0.671200  0.136000  1.0  0.0898
  H  H131  1  0.989300  0.620100  0.001500  1.0  0.0956
  H  H132  1  0.098500  0.544200  0.001400  1.0  0.0737
  H  H133  1  0.097700  0.544200  0.201100  1.0  0.0959
  H  H134  1  0.982200  0.614100  0.201000  1.0  0.1071
  H  H135  1  0.209300  0.023400  0.024500  1.0  0.0719
  H  H136  1  0.321500  0.088400  0.976500  1.0  0.1027
  H  H137  1  0.412000  0.132800  0.159800  1.0  0.1256
  H  H138  1  0.301900  0.068700  0.204800  1.0  0.0614
  H  H139  1  0.514000  0.161500  0.054500  1.0  0.0853
  H  H140  1  0.461800  0.151700  0.983500  1.0  0.0945
  H  H141  1  0.362200  0.219800  0.081800  1.0  0.069
  H  H142  1  0.339700  0.219200  0.003700  1.0  0.0689
  H  H143  1  0.518400  0.264000  0.058300  1.0  0.0741
  H  H144  1  0.484800  0.268100  0.981900  1.0  0.0811
  H  H145  1  0.359600  0.339600  0.949800  1.0  0.1101
  H  H146  1  0.256800  0.413500  0.979000  1.0  0.0861
  H  H147  1  0.317700  0.389600  0.169800  1.0  0.0511
  H  H148  1  0.417200  0.315300  0.143100  1.0  0.1036
  H  H149  1  0.309000  0.889400  0.728400  1.0  0.0408
  H  H150  1  0.251100  0.801500  0.756400  1.0  0.1083
  H  H151  1  0.235800  0.769600  0.558400  1.0  0.1029
  H  H152  1  0.286500  0.855400  0.537100  1.0  0.0543
  H  H153  1  0.185700  0.712900  0.723100  1.0  0.0841
  H  H154  1  0.160500  0.701700  0.646300  1.0  0.081
  H  H155  1  0.361400  0.693600  0.700700  1.0  0.0655
  H  H156  1  0.333900  0.680400  0.624800  1.0  0.068
  H  H157  1  0.227300  0.605700  0.666300  1.0  0.0816
  H  H158  1  0.274700  0.616000  0.738400  1.0  0.0831
  H  H159  1  0.370300  0.594300  0.567300  1.0  0.1097
  H  H160  1  0.494000  0.532000  0.539800  1.0  0.0725
  H  H161  1  0.522100  0.488000  0.729400  1.0  0.0373
  H  H162  1  0.414100  0.552200  0.762200  1.0  0.0914
  H  H163  1  0.005800  0.079500  0.731500  1.0  0.0673
  H  H164  1  0.093900  0.155500  0.713300  1.0  0.1187
  H  H165  1  0.002900  0.150600  0.521800  1.0  0.1348
  H  H166  1  0.920100  0.071600  0.546800  1.0  0.0511
  H  H167  1  0.167700  0.222500  0.634900  1.0  0.0822
  H  H168  1  0.143100  0.217000  0.557300  1.0  0.0907
  H  H169  1  0.989000  0.265200  0.572100  1.0  0.0747
  H  H170  1  0.006600  0.267700  0.650800  1.0  0.0724
  H  H171  1  0.135600  0.324100  0.556800  1.0  0.0855
  H  H172  1  0.145500  0.328800  0.636000  1.0  0.0899
  H  H173  1  0.010700  0.379900  0.501500  1.0  0.0952
  H  H174  1  0.901500  0.455800  0.501400  1.0  0.0729
  H  H175  1  0.902300  0.455800  0.701100  1.0  0.0952
  H  H176  1  0.017800  0.385900  0.701000  1.0  0.1067
  H  H177  1  0.790700  0.976600  0.524500  1.0  0.0723
  H  H178  1  0.678500  0.911600  0.476500  1.0  0.1026
  H  H179  1  0.588000  0.867200  0.659800  1.0  0.1258
  H  H180  1  0.698100  0.931300  0.704800  1.0  0.0619
  H  H181  1  0.486000  0.838500  0.554500  1.0  0.0838
  H  H182  1  0.538200  0.848300  0.483500  1.0  0.0936
  H  H183  1  0.637800  0.780200  0.581800  1.0  0.0681
  H  H184  1  0.660300  0.780800  0.503700  1.0  0.0709
  H  H185  1  0.481600  0.736000  0.558300  1.0  0.0739
  H  H186  1  0.515200  0.731900  0.481900  1.0  0.0805
  H  H187  1  0.640400  0.660400  0.449800  1.0  0.1108
  H  H188  1  0.743200  0.586500  0.479000  1.0  0.0864
  H  H189  1  0.682300  0.610400  0.669800  1.0  0.0513
  H  H190  1  0.582800  0.684700  0.643100  1.0  0.1035
  H  H191  1  0.691000  0.110600  0.228400  1.0  0.0439
  H  H192  1  0.748900  0.198500  0.256400  1.0  0.1081
  H  H193  1  0.764200  0.230400  0.058400  1.0  0.1031
  H  H194  1  0.713500  0.144600  0.037100  1.0  0.0539
  H  H195  1  0.814300  0.287100  0.223100  1.0  0.084
  H  H196  1  0.839500  0.298300  0.146300  1.0  0.0805
  H  H197  1  0.638600  0.306400  0.200700  1.0  0.0662
  H  H198  1  0.666100  0.319600  0.124800  1.0  0.0679
  H  H199  1  0.772700  0.394300  0.166300  1.0  0.0814
  H  H200  1  0.725300  0.384000  0.238400  1.0  0.0831
  H  H201  1  0.629700  0.405700  0.067300  1.0  0.1099
  H  H202  1  0.506000  0.468000  0.039800  1.0  0.0724
  H  H203  1  0.477900  0.512000  0.229400  1.0  0.0333
  H  H204  1  0.585900  0.447800  0.262200  1.0  0.092
  C  C205  1  0.005400  0.406000  0.187700  1.0  0.1669
  C  C206  1  0.057700  0.360400  0.177600  1.0  -0.2588
  C  C207  1  0.060000  0.336000  0.115400  1.0  0.1595
  C  C208  1  0.005200  0.363400  0.065800  1.0  -0.246
  C  C209  1  0.955200  0.410600  0.081700  1.0  0.1691
  C  C210  1  0.113000  0.282000  0.102200  1.0  -0.1898
  C  C211  1  0.040700  0.231700  0.107100  1.0  -0.093
  C  C212  1  0.097300  0.175500  0.099000  1.0  -0.19
  C  C213  1  0.026300  0.126800  0.098600  1.0  0.142
  C  C214  1  0.990900  0.104900  0.042800  1.0  -0.2115
  C  C215  1  0.923600  0.058800  0.042700  1.0  0.1375
  C  C216  1  0.925700  0.058500  0.160000  1.0  0.1122
  C  C217  1  0.992600  0.101000  0.159800  1.0  -0.1784
  C  C218  1  0.751900  0.546600  0.052200  1.0  0.149
  C  C219  1  0.681800  0.584800  0.023500  1.0  -0.161
  C  C220  1  0.620000  0.615900  0.062400  1.0  0.1409
  C  C221  1  0.628300  0.611100  0.131300  1.0  -0.2277
  C  C222  1  0.696600  0.573800  0.158000  1.0  0.1719
  C  C223  1  0.550900  0.660300  0.030900  1.0  -0.1909
  C  C224  1  0.606300  0.717700  0.037300  1.0  -0.0846
  C  C225  1  0.540000  0.766800  0.028300  1.0  -0.1805
  C  C226  1  0.598100  0.818300  0.043800  1.0  0.1519
  C  C227  1  0.648100  0.849000  0.995300  1.0  -0.2015
  C  C228  1  0.709800  0.893700  0.013000  1.0  0.1406
  C  C229  1  0.674900  0.879800  0.124400  1.0  0.1654
  C  C230  1  0.614200  0.834900  0.108100  1.0  -0.2209
  C  C231  1  0.706300  0.364300  0.693900  1.0  0.1421
  C  C232  1  0.740400  0.311400  0.711100  1.0  -0.2326
  C  C233  1  0.761500  0.274200  0.660700  1.0  0.1427
  C  C234  1  0.749700  0.293400  0.594500  1.0  -0.2181
  C  C235  1  0.718700  0.344200  0.582200  1.0  0.1758
  C  C236  1  0.787600  0.215200  0.677300  1.0  -0.1994
  C  C237  1  0.691200  0.178800  0.671100  1.0  -0.0858
  C  C238  1  0.712100  0.118300  0.690000  1.0  -0.1907
  C  C239  1  0.624800  0.080800  0.672300  1.0  0.1215
  C  C240  1  0.597500  0.073600  0.601100  1.0  -0.2214
  C  C241  1  0.523900  0.035800  0.585200  1.0  0.1723
  C  C242  1  0.506700  0.011100  0.696600  1.0  0.1467
  C  C243  1  0.573400  0.048200  0.715900  1.0  -0.1877
  C  C244  1  0.994600  0.594000  0.687700  1.0  0.1677
  C  C245  1  0.942300  0.639600  0.677600  1.0  -0.261
  C  C246  1  0.940000  0.664000  0.615400  1.0  0.1595
  C  C247  1  0.994800  0.636600  0.565800  1.0  -0.2468
  C  C248  1  0.044800  0.589400  0.581700  1.0  0.1684
  C  C249  1  0.887000  0.718000  0.602200  1.0  -0.1911
  C  C250  1  0.959300  0.768300  0.607100  1.0  -0.092
  C  C251  1  0.902700  0.824500  0.599000  1.0  -0.1911
  C  C252  1  0.973700  0.873200  0.598600  1.0  0.142
  C  C253  1  0.009100  0.895100  0.542800  1.0  -0.2132
  C  C254  1  0.076400  0.941200  0.542700  1.0  0.1365
  C  C255  1  0.074300  0.941500  0.660000  1.0  0.1116
  C  C256  1  0.007400  0.899000  0.659800  1.0  -0.1795
  C  C257  1  0.248100  0.453400  0.552200  1.0  0.1481
  C  C258  1  0.318200  0.415200  0.523500  1.0  -0.1608
  C  C259  1  0.380000  0.384100  0.562400  1.0  0.1407
  C  C260  1  0.371700  0.388900  0.631300  1.0  -0.2267
  C  C261  1  0.303400  0.426200  0.658000  1.0  0.1723
  C  C262  1  0.449100  0.339700  0.530900  1.0  -0.1894
  C  C263  1  0.393700  0.282300  0.537300  1.0  -0.0876
  C  C264  1  0.460000  0.233200  0.528300  1.0  -0.1807
  C  C265  1  0.401900  0.181700  0.543800  1.0  0.1506
  C  C266  1  0.351900  0.151000  0.495300  1.0  -0.2013
  C  C267  1  0.290200  0.106300  0.513000  1.0  0.1405
  C  C268  1  0.325100  0.120200  0.624400  1.0  0.1652
  C  C269  1  0.385800  0.165100  0.608100  1.0  -0.2213
  C  C270  1  0.293700  0.635700  0.193900  1.0  0.1439
  C  C271  1  0.259600  0.688600  0.211100  1.0  -0.2312
  C  C272  1  0.238500  0.725800  0.160700  1.0  0.1424
  C  C273  1  0.250300  0.706600  0.094500  1.0  -0.2188
  C  C274  1  0.281300  0.655800  0.082200  1.0  0.1757
  C  C275  1  0.212400  0.784800  0.177300  1.0  -0.1994
  C  C276  1  0.308800  0.821200  0.171100  1.0  -0.0858
  C  C277  1  0.287900  0.881700  0.190000  1.0  -0.1891
  C  C278  1  0.375200  0.919200  0.172300  1.0  0.1219
  C  C279  1  0.402500  0.926400  0.101100  1.0  -0.221
  C  C280  1  0.476100  0.964200  0.085200  1.0  0.1723
  C  C281  1  0.493300  0.988900  0.196600  1.0  0.1463
  C  C282  1  0.426600  0.951800  0.215900  1.0  -0.1892
  C  C283  1  0.994600  0.906000  0.187700  1.0  0.1672
  C  C284  1  0.942300  0.860400  0.177600  1.0  -0.2607
  C  C285  1  0.940000  0.836000  0.115400  1.0  0.1596
  C  C286  1  0.994800  0.863400  0.065800  1.0  -0.2465
  C  C287  1  0.044800  0.910600  0.081700  1.0  0.168
  C  C288  1  0.887000  0.782000  0.102200  1.0  -0.1911
  C  C289  1  0.959300  0.731700  0.107100  1.0  -0.092
  C  C290  1  0.902700  0.675500  0.099000  1.0  -0.1913
  C  C291  1  0.973700  0.626800  0.098600  1.0  0.1418
  C  C292  1  0.009100  0.604900  0.042800  1.0  -0.2134
  C  C293  1  0.076400  0.558800  0.042700  1.0  0.1366
  C  C294  1  0.074300  0.558500  0.160000  1.0  0.1122
  C  C295  1  0.007400  0.601000  0.159800  1.0  -0.1797
  C  C296  1  0.248100  0.046600  0.052200  1.0  0.1495
  C  C297  1  0.318200  0.084800  0.023500  1.0  -0.1601
  C  C298  1  0.380000  0.115900  0.062400  1.0  0.1411
  C  C299  1  0.371700  0.111100  0.131300  1.0  -0.2275
  C  C300  1  0.303400  0.073800  0.158000  1.0  0.1717
  C  C301  1  0.449100  0.160300  0.030900  1.0  -0.1915
  C  C302  1  0.393700  0.217700  0.037300  1.0  -0.0875
  C  C303  1  0.460000  0.266800  0.028300  1.0  -0.1804
  C  C304  1  0.401900  0.318300  0.043800  1.0  0.151
  C  C305  1  0.351900  0.349000  0.995300  1.0  -0.2014
  C  C306  1  0.290200  0.393700  0.013000  1.0  0.1413
  C  C307  1  0.325100  0.379800  0.124400  1.0  0.1655
  C  C308  1  0.385800  0.334900  0.108100  1.0  -0.2212
  C  C309  1  0.293700  0.864300  0.693900  1.0  0.1438
  C  C310  1  0.259600  0.811400  0.711100  1.0  -0.2316
  C  C311  1  0.238500  0.774200  0.660700  1.0  0.1429
  C  C312  1  0.250300  0.793400  0.594500  1.0  -0.2182
  C  C313  1  0.281300  0.844200  0.582200  1.0  0.1757
  C  C314  1  0.212400  0.715200  0.677300  1.0  -0.2005
  C  C315  1  0.308800  0.678800  0.671100  1.0  -0.0859
  C  C316  1  0.287900  0.618300  0.690000  1.0  -0.1893
  C  C317  1  0.375200  0.580800  0.672300  1.0  0.1215
  C  C318  1  0.402500  0.573600  0.601100  1.0  -0.2209
  C  C319  1  0.476100  0.535800  0.585200  1.0  0.172
  C  C320  1  0.493300  0.511100  0.696600  1.0  0.1469
  C  C321  1  0.426600  0.548200  0.715900  1.0  -0.1884
  C  C322  1  0.005400  0.094000  0.687700  1.0  0.1674
  C  C323  1  0.057700  0.139600  0.677600  1.0  -0.2589
  C  C324  1  0.060000  0.164000  0.615400  1.0  0.1595
  C  C325  1  0.005200  0.136600  0.565800  1.0  -0.2464
  C  C326  1  0.955200  0.089400  0.581700  1.0  0.1697
  C  C327  1  0.113000  0.218000  0.602200  1.0  -0.19
  C  C328  1  0.040700  0.268300  0.607100  1.0  -0.0933
  C  C329  1  0.097300  0.324500  0.599000  1.0  -0.1893
  C  C330  1  0.026300  0.373200  0.598600  1.0  0.1421
  C  C331  1  0.990900  0.395100  0.542800  1.0  -0.2114
  C  C332  1  0.923600  0.441200  0.542700  1.0  0.1373
  C  C333  1  0.925700  0.441500  0.660000  1.0  0.1116
  C  C334  1  0.992600  0.399000  0.659800  1.0  -0.1782
  C  C335  1  0.751900  0.953400  0.552200  1.0  0.1476
  C  C336  1  0.681800  0.915200  0.523500  1.0  -0.162
  C  C337  1  0.620000  0.884100  0.562400  1.0  0.1409
  C  C338  1  0.628300  0.888900  0.631300  1.0  -0.2266
  C  C339  1  0.696600  0.926200  0.658000  1.0  0.1726
  C  C340  1  0.550900  0.839700  0.530900  1.0  -0.1899
  C  C341  1  0.606300  0.782300  0.537300  1.0  -0.0848
  C  C342  1  0.540000  0.733200  0.528300  1.0  -0.1807
  C  C343  1  0.598100  0.681700  0.543800  1.0  0.1512
  C  C344  1  0.648100  0.651000  0.495300  1.0  -0.2011
  C  C345  1  0.709800  0.606300  0.513000  1.0  0.1397
  C  C346  1  0.674900  0.620200  0.624400  1.0  0.1648
  C  C347  1  0.614200  0.665100  0.608100  1.0  -0.2211
  C  C348  1  0.706300  0.135700  0.193900  1.0  0.1426
  C  C349  1  0.740400  0.188600  0.211100  1.0  -0.2324
  C  C350  1  0.761500  0.225800  0.160700  1.0  0.1421
  C  C351  1  0.749700  0.206600  0.094500  1.0  -0.2187
  C  C352  1  0.718700  0.155800  0.082200  1.0  0.1757
  C  C353  1  0.787600  0.284800  0.177300  1.0  -0.1987
  C  C354  1  0.691200  0.321200  0.171100  1.0  -0.0856
  C  C355  1  0.712100  0.381700  0.190000  1.0  -0.1905
  C  C356  1  0.624800  0.419200  0.172300  1.0  0.122
  C  C357  1  0.597500  0.426400  0.101100  1.0  -0.2212
  C  C358  1  0.523900  0.464200  0.085200  1.0  0.1724
  C  C359  1  0.506700  0.488900  0.196600  1.0  0.146
  C  C360  1  0.573400  0.451800  0.215900  1.0  -0.1883
  N  N361  1  0.951200  0.433900  0.141400  1.0  -0.3352
  N  N362  1  0.891400  0.036200  0.099800  1.0  -0.2787
  N  N363  1  0.761500  0.544400  0.119400  1.0  -0.3502
  N  N364  1  0.722800  0.909100  0.078100  1.0  -0.2747
  N  N365  1  0.694400  0.380400  0.629600  1.0  -0.3134
  N  N366  1  0.476200  0.004300  0.629700  1.0  -0.3417
  N  N367  1  0.048800  0.566100  0.641400  1.0  -0.333
  N  N368  1  0.108600  0.963800  0.599800  1.0  -0.2777
  N  N369  1  0.238500  0.455600  0.619400  1.0  -0.3532
  N  N370  1  0.277200  0.090900  0.578100  1.0  -0.2751
  N  N371  1  0.305600  0.619600  0.129600  1.0  -0.3114
  N  N372  1  0.523800  0.995700  0.129700  1.0  -0.3427
  N  N373  1  0.048800  0.933900  0.141400  1.0  -0.3345
  N  N374  1  0.108600  0.536200  0.099800  1.0  -0.2773
  N  N375  1  0.238500  0.044400  0.119400  1.0  -0.3528
  N  N376  1  0.277200  0.409100  0.078100  1.0  -0.2752
  N  N377  1  0.305600  0.880400  0.629600  1.0  -0.3137
  N  N378  1  0.523800  0.504300  0.629700  1.0  -0.341
  N  N379  1  0.951200  0.066100  0.641400  1.0  -0.3341
  N  N380  1  0.891400  0.463800  0.599800  1.0  -0.278
  N  N381  1  0.761500  0.955600  0.619400  1.0  -0.3516
  N  N382  1  0.722800  0.590900  0.578100  1.0  -0.273
  N  N383  1  0.694400  0.119600  0.129600  1.0  -0.3126
  N  N384  1  0.476200  0.495700  0.129700  1.0  -0.3418
  O  O385  1  0.857500  0.503400  0.265800  1.0  -0.7701
  O  O386  1  0.960800  0.557500  0.372200  1.0  -0.8526
  O  O387  1  0.756000  0.508200  0.392300  1.0  -0.8493
  O  O388  1  0.681500  0.465900  0.509200  1.0  -0.7249
  O  O389  1  0.538300  0.495800  0.414800  1.0  -0.8332
  O  O390  1  0.360400  0.486600  0.338600  1.0  -0.7739
  O  O391  1  0.373400  0.572500  0.437600  1.0  -0.7521
  O  O392  1  0.141600  0.507700  0.312700  1.0  -0.7987
  O  O393  1  0.150200  0.564700  0.439200  1.0  -0.7492
  O  O394  1  0.142500  0.496600  0.765800  1.0  -0.7718
  O  O395  1  0.039200  0.442500  0.872200  1.0  -0.8523
  O  O396  1  0.244000  0.491800  0.892300  1.0  -0.8491
  O  O397  1  0.318500  0.534100  0.009200  1.0  -0.7264
  O  O398  1  0.461700  0.504200  0.914800  1.0  -0.832
  O  O399  1  0.639600  0.513400  0.838600  1.0  -0.7744
  O  O400  1  0.626600  0.427500  0.937600  1.0  -0.7511
  O  O401  1  0.858400  0.492300  0.812700  1.0  -0.7986
  O  O402  1  0.849800  0.435300  0.939200  1.0  -0.7484
  O  O403  1  0.142500  0.003400  0.265800  1.0  -0.771
  O  O404  1  0.039200  0.057500  0.372200  1.0  -0.8528
  O  O405  1  0.244000  0.008200  0.392300  1.0  -0.849
  O  O406  1  0.318500  0.965900  0.509200  1.0  -0.7257
  O  O407  1  0.461700  0.995800  0.414800  1.0  -0.833
  O  O408  1  0.639600  0.986600  0.338600  1.0  -0.7738
  O  O409  1  0.626600  0.072500  0.437600  1.0  -0.7513
  O  O410  1  0.858400  0.007700  0.312700  1.0  -0.7987
  O  O411  1  0.849800  0.064700  0.439200  1.0  -0.7489
  O  O412  1  0.857500  0.996600  0.765800  1.0  -0.7709
  O  O413  1  0.960800  0.942500  0.872200  1.0  -0.8522
  O  O414  1  0.756000  0.991800  0.892300  1.0  -0.8493
  O  O415  1  0.681500  0.034100  0.009200  1.0  -0.7258
  O  O416  1  0.538300  0.004200  0.914800  1.0  -0.8322
  O  O417  1  0.360400  0.013400  0.838600  1.0  -0.7745
  O  O418  1  0.373400  0.927500  0.937600  1.0  -0.7514
  O  O419  1  0.141600  0.992300  0.812700  1.0  -0.7993
  O  O420  1  0.150200  0.935300  0.939200  1.0  -0.7487
