# generated using pymatgen
data_MgC6SO4
_symmetry_space_group_name_H-M   'P 1'
_cell_length_a   22.80300000
_cell_length_b   13.45710000
_cell_length_c   15.56370000
_cell_angle_alpha   90.00000000
_cell_angle_beta   93.76100000
_cell_angle_gamma   90.00000000
_symmetry_Int_Tables_number   1
_chemical_formula_structural   MgC6SO4
_chemical_formula_sum   'Mg12 C72 S12 O48'
_cell_volume   4765.62636975
_cell_formula_units_Z   12
loop_
 _symmetry_equiv_pos_site_id
 _symmetry_equiv_pos_as_xyz
  1  'x, y, z'
loop_
 _atom_site_type_symbol
 _atom_site_label
 _atom_site_symmetry_multiplicity
 _atom_site_fract_x
 _atom_site_fract_y
 _atom_site_fract_z
 _atom_site_occupancy
 _atom_site_charge
  Mg  Mg1  1  0.748150  0.191080  0.745040  1.0  1.5714
  Mg  Mg2  1  0.846000  0.971190  0.762040  1.0  1.5699
  Mg  Mg3  1  0.905800  0.227210  0.734060  1.0  1.5316
  Mg  Mg4  1  0.248150  0.691080  0.745040  1.0  1.5714
  Mg  Mg5  1  0.346000  0.471190  0.762040  1.0  1.5699
  Mg  Mg6  1  0.405800  0.727210  0.734060  1.0  1.5316
  Mg  Mg7  1  0.251850  0.191080  0.254960  1.0  1.5692
  Mg  Mg8  1  0.154000  0.971190  0.237960  1.0  1.571
  Mg  Mg9  1  0.094200  0.227210  0.265940  1.0  1.5292
  Mg  Mg10  1  0.751850  0.691080  0.254960  1.0  1.5692
  Mg  Mg11  1  0.654000  0.471190  0.237960  1.0  1.571
  Mg  Mg12  1  0.594200  0.727210  0.265940  1.0  1.5292
  C  C13  1  0.649500  0.008900  0.958200  1.0  -0.0531
  C  C14  1  0.716800  0.415100  0.468300  1.0  -0.0468
  C  C15  1  0.983200  0.914600  0.536500  1.0  -0.034
  C  C16  1  0.978700  0.175300  0.964300  1.0  -0.0152
  C  C17  1  0.967400  0.007500  0.559800  1.0  -0.1598
  C  C18  1  0.668000  0.881700  0.058100  1.0  -0.1443
  C  C19  1  0.628300  0.950800  0.031300  1.0  -0.0372
  C  C20  1  0.703200  0.979800  0.935600  1.0  -0.1284
  C  C21  1  0.928700  0.037600  0.629700  1.0  0.6456
  C  C22  1  0.964600  0.080200  0.938600  1.0  -0.1655
  C  C23  1  0.665100  0.813300  0.132200  1.0  0.6447
  C  C24  1  0.921100  0.046600  0.868200  1.0  0.6358
  C  C25  1  0.738100  0.353500  0.537100  1.0  -0.0256
  C  C26  1  0.737300  0.022000  0.866700  1.0  0.6662
  C  C27  1  0.832700  0.316000  0.626500  1.0  0.6499
  C  C28  1  0.754800  0.551700  0.370900  1.0  0.6339
  C  C29  1  0.759900  0.477000  0.439400  1.0  -0.1433
  C  C30  1  0.795800  0.367300  0.559400  1.0  -0.1606
  C  C31  1  0.149500  0.508900  0.958200  1.0  -0.0531
  C  C32  1  0.216800  0.915100  0.468300  1.0  -0.0468
  C  C33  1  0.483200  0.414600  0.536500  1.0  -0.034
  C  C34  1  0.478700  0.675300  0.964300  1.0  -0.0152
  C  C35  1  0.467400  0.507500  0.559800  1.0  -0.1598
  C  C36  1  0.168000  0.381700  0.058100  1.0  -0.1443
  C  C37  1  0.128300  0.450800  0.031300  1.0  -0.0372
  C  C38  1  0.203200  0.479800  0.935600  1.0  -0.1284
  C  C39  1  0.428700  0.537600  0.629700  1.0  0.6456
  C  C40  1  0.464600  0.580200  0.938600  1.0  -0.1655
  C  C41  1  0.165100  0.313300  0.132200  1.0  0.6447
  C  C42  1  0.421100  0.546600  0.868200  1.0  0.6358
  C  C43  1  0.238100  0.853500  0.537100  1.0  -0.0256
  C  C44  1  0.237300  0.522000  0.866700  1.0  0.6662
  C  C45  1  0.332700  0.816000  0.626500  1.0  0.6499
  C  C46  1  0.254800  0.051700  0.370900  1.0  0.6339
  C  C47  1  0.259900  0.977000  0.439400  1.0  -0.1433
  C  C48  1  0.295800  0.867300  0.559400  1.0  -0.1606
  C  C49  1  0.350500  0.008900  0.041800  1.0  -0.0523
  C  C50  1  0.283200  0.415100  0.531700  1.0  -0.0424
  C  C51  1  0.016800  0.914600  0.463500  1.0  -0.0324
  C  C52  1  0.021300  0.175300  0.035700  1.0  -0.0149
  C  C53  1  0.032600  0.007500  0.440200  1.0  -0.1591
  C  C54  1  0.332000  0.881700  0.941900  1.0  -0.1444
  C  C55  1  0.371700  0.950800  0.968700  1.0  -0.0351
  C  C56  1  0.296800  0.979800  0.064400  1.0  -0.1287
  C  C57  1  0.071300  0.037600  0.370300  1.0  0.6454
  C  C58  1  0.035400  0.080200  0.061400  1.0  -0.1657
  C  C59  1  0.334900  0.813300  0.867800  1.0  0.6448
  C  C60  1  0.078900  0.046600  0.131800  1.0  0.6332
  C  C61  1  0.261900  0.353500  0.462900  1.0  -0.0237
  C  C62  1  0.262700  0.022000  0.133300  1.0  0.6671
  C  C63  1  0.167300  0.316000  0.373500  1.0  0.6496
  C  C64  1  0.245200  0.551700  0.629100  1.0  0.635
  C  C65  1  0.240100  0.477000  0.560600  1.0  -0.1427
  C  C66  1  0.204200  0.367300  0.440600  1.0  -0.1604
  C  C67  1  0.850500  0.508900  0.041800  1.0  -0.0523
  C  C68  1  0.783200  0.915100  0.531700  1.0  -0.0424
  C  C69  1  0.516800  0.414600  0.463500  1.0  -0.0324
  C  C70  1  0.521300  0.675300  0.035700  1.0  -0.0149
  C  C71  1  0.532600  0.507500  0.440200  1.0  -0.1591
  C  C72  1  0.832000  0.381700  0.941900  1.0  -0.1444
  C  C73  1  0.871700  0.450800  0.968700  1.0  -0.0351
  C  C74  1  0.796800  0.479800  0.064400  1.0  -0.1287
  C  C75  1  0.571300  0.537600  0.370300  1.0  0.6454
  C  C76  1  0.535400  0.580200  0.061400  1.0  -0.1657
  C  C77  1  0.834900  0.313300  0.867800  1.0  0.6448
  C  C78  1  0.578900  0.546600  0.131800  1.0  0.6332
  C  C79  1  0.761900  0.853500  0.462900  1.0  -0.0237
  C  C80  1  0.762700  0.522000  0.133300  1.0  0.6671
  C  C81  1  0.667300  0.816000  0.373500  1.0  0.6496
  C  C82  1  0.745200  0.051700  0.629100  1.0  0.635
  C  C83  1  0.740100  0.977000  0.560600  1.0  -0.1427
  C  C84  1  0.704200  0.867300  0.440600  1.0  -0.1604
  S  S85  1  0.730220  0.884790  0.999510  1.0  0.1187
  S  S86  1  0.825550  0.457650  0.496980  1.0  0.1042
  S  S87  1  0.230220  0.384790  0.999510  1.0  0.1168
  S  S88  1  0.325550  0.957650  0.496980  1.0  0.1042
  S  S89  1  0.269780  0.884790  0.000490  1.0  0.1188
  S  S90  1  0.174450  0.457650  0.503020  1.0  0.107
  S  S91  1  0.769780  0.384790  0.000490  1.0  0.1188
  S  S92  1  0.674450  0.957650  0.503020  1.0  0.107
  S  S93  1  0.000000  0.095490  0.500000  1.0  0.1222
  S  S94  1  0.500000  0.595490  0.500000  1.0  0.1222
  S  S95  1  0.000000  0.992830  0.000000  1.0  0.1206
  S  S96  1  0.500000  0.492830  0.000000  1.0  0.1206
  O  O97  1  0.923700  0.128200  0.640900  1.0  -0.6673
  O  O98  1  0.785100  0.981000  0.854400  1.0  -0.6537
  O  O99  1  0.710700  0.547300  0.316800  1.0  -0.7362
  O  O100  1  0.714300  0.091900  0.825000  1.0  -0.6186
  O  O101  1  0.906500  0.967900  0.669900  1.0  -0.6295
  O  O102  1  0.618400  0.818400  0.170500  1.0  -0.6282
  O  O103  1  0.895930  0.108000  0.816500  1.0  -0.7155
  O  O104  1  0.910300  0.956100  0.863700  1.0  -0.6031
  O  O105  1  0.708200  0.759200  0.151200  1.0  -0.6789
  O  O106  1  0.886900  0.337700  0.636000  1.0  -0.592
  O  O107  1  0.791800  0.619100  0.367600  1.0  -0.5552
  O  O108  1  0.810700  0.252600  0.673500  1.0  -0.7039
  O  O109  1  0.423700  0.628200  0.640900  1.0  -0.6673
  O  O110  1  0.285100  0.481000  0.854400  1.0  -0.6537
  O  O111  1  0.210700  0.047300  0.316800  1.0  -0.7362
  O  O112  1  0.214300  0.591900  0.825000  1.0  -0.6186
  O  O113  1  0.406500  0.467900  0.669900  1.0  -0.6295
  O  O114  1  0.118400  0.318400  0.170500  1.0  -0.6282
  O  O115  1  0.395930  0.608000  0.816500  1.0  -0.7155
  O  O116  1  0.410300  0.456100  0.863700  1.0  -0.6031
  O  O117  1  0.208200  0.259200  0.151200  1.0  -0.6789
  O  O118  1  0.386900  0.837700  0.636000  1.0  -0.592
  O  O119  1  0.291800  0.119100  0.367600  1.0  -0.5552
  O  O120  1  0.310700  0.752600  0.673500  1.0  -0.7039
  O  O121  1  0.076300  0.128200  0.359100  1.0  -0.6699
  O  O122  1  0.214900  0.981000  0.145600  1.0  -0.6541
  O  O123  1  0.289300  0.547300  0.683200  1.0  -0.7376
  O  O124  1  0.285700  0.091900  0.175000  1.0  -0.6181
  O  O125  1  0.093500  0.967900  0.330100  1.0  -0.6311
  O  O126  1  0.381600  0.818400  0.829500  1.0  -0.6272
  O  O127  1  0.104070  0.108000  0.183500  1.0  -0.716
  O  O128  1  0.089700  0.956100  0.136300  1.0  -0.6029
  O  O129  1  0.291800  0.759200  0.848800  1.0  -0.6783
  O  O130  1  0.113100  0.337700  0.364000  1.0  -0.592
  O  O131  1  0.208200  0.619100  0.632400  1.0  -0.5558
  O  O132  1  0.189300  0.252600  0.326500  1.0  -0.7035
  O  O133  1  0.576300  0.628200  0.359100  1.0  -0.6699
  O  O134  1  0.714900  0.481000  0.145600  1.0  -0.6541
  O  O135  1  0.789300  0.047300  0.683200  1.0  -0.7376
  O  O136  1  0.785700  0.591900  0.175000  1.0  -0.6181
  O  O137  1  0.593500  0.467900  0.330100  1.0  -0.6311
  O  O138  1  0.881600  0.318400  0.829500  1.0  -0.6272
  O  O139  1  0.604070  0.608000  0.183500  1.0  -0.716
  O  O140  1  0.589700  0.456100  0.136300  1.0  -0.6029
  O  O141  1  0.791800  0.259200  0.848800  1.0  -0.6783
  O  O142  1  0.613100  0.837700  0.364000  1.0  -0.592
  O  O143  1  0.708200  0.119100  0.632400  1.0  -0.5558
  O  O144  1  0.689300  0.752600  0.326500  1.0  -0.7035
