# generated using pymatgen
data_Mg3H6(C9O8)2
_symmetry_space_group_name_H-M   'P 1'
_cell_length_a   14.13810000
_cell_length_b   14.13810000
_cell_length_c   21.55800000
_cell_angle_alpha   90.00000000
_cell_angle_beta   90.00000000
_cell_angle_gamma   120.00000000
_symmetry_Int_Tables_number   1
_chemical_formula_structural   Mg3H6(C9O8)2
_chemical_formula_sum   'Mg9 H18 C54 O48'
_cell_volume   3731.82437952
_cell_formula_units_Z   3
loop_
 _symmetry_equiv_pos_site_id
 _symmetry_equiv_pos_as_xyz
  1  'x, y, z'
loop_
 _atom_site_type_symbol
 _atom_site_label
 _atom_site_symmetry_multiplicity
 _atom_site_fract_x
 _atom_site_fract_y
 _atom_site_fract_z
 _atom_site_occupancy
 _atom_site_charge
  Mg  Mg1  1  0.142890  0.142890  0.000000  1.0  1.5787
  Mg  Mg2  1  0.809560  0.476220  0.333333  1.0  1.5787
  Mg  Mg3  1  0.476220  0.809560  0.666667  1.0  1.5787
  Mg  Mg4  1  0.857110  0.000000  0.000000  1.0  1.5778
  Mg  Mg5  1  0.523780  0.333333  0.333333  1.0  1.5778
  Mg  Mg6  1  0.190440  0.666667  0.666667  1.0  1.5778
  Mg  Mg7  1  0.000000  0.857110  0.000000  1.0  1.5784
  Mg  Mg8  1  0.666667  0.190440  0.333333  1.0  1.5784
  Mg  Mg9  1  0.333333  0.523780  0.666667  1.0  1.5784
  H  H10  1  0.265200  0.850400  0.125400  1.0  0.1047
  H  H11  1  0.931870  0.183730  0.458730  1.0  0.1059
  H  H12  1  0.598530  0.517070  0.792070  1.0  0.1047
  H  H13  1  0.149600  0.414800  0.125400  1.0  0.1026
  H  H14  1  0.816270  0.748130  0.458730  1.0  0.1038
  H  H15  1  0.482930  0.081470  0.792070  1.0  0.1026
  H  H16  1  0.585200  0.734800  0.125400  1.0  0.101
  H  H17  1  0.251870  0.068130  0.458730  1.0  0.1034
  H  H18  1  0.918530  0.401470  0.792070  1.0  0.101
  H  H19  1  0.850400  0.265200  0.874600  1.0  0.1031
  H  H20  1  0.517070  0.598530  0.207930  1.0  0.1031
  H  H21  1  0.183730  0.931870  0.541270  1.0  0.1043
  H  H22  1  0.414800  0.149600  0.874600  1.0  0.1039
  H  H23  1  0.081470  0.482930  0.207930  1.0  0.1039
  H  H24  1  0.748130  0.816270  0.541270  1.0  0.1052
  H  H25  1  0.734800  0.585200  0.874600  1.0  0.1006
  H  H26  1  0.401470  0.918530  0.207930  1.0  0.1006
  H  H27  1  0.068130  0.251870  0.541270  1.0  0.1028
  C  C28  1  0.193500  0.003200  0.084800  1.0  0.7016
  C  C29  1  0.270800  0.999000  0.131100  1.0  -0.0062
  C  C30  1  0.295500  0.918600  0.144200  1.0  -0.0865
  C  C31  1  0.860170  0.336530  0.418130  1.0  0.7016
  C  C32  1  0.937470  0.332330  0.464430  1.0  -0.0062
  C  C33  1  0.962170  0.251930  0.477530  1.0  -0.0866
  C  C34  1  0.526830  0.669870  0.751470  1.0  0.6962
  C  C35  1  0.604130  0.665670  0.797770  1.0  -0.0076
  C  C36  1  0.628830  0.585270  0.810870  1.0  -0.0865
  C  C37  1  0.996800  0.190300  0.084800  1.0  0.6995
  C  C38  1  0.001000  0.271800  0.131100  1.0  -0.0072
  C  C39  1  0.081400  0.376900  0.144200  1.0  -0.0834
  C  C40  1  0.663470  0.523630  0.418130  1.0  0.6993
  C  C41  1  0.667670  0.605130  0.464430  1.0  -0.0072
  C  C42  1  0.748070  0.710230  0.477530  1.0  -0.0834
  C  C43  1  0.330130  0.856970  0.751470  1.0  0.7039
  C  C44  1  0.334330  0.938470  0.797770  1.0  -0.0071
  C  C45  1  0.414730  0.043570  0.810870  1.0  -0.0834
  C  C46  1  0.809700  0.806500  0.084800  1.0  0.6967
  C  C47  1  0.728200  0.729200  0.131100  1.0  -0.0056
  C  C48  1  0.623100  0.704500  0.144200  1.0  -0.087
  C  C49  1  0.476370  0.139830  0.418130  1.0  0.6966
  C  C50  1  0.394870  0.062530  0.464430  1.0  -0.0056
  C  C51  1  0.289770  0.037830  0.477530  1.0  -0.087
  C  C52  1  0.143030  0.473170  0.751470  1.0  0.704
  C  C53  1  0.061530  0.395870  0.797770  1.0  -0.0056
  C  C54  1  0.956430  0.371170  0.810870  1.0  -0.087
  C  C55  1  0.003200  0.193500  0.915200  1.0  0.7043
  C  C56  1  0.999000  0.270800  0.868900  1.0  -0.0052
  C  C57  1  0.918600  0.295500  0.855800  1.0  -0.0884
  C  C58  1  0.669870  0.526830  0.248530  1.0  0.6997
  C  C59  1  0.665670  0.604130  0.202230  1.0  -0.0066
  C  C60  1  0.585270  0.628830  0.189130  1.0  -0.0884
  C  C61  1  0.336530  0.860170  0.581870  1.0  0.7043
  C  C62  1  0.332330  0.937470  0.535570  1.0  -0.0052
  C  C63  1  0.251930  0.962170  0.522470  1.0  -0.0885
  C  C64  1  0.190300  0.996800  0.915200  1.0  0.6976
  C  C65  1  0.271800  0.001000  0.868900  1.0  -0.0053
  C  C66  1  0.376900  0.081400  0.855800  1.0  -0.0864
  C  C67  1  0.856970  0.330130  0.248530  1.0  0.7019
  C  C68  1  0.938470  0.334330  0.202230  1.0  -0.0052
  C  C69  1  0.043570  0.414730  0.189130  1.0  -0.0864
  C  C70  1  0.523630  0.663470  0.581870  1.0  0.6974
  C  C71  1  0.605130  0.667670  0.535570  1.0  -0.0053
  C  C72  1  0.710230  0.748070  0.522470  1.0  -0.0865
  C  C73  1  0.806500  0.809700  0.915200  1.0  0.6971
  C  C74  1  0.729200  0.728200  0.868900  1.0  -0.0059
  C  C75  1  0.704500  0.623100  0.855800  1.0  -0.0857
  C  C76  1  0.473170  0.143030  0.248530  1.0  0.7041
  C  C77  1  0.395870  0.061530  0.202230  1.0  -0.0058
  C  C78  1  0.371170  0.956430  0.189130  1.0  -0.0858
  C  C79  1  0.139830  0.476370  0.581870  1.0  0.697
  C  C80  1  0.062530  0.394870  0.535570  1.0  -0.0059
  C  C81  1  0.037830  0.289770  0.522470  1.0  -0.0857
  O  O82  1  0.202300  0.093900  0.075570  1.0  -0.6184
  O  O83  1  0.129900  0.916200  0.061000  1.0  -0.6302
  O  O84  1  0.868970  0.427230  0.408900  1.0  -0.6184
  O  O85  1  0.796570  0.249530  0.394330  1.0  -0.6302
  O  O86  1  0.535630  0.760570  0.742240  1.0  -0.6184
  O  O87  1  0.463230  0.582870  0.727670  1.0  -0.6302
  O  O88  1  0.906100  0.108400  0.075570  1.0  -0.6191
  O  O89  1  0.083800  0.213700  0.061000  1.0  -0.6294
  O  O90  1  0.572770  0.441730  0.408900  1.0  -0.6191
  O  O91  1  0.750470  0.547030  0.394330  1.0  -0.6294
  O  O92  1  0.239430  0.775070  0.742240  1.0  -0.619
  O  O93  1  0.417130  0.880370  0.727670  1.0  -0.6294
  O  O94  1  0.891600  0.797700  0.075570  1.0  -0.6173
  O  O95  1  0.786300  0.870100  0.061000  1.0  -0.6315
  O  O96  1  0.558270  0.131030  0.408900  1.0  -0.6173
  O  O97  1  0.452970  0.203430  0.394330  1.0  -0.6315
  O  O98  1  0.224930  0.464370  0.742240  1.0  -0.6173
  O  O99  1  0.119630  0.536770  0.727670  1.0  -0.6315
  O  O100  1  0.093900  0.202300  0.924430  1.0  -0.6181
  O  O101  1  0.916200  0.129900  0.939000  1.0  -0.6311
  O  O102  1  0.760570  0.535630  0.257760  1.0  -0.6181
  O  O103  1  0.582870  0.463230  0.272330  1.0  -0.6311
  O  O104  1  0.427230  0.868970  0.591100  1.0  -0.6181
  O  O105  1  0.249530  0.796570  0.605670  1.0  -0.6312
  O  O106  1  0.108400  0.906100  0.924430  1.0  -0.6194
  O  O107  1  0.213700  0.083800  0.939000  1.0  -0.6307
  O  O108  1  0.775070  0.239430  0.257760  1.0  -0.6194
  O  O109  1  0.880370  0.417130  0.272330  1.0  -0.6307
  O  O110  1  0.441730  0.572770  0.591100  1.0  -0.6194
  O  O111  1  0.547030  0.750470  0.605670  1.0  -0.6307
  O  O112  1  0.797700  0.891600  0.924430  1.0  -0.6199
  O  O113  1  0.870100  0.786300  0.939000  1.0  -0.6297
  O  O114  1  0.464370  0.224930  0.257760  1.0  -0.6199
  O  O115  1  0.536770  0.119630  0.272330  1.0  -0.6297
  O  O116  1  0.131030  0.558270  0.591100  1.0  -0.62
  O  O117  1  0.203430  0.452970  0.605670  1.0  -0.6297
  O  O118  1  0.333333  0.087220  0.166670  1.0  -0.1421
  O  O119  1  0.000000  0.420550  0.500000  1.0  -0.1445
  O  O120  1  0.912780  0.246120  0.166670  1.0  -0.1441
  O  O121  1  0.579450  0.579450  0.500000  1.0  -0.1502
  O  O122  1  0.753880  0.666667  0.166670  1.0  -0.1505
  O  O123  1  0.420550  0.000000  0.500000  1.0  -0.147
  O  O124  1  0.087220  0.333333  0.833330  1.0  -0.1456
  O  O125  1  0.246120  0.912780  0.833330  1.0  -0.1441
  O  O126  1  0.666667  0.753880  0.833330  1.0  -0.1468
  O  O127  1  0.000000  0.000000  0.000000  1.0  -1.0683
  O  O128  1  0.666667  0.333333  0.333333  1.0  -1.0677
  O  O129  1  0.333333  0.666667  0.666667  1.0  -1.0683
