# generated using pymatgen
data_MgH4(C2O)4
_symmetry_space_group_name_H-M   'P 1'
_cell_length_a   22.81040000
_cell_length_b   22.81040000
_cell_length_c   16.80990000
_cell_angle_alpha   90.00000000
_cell_angle_beta   90.00000000
_cell_angle_gamma   120.00000000
_symmetry_Int_Tables_number   1
_chemical_formula_structural   MgH4(C2O)4
_chemical_formula_sum   'Mg18 H72 C144 O72'
_cell_volume   7574.63244402
_cell_formula_units_Z   18
loop_
 _symmetry_equiv_pos_site_id
 _symmetry_equiv_pos_as_xyz
  1  'x, y, z'
loop_
 _atom_site_type_symbol
 _atom_site_label
 _atom_site_symmetry_multiplicity
 _atom_site_fract_x
 _atom_site_fract_y
 _atom_site_fract_z
 _atom_site_occupancy
 _atom_site_charge
  Mg  Mg1  1  0.734820  0.961720  0.706700  1.0  1.5459
  Mg  Mg2  1  0.560310  0.931670  0.732320  1.0  1.533
  Mg  Mg3  1  0.706160  0.107650  0.712000  1.0  1.5348
  Mg  Mg4  1  0.038280  0.773100  0.706700  1.0  1.5526
  Mg  Mg5  1  0.068330  0.628640  0.732320  1.0  1.5299
  Mg  Mg6  1  0.892350  0.598510  0.712000  1.0  1.5347
  Mg  Mg7  1  0.226900  0.265180  0.706700  1.0  1.5513
  Mg  Mg8  1  0.371360  0.439690  0.732320  1.0  1.5341
  Mg  Mg9  1  0.401490  0.293840  0.712000  1.0  1.5309
  Mg  Mg10  1  0.038280  0.265180  0.206700  1.0  1.5484
  Mg  Mg11  1  0.068330  0.439690  0.232320  1.0  1.534
  Mg  Mg12  1  0.892350  0.293840  0.212000  1.0  1.5308
  Mg  Mg13  1  0.226900  0.961720  0.206700  1.0  1.5514
  Mg  Mg14  1  0.371360  0.931670  0.232320  1.0  1.5318
  Mg  Mg15  1  0.401490  0.107650  0.212000  1.0  1.5314
  Mg  Mg16  1  0.734820  0.773100  0.206700  1.0  1.5532
  Mg  Mg17  1  0.560310  0.628640  0.232320  1.0  1.5336
  Mg  Mg18  1  0.706160  0.598510  0.212000  1.0  1.5291
  H  H19  1  0.515200  0.761300  0.060200  1.0  0.0854
  H  H20  1  0.528100  0.823100  0.943700  1.0  0.0896
  H  H21  1  0.713700  0.851000  0.918600  1.0  0.0742
  H  H22  1  0.697600  0.779700  0.023000  1.0  0.0753
  H  H23  1  0.797000  0.176900  0.510200  1.0  0.0969
  H  H24  1  0.856600  0.226400  0.393300  1.0  0.0691
  H  H25  1  0.908300  0.086800  0.373600  1.0  0.0843
  H  H26  1  0.852400  0.036300  0.491500  1.0  0.0873
  H  H27  1  0.597900  0.153800  0.535100  1.0  0.0875
  H  H28  1  0.542200  0.164400  0.423600  1.0  0.0947
  H  H29  1  0.419900  0.963700  0.410800  1.0  0.0944
  H  H30  1  0.472300  0.950400  0.523200  1.0  0.076
  H  H31  1  0.238700  0.753900  0.060200  1.0  0.0853
  H  H32  1  0.176900  0.705000  0.943700  1.0  0.09
  H  H33  1  0.149000  0.862700  0.918600  1.0  0.0745
  H  H34  1  0.220300  0.917900  0.023000  1.0  0.0748
  H  H35  1  0.823100  0.620100  0.510200  1.0  0.0967
  H  H36  1  0.773600  0.630200  0.393300  1.0  0.0697
  H  H37  1  0.913200  0.821500  0.373600  1.0  0.0843
  H  H38  1  0.963700  0.816100  0.491500  1.0  0.0872
  H  H39  1  0.846200  0.444100  0.535100  1.0  0.0873
  H  H40  1  0.835600  0.377800  0.423600  1.0  0.0939
  H  H41  1  0.036300  0.456200  0.410800  1.0  0.0938
  H  H42  1  0.049600  0.521900  0.523200  1.0  0.0761
  H  H43  1  0.246100  0.484800  0.060200  1.0  0.0864
  H  H44  1  0.295000  0.471900  0.943700  1.0  0.091
  H  H45  1  0.137300  0.286300  0.918600  1.0  0.0736
  H  H46  1  0.082100  0.302400  0.023000  1.0  0.0743
  H  H47  1  0.379900  0.203000  0.510200  1.0  0.097
  H  H48  1  0.369800  0.143400  0.393300  1.0  0.0707
  H  H49  1  0.178500  0.091700  0.373600  1.0  0.0841
  H  H50  1  0.183900  0.147600  0.491500  1.0  0.0872
  H  H51  1  0.555900  0.402100  0.535100  1.0  0.0871
  H  H52  1  0.622200  0.457800  0.423600  1.0  0.0941
  H  H53  1  0.543800  0.580100  0.410800  1.0  0.0934
  H  H54  1  0.478100  0.527700  0.523200  1.0  0.0759
  H  H55  1  0.238700  0.484800  0.560200  1.0  0.0861
  H  H56  1  0.176900  0.471900  0.443700  1.0  0.0912
  H  H57  1  0.149000  0.286300  0.418600  1.0  0.0738
  H  H58  1  0.220300  0.302400  0.523000  1.0  0.0748
  H  H59  1  0.823100  0.203000  0.010200  1.0  0.0964
  H  H60  1  0.773600  0.143400  0.893300  1.0  0.0706
  H  H61  1  0.913200  0.091700  0.873600  1.0  0.0843
  H  H62  1  0.963700  0.147600  0.991500  1.0  0.0865
  H  H63  1  0.846200  0.402100  0.035100  1.0  0.0869
  H  H64  1  0.835600  0.457800  0.923600  1.0  0.0941
  H  H65  1  0.036300  0.580100  0.910800  1.0  0.0934
  H  H66  1  0.049600  0.527700  0.023200  1.0  0.0759
  H  H67  1  0.246100  0.761300  0.560200  1.0  0.0858
  H  H68  1  0.295000  0.823100  0.443700  1.0  0.0898
  H  H69  1  0.137300  0.851000  0.418600  1.0  0.0742
  H  H70  1  0.082100  0.779700  0.523000  1.0  0.0765
  H  H71  1  0.379900  0.176900  0.010200  1.0  0.0972
  H  H72  1  0.369800  0.226400  0.893300  1.0  0.0694
  H  H73  1  0.178500  0.086800  0.873600  1.0  0.0843
  H  H74  1  0.183900  0.036300  0.991500  1.0  0.0872
  H  H75  1  0.555900  0.153800  0.035100  1.0  0.0874
  H  H76  1  0.622200  0.164400  0.923600  1.0  0.0943
  H  H77  1  0.543800  0.963700  0.910800  1.0  0.0942
  H  H78  1  0.478100  0.950400  0.023200  1.0  0.076
  H  H79  1  0.515200  0.753900  0.560200  1.0  0.0854
  H  H80  1  0.528100  0.705000  0.443700  1.0  0.0898
  H  H81  1  0.713700  0.862700  0.418600  1.0  0.0744
  H  H82  1  0.697600  0.917900  0.523000  1.0  0.0746
  H  H83  1  0.797000  0.620100  0.010200  1.0  0.0968
  H  H84  1  0.856600  0.630200  0.893300  1.0  0.0699
  H  H85  1  0.908300  0.821500  0.873600  1.0  0.0841
  H  H86  1  0.852400  0.816100  0.991500  1.0  0.0872
  H  H87  1  0.597900  0.444100  0.035100  1.0  0.0872
  H  H88  1  0.542200  0.377800  0.923600  1.0  0.0946
  H  H89  1  0.419900  0.456200  0.910800  1.0  0.0942
  H  H90  1  0.472300  0.521900  0.023200  1.0  0.0762
  C  C91  1  0.604500  0.761700  0.053200  1.0  -0.1885
  C  C92  1  0.554300  0.776800  0.029700  1.0  -0.0675
  C  C93  1  0.562500  0.815400  0.960500  1.0  -0.0633
  C  C94  1  0.622300  0.841500  0.918200  1.0  -0.1638
  C  C95  1  0.672200  0.830200  0.944800  1.0  -0.0671
  C  C96  1  0.663600  0.789100  0.009200  1.0  -0.123
  C  C97  1  0.594000  0.718800  0.124000  1.0  0.6621
  C  C98  1  0.630900  0.879500  0.840500  1.0  0.6781
  C  C99  1  0.816800  0.098300  0.511200  1.0  -0.1327
  C  C100  1  0.819400  0.158200  0.483300  1.0  -0.1178
  C  C101  1  0.856800  0.188700  0.414100  1.0  -0.0474
  C  C102  1  0.892300  0.165100  0.378000  1.0  -0.1178
  C  C103  1  0.887600  0.106100  0.402900  1.0  -0.0736
  C  C104  1  0.851900  0.074300  0.472200  1.0  -0.0767
  C  C105  1  0.776100  0.069200  0.582400  1.0  0.6884
  C  C106  1  0.941500  0.199200  0.301400  1.0  0.6641
  C  C107  1  0.546600  0.048800  0.540600  1.0  -0.1517
  C  C108  1  0.564500  0.115300  0.509900  1.0  -0.0842
  C  C109  1  0.531900  0.121900  0.442500  1.0  -0.0805
  C  C110  1  0.483200  0.062300  0.404600  1.0  -0.1508
  C  C111  1  0.457200  0.000500  0.433800  1.0  -0.1149
  C  C112  1  0.489200  0.993500  0.501900  1.0  -0.0697
  C  C113  1  0.579700  0.040900  0.608900  1.0  0.7402
  C  C114  1  0.445700  0.071500  0.330600  1.0  0.6738
  C  C115  1  0.238300  0.842800  0.053200  1.0  -0.1911
  C  C116  1  0.223200  0.777500  0.029700  1.0  -0.0658
  C  C117  1  0.184600  0.747100  0.960500  1.0  -0.0593
  C  C118  1  0.158500  0.780800  0.918200  1.0  -0.166
  C  C119  1  0.169800  0.842000  0.944800  1.0  -0.0671
  C  C120  1  0.210900  0.874500  0.009200  1.0  -0.1235
  C  C121  1  0.281200  0.875200  0.124000  1.0  0.6608
  C  C122  1  0.120500  0.751400  0.840500  1.0  0.6765
  C  C123  1  0.901700  0.718500  0.511200  1.0  -0.132
  C  C124  1  0.841800  0.661200  0.483300  1.0  -0.1152
  C  C125  1  0.811300  0.668100  0.414100  1.0  -0.0492
  C  C126  1  0.834900  0.727200  0.378000  1.0  -0.1175
  C  C127  1  0.893900  0.781500  0.402900  1.0  -0.0733
  C  C128  1  0.925700  0.777600  0.472200  1.0  -0.0786
  C  C129  1  0.930800  0.706900  0.582400  1.0  0.6891
  C  C130  1  0.800800  0.742300  0.301400  1.0  0.666
  C  C131  1  0.951200  0.497800  0.540600  1.0  -0.15
  C  C132  1  0.884700  0.449200  0.509900  1.0  -0.084
  C  C133  1  0.878100  0.410000  0.442500  1.0  -0.082
  C  C134  1  0.937700  0.420900  0.404600  1.0  -0.1499
  C  C135  1  0.999500  0.456700  0.433800  1.0  -0.1132
  C  C136  1  0.006500  0.495700  0.501900  1.0  -0.0677
  C  C137  1  0.959100  0.538800  0.608900  1.0  0.7407
  C  C138  1  0.928500  0.374200  0.330600  1.0  0.6731
  C  C139  1  0.157200  0.395500  0.053200  1.0  -0.1905
  C  C140  1  0.222500  0.445700  0.029700  1.0  -0.0667
  C  C141  1  0.252900  0.437500  0.960500  1.0  -0.0625
  C  C142  1  0.219200  0.377700  0.918200  1.0  -0.1653
  C  C143  1  0.158000  0.327800  0.944800  1.0  -0.0676
  C  C144  1  0.125500  0.336400  0.009200  1.0  -0.1214
  C  C145  1  0.124800  0.406000  0.124000  1.0  0.6606
  C  C146  1  0.248600  0.369100  0.840500  1.0  0.6792
  C  C147  1  0.281500  0.183200  0.511200  1.0  -0.1305
  C  C148  1  0.338800  0.180600  0.483300  1.0  -0.1168
  C  C149  1  0.331900  0.143200  0.414100  1.0  -0.0476
  C  C150  1  0.272800  0.107700  0.378000  1.0  -0.1172
  C  C151  1  0.218500  0.112400  0.402900  1.0  -0.0736
  C  C152  1  0.222400  0.148100  0.472200  1.0  -0.0766
  C  C153  1  0.293100  0.223900  0.582400  1.0  0.6896
  C  C154  1  0.257700  0.058500  0.301400  1.0  0.6659
  C  C155  1  0.502200  0.453400  0.540600  1.0  -0.1533
  C  C156  1  0.550800  0.435500  0.509900  1.0  -0.0812
  C  C157  1  0.590000  0.468100  0.442500  1.0  -0.0817
  C  C158  1  0.579100  0.516800  0.404600  1.0  -0.1507
  C  C159  1  0.543300  0.542800  0.433800  1.0  -0.1127
  C  C160  1  0.504300  0.510800  0.501900  1.0  -0.0711
  C  C161  1  0.461200  0.420300  0.608900  1.0  0.7405
  C  C162  1  0.625800  0.554300  0.330600  1.0  0.6717
  C  C163  1  0.238300  0.395500  0.553200  1.0  -0.1906
  C  C164  1  0.223200  0.445700  0.529700  1.0  -0.0676
  C  C165  1  0.184600  0.437500  0.460500  1.0  -0.0632
  C  C166  1  0.158500  0.377700  0.418200  1.0  -0.1658
  C  C167  1  0.169800  0.327800  0.444800  1.0  -0.0671
  C  C168  1  0.210900  0.336400  0.509200  1.0  -0.1224
  C  C169  1  0.281200  0.406000  0.624000  1.0  0.6611
  C  C170  1  0.120500  0.369100  0.340500  1.0  0.6785
  C  C171  1  0.901700  0.183200  0.011200  1.0  -0.1305
  C  C172  1  0.841800  0.180600  0.983300  1.0  -0.1174
  C  C173  1  0.811300  0.143200  0.914100  1.0  -0.0501
  C  C174  1  0.834900  0.107700  0.878000  1.0  -0.1186
  C  C175  1  0.893900  0.112400  0.902900  1.0  -0.0741
  C  C176  1  0.925700  0.148100  0.972200  1.0  -0.0768
  C  C177  1  0.930800  0.223900  0.082400  1.0  0.69
  C  C178  1  0.800800  0.058500  0.801400  1.0  0.6652
  C  C179  1  0.951200  0.453400  0.040600  1.0  -0.1529
  C  C180  1  0.884700  0.435500  0.009900  1.0  -0.0817
  C  C181  1  0.878100  0.468100  0.942500  1.0  -0.084
  C  C182  1  0.937700  0.516800  0.904600  1.0  -0.1513
  C  C183  1  0.999500  0.542800  0.933800  1.0  -0.1129
  C  C184  1  0.006500  0.510800  0.001900  1.0  -0.0686
  C  C185  1  0.959100  0.420300  0.108900  1.0  0.7393
  C  C186  1  0.928500  0.554300  0.830600  1.0  0.6726
  C  C187  1  0.157200  0.761700  0.553200  1.0  -0.1888
  C  C188  1  0.222500  0.776800  0.529700  1.0  -0.066
  C  C189  1  0.252900  0.815400  0.460500  1.0  -0.0615
  C  C190  1  0.219200  0.841500  0.418200  1.0  -0.1637
  C  C191  1  0.158000  0.830200  0.444800  1.0  -0.067
  C  C192  1  0.125500  0.789100  0.509200  1.0  -0.1246
  C  C193  1  0.124800  0.718800  0.624000  1.0  0.6625
  C  C194  1  0.248600  0.879500  0.340500  1.0  0.6785
  C  C195  1  0.281500  0.098300  0.011200  1.0  -0.1316
  C  C196  1  0.338800  0.158200  0.983300  1.0  -0.1168
  C  C197  1  0.331900  0.188700  0.914100  1.0  -0.047
  C  C198  1  0.272800  0.165100  0.878000  1.0  -0.1176
  C  C199  1  0.218500  0.106100  0.902900  1.0  -0.0734
  C  C200  1  0.222400  0.074300  0.972200  1.0  -0.0761
  C  C201  1  0.293100  0.069200  0.082400  1.0  0.6877
  C  C202  1  0.257700  0.199200  0.801400  1.0  0.6656
  C  C203  1  0.502200  0.048800  0.040600  1.0  -0.1526
  C  C204  1  0.550800  0.115300  0.009900  1.0  -0.0848
  C  C205  1  0.590000  0.121900  0.942500  1.0  -0.0804
  C  C206  1  0.579100  0.062300  0.904600  1.0  -0.1498
  C  C207  1  0.543300  0.000500  0.933800  1.0  -0.1144
  C  C208  1  0.504300  0.993500  0.001900  1.0  -0.0699
  C  C209  1  0.461200  0.040900  0.108900  1.0  0.7423
  C  C210  1  0.625800  0.071500  0.830600  1.0  0.6732
  C  C211  1  0.604500  0.842800  0.553200  1.0  -0.1907
  C  C212  1  0.554300  0.777500  0.529700  1.0  -0.0671
  C  C213  1  0.562500  0.747100  0.460500  1.0  -0.0601
  C  C214  1  0.622300  0.780800  0.418200  1.0  -0.1656
  C  C215  1  0.672200  0.842000  0.444800  1.0  -0.0665
  C  C216  1  0.663600  0.874500  0.509200  1.0  -0.1231
  C  C217  1  0.594000  0.875200  0.624000  1.0  0.6612
  C  C218  1  0.630900  0.751400  0.340500  1.0  0.6771
  C  C219  1  0.816800  0.718500  0.011200  1.0  -0.1327
  C  C220  1  0.819400  0.661200  0.983300  1.0  -0.1154
  C  C221  1  0.856800  0.668100  0.914100  1.0  -0.0495
  C  C222  1  0.892300  0.727200  0.878000  1.0  -0.1141
  C  C223  1  0.887600  0.781500  0.902900  1.0  -0.0732
  C  C224  1  0.851900  0.777600  0.972200  1.0  -0.0777
  C  C225  1  0.776100  0.706900  0.082400  1.0  0.6903
  C  C226  1  0.941500  0.742300  0.801400  1.0  0.6659
  C  C227  1  0.546600  0.497800  0.040600  1.0  -0.1499
  C  C228  1  0.564500  0.449200  0.009900  1.0  -0.0815
  C  C229  1  0.531900  0.410000  0.942500  1.0  -0.0823
  C  C230  1  0.483200  0.420900  0.904600  1.0  -0.1504
  C  C231  1  0.457200  0.456700  0.933800  1.0  -0.1135
  C  C232  1  0.489200  0.495700  0.001900  1.0  -0.0685
  C  C233  1  0.579700  0.538800  0.108900  1.0  0.7402
  C  C234  1  0.445700  0.374200  0.830600  1.0  0.6736
  O  O235  1  0.643600  0.719200  0.155300  1.0  -0.7113
  O  O236  1  0.534200  0.683900  0.149300  1.0  -0.6048
  O  O237  1  0.686100  0.908200  0.808500  1.0  -0.6326
  O  O238  1  0.577500  0.882800  0.817900  1.0  -0.6547
  O  O239  1  0.747300  0.098300  0.614700  1.0  -0.6557
  O  O240  1  0.781300  0.021000  0.608100  1.0  -0.6364
  O  O241  1  0.979600  0.182300  0.281300  1.0  -0.5604
  O  O242  1  0.940800  0.251500  0.271900  1.0  -0.7695
  O  O243  1  0.624900  0.091500  0.640400  1.0  -0.6374
  O  O244  1  0.553000  0.982000  0.639500  1.0  -0.694
  O  O245  1  0.460600  0.128500  0.311200  1.0  -0.5938
  O  O246  1  0.407200  0.020600  0.291000  1.0  -0.6971
  O  O247  1  0.280800  0.924400  0.155300  1.0  -0.7097
  O  O248  1  0.316100  0.850300  0.149300  1.0  -0.6084
  O  O249  1  0.091800  0.777900  0.808500  1.0  -0.6377
  O  O250  1  0.117200  0.694700  0.817900  1.0  -0.6529
  O  O251  1  0.901700  0.649000  0.614700  1.0  -0.6547
  O  O252  1  0.979000  0.760300  0.608100  1.0  -0.639
  O  O253  1  0.817700  0.797300  0.281300  1.0  -0.5608
  O  O254  1  0.748500  0.689300  0.271900  1.0  -0.7716
  O  O255  1  0.908500  0.533400  0.640400  1.0  -0.6364
  O  O256  1  0.018000  0.571000  0.639500  1.0  -0.6917
  O  O257  1  0.871500  0.332100  0.311200  1.0  -0.5951
  O  O258  1  0.979400  0.386600  0.291000  1.0  -0.6958
  O  O259  1  0.075600  0.356400  0.155300  1.0  -0.7104
  O  O260  1  0.149700  0.465800  0.149300  1.0  -0.6049
  O  O261  1  0.222100  0.313900  0.808500  1.0  -0.6363
  O  O262  1  0.305300  0.422500  0.817900  1.0  -0.6543
  O  O263  1  0.351000  0.252700  0.614700  1.0  -0.6519
  O  O264  1  0.239700  0.218700  0.608100  1.0  -0.6354
  O  O265  1  0.202700  0.020400  0.281300  1.0  -0.5613
  O  O266  1  0.310700  0.059200  0.271900  1.0  -0.7691
  O  O267  1  0.466600  0.375100  0.640400  1.0  -0.6367
  O  O268  1  0.429000  0.447000  0.639500  1.0  -0.693
  O  O269  1  0.667900  0.539400  0.311200  1.0  -0.5974
  O  O270  1  0.613400  0.592800  0.291000  1.0  -0.6951
  O  O271  1  0.280800  0.356400  0.655300  1.0  -0.713
  O  O272  1  0.316100  0.465800  0.649300  1.0  -0.6063
  O  O273  1  0.091800  0.313900  0.308500  1.0  -0.6365
  O  O274  1  0.117200  0.422500  0.317900  1.0  -0.6534
  O  O275  1  0.901700  0.252700  0.114700  1.0  -0.6505
  O  O276  1  0.979000  0.218700  0.108100  1.0  -0.6353
  O  O277  1  0.817700  0.020400  0.781300  1.0  -0.5595
  O  O278  1  0.748500  0.059200  0.771900  1.0  -0.7687
  O  O279  1  0.908500  0.375100  0.140400  1.0  -0.6381
  O  O280  1  0.018000  0.447000  0.139500  1.0  -0.694
  O  O281  1  0.871500  0.539400  0.811200  1.0  -0.5957
  O  O282  1  0.979400  0.592800  0.791000  1.0  -0.6943
  O  O283  1  0.075600  0.719200  0.655300  1.0  -0.7091
  O  O284  1  0.149700  0.683900  0.649300  1.0  -0.6047
  O  O285  1  0.222100  0.908200  0.308500  1.0  -0.6324
  O  O286  1  0.305300  0.882800  0.317900  1.0  -0.654
  O  O287  1  0.351000  0.098300  0.114700  1.0  -0.6572
  O  O288  1  0.239700  0.021000  0.108100  1.0  -0.6371
  O  O289  1  0.202700  0.182300  0.781300  1.0  -0.5601
  O  O290  1  0.310700  0.251500  0.771900  1.0  -0.7699
  O  O291  1  0.466600  0.091500  0.140400  1.0  -0.6362
  O  O292  1  0.429000  0.982000  0.139500  1.0  -0.6938
  O  O293  1  0.667900  0.128500  0.811200  1.0  -0.5953
  O  O294  1  0.613400  0.020600  0.791000  1.0  -0.6969
  O  O295  1  0.643600  0.924400  0.655300  1.0  -0.7125
  O  O296  1  0.534200  0.850300  0.649300  1.0  -0.608
  O  O297  1  0.686100  0.777900  0.308500  1.0  -0.6387
  O  O298  1  0.577500  0.694700  0.317900  1.0  -0.6526
  O  O299  1  0.747300  0.649000  0.114700  1.0  -0.6551
  O  O300  1  0.781300  0.760300  0.108100  1.0  -0.6383
  O  O301  1  0.979600  0.797300  0.781300  1.0  -0.5612
  O  O302  1  0.940800  0.689300  0.771900  1.0  -0.7715
  O  O303  1  0.624900  0.533400  0.140400  1.0  -0.6365
  O  O304  1  0.553000  0.571000  0.139500  1.0  -0.6938
  O  O305  1  0.460600  0.332100  0.811200  1.0  -0.5956
  O  O306  1  0.407200  0.386600  0.791000  1.0  -0.694
