# generated using pymatgen
data_Cu18W5C14(S10N7)2
_symmetry_space_group_name_H-M   'P 1'
_cell_length_a   16.68200000
_cell_length_b   21.66200000
_cell_length_c   27.67400000
_cell_angle_alpha   90.00000000
_cell_angle_beta   96.49000000
_cell_angle_gamma   90.00000000
_symmetry_Int_Tables_number   1
_chemical_formula_structural   Cu18W5C14(S10N7)2
_chemical_formula_sum   'Cu36 W10 C28 S40 N28'
_cell_volume   9936.34164115
_cell_formula_units_Z   2
loop_
 _symmetry_equiv_pos_site_id
 _symmetry_equiv_pos_as_xyz
  1  'x, y, z'
loop_
 _atom_site_type_symbol
 _atom_site_label
 _atom_site_symmetry_multiplicity
 _atom_site_fract_x
 _atom_site_fract_y
 _atom_site_fract_z
 _atom_site_occupancy
 _atom_site_charge
  Cu  Cu1  1  0.882600  0.984640  0.170320  1.0  0.3275
  Cu  Cu2  1  0.692460  0.931860  0.213190  1.0  0.4002
  Cu  Cu3  1  0.841010  0.881660  0.059280  1.0  0.4144
  Cu  Cu4  1  0.252490  0.020450  0.492080  1.0  0.3862
  Cu  Cu5  1  0.045780  0.986790  0.333770  1.0  0.3553
  Cu  Cu6  1  0.259730  0.025940  0.355120  1.0  0.344
  Cu  Cu7  1  0.139490  0.166340  0.221660  1.0  0.3685
  Cu  Cu8  1  0.036850  0.152740  0.094000  1.0  0.404
  Cu  Cu9  1  0.550920  0.971480  0.358890  1.0  0.5043
  Cu  Cu10  1  0.117400  0.484640  0.829680  1.0  0.327
  Cu  Cu11  1  0.307540  0.431860  0.786810  1.0  0.3991
  Cu  Cu12  1  0.158990  0.381660  0.940720  1.0  0.4134
  Cu  Cu13  1  0.747510  0.520450  0.507920  1.0  0.3865
  Cu  Cu14  1  0.954220  0.486790  0.666230  1.0  0.3563
  Cu  Cu15  1  0.740270  0.525940  0.644880  1.0  0.3446
  Cu  Cu16  1  0.860510  0.666340  0.778340  1.0  0.3698
  Cu  Cu17  1  0.963150  0.652740  0.906000  1.0  0.4061
  Cu  Cu18  1  0.449080  0.471480  0.641110  1.0  0.518
  Cu  Cu19  1  0.117400  0.015360  0.829680  1.0  0.3267
  Cu  Cu20  1  0.307540  0.068140  0.786810  1.0  0.3991
  Cu  Cu21  1  0.158990  0.118340  0.940720  1.0  0.4132
  Cu  Cu22  1  0.747510  0.979550  0.507920  1.0  0.3865
  Cu  Cu23  1  0.954220  0.013210  0.666230  1.0  0.3568
  Cu  Cu24  1  0.740270  0.974060  0.644880  1.0  0.3445
  Cu  Cu25  1  0.860510  0.833660  0.778340  1.0  0.3696
  Cu  Cu26  1  0.963150  0.847260  0.906000  1.0  0.4057
  Cu  Cu27  1  0.449080  0.028520  0.641110  1.0  0.504
  Cu  Cu28  1  0.882600  0.515360  0.170320  1.0  0.3272
  Cu  Cu29  1  0.692460  0.568140  0.213190  1.0  0.4003
  Cu  Cu30  1  0.841010  0.618340  0.059280  1.0  0.4141
  Cu  Cu31  1  0.252490  0.479550  0.492080  1.0  0.3861
  Cu  Cu32  1  0.045780  0.513210  0.333770  1.0  0.356
  Cu  Cu33  1  0.259730  0.474060  0.355120  1.0  0.3438
  Cu  Cu34  1  0.139490  0.333660  0.221660  1.0  0.3681
  Cu  Cu35  1  0.036850  0.347260  0.094000  1.0  0.4041
  Cu  Cu36  1  0.550920  0.528520  0.358890  1.0  0.5182
  W  W37  1  0.763000  0.904000  0.135300  1.0  0.5112
  W  W38  1  0.143380  0.002190  0.415600  1.0  0.4767
  W  W39  1  0.237000  0.404000  0.864700  1.0  0.5101
  W  W40  1  0.856620  0.502190  0.584400  1.0  0.4748
  W  W41  1  0.237000  0.096000  0.864700  1.0  0.5093
  W  W42  1  0.856620  0.997810  0.584400  1.0  0.475
  W  W43  1  0.763000  0.596000  0.135300  1.0  0.5107
  W  W44  1  0.143380  0.497810  0.415600  1.0  0.4769
  W  W45  1  0.090510  0.250000  0.155210  1.0  0.5642
  W  W46  1  0.909490  0.750000  0.844790  1.0  0.5652
  C  C47  1  0.972000  0.089800  0.119800  1.0  0.0635
  C  C48  1  0.605600  0.958600  0.302300  1.0  0.0955
  C  C49  1  0.894100  0.867100  0.004600  1.0  0.0609
  C  C50  1  0.328500  0.029300  0.547800  1.0  0.0763
  C  C51  1  0.975600  0.978300  0.275500  1.0  0.0655
  C  C52  1  0.440100  0.989700  0.356000  1.0  0.1089
  C  C53  1  0.181800  0.111500  0.271100  1.0  -0.003
  C  C54  1  0.028000  0.589800  0.880200  1.0  0.064
  C  C55  1  0.394400  0.458600  0.697700  1.0  0.0979
  C  C56  1  0.105900  0.367100  0.995400  1.0  0.0602
  C  C57  1  0.671500  0.529300  0.452200  1.0  0.0722
  C  C58  1  0.024400  0.478300  0.724500  1.0  0.0663
  C  C59  1  0.559900  0.489700  0.644000  1.0  0.1168
  C  C60  1  0.818200  0.611500  0.728900  1.0  -0.005
  C  C61  1  0.028000  0.910200  0.880200  1.0  0.0643
  C  C62  1  0.394400  0.041400  0.697700  1.0  0.0955
  C  C63  1  0.105900  0.132900  0.995400  1.0  0.0602
  C  C64  1  0.671500  0.970700  0.452200  1.0  0.0734
  C  C65  1  0.024400  0.021700  0.724500  1.0  0.0663
  C  C66  1  0.559900  0.010300  0.644000  1.0  0.1105
  C  C67  1  0.818200  0.888500  0.728900  1.0  -0.0053
  C  C68  1  0.972000  0.410200  0.119800  1.0  0.0642
  C  C69  1  0.605600  0.541400  0.302300  1.0  0.0982
  C  C70  1  0.894100  0.632900  0.004600  1.0  0.0611
  C  C71  1  0.328500  0.470700  0.547800  1.0  0.0741
  C  C72  1  0.975600  0.521700  0.275500  1.0  0.0656
  C  C73  1  0.440100  0.510300  0.356000  1.0  0.1167
  C  C74  1  0.181800  0.388500  0.271100  1.0  -0.0039
  S  S75  1  0.744080  0.999040  0.163630  1.0  -0.258
  S  S76  1  0.708100  0.838100  0.182350  1.0  -0.1745
  S  S77  1  0.708340  0.896700  0.058910  1.0  -0.1759
  S  S78  1  0.895550  0.887010  0.136580  1.0  -0.2886
  S  S79  1  0.157600  0.946880  0.482950  1.0  -0.1831
  S  S80  1  0.233810  0.079300  0.425330  1.0  -0.3066
  S  S81  1  0.168540  0.944050  0.352100  1.0  -0.2819
  S  S82  1  0.020610  0.039750  0.399650  1.0  -0.1906
  S  S83  1  0.161750  0.165600  0.143540  1.0  -0.2974
  S  S84  1  0.255920  0.499040  0.836370  1.0  -0.2609
  S  S85  1  0.291900  0.338100  0.817650  1.0  -0.1718
  S  S86  1  0.291660  0.396700  0.941090  1.0  -0.1822
  S  S87  1  0.104450  0.387010  0.863420  1.0  -0.2898
  S  S88  1  0.842400  0.446880  0.517050  1.0  -0.1831
  S  S89  1  0.766190  0.579300  0.574670  1.0  -0.3055
  S  S90  1  0.831460  0.444050  0.647900  1.0  -0.281
  S  S91  1  0.979390  0.539750  0.600350  1.0  -0.19
  S  S92  1  0.838250  0.665600  0.856460  1.0  -0.2986
  S  S93  1  0.255920  0.000960  0.836370  1.0  -0.2561
  S  S94  1  0.291900  0.161900  0.817650  1.0  -0.1736
  S  S95  1  0.291660  0.103300  0.941090  1.0  -0.1762
  S  S96  1  0.104450  0.112990  0.863420  1.0  -0.2898
  S  S97  1  0.842400  0.053120  0.517050  1.0  -0.1823
  S  S98  1  0.766190  0.920700  0.574670  1.0  -0.3061
  S  S99  1  0.831460  0.055950  0.647900  1.0  -0.2801
  S  S100  1  0.979390  0.960250  0.600350  1.0  -0.1899
  S  S101  1  0.838250  0.834400  0.856460  1.0  -0.299
  S  S102  1  0.744080  0.500960  0.163630  1.0  -0.2611
  S  S103  1  0.708100  0.661900  0.182350  1.0  -0.171
  S  S104  1  0.708340  0.603300  0.058910  1.0  -0.1831
  S  S105  1  0.895550  0.612990  0.136580  1.0  -0.2882
  S  S106  1  0.157600  0.553120  0.482950  1.0  -0.1828
  S  S107  1  0.233810  0.420700  0.425330  1.0  -0.3071
  S  S108  1  0.168540  0.555950  0.352100  1.0  -0.281
  S  S109  1  0.020610  0.460250  0.399650  1.0  -0.1902
  S  S110  1  0.161750  0.334400  0.143540  1.0  -0.298
  S  S111  1  0.064200  0.250000  0.233380  1.0  -0.2853
  S  S112  1  0.977600  0.250000  0.105440  1.0  -0.2088
  S  S113  1  0.935800  0.750000  0.766620  1.0  -0.285
  S  S114  1  0.022400  0.750000  0.894560  1.0  -0.2082
  N  N115  1  0.935200  0.052700  0.138400  1.0  -0.3741
  N  N116  1  0.638300  0.949100  0.268400  1.0  -0.3633
  N  N117  1  0.927200  0.858000  0.970100  1.0  -0.3941
  N  N118  1  0.373500  0.031300  0.581500  1.0  -0.424
  N  N119  1  0.935300  0.975800  0.239400  1.0  -0.4716
  N  N120  1  0.372400  0.002100  0.353900  1.0  -0.4166
  N  N121  1  0.213300  0.081700  0.301200  1.0  -0.4007
  N  N122  1  0.064800  0.552700  0.861600  1.0  -0.376
  N  N123  1  0.361700  0.449100  0.731600  1.0  -0.363
  N  N124  1  0.072800  0.358000  0.029900  1.0  -0.3933
  N  N125  1  0.626500  0.531300  0.418500  1.0  -0.4244
  N  N126  1  0.064700  0.475800  0.760600  1.0  -0.4722
  N  N127  1  0.627600  0.502100  0.646100  1.0  -0.4173
  N  N128  1  0.786700  0.581700  0.698800  1.0  -0.4001
  N  N129  1  0.064800  0.947300  0.861600  1.0  -0.3763
  N  N130  1  0.361700  0.050900  0.731600  1.0  -0.3626
  N  N131  1  0.072800  0.142000  0.029900  1.0  -0.3936
  N  N132  1  0.626500  0.968700  0.418500  1.0  -0.4228
  N  N133  1  0.064700  0.024200  0.760600  1.0  -0.4719
  N  N134  1  0.627600  0.997900  0.646100  1.0  -0.4172
  N  N135  1  0.786700  0.918300  0.698800  1.0  -0.4003
  N  N136  1  0.935200  0.447300  0.138400  1.0  -0.3741
  N  N137  1  0.638300  0.550900  0.268400  1.0  -0.3631
  N  N138  1  0.927200  0.642000  0.970100  1.0  -0.3946
  N  N139  1  0.373500  0.468700  0.581500  1.0  -0.4263
  N  N140  1  0.935300  0.524200  0.239400  1.0  -0.4716
  N  N141  1  0.372400  0.497900  0.353900  1.0  -0.4163
  N  N142  1  0.213300  0.418300  0.301200  1.0  -0.4007
