# generated using pymatgen
data_Co5H20(C22O9)2
_symmetry_space_group_name_H-M   'P 1'
_cell_length_a   24.56100000
_cell_length_b   18.90800000
_cell_length_c   9.70490000
_cell_angle_alpha   90.00000000
_cell_angle_beta   108.76000000
_cell_angle_gamma   90.00000000
_symmetry_Int_Tables_number   1
_chemical_formula_structural   Co5H20(C22O9)2
_chemical_formula_sum   'Co20 H80 C176 O72'
_cell_volume   4267.51347501
_cell_formula_units_Z   4
loop_
 _symmetry_equiv_pos_site_id
 _symmetry_equiv_pos_as_xyz
  1  'x, y, z'
loop_
 _atom_site_type_symbol
 _atom_site_label
 _atom_site_symmetry_multiplicity
 _atom_site_fract_x
 _atom_site_fract_y
 _atom_site_fract_z
 _atom_site_occupancy
 _atom_site_charge
  Co  Co1  1  0.002360  0.205040  0.506870  1.0  1.0133
  Co  Co2  1  0.502360  0.705040  0.506870  1.0  1.0133
  Co  Co3  1  0.997640  0.205040  0.993130  1.0  1.0148
  Co  Co4  1  0.497640  0.705040  0.993130  1.0  1.0148
  Co  Co5  1  0.997640  0.794960  0.493130  1.0  1.0093
  Co  Co6  1  0.497640  0.294960  0.493130  1.0  1.0093
  Co  Co7  1  0.002360  0.794960  0.006870  1.0  1.0083
  Co  Co8  1  0.502360  0.294960  0.006870  1.0  1.0083
  Co  Co9  1  0.000000  0.000000  0.000000  1.0  1.0928
  Co  Co10  1  0.500000  0.500000  0.000000  1.0  1.0928
  Co  Co11  1  0.000000  0.000000  0.500000  1.0  1.0983
  Co  Co12  1  0.500000  0.500000  0.500000  1.0  1.0983
  Co  Co13  1  0.000000  0.103190  0.750000  1.0  1.0865
  Co  Co14  1  0.500000  0.603190  0.750000  1.0  1.0865
  Co  Co15  1  0.000000  0.896810  0.250000  1.0  1.0873
  Co  Co16  1  0.500000  0.396810  0.250000  1.0  1.0873
  Co  Co17  1  0.000000  0.312330  0.250000  1.0  0.9132
  Co  Co18  1  0.500000  0.812330  0.250000  1.0  0.9132
  Co  Co19  1  0.000000  0.687670  0.750000  1.0  0.9171
  Co  Co20  1  0.500000  0.187670  0.750000  1.0  0.9171
  H  H21  1  0.836200  0.017700  0.752900  1.0  0.1223
  H  H22  1  0.833900  0.774500  0.762900  1.0  0.1192
  H  H23  1  0.793100  0.052000  0.921300  1.0  0.1153
  H  H24  1  0.722500  0.125100  0.948000  1.0  0.1103
  H  H25  1  0.603500  0.005900  0.665800  1.0  0.1242
  H  H26  1  0.674900  0.929500  0.649400  1.0  0.1139
  H  H27  1  0.735100  0.873600  0.983200  1.0  0.1286
  H  H28  1  0.653300  0.820300  0.000700  1.0  0.1225
  H  H29  1  0.647800  0.695000  0.662300  1.0  0.1218
  H  H30  1  0.728700  0.749600  0.644100  1.0  0.1124
  H  H31  1  0.336200  0.517700  0.752900  1.0  0.1223
  H  H32  1  0.333900  0.274500  0.762900  1.0  0.1192
  H  H33  1  0.293100  0.552000  0.921300  1.0  0.1153
  H  H34  1  0.222500  0.625100  0.948000  1.0  0.1103
  H  H35  1  0.103500  0.505900  0.665800  1.0  0.1242
  H  H36  1  0.174900  0.429500  0.649400  1.0  0.1139
  H  H37  1  0.235100  0.373600  0.983200  1.0  0.1286
  H  H38  1  0.153300  0.320300  0.000700  1.0  0.1225
  H  H39  1  0.147800  0.195000  0.662300  1.0  0.1218
  H  H40  1  0.228700  0.249600  0.644100  1.0  0.1124
  H  H41  1  0.163800  0.017700  0.747100  1.0  0.122
  H  H42  1  0.166100  0.774500  0.737100  1.0  0.1192
  H  H43  1  0.206900  0.052000  0.578700  1.0  0.1159
  H  H44  1  0.277500  0.125100  0.552000  1.0  0.1102
  H  H45  1  0.396500  0.005900  0.834200  1.0  0.123
  H  H46  1  0.325100  0.929500  0.850600  1.0  0.1142
  H  H47  1  0.264900  0.873600  0.516800  1.0  0.1287
  H  H48  1  0.346700  0.820300  0.499300  1.0  0.123
  H  H49  1  0.352200  0.695000  0.837700  1.0  0.1222
  H  H50  1  0.271300  0.749600  0.855900  1.0  0.112
  H  H51  1  0.663800  0.517700  0.747100  1.0  0.122
  H  H52  1  0.666100  0.274500  0.737100  1.0  0.1192
  H  H53  1  0.706900  0.552000  0.578700  1.0  0.1159
  H  H54  1  0.777500  0.625100  0.552000  1.0  0.1102
  H  H55  1  0.896500  0.505900  0.834200  1.0  0.123
  H  H56  1  0.825100  0.429500  0.850600  1.0  0.1142
  H  H57  1  0.764900  0.373600  0.516800  1.0  0.1287
  H  H58  1  0.846700  0.320300  0.499300  1.0  0.123
  H  H59  1  0.852200  0.195000  0.837700  1.0  0.1222
  H  H60  1  0.771300  0.249600  0.855900  1.0  0.112
  H  H61  1  0.163800  0.982300  0.247100  1.0  0.1214
  H  H62  1  0.166100  0.225500  0.237100  1.0  0.1176
  H  H63  1  0.206900  0.948000  0.078700  1.0  0.1155
  H  H64  1  0.277500  0.874900  0.052000  1.0  0.1101
  H  H65  1  0.396500  0.994100  0.334200  1.0  0.1229
  H  H66  1  0.325100  0.070500  0.350600  1.0  0.1138
  H  H67  1  0.264900  0.126400  0.016800  1.0  0.1289
  H  H68  1  0.346700  0.179700  0.999300  1.0  0.1227
  H  H69  1  0.352200  0.305000  0.337700  1.0  0.122
  H  H70  1  0.271300  0.250400  0.355900  1.0  0.1119
  H  H71  1  0.663800  0.482300  0.247100  1.0  0.1214
  H  H72  1  0.666100  0.725500  0.237100  1.0  0.1176
  H  H73  1  0.706900  0.448000  0.078700  1.0  0.1155
  H  H74  1  0.777500  0.374900  0.052000  1.0  0.1101
  H  H75  1  0.896500  0.494100  0.334200  1.0  0.1229
  H  H76  1  0.825100  0.570500  0.350600  1.0  0.1138
  H  H77  1  0.764900  0.626400  0.016800  1.0  0.1289
  H  H78  1  0.846700  0.679700  0.999300  1.0  0.1227
  H  H79  1  0.852200  0.805000  0.337700  1.0  0.122
  H  H80  1  0.771300  0.750400  0.355900  1.0  0.1119
  H  H81  1  0.836200  0.982300  0.252900  1.0  0.1214
  H  H82  1  0.833900  0.225500  0.262900  1.0  0.1179
  H  H83  1  0.793100  0.948000  0.421300  1.0  0.1153
  H  H84  1  0.722500  0.874900  0.448000  1.0  0.1105
  H  H85  1  0.603500  0.994100  0.165800  1.0  0.1243
  H  H86  1  0.674900  0.070500  0.149400  1.0  0.1137
  H  H87  1  0.735100  0.126400  0.483200  1.0  0.1293
  H  H88  1  0.653300  0.179700  0.500700  1.0  0.1228
  H  H89  1  0.647800  0.305000  0.162300  1.0  0.1221
  H  H90  1  0.728700  0.250400  0.144100  1.0  0.1125
  H  H91  1  0.336200  0.482300  0.252900  1.0  0.1214
  H  H92  1  0.333900  0.725500  0.262900  1.0  0.1179
  H  H93  1  0.293100  0.448000  0.421300  1.0  0.1153
  H  H94  1  0.222500  0.374900  0.448000  1.0  0.1105
  H  H95  1  0.103500  0.494100  0.165800  1.0  0.1243
  H  H96  1  0.174900  0.570500  0.149400  1.0  0.1137
  H  H97  1  0.235100  0.626400  0.483200  1.0  0.1293
  H  H98  1  0.153300  0.679700  0.500700  1.0  0.1228
  H  H99  1  0.147800  0.805000  0.162300  1.0  0.1221
  H  H100  1  0.228700  0.750400  0.144100  1.0  0.1125
  C  C101  1  0.877000  0.931700  0.715000  1.0  -0.0807
  C  C102  1  0.834100  0.968600  0.748000  1.0  -0.1234
  C  C103  1  0.788000  0.935400  0.774200  1.0  -0.0117
  C  C104  1  0.787300  0.860200  0.779000  1.0  0.0305
  C  C105  1  0.832700  0.823500  0.753900  1.0  -0.0255
  C  C106  1  0.876100  0.857500  0.715800  1.0  -0.0746
  C  C107  1  0.922600  0.814600  0.687100  1.0  0.7016
  C  C108  1  0.922200  0.975100  0.680500  1.0  0.7056
  C  C109  1  0.740800  0.982200  0.789100  1.0  0.0061
  C  C110  1  0.754700  0.041500  0.872900  1.0  -0.1315
  C  C111  1  0.712600  0.086000  0.886800  1.0  -0.0262
  C  C112  1  0.655400  0.073100  0.810500  1.0  -0.1452
  C  C113  1  0.641600  0.014600  0.720000  1.0  -0.0259
  C  C114  1  0.684400  0.968900  0.709800  1.0  -0.0948
  C  C115  1  0.738900  0.820000  0.806200  1.0  0.0398
  C  C116  1  0.716700  0.838900  0.916300  1.0  -0.078
  C  C117  1  0.667700  0.806900  0.927000  1.0  -0.0157
  C  C118  1  0.639600  0.754400  0.827800  1.0  -0.0803
  C  C119  1  0.664300  0.732100  0.724600  1.0  -0.0679
  C  C120  1  0.713000  0.764800  0.714200  1.0  -0.0739
  C  C121  1  0.610300  0.119800  0.834000  1.0  0.7131
  C  C122  1  0.584300  0.724800  0.831800  1.0  0.7029
  C  C123  1  0.377000  0.431700  0.715000  1.0  -0.0807
  C  C124  1  0.334100  0.468600  0.748000  1.0  -0.1234
  C  C125  1  0.288000  0.435400  0.774200  1.0  -0.0117
  C  C126  1  0.287300  0.360200  0.779000  1.0  0.0305
  C  C127  1  0.332700  0.323500  0.753900  1.0  -0.0255
  C  C128  1  0.376100  0.357500  0.715800  1.0  -0.0746
  C  C129  1  0.422600  0.314600  0.687100  1.0  0.7016
  C  C130  1  0.422200  0.475100  0.680500  1.0  0.7056
  C  C131  1  0.240800  0.482200  0.789100  1.0  0.0061
  C  C132  1  0.254700  0.541500  0.872900  1.0  -0.1315
  C  C133  1  0.212600  0.586000  0.886800  1.0  -0.0262
  C  C134  1  0.155400  0.573100  0.810500  1.0  -0.1452
  C  C135  1  0.141600  0.514600  0.720000  1.0  -0.0259
  C  C136  1  0.184400  0.468900  0.709800  1.0  -0.0948
  C  C137  1  0.238900  0.320000  0.806200  1.0  0.0398
  C  C138  1  0.216700  0.338900  0.916300  1.0  -0.078
  C  C139  1  0.167700  0.306900  0.927000  1.0  -0.0157
  C  C140  1  0.139600  0.254400  0.827800  1.0  -0.0803
  C  C141  1  0.164300  0.232100  0.724600  1.0  -0.0679
  C  C142  1  0.213000  0.264800  0.714200  1.0  -0.0739
  C  C143  1  0.110300  0.619800  0.834000  1.0  0.7131
  C  C144  1  0.084300  0.224800  0.831800  1.0  0.7029
  C  C145  1  0.123000  0.931700  0.785000  1.0  -0.0807
  C  C146  1  0.165900  0.968600  0.752000  1.0  -0.1248
  C  C147  1  0.212000  0.935400  0.725800  1.0  -0.0122
  C  C148  1  0.212700  0.860200  0.721000  1.0  0.0306
  C  C149  1  0.167300  0.823500  0.746100  1.0  -0.0257
  C  C150  1  0.123900  0.857500  0.784200  1.0  -0.0744
  C  C151  1  0.077400  0.814600  0.812900  1.0  0.7015
  C  C152  1  0.077800  0.975100  0.819500  1.0  0.7047
  C  C153  1  0.259200  0.982200  0.710900  1.0  0.0069
  C  C154  1  0.245300  0.041500  0.627100  1.0  -0.1304
  C  C155  1  0.287400  0.086000  0.613200  1.0  -0.0264
  C  C156  1  0.344600  0.073100  0.689500  1.0  -0.1461
  C  C157  1  0.358400  0.014600  0.780000  1.0  -0.0257
  C  C158  1  0.315600  0.968900  0.790200  1.0  -0.095
  C  C159  1  0.261100  0.820000  0.693800  1.0  0.0394
  C  C160  1  0.283300  0.838900  0.583700  1.0  -0.0787
  C  C161  1  0.332300  0.806900  0.573000  1.0  -0.0156
  C  C162  1  0.360400  0.754400  0.672200  1.0  -0.0798
  C  C163  1  0.335700  0.732100  0.775400  1.0  -0.0683
  C  C164  1  0.287000  0.764800  0.785800  1.0  -0.075
  C  C165  1  0.389700  0.119800  0.666000  1.0  0.7113
  C  C166  1  0.415700  0.724800  0.668200  1.0  0.7035
  C  C167  1  0.623000  0.431700  0.785000  1.0  -0.0807
  C  C168  1  0.665900  0.468600  0.752000  1.0  -0.1248
  C  C169  1  0.712000  0.435400  0.725800  1.0  -0.0122
  C  C170  1  0.712700  0.360200  0.721000  1.0  0.0306
  C  C171  1  0.667300  0.323500  0.746100  1.0  -0.0257
  C  C172  1  0.623900  0.357500  0.784200  1.0  -0.0744
  C  C173  1  0.577400  0.314600  0.812900  1.0  0.7015
  C  C174  1  0.577800  0.475100  0.819500  1.0  0.7047
  C  C175  1  0.759200  0.482200  0.710900  1.0  0.0069
  C  C176  1  0.745300  0.541500  0.627100  1.0  -0.1304
  C  C177  1  0.787400  0.586000  0.613200  1.0  -0.0264
  C  C178  1  0.844600  0.573100  0.689500  1.0  -0.1461
  C  C179  1  0.858400  0.514600  0.780000  1.0  -0.0257
  C  C180  1  0.815600  0.468900  0.790200  1.0  -0.095
  C  C181  1  0.761100  0.320000  0.693800  1.0  0.0394
  C  C182  1  0.783300  0.338900  0.583700  1.0  -0.0787
  C  C183  1  0.832300  0.306900  0.573000  1.0  -0.0156
  C  C184  1  0.860400  0.254400  0.672200  1.0  -0.0798
  C  C185  1  0.835700  0.232100  0.775400  1.0  -0.0683
  C  C186  1  0.787000  0.264800  0.785800  1.0  -0.075
  C  C187  1  0.889700  0.619800  0.666000  1.0  0.7113
  C  C188  1  0.915700  0.224800  0.668200  1.0  0.7035
  C  C189  1  0.123000  0.068300  0.285000  1.0  -0.0811
  C  C190  1  0.165900  0.031400  0.252000  1.0  -0.1234
  C  C191  1  0.212000  0.064600  0.225800  1.0  -0.0123
  C  C192  1  0.212700  0.139800  0.221000  1.0  0.0305
  C  C193  1  0.167300  0.176500  0.246100  1.0  -0.0266
  C  C194  1  0.123900  0.142500  0.284200  1.0  -0.0745
  C  C195  1  0.077400  0.185400  0.312900  1.0  0.7013
  C  C196  1  0.077800  0.024900  0.319500  1.0  0.7052
  C  C197  1  0.259200  0.017800  0.210900  1.0  0.0064
  C  C198  1  0.245300  0.958500  0.127100  1.0  -0.1308
  C  C199  1  0.287400  0.914000  0.113200  1.0  -0.0264
  C  C200  1  0.344600  0.926900  0.189500  1.0  -0.146
  C  C201  1  0.358400  0.985400  0.280000  1.0  -0.0261
  C  C202  1  0.315600  0.031100  0.290200  1.0  -0.0944
  C  C203  1  0.261100  0.180000  0.193800  1.0  0.0396
  C  C204  1  0.283300  0.161100  0.083700  1.0  -0.0785
  C  C205  1  0.332300  0.193100  0.073000  1.0  -0.0146
  C  C206  1  0.360400  0.245600  0.172200  1.0  -0.0798
  C  C207  1  0.335700  0.267900  0.275400  1.0  -0.0693
  C  C208  1  0.287000  0.235200  0.285800  1.0  -0.0756
  C  C209  1  0.389700  0.880200  0.166000  1.0  0.7108
  C  C210  1  0.415700  0.275200  0.168200  1.0  0.7032
  C  C211  1  0.623000  0.568300  0.285000  1.0  -0.0811
  C  C212  1  0.665900  0.531400  0.252000  1.0  -0.1234
  C  C213  1  0.712000  0.564600  0.225800  1.0  -0.0123
  C  C214  1  0.712700  0.639800  0.221000  1.0  0.0305
  C  C215  1  0.667300  0.676500  0.246100  1.0  -0.0266
  C  C216  1  0.623900  0.642500  0.284200  1.0  -0.0745
  C  C217  1  0.577400  0.685400  0.312900  1.0  0.7013
  C  C218  1  0.577800  0.524900  0.319500  1.0  0.7052
  C  C219  1  0.759200  0.517800  0.210900  1.0  0.0064
  C  C220  1  0.745300  0.458500  0.127100  1.0  -0.1308
  C  C221  1  0.787400  0.414000  0.113200  1.0  -0.0264
  C  C222  1  0.844600  0.426900  0.189500  1.0  -0.146
  C  C223  1  0.858400  0.485400  0.280000  1.0  -0.0261
  C  C224  1  0.815600  0.531100  0.290200  1.0  -0.0944
  C  C225  1  0.761100  0.680000  0.193800  1.0  0.0396
  C  C226  1  0.783300  0.661100  0.083700  1.0  -0.0785
  C  C227  1  0.832300  0.693100  0.073000  1.0  -0.0146
  C  C228  1  0.860400  0.745600  0.172200  1.0  -0.0798
  C  C229  1  0.835700  0.767900  0.275400  1.0  -0.0693
  C  C230  1  0.787000  0.735200  0.285800  1.0  -0.0756
  C  C231  1  0.889700  0.380200  0.166000  1.0  0.7108
  C  C232  1  0.915700  0.775200  0.168200  1.0  0.7032
  C  C233  1  0.877000  0.068300  0.215000  1.0  -0.0809
  C  C234  1  0.834100  0.031400  0.248000  1.0  -0.1215
  C  C235  1  0.788000  0.064600  0.274200  1.0  -0.0118
  C  C236  1  0.787300  0.139800  0.279000  1.0  0.0305
  C  C237  1  0.832700  0.176500  0.253900  1.0  -0.0262
  C  C238  1  0.876100  0.142500  0.215800  1.0  -0.0748
  C  C239  1  0.922600  0.185400  0.187100  1.0  0.7015
  C  C240  1  0.922200  0.024900  0.180500  1.0  0.7059
  C  C241  1  0.740800  0.017800  0.289100  1.0  0.0055
  C  C242  1  0.754700  0.958500  0.372900  1.0  -0.1315
  C  C243  1  0.712600  0.914000  0.386800  1.0  -0.0263
  C  C244  1  0.655400  0.926900  0.310500  1.0  -0.1451
  C  C245  1  0.641600  0.985400  0.220000  1.0  -0.0262
  C  C246  1  0.684400  0.031100  0.209800  1.0  -0.095
  C  C247  1  0.738900  0.180000  0.306200  1.0  0.0396
  C  C248  1  0.716700  0.161100  0.416300  1.0  -0.0781
  C  C249  1  0.667700  0.193100  0.427000  1.0  -0.0154
  C  C250  1  0.639600  0.245600  0.327800  1.0  -0.0808
  C  C251  1  0.664300  0.267900  0.224600  1.0  -0.068
  C  C252  1  0.713000  0.235200  0.214200  1.0  -0.0749
  C  C253  1  0.610300  0.880200  0.334000  1.0  0.7126
  C  C254  1  0.584300  0.275200  0.331800  1.0  0.7027
  C  C255  1  0.377000  0.568300  0.215000  1.0  -0.0809
  C  C256  1  0.334100  0.531400  0.248000  1.0  -0.1215
  C  C257  1  0.288000  0.564600  0.274200  1.0  -0.0118
  C  C258  1  0.287300  0.639800  0.279000  1.0  0.0305
  C  C259  1  0.332700  0.676500  0.253900  1.0  -0.0262
  C  C260  1  0.376100  0.642500  0.215800  1.0  -0.0748
  C  C261  1  0.422600  0.685400  0.187100  1.0  0.7015
  C  C262  1  0.422200  0.524900  0.180500  1.0  0.7059
  C  C263  1  0.240800  0.517800  0.289100  1.0  0.0055
  C  C264  1  0.254700  0.458500  0.372900  1.0  -0.1315
  C  C265  1  0.212600  0.414000  0.386800  1.0  -0.0263
  C  C266  1  0.155400  0.426900  0.310500  1.0  -0.1451
  C  C267  1  0.141600  0.485400  0.220000  1.0  -0.0262
  C  C268  1  0.184400  0.531100  0.209800  1.0  -0.095
  C  C269  1  0.238900  0.680000  0.306200  1.0  0.0396
  C  C270  1  0.216700  0.661100  0.416300  1.0  -0.0781
  C  C271  1  0.167700  0.693100  0.427000  1.0  -0.0154
  C  C272  1  0.139600  0.745600  0.327800  1.0  -0.0808
  C  C273  1  0.164300  0.767900  0.224600  1.0  -0.068
  C  C274  1  0.213000  0.735200  0.214200  1.0  -0.0749
  C  C275  1  0.110300  0.380200  0.334000  1.0  0.7126
  C  C276  1  0.084300  0.775200  0.331800  1.0  0.7027
  O  O277  1  0.947500  0.021340  0.777600  1.0  -0.6615
  O  O278  1  0.930920  0.968170  0.563000  1.0  -0.5641
  O  O279  1  0.932470  0.823560  0.571500  1.0  -0.5602
  O  O280  1  0.948680  0.769340  0.785700  1.0  -0.6524
  O  O281  1  0.624100  0.159900  0.943400  1.0  -0.5358
  O  O282  1  0.560250  0.116300  0.743800  1.0  -0.5832
  O  O283  1  0.564760  0.744200  0.929700  1.0  -0.5897
  O  O284  1  0.557740  0.680230  0.730700  1.0  -0.643
  O  O285  1  0.974600  0.103610  0.520300  1.0  -0.8006
  O  O286  1  0.447500  0.521340  0.777600  1.0  -0.6615
  O  O287  1  0.430920  0.468170  0.563000  1.0  -0.5641
  O  O288  1  0.432470  0.323560  0.571500  1.0  -0.5602
  O  O289  1  0.448680  0.269340  0.785700  1.0  -0.6524
  O  O290  1  0.124100  0.659900  0.943400  1.0  -0.5358
  O  O291  1  0.060250  0.616300  0.743800  1.0  -0.5831
  O  O292  1  0.064760  0.244200  0.929700  1.0  -0.5897
  O  O293  1  0.057740  0.180230  0.730700  1.0  -0.643
  O  O294  1  0.474600  0.603610  0.520300  1.0  -0.8006
  O  O295  1  0.052500  0.021340  0.722400  1.0  -0.6614
  O  O296  1  0.069080  0.968170  0.937000  1.0  -0.5637
  O  O297  1  0.067530  0.823560  0.928500  1.0  -0.5597
  O  O298  1  0.051320  0.769340  0.714300  1.0  -0.6521
  O  O299  1  0.375900  0.159900  0.556600  1.0  -0.5359
  O  O300  1  0.439750  0.116300  0.756200  1.0  -0.5836
  O  O301  1  0.435240  0.744200  0.570300  1.0  -0.5902
  O  O302  1  0.442260  0.680230  0.769300  1.0  -0.6431
  O  O303  1  0.025400  0.103610  0.979700  1.0  -0.8009
  O  O304  1  0.552500  0.521340  0.722400  1.0  -0.6614
  O  O305  1  0.569080  0.468170  0.937000  1.0  -0.5637
  O  O306  1  0.567530  0.323560  0.928500  1.0  -0.5597
  O  O307  1  0.551320  0.269340  0.714300  1.0  -0.6521
  O  O308  1  0.875900  0.659900  0.556600  1.0  -0.5359
  O  O309  1  0.939750  0.616300  0.756200  1.0  -0.5834
  O  O310  1  0.935240  0.244200  0.570300  1.0  -0.5902
  O  O311  1  0.942260  0.180230  0.769300  1.0  -0.6431
  O  O312  1  0.525400  0.603610  0.979700  1.0  -0.8009
  O  O313  1  0.052500  0.978660  0.222400  1.0  -0.6615
  O  O314  1  0.069080  0.031830  0.437000  1.0  -0.565
  O  O315  1  0.067530  0.176440  0.428500  1.0  -0.5597
  O  O316  1  0.051320  0.230660  0.214300  1.0  -0.6509
  O  O317  1  0.375900  0.840100  0.056600  1.0  -0.5357
  O  O318  1  0.439750  0.883700  0.256200  1.0  -0.5833
  O  O319  1  0.435240  0.255800  0.070300  1.0  -0.5893
  O  O320  1  0.442260  0.319770  0.269300  1.0  -0.6428
  O  O321  1  0.025400  0.896390  0.479700  1.0  -0.8009
  O  O322  1  0.552500  0.478660  0.222400  1.0  -0.6615
  O  O323  1  0.569080  0.531830  0.437000  1.0  -0.565
  O  O324  1  0.567530  0.676440  0.428500  1.0  -0.5597
  O  O325  1  0.551320  0.730660  0.214300  1.0  -0.6509
  O  O326  1  0.875900  0.340100  0.056600  1.0  -0.5357
  O  O327  1  0.939750  0.383700  0.256200  1.0  -0.5832
  O  O328  1  0.935240  0.755800  0.070300  1.0  -0.5893
  O  O329  1  0.942260  0.819770  0.269300  1.0  -0.6428
  O  O330  1  0.525400  0.396390  0.479700  1.0  -0.8009
  O  O331  1  0.947500  0.978660  0.277600  1.0  -0.6609
  O  O332  1  0.930920  0.031830  0.063000  1.0  -0.5653
  O  O333  1  0.932470  0.176440  0.071500  1.0  -0.5599
  O  O334  1  0.948680  0.230660  0.285700  1.0  -0.6526
  O  O335  1  0.624100  0.840100  0.443400  1.0  -0.5361
  O  O336  1  0.560250  0.883700  0.243800  1.0  -0.5838
  O  O337  1  0.564760  0.255800  0.429700  1.0  -0.5888
  O  O338  1  0.557740  0.319770  0.230700  1.0  -0.6432
  O  O339  1  0.974600  0.896390  0.020300  1.0  -0.8006
  O  O340  1  0.447500  0.478660  0.277600  1.0  -0.6609
  O  O341  1  0.430920  0.531830  0.063000  1.0  -0.5653
  O  O342  1  0.432470  0.676440  0.071500  1.0  -0.5599
  O  O343  1  0.448680  0.730660  0.285700  1.0  -0.6526
  O  O344  1  0.124100  0.340100  0.443400  1.0  -0.5361
  O  O345  1  0.060250  0.383700  0.243800  1.0  -0.5837
  O  O346  1  0.064760  0.755800  0.429700  1.0  -0.5888
  O  O347  1  0.057740  0.819770  0.230700  1.0  -0.6432
  O  O348  1  0.474600  0.396390  0.020300  1.0  -0.8006
