# generated using pymatgen
data_V2P2H5C6(O2F)3
_symmetry_space_group_name_H-M   'P 1'
_cell_length_a   10.01730000
_cell_length_b   19.82780000
_cell_length_c   10.04730000
_cell_angle_alpha   90.00000000
_cell_angle_beta   113.77100000
_cell_angle_gamma   90.00000000
_symmetry_Int_Tables_number   1
_chemical_formula_structural   V2P2H5C6(O2F)3
_chemical_formula_sum   'V8 P8 H20 C24 O24 F12'
_cell_volume   1826.30544670
_cell_formula_units_Z   4
loop_
 _symmetry_equiv_pos_site_id
 _symmetry_equiv_pos_as_xyz
  1  'x, y, z'
loop_
 _atom_site_type_symbol
 _atom_site_label
 _atom_site_symmetry_multiplicity
 _atom_site_fract_x
 _atom_site_fract_y
 _atom_site_fract_z
 _atom_site_occupancy
 _atom_site_charge
  V  V1  1  0.287010  0.259970  0.738710  1.0  1.3298
  V  V2  1  0.268250  0.108940  0.497080  1.0  1.3693
  V  V3  1  0.712990  0.759970  0.761290  1.0  1.3296
  V  V4  1  0.731750  0.608940  0.002920  1.0  1.3702
  V  V5  1  0.712990  0.740030  0.261290  1.0  1.3289
  V  V6  1  0.731750  0.891060  0.502920  1.0  1.3709
  V  V7  1  0.287010  0.240030  0.238710  1.0  1.3291
  V  V8  1  0.268250  0.391060  0.997080  1.0  1.3699
  P  P9  1  0.009440  0.364480  0.679020  1.0  1.4561
  P  P10  1  0.511630  0.134680  0.828320  1.0  1.497
  P  P11  1  0.990560  0.864480  0.820980  1.0  1.4552
  P  P12  1  0.488370  0.634680  0.671680  1.0  1.497
  P  P13  1  0.990560  0.635520  0.320980  1.0  1.4547
  P  P14  1  0.488370  0.865320  0.171680  1.0  1.4973
  P  P15  1  0.009440  0.135520  0.179020  1.0  1.4549
  P  P16  1  0.511630  0.365320  0.328320  1.0  1.4966
  H  H17  1  0.175300  0.417600  0.525100  1.0  0.0929
  H  H18  1  0.835100  0.485000  0.608600  1.0  0.09
  H  H19  1  0.436400  0.006000  0.200500  1.0  0.1033
  H  H20  1  0.443100  0.104100  0.074700  1.0  0.1026
  H  H21  1  0.747000  0.162000  0.988000  1.0  0.4723
  H  H22  1  0.824700  0.917600  0.974900  1.0  0.0927
  H  H23  1  0.164900  0.985000  0.891400  1.0  0.0896
  H  H24  1  0.563600  0.506000  0.299500  1.0  0.1036
  H  H25  1  0.556900  0.604100  0.425300  1.0  0.1023
  H  H26  1  0.253000  0.662000  0.512000  1.0  0.4733
  H  H27  1  0.824700  0.582400  0.474900  1.0  0.0927
  H  H28  1  0.164900  0.515000  0.391400  1.0  0.0893
  H  H29  1  0.563600  0.994000  0.799500  1.0  0.1041
  H  H30  1  0.556900  0.895900  0.925300  1.0  0.1024
  H  H31  1  0.253000  0.838000  0.012000  1.0  0.4797
  H  H32  1  0.175300  0.082400  0.025100  1.0  0.0925
  H  H33  1  0.835100  0.015000  0.108600  1.0  0.0898
  H  H34  1  0.436400  0.494000  0.700500  1.0  0.1036
  H  H35  1  0.443100  0.395900  0.574700  1.0  0.1023
  H  H36  1  0.747000  0.338000  0.488000  1.0  0.4794
  C  C37  1  0.466000  0.061930  0.044200  1.0  -0.058
  C  C38  1  0.005900  0.441030  0.580200  1.0  -0.2856
  C  C39  1  0.103800  0.450930  0.515000  1.0  -0.0443
  C  C40  1  0.902200  0.490890  0.564500  1.0  -0.0463
  C  C41  1  0.502900  0.059110  0.923800  1.0  -0.3765
  C  C42  1  0.462400  0.003490  0.119500  1.0  -0.0596
  C  C43  1  0.534000  0.561930  0.455800  1.0  -0.0564
  C  C44  1  0.994100  0.941030  0.919800  1.0  -0.2866
  C  C45  1  0.896200  0.950930  0.985000  1.0  -0.0433
  C  C46  1  0.097800  0.990890  0.935500  1.0  -0.0472
  C  C47  1  0.497100  0.559110  0.576200  1.0  -0.3748
  C  C48  1  0.537600  0.503490  0.380500  1.0  -0.0585
  C  C49  1  0.534000  0.938070  0.955800  1.0  -0.0581
  C  C50  1  0.994100  0.558970  0.419800  1.0  -0.2865
  C  C51  1  0.896200  0.549070  0.485000  1.0  -0.046
  C  C52  1  0.097800  0.509110  0.435500  1.0  -0.0465
  C  C53  1  0.497100  0.940890  0.076200  1.0  -0.3759
  C  C54  1  0.537600  0.996510  0.880500  1.0  -0.0563
  C  C55  1  0.466000  0.438070  0.544200  1.0  -0.0583
  C  C56  1  0.005900  0.058970  0.080200  1.0  -0.286
  C  C57  1  0.103800  0.049070  0.015000  1.0  -0.0468
  C  C58  1  0.902200  0.009110  0.064500  1.0  -0.0455
  C  C59  1  0.502900  0.440890  0.423800  1.0  -0.3778
  C  C60  1  0.462400  0.496510  0.619500  1.0  -0.0582
  O  O61  1  0.106500  0.314960  0.643700  1.0  -0.8257
  O  O62  1  0.851900  0.340220  0.630200  1.0  -0.4542
  O  O63  1  0.065100  0.379790  0.842200  1.0  -0.747
  O  O64  1  0.463500  0.117770  0.667000  1.0  -0.7648
  O  O65  1  0.671800  0.157040  0.881000  1.0  -0.5617
  O  O66  1  0.415900  0.186630  0.858600  1.0  -0.7921
  O  O67  1  0.893500  0.814960  0.856300  1.0  -0.8272
  O  O68  1  0.148100  0.840220  0.869800  1.0  -0.4514
  O  O69  1  0.934900  0.879790  0.657800  1.0  -0.7459
  O  O70  1  0.536500  0.617770  0.833000  1.0  -0.7676
  O  O71  1  0.328200  0.657040  0.619000  1.0  -0.5581
  O  O72  1  0.584100  0.686630  0.641400  1.0  -0.7937
  O  O73  1  0.893500  0.685040  0.356300  1.0  -0.8308
  O  O74  1  0.148100  0.659780  0.369800  1.0  -0.4535
  O  O75  1  0.934900  0.620210  0.157800  1.0  -0.7465
  O  O76  1  0.536500  0.882230  0.333000  1.0  -0.767
  O  O77  1  0.328200  0.842960  0.119000  1.0  -0.5578
  O  O78  1  0.584100  0.813370  0.141400  1.0  -0.7923
  O  O79  1  0.106500  0.185040  0.143700  1.0  -0.8295
  O  O80  1  0.851900  0.159780  0.130200  1.0  -0.4547
  O  O81  1  0.065100  0.120210  0.342200  1.0  -0.7471
  O  O82  1  0.463500  0.382230  0.167000  1.0  -0.7645
  O  O83  1  0.671800  0.342960  0.381000  1.0  -0.5603
  O  O84  1  0.415900  0.313370  0.358600  1.0  -0.7919
  F  F85  1  0.194260  0.193300  0.586410  1.0  -0.5736
  F  F86  1  0.340770  0.313240  0.915880  1.0  -0.5614
  F  F87  1  0.197390  0.055310  0.599760  1.0  -0.367
  F  F88  1  0.805740  0.693300  0.913590  1.0  -0.5743
  F  F89  1  0.659230  0.813240  0.584120  1.0  -0.561
  F  F90  1  0.802610  0.555310  0.900240  1.0  -0.3663
  F  F91  1  0.805740  0.806700  0.413590  1.0  -0.5742
  F  F92  1  0.659230  0.686760  0.084120  1.0  -0.5596
  F  F93  1  0.802610  0.944690  0.400240  1.0  -0.3639
  F  F94  1  0.194260  0.306700  0.086410  1.0  -0.5736
  F  F95  1  0.340770  0.186760  0.415880  1.0  -0.56
  F  F96  1  0.197390  0.444690  0.099760  1.0  -0.3657
