# generated using pymatgen
data_ScH8(C7O3)2
_symmetry_space_group_name_H-M   'P 1'
_cell_length_a   8.69450000
_cell_length_b   20.80800000
_cell_length_c   34.07900000
_cell_angle_alpha   90.00000000
_cell_angle_beta   90.00000000
_cell_angle_gamma   90.00000000
_symmetry_Int_Tables_number   1
_chemical_formula_structural   ScH8(C7O3)2
_chemical_formula_sum   'Sc16 H128 C224 O96'
_cell_volume   6165.40760132
_cell_formula_units_Z   16
loop_
 _symmetry_equiv_pos_site_id
 _symmetry_equiv_pos_as_xyz
  1  'x, y, z'
loop_
 _atom_site_type_symbol
 _atom_site_label
 _atom_site_symmetry_multiplicity
 _atom_site_fract_x
 _atom_site_fract_y
 _atom_site_fract_z
 _atom_site_occupancy
 _atom_site_charge
  Sc  Sc1  1  0.375000  0.375000  0.636080  1.0  2.0751
  Sc  Sc2  1  0.375000  0.875000  0.136080  1.0  2.0751
  Sc  Sc3  1  0.875000  0.375000  0.136080  1.0  2.0751
  Sc  Sc4  1  0.875000  0.875000  0.636080  1.0  2.0751
  Sc  Sc5  1  0.375000  0.375000  0.113920  1.0  2.0737
  Sc  Sc6  1  0.375000  0.875000  0.613920  1.0  2.0737
  Sc  Sc7  1  0.875000  0.375000  0.613920  1.0  2.0737
  Sc  Sc8  1  0.875000  0.875000  0.113920  1.0  2.0737
  Sc  Sc9  1  0.625000  0.625000  0.363920  1.0  2.0737
  Sc  Sc10  1  0.625000  0.125000  0.863920  1.0  2.0737
  Sc  Sc11  1  0.125000  0.625000  0.863920  1.0  2.0737
  Sc  Sc12  1  0.125000  0.125000  0.363920  1.0  2.0737
  Sc  Sc13  1  0.625000  0.625000  0.886080  1.0  2.0751
  Sc  Sc14  1  0.625000  0.125000  0.386080  1.0  2.0751
  Sc  Sc15  1  0.125000  0.625000  0.386080  1.0  2.0751
  Sc  Sc16  1  0.125000  0.125000  0.886080  1.0  2.0751
  H  H17  1  0.991300  0.277500  0.507000  1.0  0.0941
  H  H18  1  0.074000  0.219300  0.452300  1.0  0.0768
  H  H19  1  0.271000  0.568000  0.670900  1.0  0.0927
  H  H20  1  0.272200  0.680000  0.670800  1.0  0.0713
  H  H21  1  0.991300  0.777500  0.007000  1.0  0.0941
  H  H22  1  0.074000  0.719300  0.952300  1.0  0.0768
  H  H23  1  0.271000  0.068000  0.170900  1.0  0.0927
  H  H24  1  0.272200  0.180000  0.170800  1.0  0.0713
  H  H25  1  0.491300  0.277500  0.007000  1.0  0.0941
  H  H26  1  0.574000  0.219300  0.952300  1.0  0.0768
  H  H27  1  0.771000  0.568000  0.170900  1.0  0.0927
  H  H28  1  0.772200  0.680000  0.170800  1.0  0.0713
  H  H29  1  0.491300  0.777500  0.507000  1.0  0.0941
  H  H30  1  0.574000  0.719300  0.452300  1.0  0.0768
  H  H31  1  0.771000  0.068000  0.670900  1.0  0.0927
  H  H32  1  0.772200  0.180000  0.670800  1.0  0.0713
  H  H33  1  0.758700  0.472500  0.507000  1.0  0.0947
  H  H34  1  0.676000  0.530700  0.452300  1.0  0.0769
  H  H35  1  0.479000  0.182000  0.670900  1.0  0.0932
  H  H36  1  0.477800  0.070000  0.670800  1.0  0.0726
  H  H37  1  0.758700  0.972500  0.007000  1.0  0.0947
  H  H38  1  0.676000  0.030700  0.952300  1.0  0.0769
  H  H39  1  0.479000  0.682000  0.170900  1.0  0.0932
  H  H40  1  0.477800  0.570000  0.170800  1.0  0.0726
  H  H41  1  0.258700  0.472500  0.007000  1.0  0.0947
  H  H42  1  0.176000  0.530700  0.952300  1.0  0.0769
  H  H43  1  0.979000  0.182000  0.170900  1.0  0.0932
  H  H44  1  0.977800  0.070000  0.170800  1.0  0.0726
  H  H45  1  0.258700  0.972500  0.507000  1.0  0.0947
  H  H46  1  0.176000  0.030700  0.452300  1.0  0.0769
  H  H47  1  0.979000  0.682000  0.670900  1.0  0.0932
  H  H48  1  0.977800  0.570000  0.670800  1.0  0.0726
  H  H49  1  0.758700  0.277500  0.243000  1.0  0.0948
  H  H50  1  0.676000  0.219300  0.297700  1.0  0.0771
  H  H51  1  0.479000  0.568000  0.079100  1.0  0.0934
  H  H52  1  0.477800  0.680000  0.079200  1.0  0.0734
  H  H53  1  0.758700  0.777500  0.743000  1.0  0.0948
  H  H54  1  0.676000  0.719300  0.797700  1.0  0.0771
  H  H55  1  0.479000  0.068000  0.579100  1.0  0.0934
  H  H56  1  0.477800  0.180000  0.579200  1.0  0.0734
  H  H57  1  0.258700  0.277500  0.743000  1.0  0.0948
  H  H58  1  0.176000  0.219300  0.797700  1.0  0.0771
  H  H59  1  0.979000  0.568000  0.579100  1.0  0.0934
  H  H60  1  0.977800  0.680000  0.579200  1.0  0.0734
  H  H61  1  0.258700  0.777500  0.243000  1.0  0.0948
  H  H62  1  0.176000  0.719300  0.297700  1.0  0.0771
  H  H63  1  0.979000  0.068000  0.079100  1.0  0.0934
  H  H64  1  0.977800  0.180000  0.079200  1.0  0.0734
  H  H65  1  0.991300  0.472500  0.243000  1.0  0.0941
  H  H66  1  0.074000  0.530700  0.297700  1.0  0.0769
  H  H67  1  0.271000  0.182000  0.079100  1.0  0.0931
  H  H68  1  0.272200  0.070000  0.079200  1.0  0.0728
  H  H69  1  0.991300  0.972500  0.743000  1.0  0.0941
  H  H70  1  0.074000  0.030700  0.797700  1.0  0.0769
  H  H71  1  0.271000  0.682000  0.579100  1.0  0.0931
  H  H72  1  0.272200  0.570000  0.579200  1.0  0.0728
  H  H73  1  0.491300  0.472500  0.743000  1.0  0.0941
  H  H74  1  0.574000  0.530700  0.797700  1.0  0.0769
  H  H75  1  0.771000  0.182000  0.579100  1.0  0.0931
  H  H76  1  0.772200  0.070000  0.579200  1.0  0.0728
  H  H77  1  0.491300  0.972500  0.243000  1.0  0.0941
  H  H78  1  0.574000  0.030700  0.297700  1.0  0.0769
  H  H79  1  0.771000  0.682000  0.079100  1.0  0.0931
  H  H80  1  0.772200  0.570000  0.079200  1.0  0.0728
  H  H81  1  0.008700  0.722500  0.493000  1.0  0.0947
  H  H82  1  0.926000  0.780700  0.547700  1.0  0.077
  H  H83  1  0.729000  0.432000  0.329100  1.0  0.0932
  H  H84  1  0.727800  0.320000  0.329200  1.0  0.0734
  H  H85  1  0.008700  0.222500  0.993000  1.0  0.0947
  H  H86  1  0.926000  0.280700  0.047700  1.0  0.077
  H  H87  1  0.729000  0.932000  0.829100  1.0  0.0932
  H  H88  1  0.727800  0.820000  0.829200  1.0  0.0734
  H  H89  1  0.508700  0.722500  0.993000  1.0  0.0947
  H  H90  1  0.426000  0.780700  0.047700  1.0  0.077
  H  H91  1  0.229000  0.432000  0.829100  1.0  0.0932
  H  H92  1  0.227800  0.320000  0.829200  1.0  0.0734
  H  H93  1  0.508700  0.222500  0.493000  1.0  0.0947
  H  H94  1  0.426000  0.280700  0.547700  1.0  0.077
  H  H95  1  0.229000  0.932000  0.329100  1.0  0.0932
  H  H96  1  0.227800  0.820000  0.329200  1.0  0.0734
  H  H97  1  0.241300  0.527500  0.493000  1.0  0.0941
  H  H98  1  0.324000  0.469300  0.547700  1.0  0.0769
  H  H99  1  0.521000  0.818000  0.329100  1.0  0.0929
  H  H100  1  0.522200  0.930000  0.329200  1.0  0.0725
  H  H101  1  0.241300  0.027500  0.993000  1.0  0.0941
  H  H102  1  0.324000  0.969300  0.047700  1.0  0.0769
  H  H103  1  0.521000  0.318000  0.829100  1.0  0.0929
  H  H104  1  0.522200  0.430000  0.829200  1.0  0.0725
  H  H105  1  0.741300  0.527500  0.993000  1.0  0.0941
  H  H106  1  0.824000  0.469300  0.047700  1.0  0.0769
  H  H107  1  0.021000  0.818000  0.829100  1.0  0.0929
  H  H108  1  0.022200  0.930000  0.829200  1.0  0.0725
  H  H109  1  0.741300  0.027500  0.493000  1.0  0.0941
  H  H110  1  0.824000  0.969300  0.547700  1.0  0.0769
  H  H111  1  0.021000  0.318000  0.329100  1.0  0.0929
  H  H112  1  0.022200  0.430000  0.329200  1.0  0.0725
  H  H113  1  0.241300  0.722500  0.757000  1.0  0.0942
  H  H114  1  0.324000  0.780700  0.702300  1.0  0.0769
  H  H115  1  0.521000  0.432000  0.920900  1.0  0.0932
  H  H116  1  0.522200  0.320000  0.920800  1.0  0.0717
  H  H117  1  0.241300  0.222500  0.257000  1.0  0.0942
  H  H118  1  0.324000  0.280700  0.202300  1.0  0.0769
  H  H119  1  0.521000  0.932000  0.420900  1.0  0.0932
  H  H120  1  0.522200  0.820000  0.420800  1.0  0.0717
  H  H121  1  0.741300  0.722500  0.257000  1.0  0.0942
  H  H122  1  0.824000  0.780700  0.202300  1.0  0.0769
  H  H123  1  0.021000  0.432000  0.420900  1.0  0.0932
  H  H124  1  0.022200  0.320000  0.420800  1.0  0.0717
  H  H125  1  0.741300  0.222500  0.757000  1.0  0.0942
  H  H126  1  0.824000  0.280700  0.702300  1.0  0.0769
  H  H127  1  0.021000  0.932000  0.920900  1.0  0.0932
  H  H128  1  0.022200  0.820000  0.920800  1.0  0.0717
  H  H129  1  0.008700  0.527500  0.757000  1.0  0.0948
  H  H130  1  0.926000  0.469300  0.702300  1.0  0.0769
  H  H131  1  0.729000  0.818000  0.920900  1.0  0.0932
  H  H132  1  0.727800  0.930000  0.920800  1.0  0.0724
  H  H133  1  0.008700  0.027500  0.257000  1.0  0.0948
  H  H134  1  0.926000  0.969300  0.202300  1.0  0.0769
  H  H135  1  0.729000  0.318000  0.420900  1.0  0.0932
  H  H136  1  0.727800  0.430000  0.420800  1.0  0.0724
  H  H137  1  0.508700  0.527500  0.257000  1.0  0.0948
  H  H138  1  0.426000  0.469300  0.202300  1.0  0.0769
  H  H139  1  0.229000  0.818000  0.420900  1.0  0.0932
  H  H140  1  0.227800  0.930000  0.420800  1.0  0.0724
  H  H141  1  0.508700  0.027500  0.757000  1.0  0.0948
  H  H142  1  0.426000  0.969300  0.702300  1.0  0.0769
  H  H143  1  0.229000  0.318000  0.920900  1.0  0.0932
  H  H144  1  0.227800  0.430000  0.920800  1.0  0.0724
  C  C145  1  0.145900  0.319200  0.568100  1.0  0.6883
  C  C146  1  0.200600  0.285000  0.532400  1.0  -0.1492
  C  C147  1  0.096800  0.266600  0.504100  1.0  -0.0744
  C  C148  1  0.146700  0.231700  0.471600  1.0  -0.0934
  C  C149  1  0.218000  0.590700  0.650800  1.0  -0.1069
  C  C150  1  0.218000  0.657500  0.650700  1.0  -0.1239
  C  C151  1  0.145900  0.819200  0.068100  1.0  0.6883
  C  C152  1  0.200600  0.785000  0.032400  1.0  -0.1492
  C  C153  1  0.096800  0.766600  0.004100  1.0  -0.0744
  C  C154  1  0.146700  0.731700  0.971600  1.0  -0.0934
  C  C155  1  0.218000  0.090700  0.150800  1.0  -0.1069
  C  C156  1  0.218000  0.157500  0.150700  1.0  -0.1239
  C  C157  1  0.645900  0.319200  0.068100  1.0  0.6883
  C  C158  1  0.700600  0.285000  0.032400  1.0  -0.1492
  C  C159  1  0.596800  0.266600  0.004100  1.0  -0.0744
  C  C160  1  0.646700  0.231700  0.971600  1.0  -0.0934
  C  C161  1  0.718000  0.590700  0.150800  1.0  -0.1069
  C  C162  1  0.718000  0.657500  0.150700  1.0  -0.1239
  C  C163  1  0.645900  0.819200  0.568100  1.0  0.6883
  C  C164  1  0.700600  0.785000  0.532400  1.0  -0.1492
  C  C165  1  0.596800  0.766600  0.504100  1.0  -0.0744
  C  C166  1  0.646700  0.731700  0.471600  1.0  -0.0934
  C  C167  1  0.718000  0.090700  0.650800  1.0  -0.1069
  C  C168  1  0.718000  0.157500  0.650700  1.0  -0.1239
  C  C169  1  0.604100  0.430800  0.568100  1.0  0.6885
  C  C170  1  0.549400  0.465000  0.532400  1.0  -0.1502
  C  C171  1  0.653200  0.483400  0.504100  1.0  -0.075
  C  C172  1  0.603300  0.518300  0.471600  1.0  -0.0937
  C  C173  1  0.532000  0.159300  0.650800  1.0  -0.1061
  C  C174  1  0.532000  0.092500  0.650700  1.0  -0.1236
  C  C175  1  0.604100  0.930800  0.068100  1.0  0.6885
  C  C176  1  0.549400  0.965000  0.032400  1.0  -0.1502
  C  C177  1  0.653200  0.983400  0.004100  1.0  -0.075
  C  C178  1  0.603300  0.018300  0.971600  1.0  -0.0937
  C  C179  1  0.532000  0.659300  0.150800  1.0  -0.1061
  C  C180  1  0.532000  0.592500  0.150700  1.0  -0.1236
  C  C181  1  0.104100  0.430800  0.068100  1.0  0.6885
  C  C182  1  0.049400  0.465000  0.032400  1.0  -0.1502
  C  C183  1  0.153200  0.483400  0.004100  1.0  -0.075
  C  C184  1  0.103300  0.518300  0.971600  1.0  -0.0937
  C  C185  1  0.032000  0.159300  0.150800  1.0  -0.1061
  C  C186  1  0.032000  0.092500  0.150700  1.0  -0.1236
  C  C187  1  0.104100  0.930800  0.568100  1.0  0.6885
  C  C188  1  0.049400  0.965000  0.532400  1.0  -0.1502
  C  C189  1  0.153200  0.983400  0.504100  1.0  -0.075
  C  C190  1  0.103300  0.018300  0.471600  1.0  -0.0937
  C  C191  1  0.032000  0.659300  0.650800  1.0  -0.1061
  C  C192  1  0.032000  0.592500  0.650700  1.0  -0.1236
  C  C193  1  0.604100  0.319200  0.181900  1.0  0.6883
  C  C194  1  0.549400  0.285000  0.217600  1.0  -0.1499
  C  C195  1  0.653200  0.266600  0.245900  1.0  -0.0747
  C  C196  1  0.603300  0.231700  0.278400  1.0  -0.0946
  C  C197  1  0.532000  0.590700  0.099200  1.0  -0.107
  C  C198  1  0.532000  0.657500  0.099300  1.0  -0.1212
  C  C199  1  0.604100  0.819200  0.681900  1.0  0.6883
  C  C200  1  0.549400  0.785000  0.717600  1.0  -0.1499
  C  C201  1  0.653200  0.766600  0.745900  1.0  -0.0747
  C  C202  1  0.603300  0.731700  0.778400  1.0  -0.0946
  C  C203  1  0.532000  0.090700  0.599200  1.0  -0.107
  C  C204  1  0.532000  0.157500  0.599300  1.0  -0.1212
  C  C205  1  0.104100  0.319200  0.681900  1.0  0.6883
  C  C206  1  0.049400  0.285000  0.717600  1.0  -0.1499
  C  C207  1  0.153200  0.266600  0.745900  1.0  -0.0747
  C  C208  1  0.103300  0.231700  0.778400  1.0  -0.0946
  C  C209  1  0.032000  0.590700  0.599200  1.0  -0.107
  C  C210  1  0.032000  0.657500  0.599300  1.0  -0.1212
  C  C211  1  0.104100  0.819200  0.181900  1.0  0.6883
  C  C212  1  0.049400  0.785000  0.217600  1.0  -0.1499
  C  C213  1  0.153200  0.766600  0.245900  1.0  -0.0747
  C  C214  1  0.103300  0.731700  0.278400  1.0  -0.0946
  C  C215  1  0.032000  0.090700  0.099200  1.0  -0.107
  C  C216  1  0.032000  0.157500  0.099300  1.0  -0.1212
  C  C217  1  0.145900  0.430800  0.181900  1.0  0.6877
  C  C218  1  0.200600  0.465000  0.217600  1.0  -0.15
  C  C219  1  0.096800  0.483400  0.245900  1.0  -0.0745
  C  C220  1  0.146700  0.518300  0.278400  1.0  -0.0948
  C  C221  1  0.218000  0.159300  0.099200  1.0  -0.1023
  C  C222  1  0.218000  0.092500  0.099300  1.0  -0.12
  C  C223  1  0.145900  0.930800  0.681900  1.0  0.6877
  C  C224  1  0.200600  0.965000  0.717600  1.0  -0.15
  C  C225  1  0.096800  0.983400  0.745900  1.0  -0.0745
  C  C226  1  0.146700  0.018300  0.778400  1.0  -0.0948
  C  C227  1  0.218000  0.659300  0.599200  1.0  -0.1023
  C  C228  1  0.218000  0.592500  0.599300  1.0  -0.12
  C  C229  1  0.645900  0.430800  0.681900  1.0  0.6877
  C  C230  1  0.700600  0.465000  0.717600  1.0  -0.15
  C  C231  1  0.596800  0.483400  0.745900  1.0  -0.0745
  C  C232  1  0.646700  0.518300  0.778400  1.0  -0.0948
  C  C233  1  0.718000  0.159300  0.599200  1.0  -0.1023
  C  C234  1  0.718000  0.092500  0.599300  1.0  -0.12
  C  C235  1  0.645900  0.930800  0.181900  1.0  0.6877
  C  C236  1  0.700600  0.965000  0.217600  1.0  -0.15
  C  C237  1  0.596800  0.983400  0.245900  1.0  -0.0745
  C  C238  1  0.646700  0.018300  0.278400  1.0  -0.0948
  C  C239  1  0.718000  0.659300  0.099200  1.0  -0.1023
  C  C240  1  0.718000  0.592500  0.099300  1.0  -0.12
  C  C241  1  0.854100  0.680800  0.431900  1.0  0.6877
  C  C242  1  0.799400  0.715000  0.467600  1.0  -0.1501
  C  C243  1  0.903200  0.733400  0.495900  1.0  -0.0748
  C  C244  1  0.853300  0.768300  0.528400  1.0  -0.0947
  C  C245  1  0.782000  0.409300  0.349200  1.0  -0.1043
  C  C246  1  0.782000  0.342500  0.349300  1.0  -0.1221
  C  C247  1  0.854100  0.180800  0.931900  1.0  0.6877
  C  C248  1  0.799400  0.215000  0.967600  1.0  -0.1501
  C  C249  1  0.903200  0.233400  0.995900  1.0  -0.0748
  C  C250  1  0.853300  0.268300  0.028400  1.0  -0.0947
  C  C251  1  0.782000  0.909300  0.849200  1.0  -0.1043
  C  C252  1  0.782000  0.842500  0.849300  1.0  -0.1221
  C  C253  1  0.354100  0.680800  0.931900  1.0  0.6877
  C  C254  1  0.299400  0.715000  0.967600  1.0  -0.1501
  C  C255  1  0.403200  0.733400  0.995900  1.0  -0.0748
  C  C256  1  0.353300  0.768300  0.028400  1.0  -0.0947
  C  C257  1  0.282000  0.409300  0.849200  1.0  -0.1043
  C  C258  1  0.282000  0.342500  0.849300  1.0  -0.1221
  C  C259  1  0.354100  0.180800  0.431900  1.0  0.6877
  C  C260  1  0.299400  0.215000  0.467600  1.0  -0.1501
  C  C261  1  0.403200  0.233400  0.495900  1.0  -0.0748
  C  C262  1  0.353300  0.268300  0.528400  1.0  -0.0947
  C  C263  1  0.282000  0.909300  0.349200  1.0  -0.1043
  C  C264  1  0.282000  0.842500  0.349300  1.0  -0.1221
  C  C265  1  0.395900  0.569200  0.431900  1.0  0.6879
  C  C266  1  0.450600  0.535000  0.467600  1.0  -0.1495
  C  C267  1  0.346800  0.516600  0.495900  1.0  -0.0744
  C  C268  1  0.396700  0.481700  0.528400  1.0  -0.0942
  C  C269  1  0.468000  0.840700  0.349200  1.0  -0.1047
  C  C270  1  0.468000  0.907500  0.349300  1.0  -0.1205
  C  C271  1  0.395900  0.069200  0.931900  1.0  0.6879
  C  C272  1  0.450600  0.035000  0.967600  1.0  -0.1495
  C  C273  1  0.346800  0.016600  0.995900  1.0  -0.0744
  C  C274  1  0.396700  0.981700  0.028400  1.0  -0.0942
  C  C275  1  0.468000  0.340700  0.849200  1.0  -0.1047
  C  C276  1  0.468000  0.407500  0.849300  1.0  -0.1205
  C  C277  1  0.895900  0.569200  0.931900  1.0  0.6879
  C  C278  1  0.950600  0.535000  0.967600  1.0  -0.1495
  C  C279  1  0.846800  0.516600  0.995900  1.0  -0.0744
  C  C280  1  0.896700  0.481700  0.028400  1.0  -0.0942
  C  C281  1  0.968000  0.840700  0.849200  1.0  -0.1047
  C  C282  1  0.968000  0.907500  0.849300  1.0  -0.1205
  C  C283  1  0.895900  0.069200  0.431900  1.0  0.6879
  C  C284  1  0.950600  0.035000  0.467600  1.0  -0.1495
  C  C285  1  0.846800  0.016600  0.495900  1.0  -0.0744
  C  C286  1  0.896700  0.981700  0.528400  1.0  -0.0942
  C  C287  1  0.968000  0.340700  0.349200  1.0  -0.1047
  C  C288  1  0.968000  0.407500  0.349300  1.0  -0.1205
  C  C289  1  0.395900  0.680800  0.818100  1.0  0.688
  C  C290  1  0.450600  0.715000  0.782400  1.0  -0.1493
  C  C291  1  0.346800  0.733400  0.754100  1.0  -0.0745
  C  C292  1  0.396700  0.768300  0.721600  1.0  -0.0938
  C  C293  1  0.468000  0.409300  0.900800  1.0  -0.1045
  C  C294  1  0.468000  0.342500  0.900700  1.0  -0.1231
  C  C295  1  0.395900  0.180800  0.318100  1.0  0.688
  C  C296  1  0.450600  0.215000  0.282400  1.0  -0.1493
  C  C297  1  0.346800  0.233400  0.254100  1.0  -0.0745
  C  C298  1  0.396700  0.268300  0.221600  1.0  -0.0938
  C  C299  1  0.468000  0.909300  0.400800  1.0  -0.1045
  C  C300  1  0.468000  0.842500  0.400700  1.0  -0.1231
  C  C301  1  0.895900  0.680800  0.318100  1.0  0.688
  C  C302  1  0.950600  0.715000  0.282400  1.0  -0.1493
  C  C303  1  0.846800  0.733400  0.254100  1.0  -0.0745
  C  C304  1  0.896700  0.768300  0.221600  1.0  -0.0938
  C  C305  1  0.968000  0.409300  0.400800  1.0  -0.1045
  C  C306  1  0.968000  0.342500  0.400700  1.0  -0.1231
  C  C307  1  0.895900  0.180800  0.818100  1.0  0.688
  C  C308  1  0.950600  0.215000  0.782400  1.0  -0.1493
  C  C309  1  0.846800  0.233400  0.754100  1.0  -0.0745
  C  C310  1  0.896700  0.268300  0.721600  1.0  -0.0938
  C  C311  1  0.968000  0.909300  0.900800  1.0  -0.1045
  C  C312  1  0.968000  0.842500  0.900700  1.0  -0.1231
  C  C313  1  0.854100  0.569200  0.818100  1.0  0.6888
  C  C314  1  0.799400  0.535000  0.782400  1.0  -0.1504
  C  C315  1  0.903200  0.516600  0.754100  1.0  -0.0748
  C  C316  1  0.853300  0.481700  0.721600  1.0  -0.0937
  C  C317  1  0.782000  0.840700  0.900800  1.0  -0.1079
  C  C318  1  0.782000  0.907500  0.900700  1.0  -0.1231
  C  C319  1  0.854100  0.069200  0.318100  1.0  0.6888
  C  C320  1  0.799400  0.035000  0.282400  1.0  -0.1504
  C  C321  1  0.903200  0.016600  0.254100  1.0  -0.0748
  C  C322  1  0.853300  0.981700  0.221600  1.0  -0.0937
  C  C323  1  0.782000  0.340700  0.400800  1.0  -0.1079
  C  C324  1  0.782000  0.407500  0.400700  1.0  -0.1231
  C  C325  1  0.354100  0.569200  0.318100  1.0  0.6888
  C  C326  1  0.299400  0.535000  0.282400  1.0  -0.1504
  C  C327  1  0.403200  0.516600  0.254100  1.0  -0.0748
  C  C328  1  0.353300  0.481700  0.221600  1.0  -0.0937
  C  C329  1  0.282000  0.840700  0.400800  1.0  -0.1079
  C  C330  1  0.282000  0.907500  0.400700  1.0  -0.1231
  C  C331  1  0.354100  0.069200  0.818100  1.0  0.6888
  C  C332  1  0.299400  0.035000  0.782400  1.0  -0.1504
  C  C333  1  0.403200  0.016600  0.754100  1.0  -0.0748
  C  C334  1  0.353300  0.981700  0.721600  1.0  -0.0937
  C  C335  1  0.282000  0.340700  0.900800  1.0  -0.1079
  C  C336  1  0.282000  0.407500  0.900700  1.0  -0.1231
  C  C337  1  0.125000  0.485900  0.625000  1.0  0.707
  C  C338  1  0.125000  0.558000  0.625000  1.0  0.2057
  C  C339  1  0.125000  0.985900  0.125000  1.0  0.707
  C  C340  1  0.125000  0.058000  0.125000  1.0  0.2057
  C  C341  1  0.625000  0.985900  0.625000  1.0  0.707
  C  C342  1  0.625000  0.058000  0.625000  1.0  0.2057
  C  C343  1  0.625000  0.264100  0.625000  1.0  0.7097
  C  C344  1  0.625000  0.192000  0.625000  1.0  0.2042
  C  C345  1  0.625000  0.764100  0.125000  1.0  0.7097
  C  C346  1  0.625000  0.692000  0.125000  1.0  0.2042
  C  C347  1  0.625000  0.485900  0.125000  1.0  0.707
  C  C348  1  0.625000  0.558000  0.125000  1.0  0.2057
  C  C349  1  0.125000  0.264100  0.125000  1.0  0.7097
  C  C350  1  0.125000  0.192000  0.125000  1.0  0.2042
  C  C351  1  0.125000  0.764100  0.625000  1.0  0.7097
  C  C352  1  0.125000  0.692000  0.625000  1.0  0.2042
  C  C353  1  0.875000  0.514100  0.375000  1.0  0.7097
  C  C354  1  0.875000  0.442000  0.375000  1.0  0.2042
  C  C355  1  0.875000  0.014100  0.875000  1.0  0.7097
  C  C356  1  0.875000  0.942000  0.875000  1.0  0.2042
  C  C357  1  0.375000  0.735900  0.375000  1.0  0.707
  C  C358  1  0.375000  0.808000  0.375000  1.0  0.2057
  C  C359  1  0.375000  0.235900  0.875000  1.0  0.707
  C  C360  1  0.375000  0.308000  0.875000  1.0  0.2057
  C  C361  1  0.375000  0.514100  0.875000  1.0  0.7097
  C  C362  1  0.375000  0.442000  0.875000  1.0  0.2042
  C  C363  1  0.375000  0.014100  0.375000  1.0  0.7097
  C  C364  1  0.375000  0.942000  0.375000  1.0  0.2042
  C  C365  1  0.875000  0.735900  0.875000  1.0  0.707
  C  C366  1  0.875000  0.808000  0.875000  1.0  0.2057
  C  C367  1  0.875000  0.235900  0.375000  1.0  0.707
  C  C368  1  0.875000  0.308000  0.375000  1.0  0.2057
  O  O369  1  0.248000  0.333000  0.593200  1.0  -0.7062
  O  O370  1  0.007200  0.333000  0.570800  1.0  -0.6286
  O  O371  1  0.240200  0.457700  0.636900  1.0  -0.6379
  O  O372  1  0.248000  0.833000  0.093200  1.0  -0.7062
  O  O373  1  0.007200  0.833000  0.070800  1.0  -0.6286
  O  O374  1  0.240200  0.957700  0.136900  1.0  -0.6379
  O  O375  1  0.748000  0.333000  0.093200  1.0  -0.7062
  O  O376  1  0.507200  0.333000  0.070800  1.0  -0.6286
  O  O377  1  0.740200  0.457700  0.136900  1.0  -0.6379
  O  O378  1  0.748000  0.833000  0.593200  1.0  -0.7062
  O  O379  1  0.507200  0.833000  0.570800  1.0  -0.6286
  O  O380  1  0.740200  0.957700  0.636900  1.0  -0.6379
  O  O381  1  0.502000  0.417000  0.593200  1.0  -0.706
  O  O382  1  0.742800  0.417000  0.570800  1.0  -0.6291
  O  O383  1  0.509800  0.292300  0.636900  1.0  -0.6381
  O  O384  1  0.502000  0.917000  0.093200  1.0  -0.706
  O  O385  1  0.742800  0.917000  0.070800  1.0  -0.6291
  O  O386  1  0.509800  0.792300  0.136900  1.0  -0.6381
  O  O387  1  0.002000  0.417000  0.093200  1.0  -0.706
  O  O388  1  0.242800  0.417000  0.070800  1.0  -0.6291
  O  O389  1  0.009800  0.292300  0.136900  1.0  -0.6381
  O  O390  1  0.002000  0.917000  0.593200  1.0  -0.706
  O  O391  1  0.242800  0.917000  0.570800  1.0  -0.6291
  O  O392  1  0.009800  0.792300  0.636900  1.0  -0.6381
  O  O393  1  0.502000  0.333000  0.156800  1.0  -0.7043
  O  O394  1  0.742800  0.333000  0.179200  1.0  -0.6291
  O  O395  1  0.509800  0.457700  0.113100  1.0  -0.6389
  O  O396  1  0.502000  0.833000  0.656800  1.0  -0.7043
  O  O397  1  0.742800  0.833000  0.679200  1.0  -0.6291
  O  O398  1  0.509800  0.957700  0.613100  1.0  -0.6389
  O  O399  1  0.002000  0.333000  0.656800  1.0  -0.7043
  O  O400  1  0.242800  0.333000  0.679200  1.0  -0.6291
  O  O401  1  0.009800  0.457700  0.613100  1.0  -0.6389
  O  O402  1  0.002000  0.833000  0.156800  1.0  -0.7043
  O  O403  1  0.242800  0.833000  0.179200  1.0  -0.6291
  O  O404  1  0.009800  0.957700  0.113100  1.0  -0.6389
  O  O405  1  0.248000  0.417000  0.156800  1.0  -0.7055
  O  O406  1  0.007200  0.417000  0.179200  1.0  -0.6287
  O  O407  1  0.240200  0.292300  0.113100  1.0  -0.6384
  O  O408  1  0.248000  0.917000  0.656800  1.0  -0.7055
  O  O409  1  0.007200  0.917000  0.679200  1.0  -0.6287
  O  O410  1  0.240200  0.792300  0.613100  1.0  -0.6384
  O  O411  1  0.748000  0.417000  0.656800  1.0  -0.7055
  O  O412  1  0.507200  0.417000  0.679200  1.0  -0.6287
  O  O413  1  0.740200  0.292300  0.613100  1.0  -0.6384
  O  O414  1  0.748000  0.917000  0.156800  1.0  -0.7055
  O  O415  1  0.507200  0.917000  0.179200  1.0  -0.6287
  O  O416  1  0.740200  0.792300  0.113100  1.0  -0.6384
  O  O417  1  0.752000  0.667000  0.406800  1.0  -0.705
  O  O418  1  0.992800  0.667000  0.429200  1.0  -0.6292
  O  O419  1  0.759800  0.542300  0.363100  1.0  -0.6374
  O  O420  1  0.752000  0.167000  0.906800  1.0  -0.705
  O  O421  1  0.992800  0.167000  0.929200  1.0  -0.6292
  O  O422  1  0.759800  0.042300  0.863100  1.0  -0.6374
  O  O423  1  0.252000  0.667000  0.906800  1.0  -0.705
  O  O424  1  0.492800  0.667000  0.929200  1.0  -0.6292
  O  O425  1  0.259800  0.542300  0.863100  1.0  -0.6374
  O  O426  1  0.252000  0.167000  0.406800  1.0  -0.705
  O  O427  1  0.492800  0.167000  0.429200  1.0  -0.6292
  O  O428  1  0.259800  0.042300  0.363100  1.0  -0.6374
  O  O429  1  0.498000  0.583000  0.406800  1.0  -0.7053
  O  O430  1  0.257200  0.583000  0.429200  1.0  -0.6284
  O  O431  1  0.490200  0.707700  0.363100  1.0  -0.6381
  O  O432  1  0.498000  0.083000  0.906800  1.0  -0.7053
  O  O433  1  0.257200  0.083000  0.929200  1.0  -0.6284
  O  O434  1  0.490200  0.207700  0.863100  1.0  -0.6381
  O  O435  1  0.998000  0.583000  0.906800  1.0  -0.7053
  O  O436  1  0.757200  0.583000  0.929200  1.0  -0.6284
  O  O437  1  0.990200  0.707700  0.863100  1.0  -0.6381
  O  O438  1  0.998000  0.083000  0.406800  1.0  -0.7053
  O  O439  1  0.757200  0.083000  0.429200  1.0  -0.6284
  O  O440  1  0.990200  0.207700  0.363100  1.0  -0.6381
  O  O441  1  0.498000  0.667000  0.843200  1.0  -0.7066
  O  O442  1  0.257200  0.667000  0.820800  1.0  -0.6287
  O  O443  1  0.490200  0.542300  0.886900  1.0  -0.6389
  O  O444  1  0.498000  0.167000  0.343200  1.0  -0.7066
  O  O445  1  0.257200  0.167000  0.320800  1.0  -0.6287
  O  O446  1  0.490200  0.042300  0.386900  1.0  -0.6389
  O  O447  1  0.998000  0.667000  0.343200  1.0  -0.7066
  O  O448  1  0.757200  0.667000  0.320800  1.0  -0.6287
  O  O449  1  0.990200  0.542300  0.386900  1.0  -0.6389
  O  O450  1  0.998000  0.167000  0.843200  1.0  -0.7066
  O  O451  1  0.757200  0.167000  0.820800  1.0  -0.6287
  O  O452  1  0.990200  0.042300  0.886900  1.0  -0.6389
  O  O453  1  0.752000  0.583000  0.843200  1.0  -0.7054
  O  O454  1  0.992800  0.583000  0.820800  1.0  -0.6291
  O  O455  1  0.759800  0.707700  0.886900  1.0  -0.639
  O  O456  1  0.752000  0.083000  0.343200  1.0  -0.7054
  O  O457  1  0.992800  0.083000  0.320800  1.0  -0.6291
  O  O458  1  0.759800  0.207700  0.386900  1.0  -0.639
  O  O459  1  0.252000  0.583000  0.343200  1.0  -0.7054
  O  O460  1  0.492800  0.583000  0.320800  1.0  -0.6291
  O  O461  1  0.259800  0.707700  0.386900  1.0  -0.639
  O  O462  1  0.252000  0.083000  0.843200  1.0  -0.7054
  O  O463  1  0.492800  0.083000  0.820800  1.0  -0.6291
  O  O464  1  0.259800  0.207700  0.886900  1.0  -0.639
