# generated using pymatgen
data_ScH8(C7O3)2
_symmetry_space_group_name_H-M   'P 1'
_cell_length_a   8.77450000
_cell_length_b   20.66800000
_cell_length_c   34.20300000
_cell_angle_alpha   90.00000000
_cell_angle_beta   90.00000000
_cell_angle_gamma   90.00000000
_symmetry_Int_Tables_number   1
_chemical_formula_structural   ScH8(C7O3)2
_chemical_formula_sum   'Sc16 H128 C224 O96'
_cell_volume   6202.76077130
_cell_formula_units_Z   16
loop_
 _symmetry_equiv_pos_site_id
 _symmetry_equiv_pos_as_xyz
  1  'x, y, z'
loop_
 _atom_site_type_symbol
 _atom_site_label
 _atom_site_symmetry_multiplicity
 _atom_site_fract_x
 _atom_site_fract_y
 _atom_site_fract_z
 _atom_site_occupancy
 _atom_site_charge
  Sc  Sc1  1  0.375000  0.375000  0.635960  1.0  2.0555
  Sc  Sc2  1  0.375000  0.875000  0.135960  1.0  2.0555
  Sc  Sc3  1  0.875000  0.375000  0.135960  1.0  2.0555
  Sc  Sc4  1  0.875000  0.875000  0.635960  1.0  2.0555
  Sc  Sc5  1  0.375000  0.375000  0.114040  1.0  2.0537
  Sc  Sc6  1  0.375000  0.875000  0.614040  1.0  2.0537
  Sc  Sc7  1  0.875000  0.375000  0.614040  1.0  2.0537
  Sc  Sc8  1  0.875000  0.875000  0.114040  1.0  2.0537
  Sc  Sc9  1  0.625000  0.625000  0.364040  1.0  2.0537
  Sc  Sc10  1  0.625000  0.125000  0.864040  1.0  2.0537
  Sc  Sc11  1  0.125000  0.625000  0.864040  1.0  2.0537
  Sc  Sc12  1  0.125000  0.125000  0.364040  1.0  2.0537
  Sc  Sc13  1  0.625000  0.625000  0.885960  1.0  2.0555
  Sc  Sc14  1  0.625000  0.125000  0.385960  1.0  2.0555
  Sc  Sc15  1  0.125000  0.625000  0.385960  1.0  2.0555
  Sc  Sc16  1  0.125000  0.125000  0.885960  1.0  2.0555
  H  H17  1  0.990800  0.273800  0.508100  1.0  0.0888
  H  H18  1  0.074600  0.215500  0.453500  1.0  0.0649
  H  H19  1  0.322400  0.568100  0.655400  1.0  0.0656
  H  H20  1  0.322300  0.681100  0.655400  1.0  0.0712
  H  H21  1  0.990800  0.773800  0.008100  1.0  0.0888
  H  H22  1  0.074600  0.715500  0.953500  1.0  0.0649
  H  H23  1  0.322400  0.068100  0.155400  1.0  0.0656
  H  H24  1  0.322300  0.181100  0.155400  1.0  0.0712
  H  H25  1  0.490800  0.273800  0.008100  1.0  0.0888
  H  H26  1  0.574600  0.215500  0.953500  1.0  0.0649
  H  H27  1  0.822400  0.568100  0.155400  1.0  0.0656
  H  H28  1  0.822300  0.681100  0.155400  1.0  0.0712
  H  H29  1  0.490800  0.773800  0.508100  1.0  0.0888
  H  H30  1  0.574600  0.715500  0.453500  1.0  0.0649
  H  H31  1  0.822400  0.068100  0.655400  1.0  0.0656
  H  H32  1  0.822300  0.181100  0.655400  1.0  0.0712
  H  H33  1  0.759200  0.476200  0.508100  1.0  0.0889
  H  H34  1  0.675400  0.534500  0.453500  1.0  0.0655
  H  H35  1  0.427600  0.181900  0.655400  1.0  0.0659
  H  H36  1  0.427700  0.068900  0.655400  1.0  0.0722
  H  H37  1  0.759200  0.976200  0.008100  1.0  0.0889
  H  H38  1  0.675400  0.034500  0.953500  1.0  0.0655
  H  H39  1  0.427600  0.681900  0.155400  1.0  0.0659
  H  H40  1  0.427700  0.568900  0.155400  1.0  0.0722
  H  H41  1  0.259200  0.476200  0.008100  1.0  0.0889
  H  H42  1  0.175400  0.534500  0.953500  1.0  0.0655
  H  H43  1  0.927600  0.181900  0.155400  1.0  0.0659
  H  H44  1  0.927700  0.068900  0.155400  1.0  0.0722
  H  H45  1  0.259200  0.976200  0.508100  1.0  0.0889
  H  H46  1  0.175400  0.034500  0.453500  1.0  0.0655
  H  H47  1  0.927600  0.681900  0.655400  1.0  0.0659
  H  H48  1  0.927700  0.568900  0.655400  1.0  0.0722
  H  H49  1  0.759200  0.273800  0.241900  1.0  0.089
  H  H50  1  0.675400  0.215500  0.296500  1.0  0.0655
  H  H51  1  0.427600  0.568100  0.094600  1.0  0.0646
  H  H52  1  0.427700  0.681100  0.094600  1.0  0.0715
  H  H53  1  0.759200  0.773800  0.741900  1.0  0.089
  H  H54  1  0.675400  0.715500  0.796500  1.0  0.0655
  H  H55  1  0.427600  0.068100  0.594600  1.0  0.0646
  H  H56  1  0.427700  0.181100  0.594600  1.0  0.0715
  H  H57  1  0.259200  0.273800  0.741900  1.0  0.089
  H  H58  1  0.175400  0.215500  0.796500  1.0  0.0655
  H  H59  1  0.927600  0.568100  0.594600  1.0  0.0646
  H  H60  1  0.927700  0.681100  0.594600  1.0  0.0715
  H  H61  1  0.259200  0.773800  0.241900  1.0  0.089
  H  H62  1  0.175400  0.715500  0.296500  1.0  0.0655
  H  H63  1  0.927600  0.068100  0.094600  1.0  0.0646
  H  H64  1  0.927700  0.181100  0.094600  1.0  0.0715
  H  H65  1  0.990800  0.476200  0.241900  1.0  0.089
  H  H66  1  0.074600  0.534500  0.296500  1.0  0.0651
  H  H67  1  0.322400  0.181900  0.094600  1.0  0.0654
  H  H68  1  0.322300  0.068900  0.094600  1.0  0.0704
  H  H69  1  0.990800  0.976200  0.741900  1.0  0.089
  H  H70  1  0.074600  0.034500  0.796500  1.0  0.0651
  H  H71  1  0.322400  0.681900  0.594600  1.0  0.0654
  H  H72  1  0.322300  0.568900  0.594600  1.0  0.0704
  H  H73  1  0.490800  0.476200  0.741900  1.0  0.089
  H  H74  1  0.574600  0.534500  0.796500  1.0  0.0651
  H  H75  1  0.822400  0.181900  0.594600  1.0  0.0654
  H  H76  1  0.822300  0.068900  0.594600  1.0  0.0704
  H  H77  1  0.490800  0.976200  0.241900  1.0  0.089
  H  H78  1  0.574600  0.034500  0.296500  1.0  0.0651
  H  H79  1  0.822400  0.681900  0.094600  1.0  0.0654
  H  H80  1  0.822300  0.568900  0.094600  1.0  0.0704
  H  H81  1  0.009200  0.726200  0.491900  1.0  0.0891
  H  H82  1  0.925400  0.784500  0.546500  1.0  0.0653
  H  H83  1  0.677600  0.431900  0.344600  1.0  0.0644
  H  H84  1  0.677700  0.318900  0.344600  1.0  0.0714
  H  H85  1  0.009200  0.226200  0.991900  1.0  0.0891
  H  H86  1  0.925400  0.284500  0.046500  1.0  0.0653
  H  H87  1  0.677600  0.931900  0.844600  1.0  0.0644
  H  H88  1  0.677700  0.818900  0.844600  1.0  0.0714
  H  H89  1  0.509200  0.726200  0.991900  1.0  0.0891
  H  H90  1  0.425400  0.784500  0.046500  1.0  0.0653
  H  H91  1  0.177600  0.431900  0.844600  1.0  0.0644
  H  H92  1  0.177700  0.318900  0.844600  1.0  0.0714
  H  H93  1  0.509200  0.226200  0.491900  1.0  0.0891
  H  H94  1  0.425400  0.284500  0.546500  1.0  0.0653
  H  H95  1  0.177600  0.931900  0.344600  1.0  0.0644
  H  H96  1  0.177700  0.818900  0.344600  1.0  0.0714
  H  H97  1  0.240800  0.523800  0.491900  1.0  0.089
  H  H98  1  0.324600  0.465500  0.546500  1.0  0.065
  H  H99  1  0.572400  0.818100  0.344600  1.0  0.0644
  H  H100  1  0.572300  0.931100  0.344600  1.0  0.0708
  H  H101  1  0.240800  0.023800  0.991900  1.0  0.089
  H  H102  1  0.324600  0.965500  0.046500  1.0  0.065
  H  H103  1  0.572400  0.318100  0.844600  1.0  0.0644
  H  H104  1  0.572300  0.431100  0.844600  1.0  0.0708
  H  H105  1  0.740800  0.523800  0.991900  1.0  0.089
  H  H106  1  0.824600  0.465500  0.046500  1.0  0.065
  H  H107  1  0.072400  0.818100  0.844600  1.0  0.0644
  H  H108  1  0.072300  0.931100  0.844600  1.0  0.0708
  H  H109  1  0.740800  0.023800  0.491900  1.0  0.089
  H  H110  1  0.824600  0.965500  0.546500  1.0  0.065
  H  H111  1  0.072400  0.318100  0.344600  1.0  0.0644
  H  H112  1  0.072300  0.431100  0.344600  1.0  0.0708
  H  H113  1  0.240800  0.726200  0.758100  1.0  0.0888
  H  H114  1  0.324600  0.784500  0.703500  1.0  0.0652
  H  H115  1  0.572400  0.431900  0.905400  1.0  0.0658
  H  H116  1  0.572300  0.318900  0.905400  1.0  0.0713
  H  H117  1  0.240800  0.226200  0.258100  1.0  0.0888
  H  H118  1  0.324600  0.284500  0.203500  1.0  0.0652
  H  H119  1  0.572400  0.931900  0.405400  1.0  0.0658
  H  H120  1  0.572300  0.818900  0.405400  1.0  0.0713
  H  H121  1  0.740800  0.726200  0.258100  1.0  0.0888
  H  H122  1  0.824600  0.784500  0.203500  1.0  0.0652
  H  H123  1  0.072400  0.431900  0.405400  1.0  0.0658
  H  H124  1  0.072300  0.318900  0.405400  1.0  0.0713
  H  H125  1  0.740800  0.226200  0.758100  1.0  0.0888
  H  H126  1  0.824600  0.284500  0.703500  1.0  0.0652
  H  H127  1  0.072400  0.931900  0.905400  1.0  0.0658
  H  H128  1  0.072300  0.818900  0.905400  1.0  0.0713
  H  H129  1  0.009200  0.523800  0.758100  1.0  0.0888
  H  H130  1  0.925400  0.465500  0.703500  1.0  0.0655
  H  H131  1  0.677600  0.818100  0.905400  1.0  0.0666
  H  H132  1  0.677700  0.931100  0.905400  1.0  0.0718
  H  H133  1  0.009200  0.023800  0.258100  1.0  0.0888
  H  H134  1  0.925400  0.965500  0.203500  1.0  0.0655
  H  H135  1  0.677600  0.318100  0.405400  1.0  0.0666
  H  H136  1  0.677700  0.431100  0.405400  1.0  0.0718
  H  H137  1  0.509200  0.523800  0.258100  1.0  0.0888
  H  H138  1  0.425400  0.465500  0.203500  1.0  0.0655
  H  H139  1  0.177600  0.818100  0.405400  1.0  0.0666
  H  H140  1  0.177700  0.931100  0.405400  1.0  0.0718
  H  H141  1  0.509200  0.023800  0.758100  1.0  0.0888
  H  H142  1  0.425400  0.965500  0.703500  1.0  0.0655
  H  H143  1  0.177600  0.318100  0.905400  1.0  0.0666
  H  H144  1  0.177700  0.431100  0.905400  1.0  0.0718
  C  C145  1  0.149300  0.320500  0.568200  1.0  0.6999
  C  C146  1  0.201200  0.284400  0.532500  1.0  -0.1529
  C  C147  1  0.096000  0.264100  0.504900  1.0  -0.1005
  C  C148  1  0.146200  0.229600  0.472500  1.0  -0.0421
  C  C149  1  0.245100  0.591000  0.641700  1.0  -0.0538
  C  C150  1  0.245200  0.658400  0.641600  1.0  -0.0658
  C  C151  1  0.149300  0.820500  0.068200  1.0  0.6999
  C  C152  1  0.201200  0.784400  0.032500  1.0  -0.1529
  C  C153  1  0.096000  0.764100  0.004900  1.0  -0.1005
  C  C154  1  0.146200  0.729600  0.972500  1.0  -0.0421
  C  C155  1  0.245100  0.091000  0.141700  1.0  -0.0538
  C  C156  1  0.245200  0.158400  0.141600  1.0  -0.0658
  C  C157  1  0.649300  0.320500  0.068200  1.0  0.6999
  C  C158  1  0.701200  0.284400  0.032500  1.0  -0.1529
  C  C159  1  0.596000  0.264100  0.004900  1.0  -0.1005
  C  C160  1  0.646200  0.229600  0.972500  1.0  -0.0421
  C  C161  1  0.745100  0.591000  0.141700  1.0  -0.0538
  C  C162  1  0.745200  0.658400  0.141600  1.0  -0.0658
  C  C163  1  0.649300  0.820500  0.568200  1.0  0.6999
  C  C164  1  0.701200  0.784400  0.532500  1.0  -0.1529
  C  C165  1  0.596000  0.764100  0.504900  1.0  -0.1005
  C  C166  1  0.646200  0.729600  0.472500  1.0  -0.0421
  C  C167  1  0.745100  0.091000  0.641700  1.0  -0.0538
  C  C168  1  0.745200  0.158400  0.641600  1.0  -0.0658
  C  C169  1  0.600700  0.429500  0.568200  1.0  0.7001
  C  C170  1  0.548800  0.465600  0.532500  1.0  -0.1535
  C  C171  1  0.654000  0.485900  0.504900  1.0  -0.1006
  C  C172  1  0.603800  0.520400  0.472500  1.0  -0.0426
  C  C173  1  0.504900  0.159000  0.641700  1.0  -0.052
  C  C174  1  0.504800  0.091600  0.641600  1.0  -0.0664
  C  C175  1  0.600700  0.929500  0.068200  1.0  0.7001
  C  C176  1  0.548800  0.965600  0.032500  1.0  -0.1535
  C  C177  1  0.654000  0.985900  0.004900  1.0  -0.1006
  C  C178  1  0.603800  0.020400  0.972500  1.0  -0.0426
  C  C179  1  0.504900  0.659000  0.141700  1.0  -0.052
  C  C180  1  0.504800  0.591600  0.141600  1.0  -0.0664
  C  C181  1  0.100700  0.429500  0.068200  1.0  0.7001
  C  C182  1  0.048800  0.465600  0.032500  1.0  -0.1535
  C  C183  1  0.154000  0.485900  0.004900  1.0  -0.1006
  C  C184  1  0.103800  0.520400  0.972500  1.0  -0.0426
  C  C185  1  0.004900  0.159000  0.141700  1.0  -0.052
  C  C186  1  0.004800  0.091600  0.141600  1.0  -0.0664
  C  C187  1  0.100700  0.929500  0.568200  1.0  0.7001
  C  C188  1  0.048800  0.965600  0.532500  1.0  -0.1535
  C  C189  1  0.154000  0.985900  0.504900  1.0  -0.1006
  C  C190  1  0.103800  0.020400  0.472500  1.0  -0.0426
  C  C191  1  0.004900  0.659000  0.641700  1.0  -0.052
  C  C192  1  0.004800  0.591600  0.641600  1.0  -0.0664
  C  C193  1  0.600700  0.320500  0.181800  1.0  0.6982
  C  C194  1  0.548800  0.284400  0.217500  1.0  -0.1538
  C  C195  1  0.654000  0.264100  0.245100  1.0  -0.1003
  C  C196  1  0.603800  0.229600  0.277500  1.0  -0.0423
  C  C197  1  0.504900  0.591000  0.108300  1.0  -0.0511
  C  C198  1  0.504800  0.658400  0.108400  1.0  -0.0625
  C  C199  1  0.600700  0.820500  0.681800  1.0  0.6982
  C  C200  1  0.548800  0.784400  0.717500  1.0  -0.1538
  C  C201  1  0.654000  0.764100  0.745100  1.0  -0.1003
  C  C202  1  0.603800  0.729600  0.777500  1.0  -0.0423
  C  C203  1  0.504900  0.091000  0.608300  1.0  -0.0511
  C  C204  1  0.504800  0.158400  0.608400  1.0  -0.0625
  C  C205  1  0.100700  0.320500  0.681800  1.0  0.6982
  C  C206  1  0.048800  0.284400  0.717500  1.0  -0.1538
  C  C207  1  0.154000  0.264100  0.745100  1.0  -0.1003
  C  C208  1  0.103800  0.229600  0.777500  1.0  -0.0423
  C  C209  1  0.004900  0.591000  0.608300  1.0  -0.0511
  C  C210  1  0.004800  0.658400  0.608400  1.0  -0.0625
  C  C211  1  0.100700  0.820500  0.181800  1.0  0.6982
  C  C212  1  0.048800  0.784400  0.217500  1.0  -0.1538
  C  C213  1  0.154000  0.764100  0.245100  1.0  -0.1003
  C  C214  1  0.103800  0.729600  0.277500  1.0  -0.0423
  C  C215  1  0.004900  0.091000  0.108300  1.0  -0.0511
  C  C216  1  0.004800  0.158400  0.108400  1.0  -0.0625
  C  C217  1  0.149300  0.429500  0.181800  1.0  0.6987
  C  C218  1  0.201200  0.465600  0.217500  1.0  -0.1537
  C  C219  1  0.096000  0.485900  0.245100  1.0  -0.101
  C  C220  1  0.146200  0.520400  0.277500  1.0  -0.0426
  C  C221  1  0.245100  0.159000  0.108300  1.0  -0.0543
  C  C222  1  0.245200  0.091600  0.108400  1.0  -0.0664
  C  C223  1  0.149300  0.929500  0.681800  1.0  0.6987
  C  C224  1  0.201200  0.965600  0.717500  1.0  -0.1537
  C  C225  1  0.096000  0.985900  0.745100  1.0  -0.101
  C  C226  1  0.146200  0.020400  0.777500  1.0  -0.0426
  C  C227  1  0.245100  0.659000  0.608300  1.0  -0.0543
  C  C228  1  0.245200  0.591600  0.608400  1.0  -0.0664
  C  C229  1  0.649300  0.429500  0.681800  1.0  0.6987
  C  C230  1  0.701200  0.465600  0.717500  1.0  -0.1537
  C  C231  1  0.596000  0.485900  0.745100  1.0  -0.101
  C  C232  1  0.646200  0.520400  0.777500  1.0  -0.0426
  C  C233  1  0.745100  0.159000  0.608300  1.0  -0.0543
  C  C234  1  0.745200  0.091600  0.608400  1.0  -0.0664
  C  C235  1  0.649300  0.929500  0.181800  1.0  0.6987
  C  C236  1  0.701200  0.965600  0.217500  1.0  -0.1537
  C  C237  1  0.596000  0.985900  0.245100  1.0  -0.101
  C  C238  1  0.646200  0.020400  0.277500  1.0  -0.0426
  C  C239  1  0.745100  0.659000  0.108300  1.0  -0.0543
  C  C240  1  0.745200  0.591600  0.108400  1.0  -0.0664
  C  C241  1  0.850700  0.679500  0.431800  1.0  0.6978
  C  C242  1  0.798800  0.715600  0.467500  1.0  -0.1531
  C  C243  1  0.904000  0.735900  0.495100  1.0  -0.1014
  C  C244  1  0.853800  0.770400  0.527500  1.0  -0.0422
  C  C245  1  0.754900  0.409000  0.358300  1.0  -0.0508
  C  C246  1  0.754800  0.341600  0.358400  1.0  -0.066
  C  C247  1  0.850700  0.179500  0.931800  1.0  0.6978
  C  C248  1  0.798800  0.215600  0.967500  1.0  -0.1531
  C  C249  1  0.904000  0.235900  0.995100  1.0  -0.1014
  C  C250  1  0.853800  0.270400  0.027500  1.0  -0.0422
  C  C251  1  0.754900  0.909000  0.858300  1.0  -0.0508
  C  C252  1  0.754800  0.841600  0.858400  1.0  -0.066
  C  C253  1  0.350700  0.679500  0.931800  1.0  0.6978
  C  C254  1  0.298800  0.715600  0.967500  1.0  -0.1531
  C  C255  1  0.404000  0.735900  0.995100  1.0  -0.1014
  C  C256  1  0.353800  0.770400  0.027500  1.0  -0.0422
  C  C257  1  0.254900  0.409000  0.858300  1.0  -0.0508
  C  C258  1  0.254800  0.341600  0.858400  1.0  -0.066
  C  C259  1  0.350700  0.179500  0.431800  1.0  0.6978
  C  C260  1  0.298800  0.215600  0.467500  1.0  -0.1531
  C  C261  1  0.404000  0.235900  0.495100  1.0  -0.1014
  C  C262  1  0.353800  0.270400  0.527500  1.0  -0.0422
  C  C263  1  0.254900  0.909000  0.358300  1.0  -0.0508
  C  C264  1  0.254800  0.841600  0.358400  1.0  -0.066
  C  C265  1  0.399300  0.570500  0.431800  1.0  0.6986
  C  C266  1  0.451200  0.534400  0.467500  1.0  -0.1541
  C  C267  1  0.346000  0.514100  0.495100  1.0  -0.1016
  C  C268  1  0.396200  0.479600  0.527500  1.0  -0.0418
  C  C269  1  0.495100  0.841000  0.358300  1.0  -0.0572
  C  C270  1  0.495200  0.908400  0.358400  1.0  -0.065
  C  C271  1  0.399300  0.070500  0.931800  1.0  0.6986
  C  C272  1  0.451200  0.034400  0.967500  1.0  -0.1541
  C  C273  1  0.346000  0.014100  0.995100  1.0  -0.1016
  C  C274  1  0.396200  0.979600  0.027500  1.0  -0.0418
  C  C275  1  0.495100  0.341000  0.858300  1.0  -0.0572
  C  C276  1  0.495200  0.408400  0.858400  1.0  -0.065
  C  C277  1  0.899300  0.570500  0.931800  1.0  0.6986
  C  C278  1  0.951200  0.534400  0.967500  1.0  -0.1541
  C  C279  1  0.846000  0.514100  0.995100  1.0  -0.1016
  C  C280  1  0.896200  0.479600  0.027500  1.0  -0.0418
  C  C281  1  0.995100  0.841000  0.858300  1.0  -0.0572
  C  C282  1  0.995200  0.908400  0.858400  1.0  -0.065
  C  C283  1  0.899300  0.070500  0.431800  1.0  0.6986
  C  C284  1  0.951200  0.034400  0.467500  1.0  -0.1541
  C  C285  1  0.846000  0.014100  0.495100  1.0  -0.1016
  C  C286  1  0.896200  0.979600  0.527500  1.0  -0.0418
  C  C287  1  0.995100  0.341000  0.358300  1.0  -0.0572
  C  C288  1  0.995200  0.408400  0.358400  1.0  -0.065
  C  C289  1  0.399300  0.679500  0.818200  1.0  0.6999
  C  C290  1  0.451200  0.715600  0.782500  1.0  -0.1525
  C  C291  1  0.346000  0.735900  0.754900  1.0  -0.1018
  C  C292  1  0.396200  0.770400  0.722500  1.0  -0.0426
  C  C293  1  0.495100  0.409000  0.891700  1.0  -0.0528
  C  C294  1  0.495200  0.341600  0.891600  1.0  -0.0656
  C  C295  1  0.399300  0.179500  0.318200  1.0  0.6999
  C  C296  1  0.451200  0.215600  0.282500  1.0  -0.1525
  C  C297  1  0.346000  0.235900  0.254900  1.0  -0.1018
  C  C298  1  0.396200  0.270400  0.222500  1.0  -0.0426
  C  C299  1  0.495100  0.909000  0.391700  1.0  -0.0528
  C  C300  1  0.495200  0.841600  0.391600  1.0  -0.0656
  C  C301  1  0.899300  0.679500  0.318200  1.0  0.6999
  C  C302  1  0.951200  0.715600  0.282500  1.0  -0.1525
  C  C303  1  0.846000  0.735900  0.254900  1.0  -0.1018
  C  C304  1  0.896200  0.770400  0.222500  1.0  -0.0426
  C  C305  1  0.995100  0.409000  0.391700  1.0  -0.0528
  C  C306  1  0.995200  0.341600  0.391600  1.0  -0.0656
  C  C307  1  0.899300  0.179500  0.818200  1.0  0.6999
  C  C308  1  0.951200  0.215600  0.782500  1.0  -0.1525
  C  C309  1  0.846000  0.235900  0.754900  1.0  -0.1018
  C  C310  1  0.896200  0.270400  0.722500  1.0  -0.0426
  C  C311  1  0.995100  0.909000  0.891700  1.0  -0.0528
  C  C312  1  0.995200  0.841600  0.891600  1.0  -0.0656
  C  C313  1  0.850700  0.570500  0.818200  1.0  0.6998
  C  C314  1  0.798800  0.534400  0.782500  1.0  -0.1541
  C  C315  1  0.904000  0.514100  0.754900  1.0  -0.1007
  C  C316  1  0.853800  0.479600  0.722500  1.0  -0.0429
  C  C317  1  0.754900  0.841000  0.891700  1.0  -0.0504
  C  C318  1  0.754800  0.908400  0.891600  1.0  -0.0649
  C  C319  1  0.850700  0.070500  0.318200  1.0  0.6998
  C  C320  1  0.798800  0.034400  0.282500  1.0  -0.1541
  C  C321  1  0.904000  0.014100  0.254900  1.0  -0.1007
  C  C322  1  0.853800  0.979600  0.222500  1.0  -0.0429
  C  C323  1  0.754900  0.341000  0.391700  1.0  -0.0504
  C  C324  1  0.754800  0.408400  0.391600  1.0  -0.0649
  C  C325  1  0.350700  0.570500  0.318200  1.0  0.6998
  C  C326  1  0.298800  0.534400  0.282500  1.0  -0.1541
  C  C327  1  0.404000  0.514100  0.254900  1.0  -0.1007
  C  C328  1  0.353800  0.479600  0.222500  1.0  -0.0429
  C  C329  1  0.254900  0.841000  0.391700  1.0  -0.0504
  C  C330  1  0.254800  0.908400  0.391600  1.0  -0.0649
  C  C331  1  0.350700  0.070500  0.818200  1.0  0.6998
  C  C332  1  0.298800  0.034400  0.782500  1.0  -0.1541
  C  C333  1  0.404000  0.014100  0.754900  1.0  -0.1007
  C  C334  1  0.353800  0.979600  0.722500  1.0  -0.0429
  C  C335  1  0.254900  0.341000  0.891700  1.0  -0.0504
  C  C336  1  0.254800  0.408400  0.891600  1.0  -0.0649
  C  C337  1  0.125000  0.485000  0.625000  1.0  0.6418
  C  C338  1  0.125000  0.557500  0.625000  1.0  0.0995
  C  C339  1  0.125000  0.985000  0.125000  1.0  0.6418
  C  C340  1  0.125000  0.057500  0.125000  1.0  0.0995
  C  C341  1  0.625000  0.985000  0.625000  1.0  0.6418
  C  C342  1  0.625000  0.057500  0.625000  1.0  0.0995
  C  C343  1  0.625000  0.265000  0.625000  1.0  0.6424
  C  C344  1  0.625000  0.192500  0.625000  1.0  0.1004
  C  C345  1  0.625000  0.765000  0.125000  1.0  0.6424
  C  C346  1  0.625000  0.692500  0.125000  1.0  0.1004
  C  C347  1  0.625000  0.485000  0.125000  1.0  0.6418
  C  C348  1  0.625000  0.557500  0.125000  1.0  0.0995
  C  C349  1  0.125000  0.265000  0.125000  1.0  0.6424
  C  C350  1  0.125000  0.192500  0.125000  1.0  0.1004
  C  C351  1  0.125000  0.765000  0.625000  1.0  0.6424
  C  C352  1  0.125000  0.692500  0.625000  1.0  0.1004
  C  C353  1  0.875000  0.515000  0.375000  1.0  0.6424
  C  C354  1  0.875000  0.442500  0.375000  1.0  0.1004
  C  C355  1  0.875000  0.015000  0.875000  1.0  0.6424
  C  C356  1  0.875000  0.942500  0.875000  1.0  0.1004
  C  C357  1  0.375000  0.735000  0.375000  1.0  0.6418
  C  C358  1  0.375000  0.807500  0.375000  1.0  0.0995
  C  C359  1  0.375000  0.235000  0.875000  1.0  0.6418
  C  C360  1  0.375000  0.307500  0.875000  1.0  0.0995
  C  C361  1  0.375000  0.515000  0.875000  1.0  0.6424
  C  C362  1  0.375000  0.442500  0.875000  1.0  0.1004
  C  C363  1  0.375000  0.015000  0.375000  1.0  0.6424
  C  C364  1  0.375000  0.942500  0.375000  1.0  0.1004
  C  C365  1  0.875000  0.735000  0.875000  1.0  0.6418
  C  C366  1  0.875000  0.807500  0.875000  1.0  0.0995
  C  C367  1  0.875000  0.235000  0.375000  1.0  0.6418
  C  C368  1  0.875000  0.307500  0.375000  1.0  0.0995
  O  O369  1  0.246400  0.335100  0.592900  1.0  -0.6835
  O  O370  1  0.010500  0.334100  0.570200  1.0  -0.6428
  O  O371  1  0.244400  0.458100  0.636600  1.0  -0.6486
  O  O372  1  0.246400  0.835100  0.092900  1.0  -0.6835
  O  O373  1  0.010500  0.834100  0.070200  1.0  -0.6428
  O  O374  1  0.244400  0.958100  0.136600  1.0  -0.6486
  O  O375  1  0.746400  0.335100  0.092900  1.0  -0.6835
  O  O376  1  0.510500  0.334100  0.070200  1.0  -0.6428
  O  O377  1  0.744400  0.458100  0.136600  1.0  -0.6486
  O  O378  1  0.746400  0.835100  0.592900  1.0  -0.6835
  O  O379  1  0.510500  0.834100  0.570200  1.0  -0.6428
  O  O380  1  0.744400  0.958100  0.636600  1.0  -0.6486
  O  O381  1  0.503600  0.414900  0.592900  1.0  -0.6827
  O  O382  1  0.739500  0.415900  0.570200  1.0  -0.6419
  O  O383  1  0.505600  0.291900  0.636600  1.0  -0.6462
  O  O384  1  0.503600  0.914900  0.092900  1.0  -0.6827
  O  O385  1  0.739500  0.915900  0.070200  1.0  -0.6419
  O  O386  1  0.505600  0.791900  0.136600  1.0  -0.6462
  O  O387  1  0.003600  0.414900  0.092900  1.0  -0.6827
  O  O388  1  0.239500  0.415900  0.070200  1.0  -0.6419
  O  O389  1  0.005600  0.291900  0.136600  1.0  -0.6462
  O  O390  1  0.003600  0.914900  0.592900  1.0  -0.6827
  O  O391  1  0.239500  0.915900  0.570200  1.0  -0.6419
  O  O392  1  0.005600  0.791900  0.636600  1.0  -0.6462
  O  O393  1  0.503600  0.335100  0.157100  1.0  -0.6837
  O  O394  1  0.739500  0.334100  0.179800  1.0  -0.6431
  O  O395  1  0.505600  0.458100  0.113400  1.0  -0.6459
  O  O396  1  0.503600  0.835100  0.657100  1.0  -0.6837
  O  O397  1  0.739500  0.834100  0.679800  1.0  -0.6431
  O  O398  1  0.505600  0.958100  0.613400  1.0  -0.6459
  O  O399  1  0.003600  0.335100  0.657100  1.0  -0.6837
  O  O400  1  0.239500  0.334100  0.679800  1.0  -0.6431
  O  O401  1  0.005600  0.458100  0.613400  1.0  -0.6459
  O  O402  1  0.003600  0.835100  0.157100  1.0  -0.6837
  O  O403  1  0.239500  0.834100  0.179800  1.0  -0.6431
  O  O404  1  0.005600  0.958100  0.113400  1.0  -0.6459
  O  O405  1  0.246400  0.414900  0.157100  1.0  -0.684
  O  O406  1  0.010500  0.415900  0.179800  1.0  -0.6438
  O  O407  1  0.244400  0.291900  0.113400  1.0  -0.6473
  O  O408  1  0.246400  0.914900  0.657100  1.0  -0.684
  O  O409  1  0.010500  0.915900  0.679800  1.0  -0.6438
  O  O410  1  0.244400  0.791900  0.613400  1.0  -0.6473
  O  O411  1  0.746400  0.414900  0.657100  1.0  -0.684
  O  O412  1  0.510500  0.415900  0.679800  1.0  -0.6438
  O  O413  1  0.744400  0.291900  0.613400  1.0  -0.6473
  O  O414  1  0.746400  0.914900  0.157100  1.0  -0.684
  O  O415  1  0.510500  0.915900  0.179800  1.0  -0.6438
  O  O416  1  0.744400  0.791900  0.113400  1.0  -0.6473
  O  O417  1  0.753600  0.664900  0.407100  1.0  -0.6834
  O  O418  1  0.989500  0.665900  0.429800  1.0  -0.6433
  O  O419  1  0.755600  0.541900  0.363400  1.0  -0.6447
  O  O420  1  0.753600  0.164900  0.907100  1.0  -0.6834
  O  O421  1  0.989500  0.165900  0.929800  1.0  -0.6433
  O  O422  1  0.755600  0.041900  0.863400  1.0  -0.6447
  O  O423  1  0.253600  0.664900  0.907100  1.0  -0.6834
  O  O424  1  0.489500  0.665900  0.929800  1.0  -0.6433
  O  O425  1  0.255600  0.541900  0.863400  1.0  -0.6447
  O  O426  1  0.253600  0.164900  0.407100  1.0  -0.6834
  O  O427  1  0.489500  0.165900  0.429800  1.0  -0.6433
  O  O428  1  0.255600  0.041900  0.363400  1.0  -0.6447
  O  O429  1  0.496400  0.585100  0.407100  1.0  -0.6843
  O  O430  1  0.260500  0.584100  0.429800  1.0  -0.6433
  O  O431  1  0.494400  0.708100  0.363400  1.0  -0.6484
  O  O432  1  0.496400  0.085100  0.907100  1.0  -0.6843
  O  O433  1  0.260500  0.084100  0.929800  1.0  -0.6433
  O  O434  1  0.494400  0.208100  0.863400  1.0  -0.6484
  O  O435  1  0.996400  0.585100  0.907100  1.0  -0.6843
  O  O436  1  0.760500  0.584100  0.929800  1.0  -0.6433
  O  O437  1  0.994400  0.708100  0.863400  1.0  -0.6484
  O  O438  1  0.996400  0.085100  0.407100  1.0  -0.6843
  O  O439  1  0.760500  0.084100  0.429800  1.0  -0.6433
  O  O440  1  0.994400  0.208100  0.363400  1.0  -0.6484
  O  O441  1  0.496400  0.664900  0.842900  1.0  -0.6829
  O  O442  1  0.260500  0.665900  0.820200  1.0  -0.6427
  O  O443  1  0.494400  0.541900  0.886600  1.0  -0.6481
  O  O444  1  0.496400  0.164900  0.342900  1.0  -0.6829
  O  O445  1  0.260500  0.165900  0.320200  1.0  -0.6427
  O  O446  1  0.494400  0.041900  0.386600  1.0  -0.6481
  O  O447  1  0.996400  0.664900  0.342900  1.0  -0.6829
  O  O448  1  0.760500  0.665900  0.320200  1.0  -0.6427
  O  O449  1  0.994400  0.541900  0.386600  1.0  -0.6481
  O  O450  1  0.996400  0.164900  0.842900  1.0  -0.6829
  O  O451  1  0.760500  0.165900  0.820200  1.0  -0.6427
  O  O452  1  0.994400  0.041900  0.886600  1.0  -0.6481
  O  O453  1  0.753600  0.585100  0.842900  1.0  -0.6832
  O  O454  1  0.989500  0.584100  0.820200  1.0  -0.6422
  O  O455  1  0.755600  0.708100  0.886600  1.0  -0.6465
  O  O456  1  0.753600  0.085100  0.342900  1.0  -0.6832
  O  O457  1  0.989500  0.084100  0.320200  1.0  -0.6422
  O  O458  1  0.755600  0.208100  0.386600  1.0  -0.6465
  O  O459  1  0.253600  0.585100  0.342900  1.0  -0.6832
  O  O460  1  0.489500  0.584100  0.320200  1.0  -0.6422
  O  O461  1  0.255600  0.708100  0.386600  1.0  -0.6465
  O  O462  1  0.253600  0.085100  0.842900  1.0  -0.6832
  O  O463  1  0.489500  0.084100  0.820200  1.0  -0.6422
  O  O464  1  0.255600  0.208100  0.886600  1.0  -0.6465
