# generated using pymatgen
data_AgH4C6NO2
_symmetry_space_group_name_H-M   'P 1'
_cell_length_a   7.16200000
_cell_length_b   23.76510000
_cell_length_c   30.70490000
_cell_angle_alpha   90.00000000
_cell_angle_beta   90.00000000
_cell_angle_gamma   90.00000000
_symmetry_Int_Tables_number   1
_chemical_formula_structural   AgH4C6NO2
_chemical_formula_sum   'Ag32 H128 C192 N32 O64'
_cell_volume   5226.14734601
_cell_formula_units_Z   32
loop_
 _symmetry_equiv_pos_site_id
 _symmetry_equiv_pos_as_xyz
  1  'x, y, z'
loop_
 _atom_site_type_symbol
 _atom_site_label
 _atom_site_symmetry_multiplicity
 _atom_site_fract_x
 _atom_site_fract_y
 _atom_site_fract_z
 _atom_site_occupancy
 _atom_site_charge
  Ag  Ag1  1  0.195360  0.770040  0.290750  1.0  0.4936
  Ag  Ag2  1  0.531630  0.442910  0.484200  1.0  0.4377
  Ag  Ag3  1  0.695360  0.270040  0.790750  1.0  0.4936
  Ag  Ag4  1  0.031630  0.942910  0.984200  1.0  0.4377
  Ag  Ag5  1  0.304640  0.229960  0.790750  1.0  0.4935
  Ag  Ag6  1  0.968370  0.557090  0.984200  1.0  0.4375
  Ag  Ag7  1  0.804640  0.729960  0.290750  1.0  0.4935
  Ag  Ag8  1  0.468370  0.057090  0.484200  1.0  0.4375
  Ag  Ag9  1  0.804640  0.270040  0.209250  1.0  0.4933
  Ag  Ag10  1  0.468370  0.942910  0.015800  1.0  0.4369
  Ag  Ag11  1  0.304640  0.770040  0.709250  1.0  0.4933
  Ag  Ag12  1  0.968370  0.442910  0.515800  1.0  0.4369
  Ag  Ag13  1  0.695360  0.729960  0.709250  1.0  0.494
  Ag  Ag14  1  0.031630  0.057090  0.515800  1.0  0.4365
  Ag  Ag15  1  0.195360  0.229960  0.209250  1.0  0.494
  Ag  Ag16  1  0.531630  0.557090  0.015800  1.0  0.4365
  Ag  Ag17  1  0.804640  0.229960  0.709250  1.0  0.4937
  Ag  Ag18  1  0.468370  0.557090  0.515800  1.0  0.4365
  Ag  Ag19  1  0.304640  0.729960  0.209250  1.0  0.4937
  Ag  Ag20  1  0.968370  0.057090  0.015800  1.0  0.4365
  Ag  Ag21  1  0.695360  0.770040  0.209250  1.0  0.4937
  Ag  Ag22  1  0.031630  0.442910  0.015800  1.0  0.4368
  Ag  Ag23  1  0.195360  0.270040  0.709250  1.0  0.4937
  Ag  Ag24  1  0.531630  0.942910  0.515800  1.0  0.4368
  Ag  Ag25  1  0.195360  0.729960  0.790750  1.0  0.4938
  Ag  Ag26  1  0.531630  0.057090  0.984200  1.0  0.4374
  Ag  Ag27  1  0.695360  0.229960  0.290750  1.0  0.4938
  Ag  Ag28  1  0.031630  0.557090  0.484200  1.0  0.4374
  Ag  Ag29  1  0.304640  0.270040  0.290750  1.0  0.4932
  Ag  Ag30  1  0.968370  0.942910  0.484200  1.0  0.4378
  Ag  Ag31  1  0.804640  0.770040  0.790750  1.0  0.4932
  Ag  Ag32  1  0.468370  0.442910  0.984200  1.0  0.4378
  H  H33  1  0.951400  0.870200  0.328100  1.0  0.1103
  H  H34  1  0.877000  0.920400  0.390100  1.0  0.0918
  H  H35  1  0.168400  0.816100  0.461000  1.0  0.0949
  H  H36  1  0.245300  0.765200  0.399900  1.0  0.1049
  H  H37  1  0.651500  0.581200  0.257100  1.0  0.1147
  H  H38  1  0.807700  0.508200  0.292600  1.0  0.1084
  H  H39  1  0.780200  0.497500  0.366800  1.0  0.0958
  H  H40  1  0.440600  0.633000  0.373000  1.0  0.1153
  H  H41  1  0.451400  0.370200  0.828100  1.0  0.1103
  H  H42  1  0.377000  0.420400  0.890100  1.0  0.0918
  H  H43  1  0.668400  0.316100  0.961000  1.0  0.0949
  H  H44  1  0.745300  0.265200  0.899900  1.0  0.1049
  H  H45  1  0.151500  0.081200  0.757100  1.0  0.1147
  H  H46  1  0.307700  0.008200  0.792600  1.0  0.1084
  H  H47  1  0.280200  0.997500  0.866800  1.0  0.0958
  H  H48  1  0.940600  0.133000  0.873000  1.0  0.1153
  H  H49  1  0.548600  0.129800  0.828100  1.0  0.1106
  H  H50  1  0.623000  0.079600  0.890100  1.0  0.0912
  H  H51  1  0.331600  0.183900  0.961000  1.0  0.0951
  H  H52  1  0.254700  0.234800  0.899900  1.0  0.105
  H  H53  1  0.848500  0.418800  0.757100  1.0  0.1148
  H  H54  1  0.692300  0.491800  0.792600  1.0  0.1084
  H  H55  1  0.719800  0.502500  0.866800  1.0  0.0959
  H  H56  1  0.059400  0.367000  0.873000  1.0  0.1156
  H  H57  1  0.048600  0.629800  0.328100  1.0  0.1106
  H  H58  1  0.123000  0.579600  0.390100  1.0  0.0912
  H  H59  1  0.831600  0.683900  0.461000  1.0  0.0951
  H  H60  1  0.754700  0.734800  0.399900  1.0  0.105
  H  H61  1  0.348500  0.918800  0.257100  1.0  0.1148
  H  H62  1  0.192300  0.991800  0.292600  1.0  0.1084
  H  H63  1  0.219800  0.002500  0.366800  1.0  0.0959
  H  H64  1  0.559400  0.867000  0.373000  1.0  0.1156
  H  H65  1  0.048600  0.370200  0.171900  1.0  0.1109
  H  H66  1  0.123000  0.420400  0.109900  1.0  0.0912
  H  H67  1  0.831600  0.316100  0.039000  1.0  0.0953
  H  H68  1  0.754700  0.265200  0.100100  1.0  0.1043
  H  H69  1  0.348500  0.081200  0.242900  1.0  0.1149
  H  H70  1  0.192300  0.008200  0.207400  1.0  0.1089
  H  H71  1  0.219800  0.997500  0.133200  1.0  0.0959
  H  H72  1  0.559400  0.133000  0.127000  1.0  0.1155
  H  H73  1  0.548600  0.870200  0.671900  1.0  0.1109
  H  H74  1  0.623000  0.920400  0.609900  1.0  0.0912
  H  H75  1  0.331600  0.816100  0.539000  1.0  0.0953
  H  H76  1  0.254700  0.765200  0.600100  1.0  0.1043
  H  H77  1  0.848500  0.581200  0.742900  1.0  0.1149
  H  H78  1  0.692300  0.508200  0.707400  1.0  0.1089
  H  H79  1  0.719800  0.497500  0.633200  1.0  0.0959
  H  H80  1  0.059400  0.633000  0.627000  1.0  0.1155
  H  H81  1  0.451400  0.629800  0.671900  1.0  0.1104
  H  H82  1  0.377000  0.579600  0.609900  1.0  0.0918
  H  H83  1  0.668400  0.683900  0.539000  1.0  0.0958
  H  H84  1  0.745300  0.734800  0.600100  1.0  0.1047
  H  H85  1  0.151500  0.918800  0.742900  1.0  0.1147
  H  H86  1  0.307700  0.991800  0.707400  1.0  0.1088
  H  H87  1  0.280200  0.002500  0.633200  1.0  0.0963
  H  H88  1  0.940600  0.867000  0.627000  1.0  0.1152
  H  H89  1  0.951400  0.129800  0.171900  1.0  0.1104
  H  H90  1  0.877000  0.079600  0.109900  1.0  0.0918
  H  H91  1  0.168400  0.183900  0.039000  1.0  0.0958
  H  H92  1  0.245300  0.234800  0.100100  1.0  0.1047
  H  H93  1  0.651500  0.418800  0.242900  1.0  0.1147
  H  H94  1  0.807700  0.491800  0.207400  1.0  0.1088
  H  H95  1  0.780200  0.502500  0.133200  1.0  0.0963
  H  H96  1  0.440600  0.367000  0.127000  1.0  0.1152
  H  H97  1  0.048600  0.129800  0.671900  1.0  0.1107
  H  H98  1  0.123000  0.079600  0.609900  1.0  0.0912
  H  H99  1  0.831600  0.183900  0.539000  1.0  0.0957
  H  H100  1  0.754700  0.234800  0.600100  1.0  0.1049
  H  H101  1  0.348500  0.418800  0.742900  1.0  0.1148
  H  H102  1  0.192300  0.491800  0.707400  1.0  0.1086
  H  H103  1  0.219800  0.502500  0.633200  1.0  0.0966
  H  H104  1  0.559400  0.367000  0.627000  1.0  0.1151
  H  H105  1  0.548600  0.629800  0.171900  1.0  0.1107
  H  H106  1  0.623000  0.579600  0.109900  1.0  0.0912
  H  H107  1  0.331600  0.683900  0.039000  1.0  0.0957
  H  H108  1  0.254700  0.734800  0.100100  1.0  0.1049
  H  H109  1  0.848500  0.918800  0.242900  1.0  0.1148
  H  H110  1  0.692300  0.991800  0.207400  1.0  0.1086
  H  H111  1  0.719800  0.002500  0.133200  1.0  0.0966
  H  H112  1  0.059400  0.867000  0.127000  1.0  0.1151
  H  H113  1  0.451400  0.870200  0.171900  1.0  0.1105
  H  H114  1  0.377000  0.920400  0.109900  1.0  0.092
  H  H115  1  0.668400  0.816100  0.039000  1.0  0.0955
  H  H116  1  0.745300  0.765200  0.100100  1.0  0.1048
  H  H117  1  0.151500  0.581200  0.242900  1.0  0.1147
  H  H118  1  0.307700  0.508200  0.207400  1.0  0.1092
  H  H119  1  0.280200  0.497500  0.133200  1.0  0.0957
  H  H120  1  0.940600  0.633000  0.127000  1.0  0.1158
  H  H121  1  0.951400  0.370200  0.671900  1.0  0.1105
  H  H122  1  0.877000  0.420400  0.609900  1.0  0.092
  H  H123  1  0.168400  0.316100  0.539000  1.0  0.0955
  H  H124  1  0.245300  0.265200  0.600100  1.0  0.1048
  H  H125  1  0.651500  0.081200  0.742900  1.0  0.1147
  H  H126  1  0.807700  0.008200  0.707400  1.0  0.1092
  H  H127  1  0.780200  0.997500  0.633200  1.0  0.0957
  H  H128  1  0.440600  0.133000  0.627000  1.0  0.1158
  H  H129  1  0.951400  0.629800  0.828100  1.0  0.1105
  H  H130  1  0.877000  0.579600  0.890100  1.0  0.0916
  H  H131  1  0.168400  0.683900  0.961000  1.0  0.0952
  H  H132  1  0.245300  0.734800  0.899900  1.0  0.1048
  H  H133  1  0.651500  0.918800  0.757100  1.0  0.1145
  H  H134  1  0.807700  0.991800  0.792600  1.0  0.1085
  H  H135  1  0.780200  0.002500  0.866800  1.0  0.0956
  H  H136  1  0.440600  0.867000  0.873000  1.0  0.1155
  H  H137  1  0.451400  0.129800  0.328100  1.0  0.1105
  H  H138  1  0.377000  0.079600  0.390100  1.0  0.0916
  H  H139  1  0.668400  0.183900  0.461000  1.0  0.0952
  H  H140  1  0.745300  0.234800  0.399900  1.0  0.1048
  H  H141  1  0.151500  0.418800  0.257100  1.0  0.1145
  H  H142  1  0.307700  0.491800  0.292600  1.0  0.1085
  H  H143  1  0.280200  0.502500  0.366800  1.0  0.0956
  H  H144  1  0.940600  0.367000  0.373000  1.0  0.1155
  H  H145  1  0.548600  0.370200  0.328100  1.0  0.1105
  H  H146  1  0.623000  0.420400  0.390100  1.0  0.0914
  H  H147  1  0.331600  0.316100  0.461000  1.0  0.0949
  H  H148  1  0.254700  0.265200  0.399900  1.0  0.1046
  H  H149  1  0.848500  0.081200  0.257100  1.0  0.115
  H  H150  1  0.692300  0.008200  0.292600  1.0  0.1081
  H  H151  1  0.719800  0.997500  0.366800  1.0  0.0961
  H  H152  1  0.059400  0.133000  0.373000  1.0  0.1153
  H  H153  1  0.048600  0.870200  0.828100  1.0  0.1105
  H  H154  1  0.123000  0.920400  0.890100  1.0  0.0914
  H  H155  1  0.831600  0.816100  0.961000  1.0  0.0949
  H  H156  1  0.754700  0.765200  0.899900  1.0  0.1046
  H  H157  1  0.348500  0.581200  0.757100  1.0  0.115
  H  H158  1  0.192300  0.508200  0.792600  1.0  0.1081
  H  H159  1  0.219800  0.497500  0.866800  1.0  0.0961
  H  H160  1  0.559400  0.633000  0.873000  1.0  0.1153
  C  C161  1  0.998900  0.858200  0.355400  1.0  0.1068
  C  C162  1  0.955000  0.888300  0.392700  1.0  0.1567
  C  C163  1  0.122800  0.828200  0.433520  1.0  0.1361
  C  C164  1  0.168500  0.797600  0.396990  1.0  0.1262
  C  C165  1  0.434700  0.663700  0.290000  1.0  0.6817
  C  C166  1  0.530700  0.614400  0.311720  1.0  -0.1376
  C  C167  1  0.640200  0.577000  0.287800  1.0  -0.0452
  C  C168  1  0.732400  0.533600  0.308800  1.0  -0.0865
  C  C169  1  0.715200  0.527200  0.352700  1.0  -0.1165
  C  C170  1  0.604900  0.563200  0.377500  1.0  -0.1021
  C  C171  1  0.514200  0.607400  0.356580  1.0  -0.0581
  C  C172  1  0.582300  0.553900  0.425200  1.0  0.6879
  C  C173  1  0.498900  0.358200  0.855400  1.0  0.1068
  C  C174  1  0.455000  0.388300  0.892700  1.0  0.1567
  C  C175  1  0.622800  0.328200  0.933520  1.0  0.1361
  C  C176  1  0.668500  0.297600  0.896990  1.0  0.1262
  C  C177  1  0.934700  0.163700  0.790000  1.0  0.6817
  C  C178  1  0.030700  0.114400  0.811720  1.0  -0.1376
  C  C179  1  0.140200  0.077000  0.787800  1.0  -0.0452
  C  C180  1  0.232400  0.033600  0.808800  1.0  -0.0865
  C  C181  1  0.215200  0.027200  0.852700  1.0  -0.1165
  C  C182  1  0.104900  0.063200  0.877500  1.0  -0.1021
  C  C183  1  0.014200  0.107400  0.856580  1.0  -0.0581
  C  C184  1  0.082300  0.053900  0.925200  1.0  0.6879
  C  C185  1  0.501100  0.141800  0.855400  1.0  0.106
  C  C186  1  0.545000  0.111700  0.892700  1.0  0.1564
  C  C187  1  0.377200  0.171800  0.933520  1.0  0.1346
  C  C188  1  0.331500  0.202400  0.896990  1.0  0.1253
  C  C189  1  0.065300  0.336300  0.790000  1.0  0.6799
  C  C190  1  0.969300  0.385600  0.811720  1.0  -0.1382
  C  C191  1  0.859800  0.423000  0.787800  1.0  -0.0456
  C  C192  1  0.767600  0.466400  0.808800  1.0  -0.0855
  C  C193  1  0.784800  0.472800  0.852700  1.0  -0.116
  C  C194  1  0.895100  0.436800  0.877500  1.0  -0.1014
  C  C195  1  0.985800  0.392600  0.856580  1.0  -0.0571
  C  C196  1  0.917700  0.446100  0.925200  1.0  0.69
  C  C197  1  0.001100  0.641800  0.355400  1.0  0.106
  C  C198  1  0.045000  0.611700  0.392700  1.0  0.1564
  C  C199  1  0.877200  0.671800  0.433520  1.0  0.1346
  C  C200  1  0.831500  0.702400  0.396990  1.0  0.1253
  C  C201  1  0.565300  0.836300  0.290000  1.0  0.6799
  C  C202  1  0.469300  0.885600  0.311720  1.0  -0.1382
  C  C203  1  0.359800  0.923000  0.287800  1.0  -0.0456
  C  C204  1  0.267600  0.966400  0.308800  1.0  -0.0855
  C  C205  1  0.284800  0.972800  0.352700  1.0  -0.116
  C  C206  1  0.395100  0.936800  0.377500  1.0  -0.1014
  C  C207  1  0.485800  0.892600  0.356580  1.0  -0.0571
  C  C208  1  0.417700  0.946100  0.425200  1.0  0.69
  C  C209  1  0.001100  0.358200  0.144600  1.0  0.1077
  C  C210  1  0.045000  0.388300  0.107300  1.0  0.1562
  C  C211  1  0.877200  0.328200  0.066480  1.0  0.1364
  C  C212  1  0.831500  0.297600  0.103010  1.0  0.126
  C  C213  1  0.565300  0.163700  0.210000  1.0  0.6819
  C  C214  1  0.469300  0.114400  0.188280  1.0  -0.1383
  C  C215  1  0.359800  0.077000  0.212200  1.0  -0.0462
  C  C216  1  0.267600  0.033600  0.191200  1.0  -0.085
  C  C217  1  0.284800  0.027200  0.147300  1.0  -0.116
  C  C218  1  0.395100  0.063200  0.122500  1.0  -0.1006
  C  C219  1  0.485800  0.107400  0.143420  1.0  -0.0573
  C  C220  1  0.417700  0.053900  0.074800  1.0  0.6884
  C  C221  1  0.501100  0.858200  0.644600  1.0  0.1077
  C  C222  1  0.545000  0.888300  0.607300  1.0  0.1562
  C  C223  1  0.377200  0.828200  0.566480  1.0  0.1364
  C  C224  1  0.331500  0.797600  0.603010  1.0  0.126
  C  C225  1  0.065300  0.663700  0.710000  1.0  0.6819
  C  C226  1  0.969300  0.614400  0.688280  1.0  -0.1383
  C  C227  1  0.859800  0.577000  0.712200  1.0  -0.0462
  C  C228  1  0.767600  0.533600  0.691200  1.0  -0.085
  C  C229  1  0.784800  0.527200  0.647300  1.0  -0.116
  C  C230  1  0.895100  0.563200  0.622500  1.0  -0.1006
  C  C231  1  0.985800  0.607400  0.643420  1.0  -0.0573
  C  C232  1  0.917700  0.553900  0.574800  1.0  0.6884
  C  C233  1  0.498900  0.641800  0.644600  1.0  0.1066
  C  C234  1  0.455000  0.611700  0.607300  1.0  0.1564
  C  C235  1  0.622800  0.671800  0.566480  1.0  0.1365
  C  C236  1  0.668500  0.702400  0.603010  1.0  0.126
  C  C237  1  0.934700  0.836300  0.710000  1.0  0.6805
  C  C238  1  0.030700  0.885600  0.688280  1.0  -0.1378
  C  C239  1  0.140200  0.923000  0.712200  1.0  -0.0456
  C  C240  1  0.232400  0.966400  0.691200  1.0  -0.0855
  C  C241  1  0.215200  0.972800  0.647300  1.0  -0.1162
  C  C242  1  0.104900  0.936800  0.622500  1.0  -0.1
  C  C243  1  0.014200  0.892600  0.643420  1.0  -0.0562
  C  C244  1  0.082300  0.946100  0.574800  1.0  0.6873
  C  C245  1  0.998900  0.141800  0.144600  1.0  0.1066
  C  C246  1  0.955000  0.111700  0.107300  1.0  0.1564
  C  C247  1  0.122800  0.171800  0.066480  1.0  0.1365
  C  C248  1  0.168500  0.202400  0.103010  1.0  0.126
  C  C249  1  0.434700  0.336300  0.210000  1.0  0.6805
  C  C250  1  0.530700  0.385600  0.188280  1.0  -0.1378
  C  C251  1  0.640200  0.423000  0.212200  1.0  -0.0456
  C  C252  1  0.732400  0.466400  0.191200  1.0  -0.0855
  C  C253  1  0.715200  0.472800  0.147300  1.0  -0.1162
  C  C254  1  0.604900  0.436800  0.122500  1.0  -0.1
  C  C255  1  0.514200  0.392600  0.143420  1.0  -0.0562
  C  C256  1  0.582300  0.446100  0.074800  1.0  0.6873
  C  C257  1  0.001100  0.141800  0.644600  1.0  0.107
  C  C258  1  0.045000  0.111700  0.607300  1.0  0.1559
  C  C259  1  0.877200  0.171800  0.566480  1.0  0.1359
  C  C260  1  0.831500  0.202400  0.603010  1.0  0.1258
  C  C261  1  0.565300  0.336300  0.710000  1.0  0.6804
  C  C262  1  0.469300  0.385600  0.688280  1.0  -0.138
  C  C263  1  0.359800  0.423000  0.712200  1.0  -0.046
  C  C264  1  0.267600  0.466400  0.691200  1.0  -0.085
  C  C265  1  0.284800  0.472800  0.647300  1.0  -0.116
  C  C266  1  0.395100  0.436800  0.622500  1.0  -0.1001
  C  C267  1  0.485800  0.392600  0.643420  1.0  -0.0569
  C  C268  1  0.417700  0.446100  0.574800  1.0  0.6881
  C  C269  1  0.501100  0.641800  0.144600  1.0  0.107
  C  C270  1  0.545000  0.611700  0.107300  1.0  0.1559
  C  C271  1  0.377200  0.671800  0.066480  1.0  0.1359
  C  C272  1  0.331500  0.702400  0.103010  1.0  0.1258
  C  C273  1  0.065300  0.836300  0.210000  1.0  0.6804
  C  C274  1  0.969300  0.885600  0.188280  1.0  -0.138
  C  C275  1  0.859800  0.923000  0.212200  1.0  -0.046
  C  C276  1  0.767600  0.966400  0.191200  1.0  -0.085
  C  C277  1  0.784800  0.972800  0.147300  1.0  -0.116
  C  C278  1  0.895100  0.936800  0.122500  1.0  -0.1001
  C  C279  1  0.985800  0.892600  0.143420  1.0  -0.0569
  C  C280  1  0.917700  0.946100  0.074800  1.0  0.6881
  C  C281  1  0.498900  0.858200  0.144600  1.0  0.1075
  C  C282  1  0.455000  0.888300  0.107300  1.0  0.1571
  C  C283  1  0.622800  0.828200  0.066480  1.0  0.1365
  C  C284  1  0.668500  0.797600  0.103010  1.0  0.1255
  C  C285  1  0.934700  0.663700  0.210000  1.0  0.6817
  C  C286  1  0.030700  0.614400  0.188280  1.0  -0.1382
  C  C287  1  0.140200  0.577000  0.212200  1.0  -0.0458
  C  C288  1  0.232400  0.533600  0.191200  1.0  -0.0858
  C  C289  1  0.215200  0.527200  0.147300  1.0  -0.1164
  C  C290  1  0.104900  0.563200  0.122500  1.0  -0.1005
  C  C291  1  0.014200  0.607400  0.143420  1.0  -0.0577
  C  C292  1  0.082300  0.553900  0.074800  1.0  0.6877
  C  C293  1  0.998900  0.358200  0.644600  1.0  0.1075
  C  C294  1  0.955000  0.388300  0.607300  1.0  0.1571
  C  C295  1  0.122800  0.328200  0.566480  1.0  0.1365
  C  C296  1  0.168500  0.297600  0.603010  1.0  0.1255
  C  C297  1  0.434700  0.163700  0.710000  1.0  0.6817
  C  C298  1  0.530700  0.114400  0.688280  1.0  -0.1382
  C  C299  1  0.640200  0.077000  0.712200  1.0  -0.0458
  C  C300  1  0.732400  0.033600  0.691200  1.0  -0.0858
  C  C301  1  0.715200  0.027200  0.647300  1.0  -0.1164
  C  C302  1  0.604900  0.063200  0.622500  1.0  -0.1005
  C  C303  1  0.514200  0.107400  0.643420  1.0  -0.0577
  C  C304  1  0.582300  0.053900  0.574800  1.0  0.6877
  C  C305  1  0.998900  0.641800  0.855400  1.0  0.1062
  C  C306  1  0.955000  0.611700  0.892700  1.0  0.156
  C  C307  1  0.122800  0.671800  0.933520  1.0  0.1358
  C  C308  1  0.168500  0.702400  0.896990  1.0  0.126
  C  C309  1  0.434700  0.836300  0.790000  1.0  0.68
  C  C310  1  0.530700  0.885600  0.811720  1.0  -0.1382
  C  C311  1  0.640200  0.923000  0.787800  1.0  -0.0454
  C  C312  1  0.732400  0.966400  0.808800  1.0  -0.0862
  C  C313  1  0.715200  0.972800  0.852700  1.0  -0.1162
  C  C314  1  0.604900  0.936800  0.877500  1.0  -0.1011
  C  C315  1  0.514200  0.892600  0.856580  1.0  -0.0566
  C  C316  1  0.582300  0.946100  0.925200  1.0  0.6887
  C  C317  1  0.498900  0.141800  0.355400  1.0  0.1062
  C  C318  1  0.455000  0.111700  0.392700  1.0  0.156
  C  C319  1  0.622800  0.171800  0.433520  1.0  0.1358
  C  C320  1  0.668500  0.202400  0.396990  1.0  0.126
  C  C321  1  0.934700  0.336300  0.290000  1.0  0.68
  C  C322  1  0.030700  0.385600  0.311720  1.0  -0.1382
  C  C323  1  0.140200  0.423000  0.287800  1.0  -0.0454
  C  C324  1  0.232400  0.466400  0.308800  1.0  -0.0862
  C  C325  1  0.215200  0.472800  0.352700  1.0  -0.1162
  C  C326  1  0.104900  0.436800  0.377500  1.0  -0.1011
  C  C327  1  0.014200  0.392600  0.356580  1.0  -0.0566
  C  C328  1  0.082300  0.446100  0.425200  1.0  0.6887
  C  C329  1  0.501100  0.358200  0.355400  1.0  0.1065
  C  C330  1  0.545000  0.388300  0.392700  1.0  0.1571
  C  C331  1  0.377200  0.328200  0.433520  1.0  0.1353
  C  C332  1  0.331500  0.297600  0.396990  1.0  0.1264
  C  C333  1  0.065300  0.163700  0.290000  1.0  0.6819
  C  C334  1  0.969300  0.114400  0.311720  1.0  -0.1376
  C  C335  1  0.859800  0.077000  0.287800  1.0  -0.0455
  C  C336  1  0.767600  0.033600  0.308800  1.0  -0.0855
  C  C337  1  0.784800  0.027200  0.352700  1.0  -0.1161
  C  C338  1  0.895100  0.063200  0.377500  1.0  -0.1024
  C  C339  1  0.985800  0.107400  0.356580  1.0  -0.0573
  C  C340  1  0.917700  0.053900  0.425200  1.0  0.6892
  C  C341  1  0.001100  0.858200  0.855400  1.0  0.1065
  C  C342  1  0.045000  0.888300  0.892700  1.0  0.1571
  C  C343  1  0.877200  0.828200  0.933520  1.0  0.1353
  C  C344  1  0.831500  0.797600  0.896990  1.0  0.1264
  C  C345  1  0.565300  0.663700  0.790000  1.0  0.6819
  C  C346  1  0.469300  0.614400  0.811720  1.0  -0.1376
  C  C347  1  0.359800  0.577000  0.787800  1.0  -0.0455
  C  C348  1  0.267600  0.533600  0.808800  1.0  -0.0855
  C  C349  1  0.284800  0.527200  0.852700  1.0  -0.1161
  C  C350  1  0.395100  0.563200  0.877500  1.0  -0.1024
  C  C351  1  0.485800  0.607400  0.856580  1.0  -0.0573
  C  C352  1  0.417700  0.553900  0.925200  1.0  0.6892
  N  N353  1  0.107500  0.812380  0.357550  1.0  -0.3577
  N  N354  1  0.016800  0.874200  0.431630  1.0  -0.3591
  N  N355  1  0.607500  0.312380  0.857550  1.0  -0.3577
  N  N356  1  0.516800  0.374200  0.931630  1.0  -0.3591
  N  N357  1  0.392500  0.187620  0.857550  1.0  -0.358
  N  N358  1  0.483200  0.125800  0.931630  1.0  -0.3581
  N  N359  1  0.892500  0.687620  0.357550  1.0  -0.358
  N  N360  1  0.983200  0.625800  0.431630  1.0  -0.3581
  N  N361  1  0.892500  0.312380  0.142450  1.0  -0.3568
  N  N362  1  0.983200  0.374200  0.068370  1.0  -0.3576
  N  N363  1  0.392500  0.812380  0.642450  1.0  -0.3568
  N  N364  1  0.483200  0.874200  0.568370  1.0  -0.3576
  N  N365  1  0.607500  0.687620  0.642450  1.0  -0.3573
  N  N366  1  0.516800  0.625800  0.568370  1.0  -0.3588
  N  N367  1  0.107500  0.187620  0.142450  1.0  -0.3573
  N  N368  1  0.016800  0.125800  0.068370  1.0  -0.3588
  N  N369  1  0.892500  0.187620  0.642450  1.0  -0.358
  N  N370  1  0.983200  0.125800  0.568370  1.0  -0.3592
  N  N371  1  0.392500  0.687620  0.142450  1.0  -0.358
  N  N372  1  0.483200  0.625800  0.068370  1.0  -0.3592
  N  N373  1  0.607500  0.812380  0.142450  1.0  -0.3561
  N  N374  1  0.516800  0.874200  0.068370  1.0  -0.3572
  N  N375  1  0.107500  0.312380  0.642450  1.0  -0.3561
  N  N376  1  0.016800  0.374200  0.568370  1.0  -0.3572
  N  N377  1  0.107500  0.687620  0.857550  1.0  -0.3574
  N  N378  1  0.016800  0.625800  0.931630  1.0  -0.3594
  N  N379  1  0.607500  0.187620  0.357550  1.0  -0.3574
  N  N380  1  0.516800  0.125800  0.431630  1.0  -0.3594
  N  N381  1  0.392500  0.312380  0.357550  1.0  -0.3586
  N  N382  1  0.483200  0.374200  0.431630  1.0  -0.3577
  N  N383  1  0.892500  0.812380  0.857550  1.0  -0.3586
  N  N384  1  0.983200  0.874200  0.931630  1.0  -0.3577
  O  O385  1  0.345100  0.695910  0.314100  1.0  -0.5754
  O  O386  1  0.453300  0.667060  0.249150  1.0  -0.5873
  O  O387  1  0.482200  0.587970  0.446750  1.0  -0.5941
  O  O388  1  0.660400  0.511140  0.441560  1.0  -0.6459
  O  O389  1  0.845100  0.195910  0.814100  1.0  -0.5754
  O  O390  1  0.953300  0.167060  0.749150  1.0  -0.5873
  O  O391  1  0.982200  0.087970  0.946750  1.0  -0.5941
  O  O392  1  0.160400  0.011140  0.941560  1.0  -0.6459
  O  O393  1  0.154900  0.304090  0.814100  1.0  -0.5763
  O  O394  1  0.046700  0.332940  0.749150  1.0  -0.5878
  O  O395  1  0.017800  0.412030  0.946750  1.0  -0.5928
  O  O396  1  0.839600  0.488860  0.941560  1.0  -0.6463
  O  O397  1  0.654900  0.804090  0.314100  1.0  -0.5763
  O  O398  1  0.546700  0.832940  0.249150  1.0  -0.5878
  O  O399  1  0.517800  0.912030  0.446750  1.0  -0.5928
  O  O400  1  0.339600  0.988860  0.441560  1.0  -0.6463
  O  O401  1  0.654900  0.195910  0.185900  1.0  -0.5757
  O  O402  1  0.546700  0.167060  0.250850  1.0  -0.5871
  O  O403  1  0.517800  0.087970  0.053250  1.0  -0.5933
  O  O404  1  0.339600  0.011140  0.058440  1.0  -0.6473
  O  O405  1  0.154900  0.695910  0.685900  1.0  -0.5757
  O  O406  1  0.046700  0.667060  0.750850  1.0  -0.5871
  O  O407  1  0.017800  0.587970  0.553250  1.0  -0.5933
  O  O408  1  0.839600  0.511140  0.558440  1.0  -0.6473
  O  O409  1  0.845100  0.804090  0.685900  1.0  -0.576
  O  O410  1  0.953300  0.832940  0.750850  1.0  -0.5877
  O  O411  1  0.982200  0.912030  0.553250  1.0  -0.5923
  O  O412  1  0.160400  0.988860  0.558440  1.0  -0.6462
  O  O413  1  0.345100  0.304090  0.185900  1.0  -0.576
  O  O414  1  0.453300  0.332940  0.250850  1.0  -0.5877
  O  O415  1  0.482200  0.412030  0.053250  1.0  -0.5923
  O  O416  1  0.660400  0.488860  0.058440  1.0  -0.6462
  O  O417  1  0.654900  0.304090  0.685900  1.0  -0.5767
  O  O418  1  0.546700  0.332940  0.750850  1.0  -0.5869
  O  O419  1  0.517800  0.412030  0.553250  1.0  -0.5929
  O  O420  1  0.339600  0.488860  0.558440  1.0  -0.6468
  O  O421  1  0.154900  0.804090  0.185900  1.0  -0.5767
  O  O422  1  0.046700  0.832940  0.250850  1.0  -0.5869
  O  O423  1  0.017800  0.912030  0.053250  1.0  -0.5929
  O  O424  1  0.839600  0.988860  0.058440  1.0  -0.6468
  O  O425  1  0.845100  0.695910  0.185900  1.0  -0.5748
  O  O426  1  0.953300  0.667060  0.250850  1.0  -0.5871
  O  O427  1  0.982200  0.587970  0.053250  1.0  -0.5927
  O  O428  1  0.160400  0.511140  0.058440  1.0  -0.6467
  O  O429  1  0.345100  0.195910  0.685900  1.0  -0.5748
  O  O430  1  0.453300  0.167060  0.750850  1.0  -0.5871
  O  O431  1  0.482200  0.087970  0.553250  1.0  -0.5927
  O  O432  1  0.660400  0.011140  0.558440  1.0  -0.6467
  O  O433  1  0.345100  0.804090  0.814100  1.0  -0.5757
  O  O434  1  0.453300  0.832940  0.749150  1.0  -0.5876
  O  O435  1  0.482200  0.912030  0.946750  1.0  -0.5931
  O  O436  1  0.660400  0.988860  0.941560  1.0  -0.6455
  O  O437  1  0.845100  0.304090  0.314100  1.0  -0.5757
  O  O438  1  0.953300  0.332940  0.249150  1.0  -0.5876
  O  O439  1  0.982200  0.412030  0.446750  1.0  -0.5931
  O  O440  1  0.160400  0.488860  0.441560  1.0  -0.6455
  O  O441  1  0.154900  0.195910  0.314100  1.0  -0.5762
  O  O442  1  0.046700  0.167060  0.249150  1.0  -0.5864
  O  O443  1  0.017800  0.087970  0.446750  1.0  -0.5936
  O  O444  1  0.839600  0.011140  0.441560  1.0  -0.6463
  O  O445  1  0.654900  0.695910  0.814100  1.0  -0.5762
  O  O446  1  0.546700  0.667060  0.749150  1.0  -0.5864
  O  O447  1  0.517800  0.587970  0.946750  1.0  -0.5936
  O  O448  1  0.339600  0.511140  0.941560  1.0  -0.6463
