# generated using pymatgen
data_AgH4C6NO2
_symmetry_space_group_name_H-M   'P 1'
_cell_length_a   7.24990000
_cell_length_b   23.76250000
_cell_length_c   30.73500000
_cell_angle_alpha   90.00000000
_cell_angle_beta   90.00000000
_cell_angle_gamma   90.00000000
_symmetry_Int_Tables_number   1
_chemical_formula_structural   AgH4C6NO2
_chemical_formula_sum   'Ag32 H128 C192 N32 O64'
_cell_volume   5294.89513783
_cell_formula_units_Z   32
loop_
 _symmetry_equiv_pos_site_id
 _symmetry_equiv_pos_as_xyz
  1  'x, y, z'
loop_
 _atom_site_type_symbol
 _atom_site_label
 _atom_site_symmetry_multiplicity
 _atom_site_fract_x
 _atom_site_fract_y
 _atom_site_fract_z
 _atom_site_occupancy
 _atom_site_charge
  Ag  Ag1  1  0.195130  0.770050  0.290630  1.0  0.494
  Ag  Ag2  1  0.525260  0.442310  0.484020  1.0  0.4421
  Ag  Ag3  1  0.695130  0.270050  0.790630  1.0  0.494
  Ag  Ag4  1  0.025260  0.942320  0.984020  1.0  0.4421
  Ag  Ag5  1  0.304870  0.229950  0.790630  1.0  0.4941
  Ag  Ag6  1  0.974740  0.557680  0.984020  1.0  0.4414
  Ag  Ag7  1  0.804870  0.729950  0.290630  1.0  0.4941
  Ag  Ag8  1  0.474740  0.057690  0.484020  1.0  0.4414
  Ag  Ag9  1  0.804870  0.270050  0.209370  1.0  0.4939
  Ag  Ag10  1  0.474740  0.942320  0.015980  1.0  0.4399
  Ag  Ag11  1  0.304870  0.770050  0.709370  1.0  0.4939
  Ag  Ag12  1  0.974740  0.442310  0.515980  1.0  0.4399
  Ag  Ag13  1  0.695130  0.729950  0.709370  1.0  0.4943
  Ag  Ag14  1  0.025260  0.057690  0.515980  1.0  0.441
  Ag  Ag15  1  0.195130  0.229950  0.209370  1.0  0.4943
  Ag  Ag16  1  0.525260  0.557680  0.015980  1.0  0.441
  Ag  Ag17  1  0.804870  0.229950  0.709370  1.0  0.4942
  Ag  Ag18  1  0.474740  0.557680  0.515980  1.0  0.4414
  Ag  Ag19  1  0.304870  0.729950  0.209370  1.0  0.4942
  Ag  Ag20  1  0.974740  0.057690  0.015980  1.0  0.4414
  Ag  Ag21  1  0.695130  0.770050  0.209370  1.0  0.494
  Ag  Ag22  1  0.025260  0.442310  0.015980  1.0  0.4418
  Ag  Ag23  1  0.195130  0.270050  0.709370  1.0  0.494
  Ag  Ag24  1  0.525260  0.942320  0.515980  1.0  0.4418
  Ag  Ag25  1  0.195130  0.729950  0.790630  1.0  0.4942
  Ag  Ag26  1  0.525260  0.057690  0.984020  1.0  0.4431
  Ag  Ag27  1  0.695130  0.229950  0.290630  1.0  0.4942
  Ag  Ag28  1  0.025260  0.557680  0.484020  1.0  0.4431
  Ag  Ag29  1  0.304870  0.270050  0.290630  1.0  0.4939
  Ag  Ag30  1  0.974740  0.942320  0.484020  1.0  0.4426
  Ag  Ag31  1  0.804870  0.770050  0.790630  1.0  0.4939
  Ag  Ag32  1  0.474740  0.442310  0.984020  1.0  0.4426
  H  H33  1  0.954800  0.869700  0.329200  1.0  0.0836
  H  H34  1  0.884300  0.919900  0.390000  1.0  0.0823
  H  H35  1  0.171200  0.816400  0.460000  1.0  0.0823
  H  H36  1  0.245600  0.766300  0.399400  1.0  0.0919
  H  H37  1  0.645300  0.581700  0.258300  1.0  0.101
  H  H38  1  0.796800  0.509000  0.293000  1.0  0.1016
  H  H39  1  0.772300  0.498500  0.367100  1.0  0.0985
  H  H40  1  0.437000  0.632100  0.372800  1.0  0.1041
  H  H41  1  0.454800  0.369700  0.829200  1.0  0.0836
  H  H42  1  0.384300  0.419900  0.890000  1.0  0.0823
  H  H43  1  0.671200  0.316400  0.960000  1.0  0.0823
  H  H44  1  0.745600  0.266300  0.899400  1.0  0.0919
  H  H45  1  0.145300  0.081700  0.758300  1.0  0.101
  H  H46  1  0.296800  0.009000  0.793000  1.0  0.1016
  H  H47  1  0.272300  0.998500  0.867100  1.0  0.0985
  H  H48  1  0.937000  0.132100  0.872800  1.0  0.1041
  H  H49  1  0.545200  0.130300  0.829200  1.0  0.0841
  H  H50  1  0.615700  0.080100  0.890000  1.0  0.0825
  H  H51  1  0.328800  0.183600  0.960000  1.0  0.0825
  H  H52  1  0.254400  0.233700  0.899400  1.0  0.0919
  H  H53  1  0.854700  0.418300  0.758300  1.0  0.1014
  H  H54  1  0.703200  0.491000  0.793000  1.0  0.1017
  H  H55  1  0.727700  0.501500  0.867100  1.0  0.0985
  H  H56  1  0.063000  0.367900  0.872800  1.0  0.1041
  H  H57  1  0.045200  0.630300  0.329200  1.0  0.0841
  H  H58  1  0.115700  0.580100  0.390000  1.0  0.0825
  H  H59  1  0.828800  0.683600  0.460000  1.0  0.0825
  H  H60  1  0.754400  0.733700  0.399400  1.0  0.0919
  H  H61  1  0.354700  0.918300  0.258300  1.0  0.1014
  H  H62  1  0.203200  0.991000  0.293000  1.0  0.1017
  H  H63  1  0.227700  0.001500  0.367100  1.0  0.0985
  H  H64  1  0.563000  0.867900  0.372800  1.0  0.1041
  H  H65  1  0.045200  0.369700  0.170800  1.0  0.0842
  H  H66  1  0.115700  0.419900  0.110000  1.0  0.082
  H  H67  1  0.828800  0.316400  0.040000  1.0  0.0827
  H  H68  1  0.754400  0.266300  0.100600  1.0  0.0915
  H  H69  1  0.354700  0.081700  0.241700  1.0  0.1008
  H  H70  1  0.203200  0.009000  0.207000  1.0  0.1023
  H  H71  1  0.227700  0.998500  0.132900  1.0  0.098
  H  H72  1  0.563000  0.132100  0.127200  1.0  0.1043
  H  H73  1  0.545200  0.869700  0.670800  1.0  0.0842
  H  H74  1  0.615700  0.919900  0.610000  1.0  0.082
  H  H75  1  0.328800  0.816400  0.540000  1.0  0.0827
  H  H76  1  0.254400  0.766300  0.600600  1.0  0.0915
  H  H77  1  0.854700  0.581700  0.741700  1.0  0.1008
  H  H78  1  0.703200  0.509000  0.707000  1.0  0.1023
  H  H79  1  0.727700  0.498500  0.632900  1.0  0.098
  H  H80  1  0.063000  0.632100  0.627200  1.0  0.1043
  H  H81  1  0.454800  0.630300  0.670800  1.0  0.0835
  H  H82  1  0.384300  0.580100  0.610000  1.0  0.0828
  H  H83  1  0.671200  0.683600  0.540000  1.0  0.0833
  H  H84  1  0.745600  0.733700  0.600600  1.0  0.0921
  H  H85  1  0.145300  0.918300  0.741700  1.0  0.1007
  H  H86  1  0.296800  0.991000  0.707000  1.0  0.1024
  H  H87  1  0.272300  0.001500  0.632900  1.0  0.0988
  H  H88  1  0.937000  0.867900  0.627200  1.0  0.1038
  H  H89  1  0.954800  0.130300  0.170800  1.0  0.0835
  H  H90  1  0.884300  0.080100  0.110000  1.0  0.0828
  H  H91  1  0.171200  0.183600  0.040000  1.0  0.0833
  H  H92  1  0.245600  0.233700  0.100600  1.0  0.0921
  H  H93  1  0.645300  0.418300  0.241700  1.0  0.1007
  H  H94  1  0.796800  0.491000  0.207000  1.0  0.1024
  H  H95  1  0.772300  0.501500  0.132900  1.0  0.0988
  H  H96  1  0.437000  0.367900  0.127200  1.0  0.1038
  H  H97  1  0.045200  0.130300  0.670800  1.0  0.0841
  H  H98  1  0.115700  0.080100  0.610000  1.0  0.082
  H  H99  1  0.828800  0.183600  0.540000  1.0  0.0832
  H  H100  1  0.754400  0.233700  0.600600  1.0  0.0923
  H  H101  1  0.354700  0.418300  0.741700  1.0  0.101
  H  H102  1  0.203200  0.491000  0.707000  1.0  0.1021
  H  H103  1  0.227700  0.501500  0.632900  1.0  0.0989
  H  H104  1  0.563000  0.367900  0.627200  1.0  0.1039
  H  H105  1  0.545200  0.630300  0.170800  1.0  0.0841
  H  H106  1  0.615700  0.580100  0.110000  1.0  0.082
  H  H107  1  0.328800  0.683600  0.040000  1.0  0.0832
  H  H108  1  0.254400  0.733700  0.100600  1.0  0.0923
  H  H109  1  0.854700  0.918300  0.241700  1.0  0.101
  H  H110  1  0.703200  0.991000  0.207000  1.0  0.1021
  H  H111  1  0.727700  0.001500  0.132900  1.0  0.0989
  H  H112  1  0.063000  0.867900  0.127200  1.0  0.1039
  H  H113  1  0.454800  0.869700  0.170800  1.0  0.0836
  H  H114  1  0.384300  0.919900  0.110000  1.0  0.0826
  H  H115  1  0.671200  0.816400  0.040000  1.0  0.0828
  H  H116  1  0.745600  0.766300  0.100600  1.0  0.0917
  H  H117  1  0.145300  0.581700  0.241700  1.0  0.1006
  H  H118  1  0.296800  0.509000  0.207000  1.0  0.1026
  H  H119  1  0.272300  0.498500  0.132900  1.0  0.0981
  H  H120  1  0.937000  0.632100  0.127200  1.0  0.1045
  H  H121  1  0.954800  0.369700  0.670800  1.0  0.0836
  H  H122  1  0.884300  0.419900  0.610000  1.0  0.0826
  H  H123  1  0.171200  0.316400  0.540000  1.0  0.0828
  H  H124  1  0.245600  0.266300  0.600600  1.0  0.0917
  H  H125  1  0.645300  0.081700  0.741700  1.0  0.1006
  H  H126  1  0.796800  0.009000  0.707000  1.0  0.1026
  H  H127  1  0.772300  0.998500  0.632900  1.0  0.0981
  H  H128  1  0.437000  0.132100  0.627200  1.0  0.1045
  H  H129  1  0.954800  0.630300  0.829200  1.0  0.0839
  H  H130  1  0.884300  0.580100  0.890000  1.0  0.0827
  H  H131  1  0.171200  0.683600  0.960000  1.0  0.0825
  H  H132  1  0.245600  0.733700  0.899400  1.0  0.0917
  H  H133  1  0.645300  0.918300  0.758300  1.0  0.1009
  H  H134  1  0.796800  0.991000  0.793000  1.0  0.1017
  H  H135  1  0.772300  0.001500  0.867100  1.0  0.0985
  H  H136  1  0.437000  0.867900  0.872800  1.0  0.1041
  H  H137  1  0.454800  0.130300  0.329200  1.0  0.0839
  H  H138  1  0.384300  0.080100  0.390000  1.0  0.0827
  H  H139  1  0.671200  0.183600  0.460000  1.0  0.0825
  H  H140  1  0.745600  0.233700  0.399400  1.0  0.0917
  H  H141  1  0.145300  0.418300  0.258300  1.0  0.1009
  H  H142  1  0.296800  0.491000  0.293000  1.0  0.1017
  H  H143  1  0.272300  0.501500  0.367100  1.0  0.0985
  H  H144  1  0.937000  0.367900  0.372800  1.0  0.1041
  H  H145  1  0.545200  0.369700  0.329200  1.0  0.0842
  H  H146  1  0.615700  0.419900  0.390000  1.0  0.0823
  H  H147  1  0.328800  0.316400  0.460000  1.0  0.0825
  H  H148  1  0.254400  0.266300  0.399400  1.0  0.0916
  H  H149  1  0.854700  0.081700  0.258300  1.0  0.1014
  H  H150  1  0.703200  0.009000  0.293000  1.0  0.1013
  H  H151  1  0.727700  0.998500  0.367100  1.0  0.0985
  H  H152  1  0.063000  0.132100  0.372800  1.0  0.104
  H  H153  1  0.045200  0.869700  0.829200  1.0  0.0842
  H  H154  1  0.115700  0.919900  0.890000  1.0  0.0823
  H  H155  1  0.828800  0.816400  0.960000  1.0  0.0825
  H  H156  1  0.754400  0.766300  0.899400  1.0  0.0916
  H  H157  1  0.354700  0.581700  0.758300  1.0  0.1014
  H  H158  1  0.203200  0.509000  0.793000  1.0  0.1013
  H  H159  1  0.227700  0.498500  0.867100  1.0  0.0985
  H  H160  1  0.563000  0.632100  0.872800  1.0  0.104
  C  C161  1  0.002000  0.858150  0.355830  1.0  0.1141
  C  C162  1  0.959400  0.888340  0.392600  1.0  0.1619
  C  C163  1  0.126400  0.828310  0.433130  1.0  0.1502
  C  C164  1  0.170900  0.797950  0.396700  1.0  0.1314
  C  C165  1  0.432400  0.663410  0.290110  1.0  0.6764
  C  C166  1  0.526500  0.614560  0.311920  1.0  -0.1593
  C  C167  1  0.634100  0.577410  0.288300  1.0  -0.0371
  C  C168  1  0.724700  0.533930  0.309040  1.0  -0.0898
  C  C169  1  0.708600  0.527360  0.353240  1.0  -0.0765
  C  C170  1  0.598700  0.563200  0.377560  1.0  -0.1313
  C  C171  1  0.509100  0.607270  0.356730  1.0  -0.0064
  C  C172  1  0.575000  0.553810  0.425450  1.0  0.6932
  C  C173  1  0.502000  0.358150  0.855830  1.0  0.1141
  C  C174  1  0.459400  0.388340  0.892600  1.0  0.1619
  C  C175  1  0.626400  0.328310  0.933130  1.0  0.1502
  C  C176  1  0.670900  0.297950  0.896700  1.0  0.1314
  C  C177  1  0.932400  0.163410  0.790110  1.0  0.6764
  C  C178  1  0.026500  0.114560  0.811920  1.0  -0.1593
  C  C179  1  0.134100  0.077410  0.788300  1.0  -0.0371
  C  C180  1  0.224700  0.033930  0.809040  1.0  -0.0898
  C  C181  1  0.208600  0.027360  0.853240  1.0  -0.0765
  C  C182  1  0.098700  0.063200  0.877560  1.0  -0.1313
  C  C183  1  0.009100  0.107270  0.856730  1.0  -0.0064
  C  C184  1  0.075000  0.053810  0.925450  1.0  0.6932
  C  C185  1  0.498000  0.141850  0.855830  1.0  0.1135
  C  C186  1  0.540600  0.111660  0.892600  1.0  0.1612
  C  C187  1  0.373600  0.171690  0.933130  1.0  0.149
  C  C188  1  0.329100  0.202050  0.896700  1.0  0.1306
  C  C189  1  0.067600  0.336590  0.790110  1.0  0.676
  C  C190  1  0.973500  0.385440  0.811920  1.0  -0.1611
  C  C191  1  0.865900  0.422590  0.788300  1.0  -0.0373
  C  C192  1  0.775300  0.466070  0.809040  1.0  -0.0899
  C  C193  1  0.791400  0.472640  0.853240  1.0  -0.0754
  C  C194  1  0.901300  0.436800  0.877560  1.0  -0.1313
  C  C195  1  0.990900  0.392730  0.856730  1.0  -0.0058
  C  C196  1  0.925000  0.446190  0.925450  1.0  0.6944
  C  C197  1  0.998000  0.641850  0.355830  1.0  0.1135
  C  C198  1  0.040600  0.611660  0.392600  1.0  0.1612
  C  C199  1  0.873600  0.671690  0.433130  1.0  0.149
  C  C200  1  0.829100  0.702050  0.396700  1.0  0.1306
  C  C201  1  0.567600  0.836590  0.290110  1.0  0.676
  C  C202  1  0.473500  0.885440  0.311920  1.0  -0.1611
  C  C203  1  0.365900  0.922590  0.288300  1.0  -0.0373
  C  C204  1  0.275300  0.966070  0.309040  1.0  -0.0899
  C  C205  1  0.291400  0.972640  0.353240  1.0  -0.0754
  C  C206  1  0.401300  0.936800  0.377560  1.0  -0.1313
  C  C207  1  0.490900  0.892730  0.356730  1.0  -0.0058
  C  C208  1  0.425000  0.946190  0.425450  1.0  0.6944
  C  C209  1  0.998000  0.358150  0.144170  1.0  0.1143
  C  C210  1  0.040600  0.388340  0.107400  1.0  0.1611
  C  C211  1  0.873600  0.328310  0.066870  1.0  0.15
  C  C212  1  0.829100  0.297950  0.103300  1.0  0.1303
  C  C213  1  0.567600  0.163410  0.209890  1.0  0.6769
  C  C214  1  0.473500  0.114560  0.188080  1.0  -0.1609
  C  C215  1  0.365900  0.077410  0.211700  1.0  -0.0378
  C  C216  1  0.275300  0.033930  0.190960  1.0  -0.0898
  C  C217  1  0.291400  0.027360  0.146760  1.0  -0.0762
  C  C218  1  0.401300  0.063200  0.122440  1.0  -0.1305
  C  C219  1  0.490900  0.107270  0.143270  1.0  -0.0059
  C  C220  1  0.425000  0.053810  0.074550  1.0  0.6948
  C  C221  1  0.498000  0.858150  0.644170  1.0  0.1143
  C  C222  1  0.540600  0.888340  0.607400  1.0  0.1611
  C  C223  1  0.373600  0.828310  0.566870  1.0  0.15
  C  C224  1  0.329100  0.797950  0.603300  1.0  0.1303
  C  C225  1  0.067600  0.663410  0.709890  1.0  0.6769
  C  C226  1  0.973500  0.614560  0.688080  1.0  -0.1609
  C  C227  1  0.865900  0.577410  0.711700  1.0  -0.0378
  C  C228  1  0.775300  0.533930  0.690960  1.0  -0.0898
  C  C229  1  0.791400  0.527360  0.646760  1.0  -0.0762
  C  C230  1  0.901300  0.563200  0.622440  1.0  -0.1305
  C  C231  1  0.990900  0.607270  0.643270  1.0  -0.0059
  C  C232  1  0.925000  0.553810  0.574550  1.0  0.6948
  C  C233  1  0.502000  0.641850  0.644170  1.0  0.1137
  C  C234  1  0.459400  0.611660  0.607400  1.0  0.1626
  C  C235  1  0.626400  0.671690  0.566870  1.0  0.15
  C  C236  1  0.670900  0.702050  0.603300  1.0  0.1308
  C  C237  1  0.932400  0.836590  0.709890  1.0  0.6755
  C  C238  1  0.026500  0.885440  0.688080  1.0  -0.1595
  C  C239  1  0.134100  0.922590  0.711700  1.0  -0.0367
  C  C240  1  0.224700  0.966070  0.690960  1.0  -0.0892
  C  C241  1  0.208600  0.972640  0.646760  1.0  -0.0757
  C  C242  1  0.098700  0.936800  0.622440  1.0  -0.13
  C  C243  1  0.009100  0.892730  0.643270  1.0  -0.0054
  C  C244  1  0.075000  0.946190  0.574550  1.0  0.6944
  C  C245  1  0.002000  0.141850  0.144170  1.0  0.1137
  C  C246  1  0.959400  0.111660  0.107400  1.0  0.1626
  C  C247  1  0.126400  0.171690  0.066870  1.0  0.15
  C  C248  1  0.170900  0.202050  0.103300  1.0  0.1308
  C  C249  1  0.432400  0.336590  0.209890  1.0  0.6755
  C  C250  1  0.526500  0.385440  0.188080  1.0  -0.1595
  C  C251  1  0.634100  0.422590  0.211700  1.0  -0.0367
  C  C252  1  0.724700  0.466070  0.190960  1.0  -0.0892
  C  C253  1  0.708600  0.472640  0.146760  1.0  -0.0757
  C  C254  1  0.598700  0.436800  0.122440  1.0  -0.13
  C  C255  1  0.509100  0.392730  0.143270  1.0  -0.0054
  C  C256  1  0.575000  0.446190  0.074550  1.0  0.6944
  C  C257  1  0.998000  0.141850  0.644170  1.0  0.1137
  C  C258  1  0.040600  0.111660  0.607400  1.0  0.1618
  C  C259  1  0.873600  0.171690  0.566870  1.0  0.1499
  C  C260  1  0.829100  0.202050  0.603300  1.0  0.1303
  C  C261  1  0.567600  0.336590  0.709890  1.0  0.6763
  C  C262  1  0.473500  0.385440  0.688080  1.0  -0.1608
  C  C263  1  0.365900  0.422590  0.711700  1.0  -0.0374
  C  C264  1  0.275300  0.466070  0.690960  1.0  -0.0899
  C  C265  1  0.291400  0.472640  0.646760  1.0  -0.0755
  C  C266  1  0.401300  0.436800  0.622440  1.0  -0.1304
  C  C267  1  0.490900  0.392730  0.643270  1.0  -0.006
  C  C268  1  0.425000  0.446190  0.574550  1.0  0.6947
  C  C269  1  0.498000  0.641850  0.144170  1.0  0.1137
  C  C270  1  0.540600  0.611660  0.107400  1.0  0.1618
  C  C271  1  0.373600  0.671690  0.066870  1.0  0.1499
  C  C272  1  0.329100  0.702050  0.103300  1.0  0.1303
  C  C273  1  0.067600  0.836590  0.209890  1.0  0.6763
  C  C274  1  0.973500  0.885440  0.188080  1.0  -0.1608
  C  C275  1  0.865900  0.922590  0.211700  1.0  -0.0374
  C  C276  1  0.775300  0.966070  0.190960  1.0  -0.0899
  C  C277  1  0.791400  0.972640  0.146760  1.0  -0.0755
  C  C278  1  0.901300  0.936800  0.122440  1.0  -0.1304
  C  C279  1  0.990900  0.892730  0.143270  1.0  -0.006
  C  C280  1  0.925000  0.946190  0.074550  1.0  0.6947
  C  C281  1  0.502000  0.858150  0.144170  1.0  0.1145
  C  C282  1  0.459400  0.888340  0.107400  1.0  0.1625
  C  C283  1  0.626400  0.828310  0.066870  1.0  0.1501
  C  C284  1  0.670900  0.797950  0.103300  1.0  0.13
  C  C285  1  0.932400  0.663410  0.209890  1.0  0.6763
  C  C286  1  0.026500  0.614560  0.188080  1.0  -0.1596
  C  C287  1  0.134100  0.577410  0.211700  1.0  -0.0373
  C  C288  1  0.224700  0.533930  0.190960  1.0  -0.0895
  C  C289  1  0.208600  0.527360  0.146760  1.0  -0.0764
  C  C290  1  0.098700  0.563200  0.122440  1.0  -0.1301
  C  C291  1  0.009100  0.607270  0.143270  1.0  -0.0063
  C  C292  1  0.075000  0.553810  0.074550  1.0  0.6945
  C  C293  1  0.002000  0.358150  0.644170  1.0  0.1145
  C  C294  1  0.959400  0.388340  0.607400  1.0  0.1625
  C  C295  1  0.126400  0.328310  0.566870  1.0  0.1501
  C  C296  1  0.170900  0.297950  0.603300  1.0  0.13
  C  C297  1  0.432400  0.163410  0.709890  1.0  0.6763
  C  C298  1  0.526500  0.114560  0.688080  1.0  -0.1596
  C  C299  1  0.634100  0.077410  0.711700  1.0  -0.0373
  C  C300  1  0.724700  0.033930  0.690960  1.0  -0.0895
  C  C301  1  0.708600  0.027360  0.646760  1.0  -0.0764
  C  C302  1  0.598700  0.063200  0.622440  1.0  -0.1301
  C  C303  1  0.509100  0.107270  0.643270  1.0  -0.0063
  C  C304  1  0.575000  0.053810  0.574550  1.0  0.6945
  C  C305  1  0.002000  0.641850  0.855830  1.0  0.114
  C  C306  1  0.959400  0.611660  0.892600  1.0  0.1618
  C  C307  1  0.126400  0.671690  0.933130  1.0  0.1497
  C  C308  1  0.170900  0.702050  0.896700  1.0  0.1315
  C  C309  1  0.432400  0.836590  0.790110  1.0  0.6752
  C  C310  1  0.526500  0.885440  0.811920  1.0  -0.1602
  C  C311  1  0.634100  0.922590  0.788300  1.0  -0.0368
  C  C312  1  0.724700  0.966070  0.809040  1.0  -0.0895
  C  C313  1  0.708600  0.972640  0.853240  1.0  -0.0754
  C  C314  1  0.598700  0.936800  0.877560  1.0  -0.1305
  C  C315  1  0.509100  0.892730  0.856730  1.0  -0.0054
  C  C316  1  0.575000  0.946190  0.925450  1.0  0.6938
  C  C317  1  0.502000  0.141850  0.355830  1.0  0.114
  C  C318  1  0.459400  0.111660  0.392600  1.0  0.1618
  C  C319  1  0.626400  0.171690  0.433130  1.0  0.1497
  C  C320  1  0.670900  0.202050  0.396700  1.0  0.1315
  C  C321  1  0.932400  0.336590  0.290110  1.0  0.6752
  C  C322  1  0.026500  0.385440  0.311920  1.0  -0.1602
  C  C323  1  0.134100  0.422590  0.288300  1.0  -0.0368
  C  C324  1  0.224700  0.466070  0.309040  1.0  -0.0895
  C  C325  1  0.208600  0.472640  0.353240  1.0  -0.0754
  C  C326  1  0.098700  0.436800  0.377560  1.0  -0.1305
  C  C327  1  0.009100  0.392730  0.356730  1.0  -0.0054
  C  C328  1  0.075000  0.446190  0.425450  1.0  0.6938
  C  C329  1  0.498000  0.358150  0.355830  1.0  0.1135
  C  C330  1  0.540600  0.388340  0.392600  1.0  0.1612
  C  C331  1  0.373600  0.328310  0.433130  1.0  0.1496
  C  C332  1  0.329100  0.297950  0.396700  1.0  0.1314
  C  C333  1  0.067600  0.163410  0.290110  1.0  0.677
  C  C334  1  0.973500  0.114560  0.311920  1.0  -0.1604
  C  C335  1  0.865900  0.077410  0.288300  1.0  -0.0376
  C  C336  1  0.775300  0.033930  0.309040  1.0  -0.0898
  C  C337  1  0.791400  0.027360  0.353240  1.0  -0.0762
  C  C338  1  0.901300  0.063200  0.377560  1.0  -0.1319
  C  C339  1  0.990900  0.107270  0.356730  1.0  -0.0057
  C  C340  1  0.925000  0.053810  0.425450  1.0  0.6939
  C  C341  1  0.998000  0.858150  0.855830  1.0  0.1135
  C  C342  1  0.040600  0.888340  0.892600  1.0  0.1612
  C  C343  1  0.873600  0.828310  0.933130  1.0  0.1496
  C  C344  1  0.829100  0.797950  0.896700  1.0  0.1314
  C  C345  1  0.567600  0.663410  0.790110  1.0  0.677
  C  C346  1  0.473500  0.614560  0.811920  1.0  -0.1604
  C  C347  1  0.365900  0.577410  0.788300  1.0  -0.0376
  C  C348  1  0.275300  0.533930  0.809040  1.0  -0.0898
  C  C349  1  0.291400  0.527360  0.853240  1.0  -0.0762
  C  C350  1  0.401300  0.563200  0.877560  1.0  -0.132
  C  C351  1  0.490900  0.607270  0.856730  1.0  -0.0057
  C  C352  1  0.425000  0.553810  0.925450  1.0  0.6939
  N  N353  1  0.109500  0.812740  0.357510  1.0  -0.361
  N  N354  1  0.021600  0.874110  0.431500  1.0  -0.3372
  N  N355  1  0.609500  0.312740  0.857510  1.0  -0.361
  N  N356  1  0.521600  0.374110  0.931500  1.0  -0.3376
  N  N357  1  0.390500  0.187260  0.857510  1.0  -0.3603
  N  N358  1  0.478400  0.125890  0.931500  1.0  -0.3352
  N  N359  1  0.890500  0.687260  0.357510  1.0  -0.3603
  N  N360  1  0.978400  0.625890  0.431500  1.0  -0.3348
  N  N361  1  0.890500  0.312740  0.142490  1.0  -0.3616
  N  N362  1  0.978400  0.374110  0.068500  1.0  -0.335
  N  N363  1  0.390500  0.812740  0.642490  1.0  -0.3616
  N  N364  1  0.478400  0.874110  0.568500  1.0  -0.3346
  N  N365  1  0.609500  0.687260  0.642490  1.0  -0.3619
  N  N366  1  0.521600  0.625890  0.568500  1.0  -0.3377
  N  N367  1  0.109500  0.187260  0.142490  1.0  -0.3619
  N  N368  1  0.021600  0.125890  0.068500  1.0  -0.3381
  N  N369  1  0.890500  0.187260  0.642490  1.0  -0.3627
  N  N370  1  0.978400  0.125890  0.568500  1.0  -0.3378
  N  N371  1  0.390500  0.687260  0.142490  1.0  -0.3627
  N  N372  1  0.478400  0.625890  0.068500  1.0  -0.3374
  N  N373  1  0.609500  0.812740  0.142490  1.0  -0.361
  N  N374  1  0.521600  0.874110  0.068500  1.0  -0.3355
  N  N375  1  0.109500  0.312740  0.642490  1.0  -0.361
  N  N376  1  0.021600  0.374110  0.568500  1.0  -0.3359
  N  N377  1  0.109500  0.687260  0.857510  1.0  -0.3602
  N  N378  1  0.021600  0.625890  0.931500  1.0  -0.3369
  N  N379  1  0.609500  0.187260  0.357510  1.0  -0.3602
  N  N380  1  0.521600  0.125890  0.431500  1.0  -0.3373
  N  N381  1  0.390500  0.312740  0.357510  1.0  -0.3613
  N  N382  1  0.478400  0.374110  0.431500  1.0  -0.3352
  N  N383  1  0.890500  0.812740  0.857510  1.0  -0.3613
  N  N384  1  0.978400  0.874110  0.931500  1.0  -0.3348
  O  O385  1  0.342400  0.695810  0.313890  1.0  -0.5799
  O  O386  1  0.451700  0.667700  0.249740  1.0  -0.5893
  O  O387  1  0.476100  0.588000  0.446470  1.0  -0.6039
  O  O388  1  0.654700  0.512040  0.441850  1.0  -0.6398
  O  O389  1  0.842400  0.195810  0.813890  1.0  -0.5799
  O  O390  1  0.951700  0.167700  0.749740  1.0  -0.5893
  O  O391  1  0.976100  0.088000  0.946470  1.0  -0.6039
  O  O392  1  0.154700  0.012040  0.941850  1.0  -0.6398
  O  O393  1  0.157600  0.304190  0.813890  1.0  -0.5804
  O  O394  1  0.048300  0.332300  0.749740  1.0  -0.5889
  O  O395  1  0.023900  0.412000  0.946470  1.0  -0.602
  O  O396  1  0.845300  0.487960  0.941850  1.0  -0.6392
  O  O397  1  0.657600  0.804190  0.313890  1.0  -0.5804
  O  O398  1  0.548300  0.832300  0.249740  1.0  -0.5889
  O  O399  1  0.523900  0.912000  0.446470  1.0  -0.6021
  O  O400  1  0.345300  0.987960  0.441850  1.0  -0.6392
  O  O401  1  0.657600  0.195810  0.186110  1.0  -0.5806
  O  O402  1  0.548300  0.167700  0.250260  1.0  -0.5895
  O  O403  1  0.523900  0.088000  0.053530  1.0  -0.6016
  O  O404  1  0.345300  0.012040  0.058150  1.0  -0.6408
  O  O405  1  0.157600  0.695810  0.686110  1.0  -0.5806
  O  O406  1  0.048300  0.667700  0.750260  1.0  -0.5895
  O  O407  1  0.023900  0.588000  0.553530  1.0  -0.6023
  O  O408  1  0.845300  0.512040  0.558150  1.0  -0.6408
  O  O409  1  0.842400  0.804190  0.686110  1.0  -0.58
  O  O410  1  0.951700  0.832300  0.750260  1.0  -0.5898
  O  O411  1  0.976100  0.912000  0.553530  1.0  -0.6023
  O  O412  1  0.154700  0.987960  0.558150  1.0  -0.639
  O  O413  1  0.342400  0.304190  0.186110  1.0  -0.58
  O  O414  1  0.451700  0.332300  0.250260  1.0  -0.5898
  O  O415  1  0.476100  0.412000  0.053530  1.0  -0.602
  O  O416  1  0.654700  0.487960  0.058150  1.0  -0.639
  O  O417  1  0.657600  0.304190  0.686110  1.0  -0.5809
  O  O418  1  0.548300  0.332300  0.750260  1.0  -0.5892
  O  O419  1  0.523900  0.412000  0.553530  1.0  -0.6014
  O  O420  1  0.345300  0.487960  0.558150  1.0  -0.6391
  O  O421  1  0.157600  0.804190  0.186110  1.0  -0.5809
  O  O422  1  0.048300  0.832300  0.250260  1.0  -0.5892
  O  O423  1  0.023900  0.912000  0.053530  1.0  -0.6018
  O  O424  1  0.845300  0.987960  0.058150  1.0  -0.6391
  O  O425  1  0.842400  0.695810  0.186110  1.0  -0.5795
  O  O426  1  0.951700  0.667700  0.250260  1.0  -0.5899
  O  O427  1  0.976100  0.588000  0.053530  1.0  -0.6024
  O  O428  1  0.154700  0.512040  0.058150  1.0  -0.6405
  O  O429  1  0.342400  0.195810  0.686110  1.0  -0.5795
  O  O430  1  0.451700  0.167700  0.750260  1.0  -0.5899
  O  O431  1  0.476100  0.088000  0.553530  1.0  -0.602
  O  O432  1  0.654700  0.012040  0.558150  1.0  -0.6405
  O  O433  1  0.342400  0.804190  0.813890  1.0  -0.5797
  O  O434  1  0.451700  0.832300  0.749740  1.0  -0.5893
  O  O435  1  0.476100  0.912000  0.946470  1.0  -0.6033
  O  O436  1  0.654700  0.987960  0.941850  1.0  -0.639
  O  O437  1  0.842400  0.304190  0.313890  1.0  -0.5797
  O  O438  1  0.951700  0.332300  0.249740  1.0  -0.5893
  O  O439  1  0.976100  0.412000  0.446470  1.0  -0.6032
  O  O440  1  0.154700  0.487960  0.441850  1.0  -0.639
  O  O441  1  0.157600  0.195810  0.313890  1.0  -0.5807
  O  O442  1  0.048300  0.167700  0.249740  1.0  -0.5886
  O  O443  1  0.023900  0.088000  0.446470  1.0  -0.6022
  O  O444  1  0.845300  0.012040  0.441850  1.0  -0.6399
  O  O445  1  0.657600  0.695810  0.813890  1.0  -0.5807
  O  O446  1  0.548300  0.667700  0.749740  1.0  -0.5886
  O  O447  1  0.523900  0.588000  0.946470  1.0  -0.6023
  O  O448  1  0.345300  0.512040  0.941850  1.0  -0.6399
