# generated using pymatgen
data_AgH4C6NO2
_symmetry_space_group_name_H-M   'P 1'
_cell_length_a   7.23500000
_cell_length_b   23.71100000
_cell_length_c   30.53000000
_cell_angle_alpha   90.00000000
_cell_angle_beta   90.00000000
_cell_angle_gamma   90.00000000
_symmetry_Int_Tables_number   1
_chemical_formula_structural   AgH4C6NO2
_chemical_formula_sum   'Ag32 H128 C192 N32 O64'
_cell_volume   5237.39356505
_cell_formula_units_Z   32
loop_
 _symmetry_equiv_pos_site_id
 _symmetry_equiv_pos_as_xyz
  1  'x, y, z'
loop_
 _atom_site_type_symbol
 _atom_site_label
 _atom_site_symmetry_multiplicity
 _atom_site_fract_x
 _atom_site_fract_y
 _atom_site_fract_z
 _atom_site_occupancy
 _atom_site_charge
  Ag  Ag1  1  0.195170  0.770060  0.290600  1.0  0.4966
  Ag  Ag2  1  0.523600  0.442160  0.483930  1.0  0.4501
  Ag  Ag3  1  0.695170  0.270060  0.790600  1.0  0.4966
  Ag  Ag4  1  0.023600  0.942160  0.983930  1.0  0.4501
  Ag  Ag5  1  0.304830  0.229940  0.790600  1.0  0.4965
  Ag  Ag6  1  0.976400  0.557840  0.983930  1.0  0.4492
  Ag  Ag7  1  0.804830  0.729940  0.290600  1.0  0.4965
  Ag  Ag8  1  0.476400  0.057840  0.483930  1.0  0.4492
  Ag  Ag9  1  0.804830  0.270060  0.209400  1.0  0.4967
  Ag  Ag10  1  0.476400  0.942160  0.016070  1.0  0.4476
  Ag  Ag11  1  0.304830  0.770060  0.709400  1.0  0.4967
  Ag  Ag12  1  0.976400  0.442160  0.516070  1.0  0.4476
  Ag  Ag13  1  0.695170  0.729940  0.709400  1.0  0.4967
  Ag  Ag14  1  0.023600  0.057840  0.516070  1.0  0.4488
  Ag  Ag15  1  0.195170  0.229940  0.209400  1.0  0.4967
  Ag  Ag16  1  0.523600  0.557840  0.016070  1.0  0.4488
  Ag  Ag17  1  0.804830  0.229940  0.709400  1.0  0.4966
  Ag  Ag18  1  0.476400  0.557840  0.516070  1.0  0.4479
  Ag  Ag19  1  0.304830  0.729940  0.209400  1.0  0.4966
  Ag  Ag20  1  0.976400  0.057840  0.016070  1.0  0.4479
  Ag  Ag21  1  0.695170  0.770060  0.209400  1.0  0.4967
  Ag  Ag22  1  0.023600  0.442160  0.016070  1.0  0.4485
  Ag  Ag23  1  0.195170  0.270060  0.709400  1.0  0.4967
  Ag  Ag24  1  0.523600  0.942160  0.516070  1.0  0.4485
  Ag  Ag25  1  0.195170  0.729940  0.790600  1.0  0.4966
  Ag  Ag26  1  0.523600  0.057840  0.983930  1.0  0.4497
  Ag  Ag27  1  0.695170  0.229940  0.290600  1.0  0.4966
  Ag  Ag28  1  0.023600  0.557840  0.483930  1.0  0.4497
  Ag  Ag29  1  0.304830  0.270060  0.290600  1.0  0.4966
  Ag  Ag30  1  0.976400  0.942160  0.483930  1.0  0.4493
  Ag  Ag31  1  0.804830  0.770060  0.790600  1.0  0.4966
  Ag  Ag32  1  0.476400  0.442160  0.983930  1.0  0.4493
  H  H33  1  0.956200  0.870000  0.328600  1.0  0.0985
  H  H34  1  0.884000  0.920000  0.389900  1.0  0.0884
  H  H35  1  0.174400  0.816600  0.460200  1.0  0.0827
  H  H36  1  0.246400  0.765900  0.399500  1.0  0.1007
  H  H37  1  0.643100  0.582200  0.258000  1.0  0.1018
  H  H38  1  0.796400  0.509200  0.292900  1.0  0.1026
  H  H39  1  0.769100  0.497900  0.367100  1.0  0.0964
  H  H40  1  0.433500  0.632200  0.372900  1.0  0.1017
  H  H41  1  0.456200  0.370000  0.828600  1.0  0.0985
  H  H42  1  0.384000  0.420000  0.889900  1.0  0.0884
  H  H43  1  0.674400  0.316600  0.960200  1.0  0.0827
  H  H44  1  0.746400  0.265900  0.899500  1.0  0.1007
  H  H45  1  0.143100  0.082200  0.758000  1.0  0.1018
  H  H46  1  0.296400  0.009200  0.792900  1.0  0.1026
  H  H47  1  0.269100  0.997900  0.867100  1.0  0.0964
  H  H48  1  0.933500  0.132200  0.872900  1.0  0.1017
  H  H49  1  0.543800  0.130000  0.828600  1.0  0.0988
  H  H50  1  0.616000  0.080000  0.889900  1.0  0.0874
  H  H51  1  0.325600  0.183400  0.960200  1.0  0.0829
  H  H52  1  0.253600  0.234100  0.899500  1.0  0.1009
  H  H53  1  0.856900  0.417800  0.758000  1.0  0.102
  H  H54  1  0.703600  0.490800  0.792900  1.0  0.1029
  H  H55  1  0.730900  0.502100  0.867100  1.0  0.0964
  H  H56  1  0.066500  0.367800  0.872900  1.0  0.1023
  H  H57  1  0.043800  0.630000  0.328600  1.0  0.0988
  H  H58  1  0.116000  0.580000  0.389900  1.0  0.0874
  H  H59  1  0.825600  0.683400  0.460200  1.0  0.0829
  H  H60  1  0.753600  0.734100  0.399500  1.0  0.1009
  H  H61  1  0.356900  0.917800  0.258000  1.0  0.102
  H  H62  1  0.203600  0.990800  0.292900  1.0  0.1029
  H  H63  1  0.230900  0.002100  0.367100  1.0  0.0964
  H  H64  1  0.566500  0.867800  0.372900  1.0  0.1023
  H  H65  1  0.043800  0.370000  0.171400  1.0  0.0987
  H  H66  1  0.116000  0.420000  0.110100  1.0  0.0876
  H  H67  1  0.825600  0.316600  0.039800  1.0  0.0827
  H  H68  1  0.753600  0.265900  0.100500  1.0  0.1002
  H  H69  1  0.356900  0.082200  0.242000  1.0  0.1019
  H  H70  1  0.203600  0.009200  0.207100  1.0  0.1031
  H  H71  1  0.230900  0.997900  0.132900  1.0  0.0963
  H  H72  1  0.566500  0.132200  0.127100  1.0  0.102
  H  H73  1  0.543800  0.870000  0.671400  1.0  0.0987
  H  H74  1  0.616000  0.920000  0.610100  1.0  0.0876
  H  H75  1  0.325600  0.816600  0.539800  1.0  0.0827
  H  H76  1  0.253600  0.765900  0.600500  1.0  0.1002
  H  H77  1  0.856900  0.582200  0.742000  1.0  0.1019
  H  H78  1  0.703600  0.509200  0.707100  1.0  0.1031
  H  H79  1  0.730900  0.497900  0.632900  1.0  0.0963
  H  H80  1  0.066500  0.632200  0.627100  1.0  0.102
  H  H81  1  0.456200  0.630000  0.671400  1.0  0.0983
  H  H82  1  0.384000  0.580000  0.610100  1.0  0.088
  H  H83  1  0.674400  0.683400  0.539800  1.0  0.0831
  H  H84  1  0.746400  0.734100  0.600500  1.0  0.1008
  H  H85  1  0.143100  0.917800  0.742000  1.0  0.1019
  H  H86  1  0.296400  0.990800  0.707100  1.0  0.1036
  H  H87  1  0.269100  0.002100  0.632900  1.0  0.0969
  H  H88  1  0.933500  0.867800  0.627100  1.0  0.1015
  H  H89  1  0.956200  0.130000  0.171400  1.0  0.0983
  H  H90  1  0.884000  0.080000  0.110100  1.0  0.088
  H  H91  1  0.174400  0.183400  0.039800  1.0  0.0831
  H  H92  1  0.246400  0.234100  0.100500  1.0  0.1008
  H  H93  1  0.643100  0.417800  0.242000  1.0  0.1019
  H  H94  1  0.796400  0.490800  0.207100  1.0  0.1036
  H  H95  1  0.769100  0.502100  0.132900  1.0  0.0969
  H  H96  1  0.433500  0.367800  0.127100  1.0  0.1015
  H  H97  1  0.043800  0.130000  0.671400  1.0  0.0985
  H  H98  1  0.116000  0.080000  0.610100  1.0  0.0871
  H  H99  1  0.825600  0.183400  0.539800  1.0  0.0832
  H  H100  1  0.753600  0.234100  0.600500  1.0  0.1009
  H  H101  1  0.356900  0.417800  0.742000  1.0  0.1021
  H  H102  1  0.203600  0.490800  0.707100  1.0  0.1033
  H  H103  1  0.230900  0.502100  0.632900  1.0  0.0971
  H  H104  1  0.566500  0.367800  0.627100  1.0  0.1017
  H  H105  1  0.543800  0.630000  0.171400  1.0  0.0985
  H  H106  1  0.616000  0.580000  0.110100  1.0  0.0871
  H  H107  1  0.325600  0.683400  0.039800  1.0  0.0832
  H  H108  1  0.253600  0.734100  0.100500  1.0  0.1009
  H  H109  1  0.856900  0.917800  0.242000  1.0  0.1021
  H  H110  1  0.703600  0.990800  0.207100  1.0  0.1033
  H  H111  1  0.730900  0.002100  0.132900  1.0  0.0971
  H  H112  1  0.066500  0.867800  0.127100  1.0  0.1017
  H  H113  1  0.456200  0.870000  0.171400  1.0  0.0984
  H  H114  1  0.384000  0.920000  0.110100  1.0  0.0883
  H  H115  1  0.674400  0.816600  0.039800  1.0  0.0829
  H  H116  1  0.746400  0.765900  0.100500  1.0  0.1004
  H  H117  1  0.143100  0.582200  0.242000  1.0  0.1017
  H  H118  1  0.296400  0.509200  0.207100  1.0  0.1035
  H  H119  1  0.269100  0.497900  0.132900  1.0  0.0962
  H  H120  1  0.933500  0.632200  0.127100  1.0  0.1019
  H  H121  1  0.956200  0.370000  0.671400  1.0  0.0984
  H  H122  1  0.884000  0.420000  0.610100  1.0  0.0883
  H  H123  1  0.174400  0.316600  0.539800  1.0  0.0829
  H  H124  1  0.246400  0.265900  0.600500  1.0  0.1004
  H  H125  1  0.643100  0.082200  0.742000  1.0  0.1017
  H  H126  1  0.796400  0.009200  0.707100  1.0  0.1035
  H  H127  1  0.769100  0.997900  0.632900  1.0  0.0962
  H  H128  1  0.433500  0.132200  0.627100  1.0  0.1019
  H  H129  1  0.956200  0.630000  0.828600  1.0  0.0988
  H  H130  1  0.884000  0.580000  0.889900  1.0  0.0882
  H  H131  1  0.174400  0.683400  0.960200  1.0  0.0828
  H  H132  1  0.246400  0.734100  0.899500  1.0  0.1005
  H  H133  1  0.643100  0.917800  0.758000  1.0  0.1016
  H  H134  1  0.796400  0.990800  0.792900  1.0  0.1031
  H  H135  1  0.769100  0.002100  0.867100  1.0  0.0963
  H  H136  1  0.433500  0.867800  0.872900  1.0  0.102
  H  H137  1  0.456200  0.130000  0.328600  1.0  0.0988
  H  H138  1  0.384000  0.080000  0.389900  1.0  0.0882
  H  H139  1  0.674400  0.183400  0.460200  1.0  0.0828
  H  H140  1  0.746400  0.234100  0.399500  1.0  0.1005
  H  H141  1  0.143100  0.417800  0.258000  1.0  0.1016
  H  H142  1  0.296400  0.490800  0.292900  1.0  0.1031
  H  H143  1  0.269100  0.502100  0.367100  1.0  0.0963
  H  H144  1  0.933500  0.367800  0.372900  1.0  0.102
  H  H145  1  0.543800  0.370000  0.328600  1.0  0.0986
  H  H146  1  0.616000  0.420000  0.389900  1.0  0.0881
  H  H147  1  0.325600  0.316600  0.460200  1.0  0.0827
  H  H148  1  0.253600  0.265900  0.399500  1.0  0.1006
  H  H149  1  0.856900  0.082200  0.258000  1.0  0.1021
  H  H150  1  0.703600  0.009200  0.292900  1.0  0.1022
  H  H151  1  0.730900  0.997900  0.367100  1.0  0.0965
  H  H152  1  0.066500  0.132200  0.372900  1.0  0.1019
  H  H153  1  0.043800  0.870000  0.828600  1.0  0.0986
  H  H154  1  0.116000  0.920000  0.889900  1.0  0.0881
  H  H155  1  0.825600  0.816600  0.960200  1.0  0.0827
  H  H156  1  0.753600  0.765900  0.899500  1.0  0.1006
  H  H157  1  0.356900  0.582200  0.758000  1.0  0.1021
  H  H158  1  0.203600  0.509200  0.792900  1.0  0.1022
  H  H159  1  0.230900  0.497900  0.867100  1.0  0.0965
  H  H160  1  0.566500  0.632200  0.872900  1.0  0.1019
  C  C161  1  0.003300  0.858240  0.355750  1.0  0.1356
  C  C162  1  0.960700  0.888200  0.392500  1.0  0.1455
  C  C163  1  0.128100  0.828400  0.432940  1.0  0.1469
  C  C164  1  0.171400  0.798100  0.396760  1.0  0.1246
  C  C165  1  0.431200  0.663700  0.290350  1.0  0.6941
  C  C166  1  0.524500  0.614730  0.312070  1.0  -0.166
  C  C167  1  0.631700  0.577800  0.288450  1.0  -0.0568
  C  C168  1  0.722700  0.534200  0.309170  1.0  -0.0894
  C  C169  1  0.705700  0.527500  0.353120  1.0  -0.0887
  C  C170  1  0.596700  0.563310  0.377640  1.0  -0.1099
  C  C171  1  0.507100  0.607190  0.356590  1.0  -0.0589
  C  C172  1  0.572900  0.554000  0.425500  1.0  0.7007
  C  C173  1  0.503300  0.358240  0.855750  1.0  0.1356
  C  C174  1  0.460700  0.388200  0.892500  1.0  0.1455
  C  C175  1  0.628100  0.328400  0.932940  1.0  0.1469
  C  C176  1  0.671400  0.298100  0.896760  1.0  0.1246
  C  C177  1  0.931200  0.163700  0.790350  1.0  0.6941
  C  C178  1  0.024500  0.114730  0.812070  1.0  -0.166
  C  C179  1  0.131700  0.077800  0.788450  1.0  -0.0568
  C  C180  1  0.222700  0.034200  0.809170  1.0  -0.0894
  C  C181  1  0.205700  0.027500  0.853120  1.0  -0.0887
  C  C182  1  0.096700  0.063310  0.877640  1.0  -0.1099
  C  C183  1  0.007100  0.107190  0.856590  1.0  -0.0589
  C  C184  1  0.072900  0.054000  0.925500  1.0  0.7007
  C  C185  1  0.496700  0.141760  0.855750  1.0  0.1346
  C  C186  1  0.539300  0.111800  0.892500  1.0  0.1445
  C  C187  1  0.371900  0.171600  0.932940  1.0  0.1462
  C  C188  1  0.328600  0.201900  0.896760  1.0  0.123
  C  C189  1  0.068800  0.336300  0.790350  1.0  0.6943
  C  C190  1  0.975500  0.385270  0.812070  1.0  -0.167
  C  C191  1  0.868300  0.422200  0.788450  1.0  -0.0567
  C  C192  1  0.777300  0.465800  0.809170  1.0  -0.0888
  C  C193  1  0.794300  0.472500  0.853120  1.0  -0.0885
  C  C194  1  0.903300  0.436690  0.877640  1.0  -0.1098
  C  C195  1  0.992900  0.392810  0.856590  1.0  -0.0588
  C  C196  1  0.927100  0.446000  0.925500  1.0  0.7015
  C  C197  1  0.996700  0.641760  0.355750  1.0  0.1346
  C  C198  1  0.039300  0.611800  0.392500  1.0  0.1445
  C  C199  1  0.871900  0.671600  0.432940  1.0  0.1462
  C  C200  1  0.828600  0.701900  0.396760  1.0  0.123
  C  C201  1  0.568800  0.836300  0.290350  1.0  0.6943
  C  C202  1  0.475500  0.885270  0.312070  1.0  -0.167
  C  C203  1  0.368300  0.922200  0.288450  1.0  -0.0567
  C  C204  1  0.277300  0.965800  0.309170  1.0  -0.0888
  C  C205  1  0.294300  0.972500  0.353120  1.0  -0.0885
  C  C206  1  0.403300  0.936690  0.377640  1.0  -0.1098
  C  C207  1  0.492900  0.892810  0.356590  1.0  -0.0588
  C  C208  1  0.427100  0.946000  0.425500  1.0  0.7015
  C  C209  1  0.996700  0.358240  0.144250  1.0  0.1352
  C  C210  1  0.039300  0.388200  0.107500  1.0  0.146
  C  C211  1  0.871900  0.328400  0.067060  1.0  0.1471
  C  C212  1  0.828600  0.298100  0.103240  1.0  0.1235
  C  C213  1  0.568800  0.163700  0.209650  1.0  0.6942
  C  C214  1  0.475500  0.114730  0.187930  1.0  -0.1678
  C  C215  1  0.368300  0.077800  0.211550  1.0  -0.0573
  C  C216  1  0.277300  0.034200  0.190830  1.0  -0.0877
  C  C217  1  0.294300  0.027500  0.146880  1.0  -0.0882
  C  C218  1  0.403300  0.063310  0.122360  1.0  -0.1086
  C  C219  1  0.492900  0.107190  0.143410  1.0  -0.0587
  C  C220  1  0.427100  0.054000  0.074500  1.0  0.7017
  C  C221  1  0.496700  0.858240  0.644250  1.0  0.1352
  C  C222  1  0.539300  0.888200  0.607500  1.0  0.146
  C  C223  1  0.371900  0.828400  0.567060  1.0  0.1471
  C  C224  1  0.328600  0.798100  0.603240  1.0  0.1235
  C  C225  1  0.068800  0.663700  0.709650  1.0  0.6942
  C  C226  1  0.975500  0.614730  0.687930  1.0  -0.1678
  C  C227  1  0.868300  0.577800  0.711550  1.0  -0.0573
  C  C228  1  0.777300  0.534200  0.690830  1.0  -0.0877
  C  C229  1  0.794300  0.527500  0.646880  1.0  -0.0882
  C  C230  1  0.903300  0.563310  0.622360  1.0  -0.1086
  C  C231  1  0.992900  0.607190  0.643410  1.0  -0.0587
  C  C232  1  0.927100  0.554000  0.574500  1.0  0.7017
  C  C233  1  0.503300  0.641760  0.644250  1.0  0.1341
  C  C234  1  0.460700  0.611800  0.607500  1.0  0.1461
  C  C235  1  0.628100  0.671600  0.567060  1.0  0.1465
  C  C236  1  0.671400  0.701900  0.603240  1.0  0.1236
  C  C237  1  0.931200  0.836300  0.709650  1.0  0.6944
  C  C238  1  0.024500  0.885270  0.687930  1.0  -0.1665
  C  C239  1  0.131700  0.922200  0.711550  1.0  -0.0568
  C  C240  1  0.222700  0.965800  0.690830  1.0  -0.0892
  C  C241  1  0.205700  0.972500  0.646880  1.0  -0.0888
  C  C242  1  0.096700  0.936690  0.622360  1.0  -0.108
  C  C243  1  0.007100  0.892810  0.643410  1.0  -0.057
  C  C244  1  0.072900  0.946000  0.574500  1.0  0.7015
  C  C245  1  0.003300  0.141760  0.144250  1.0  0.1341
  C  C246  1  0.960700  0.111800  0.107500  1.0  0.1461
  C  C247  1  0.128100  0.171600  0.067060  1.0  0.1465
  C  C248  1  0.171400  0.201900  0.103240  1.0  0.1236
  C  C249  1  0.431200  0.336300  0.209650  1.0  0.6944
  C  C250  1  0.524500  0.385270  0.187930  1.0  -0.1665
  C  C251  1  0.631700  0.422200  0.211550  1.0  -0.0568
  C  C252  1  0.722700  0.465800  0.190830  1.0  -0.0892
  C  C253  1  0.705700  0.472500  0.146880  1.0  -0.0888
  C  C254  1  0.596700  0.436690  0.122360  1.0  -0.108
  C  C255  1  0.507100  0.392810  0.143410  1.0  -0.057
  C  C256  1  0.572900  0.446000  0.074500  1.0  0.7015
  C  C257  1  0.996700  0.141760  0.644250  1.0  0.1344
  C  C258  1  0.039300  0.111800  0.607500  1.0  0.1459
  C  C259  1  0.871900  0.171600  0.567060  1.0  0.1468
  C  C260  1  0.828600  0.201900  0.603240  1.0  0.1229
  C  C261  1  0.568800  0.336300  0.709650  1.0  0.6947
  C  C262  1  0.475500  0.385270  0.687930  1.0  -0.1673
  C  C263  1  0.368300  0.422200  0.711550  1.0  -0.057
  C  C264  1  0.277300  0.465800  0.690830  1.0  -0.0885
  C  C265  1  0.294300  0.472500  0.646880  1.0  -0.0884
  C  C266  1  0.403300  0.436690  0.622360  1.0  -0.1084
  C  C267  1  0.492900  0.392810  0.643410  1.0  -0.0586
  C  C268  1  0.427100  0.446000  0.574500  1.0  0.7018
  C  C269  1  0.496700  0.641760  0.144250  1.0  0.1344
  C  C270  1  0.539300  0.611800  0.107500  1.0  0.1459
  C  C271  1  0.371900  0.671600  0.067060  1.0  0.1468
  C  C272  1  0.328600  0.701900  0.103240  1.0  0.1229
  C  C273  1  0.068800  0.836300  0.209650  1.0  0.6947
  C  C274  1  0.975500  0.885270  0.187930  1.0  -0.1673
  C  C275  1  0.868300  0.922200  0.211550  1.0  -0.057
  C  C276  1  0.777300  0.965800  0.190830  1.0  -0.0885
  C  C277  1  0.794300  0.972500  0.146880  1.0  -0.0884
  C  C278  1  0.903300  0.936690  0.122360  1.0  -0.1084
  C  C279  1  0.992900  0.892810  0.143410  1.0  -0.0586
  C  C280  1  0.927100  0.946000  0.074500  1.0  0.7018
  C  C281  1  0.503300  0.858240  0.144250  1.0  0.1351
  C  C282  1  0.460700  0.888200  0.107500  1.0  0.1466
  C  C283  1  0.628100  0.828400  0.067060  1.0  0.1469
  C  C284  1  0.671400  0.798100  0.103240  1.0  0.1233
  C  C285  1  0.931200  0.663700  0.209650  1.0  0.6941
  C  C286  1  0.024500  0.614730  0.187930  1.0  -0.167
  C  C287  1  0.131700  0.577800  0.211550  1.0  -0.0572
  C  C288  1  0.222700  0.534200  0.190830  1.0  -0.0889
  C  C289  1  0.205700  0.527500  0.146880  1.0  -0.0887
  C  C290  1  0.096700  0.563310  0.122360  1.0  -0.1082
  C  C291  1  0.007100  0.607190  0.143410  1.0  -0.0585
  C  C292  1  0.072900  0.554000  0.074500  1.0  0.7014
  C  C293  1  0.003300  0.358240  0.644250  1.0  0.1351
  C  C294  1  0.960700  0.388200  0.607500  1.0  0.1466
  C  C295  1  0.128100  0.328400  0.567060  1.0  0.1469
  C  C296  1  0.171400  0.298100  0.603240  1.0  0.1233
  C  C297  1  0.431200  0.163700  0.709650  1.0  0.6941
  C  C298  1  0.524500  0.114730  0.687930  1.0  -0.167
  C  C299  1  0.631700  0.077800  0.711550  1.0  -0.0572
  C  C300  1  0.722700  0.034200  0.690830  1.0  -0.0889
  C  C301  1  0.705700  0.027500  0.646880  1.0  -0.0887
  C  C302  1  0.596700  0.063310  0.622360  1.0  -0.1082
  C  C303  1  0.507100  0.107190  0.643410  1.0  -0.0585
  C  C304  1  0.572900  0.054000  0.574500  1.0  0.7014
  C  C305  1  0.003300  0.641760  0.855750  1.0  0.1352
  C  C306  1  0.960700  0.611800  0.892500  1.0  0.1449
  C  C307  1  0.128100  0.671600  0.932940  1.0  0.1467
  C  C308  1  0.171400  0.701900  0.896760  1.0  0.1238
  C  C309  1  0.431200  0.836300  0.790350  1.0  0.694
  C  C310  1  0.524500  0.885270  0.812070  1.0  -0.1664
  C  C311  1  0.631700  0.922200  0.788450  1.0  -0.0566
  C  C312  1  0.722700  0.965800  0.809170  1.0  -0.0898
  C  C313  1  0.705700  0.972500  0.853120  1.0  -0.0887
  C  C314  1  0.596700  0.936690  0.877640  1.0  -0.1092
  C  C315  1  0.507100  0.892810  0.856590  1.0  -0.0575
  C  C316  1  0.572900  0.946000  0.925500  1.0  0.7012
  C  C317  1  0.503300  0.141760  0.355750  1.0  0.1352
  C  C318  1  0.460700  0.111800  0.392500  1.0  0.1449
  C  C319  1  0.628100  0.171600  0.432940  1.0  0.1467
  C  C320  1  0.671400  0.201900  0.396760  1.0  0.1238
  C  C321  1  0.931200  0.336300  0.290350  1.0  0.694
  C  C322  1  0.024500  0.385270  0.312070  1.0  -0.1664
  C  C323  1  0.131700  0.422200  0.288450  1.0  -0.0566
  C  C324  1  0.222700  0.465800  0.309170  1.0  -0.0898
  C  C325  1  0.205700  0.472500  0.353120  1.0  -0.0887
  C  C326  1  0.096700  0.436690  0.377640  1.0  -0.1092
  C  C327  1  0.007100  0.392810  0.356590  1.0  -0.0575
  C  C328  1  0.072900  0.446000  0.425500  1.0  0.7012
  C  C329  1  0.496700  0.358240  0.355750  1.0  0.135
  C  C330  1  0.539300  0.388200  0.392500  1.0  0.145
  C  C331  1  0.371900  0.328400  0.432940  1.0  0.1466
  C  C332  1  0.328600  0.298100  0.396760  1.0  0.1248
  C  C333  1  0.068800  0.163700  0.290350  1.0  0.6943
  C  C334  1  0.975500  0.114730  0.312070  1.0  -0.1667
  C  C335  1  0.868300  0.077800  0.288450  1.0  -0.057
  C  C336  1  0.777300  0.034200  0.309170  1.0  -0.0879
  C  C337  1  0.794300  0.027500  0.353120  1.0  -0.0883
  C  C338  1  0.903300  0.063310  0.377640  1.0  -0.1105
  C  C339  1  0.992900  0.107190  0.356590  1.0  -0.0587
  C  C340  1  0.927100  0.054000  0.425500  1.0  0.7011
  C  C341  1  0.996700  0.858240  0.855750  1.0  0.135
  C  C342  1  0.039300  0.888200  0.892500  1.0  0.145
  C  C343  1  0.871900  0.828400  0.932940  1.0  0.1466
  C  C344  1  0.828600  0.798100  0.896760  1.0  0.1248
  C  C345  1  0.568800  0.663700  0.790350  1.0  0.6943
  C  C346  1  0.475500  0.614730  0.812070  1.0  -0.1667
  C  C347  1  0.368300  0.577800  0.788450  1.0  -0.057
  C  C348  1  0.277300  0.534200  0.809170  1.0  -0.0879
  C  C349  1  0.294300  0.527500  0.853120  1.0  -0.0883
  C  C350  1  0.403300  0.563310  0.877640  1.0  -0.1105
  C  C351  1  0.492900  0.607190  0.856590  1.0  -0.0587
  C  C352  1  0.427100  0.554000  0.925500  1.0  0.7011
  N  N353  1  0.110000  0.812850  0.357610  1.0  -0.3582
  N  N354  1  0.022700  0.874100  0.431300  1.0  -0.358
  N  N355  1  0.610000  0.312850  0.857610  1.0  -0.3582
  N  N356  1  0.522700  0.374100  0.931300  1.0  -0.358
  N  N357  1  0.390000  0.187150  0.857610  1.0  -0.3578
  N  N358  1  0.477300  0.125900  0.931300  1.0  -0.3565
  N  N359  1  0.890000  0.687150  0.357610  1.0  -0.3578
  N  N360  1  0.977300  0.625900  0.431300  1.0  -0.3565
  N  N361  1  0.890000  0.312850  0.142390  1.0  -0.3583
  N  N362  1  0.977300  0.374100  0.068700  1.0  -0.3531
  N  N363  1  0.390000  0.812850  0.642390  1.0  -0.3583
  N  N364  1  0.477300  0.874100  0.568700  1.0  -0.3531
  N  N365  1  0.610000  0.687150  0.642390  1.0  -0.3583
  N  N366  1  0.522700  0.625900  0.568700  1.0  -0.3552
  N  N367  1  0.110000  0.187150  0.142390  1.0  -0.3583
  N  N368  1  0.022700  0.125900  0.068700  1.0  -0.3552
  N  N369  1  0.890000  0.187150  0.642390  1.0  -0.3591
  N  N370  1  0.977300  0.125900  0.568700  1.0  -0.3554
  N  N371  1  0.390000  0.687150  0.142390  1.0  -0.3591
  N  N372  1  0.477300  0.625900  0.068700  1.0  -0.3554
  N  N373  1  0.610000  0.812850  0.142390  1.0  -0.3576
  N  N374  1  0.522700  0.874100  0.068700  1.0  -0.3526
  N  N375  1  0.110000  0.312850  0.642390  1.0  -0.3576
  N  N376  1  0.022700  0.374100  0.568700  1.0  -0.3526
  N  N377  1  0.110000  0.687150  0.857610  1.0  -0.3575
  N  N378  1  0.022700  0.625900  0.931300  1.0  -0.3579
  N  N379  1  0.610000  0.187150  0.357610  1.0  -0.3575
  N  N380  1  0.522700  0.125900  0.431300  1.0  -0.3579
  N  N381  1  0.390000  0.312850  0.357610  1.0  -0.3587
  N  N382  1  0.477300  0.374100  0.431300  1.0  -0.3565
  N  N383  1  0.890000  0.812850  0.857610  1.0  -0.3587
  N  N384  1  0.977300  0.874100  0.931300  1.0  -0.3565
  O  O385  1  0.340900  0.695810  0.313930  1.0  -0.5782
  O  O386  1  0.450800  0.667910  0.249890  1.0  -0.5885
  O  O387  1  0.474600  0.587780  0.446310  1.0  -0.59
  O  O388  1  0.651700  0.512310  0.441930  1.0  -0.6261
  O  O389  1  0.840900  0.195810  0.813930  1.0  -0.5782
  O  O390  1  0.950800  0.167910  0.749890  1.0  -0.5885
  O  O391  1  0.974600  0.087780  0.946310  1.0  -0.59
  O  O392  1  0.151700  0.012310  0.941930  1.0  -0.6261
  O  O393  1  0.159100  0.304190  0.813930  1.0  -0.5789
  O  O394  1  0.049200  0.332090  0.749890  1.0  -0.5879
  O  O395  1  0.025400  0.412220  0.946310  1.0  -0.59
  O  O396  1  0.848300  0.487690  0.941930  1.0  -0.6256
  O  O397  1  0.659100  0.804190  0.313930  1.0  -0.5789
  O  O398  1  0.549200  0.832090  0.249890  1.0  -0.5879
  O  O399  1  0.525400  0.912220  0.446310  1.0  -0.59
  O  O400  1  0.348300  0.987690  0.441930  1.0  -0.6256
  O  O401  1  0.659100  0.195810  0.186070  1.0  -0.5789
  O  O402  1  0.549200  0.167910  0.250110  1.0  -0.5894
  O  O403  1  0.525400  0.087780  0.053690  1.0  -0.5898
  O  O404  1  0.348300  0.012310  0.058070  1.0  -0.627
  O  O405  1  0.159100  0.695810  0.686070  1.0  -0.5789
  O  O406  1  0.049200  0.667910  0.750110  1.0  -0.5894
  O  O407  1  0.025400  0.587780  0.553690  1.0  -0.5898
  O  O408  1  0.848300  0.512310  0.558070  1.0  -0.627
  O  O409  1  0.840900  0.804190  0.686070  1.0  -0.5785
  O  O410  1  0.950800  0.832090  0.750110  1.0  -0.5889
  O  O411  1  0.974600  0.912220  0.553690  1.0  -0.5895
  O  O412  1  0.151700  0.987690  0.558070  1.0  -0.6255
  O  O413  1  0.340900  0.304190  0.186070  1.0  -0.5785
  O  O414  1  0.450800  0.332090  0.250110  1.0  -0.5889
  O  O415  1  0.474600  0.412220  0.053690  1.0  -0.5895
  O  O416  1  0.651700  0.487690  0.058070  1.0  -0.6255
  O  O417  1  0.659100  0.304190  0.686070  1.0  -0.5795
  O  O418  1  0.549200  0.332090  0.750110  1.0  -0.5885
  O  O419  1  0.525400  0.412220  0.553690  1.0  -0.5898
  O  O420  1  0.348300  0.487690  0.558070  1.0  -0.6256
  O  O421  1  0.159100  0.804190  0.186070  1.0  -0.5795
  O  O422  1  0.049200  0.832090  0.250110  1.0  -0.5885
  O  O423  1  0.025400  0.912220  0.053690  1.0  -0.5898
  O  O424  1  0.848300  0.987690  0.058070  1.0  -0.6256
  O  O425  1  0.840900  0.695810  0.186070  1.0  -0.5779
  O  O426  1  0.950800  0.667910  0.250110  1.0  -0.5894
  O  O427  1  0.974600  0.587780  0.053690  1.0  -0.589
  O  O428  1  0.151700  0.512310  0.058070  1.0  -0.6268
  O  O429  1  0.340900  0.195810  0.686070  1.0  -0.5779
  O  O430  1  0.450800  0.167910  0.750110  1.0  -0.5894
  O  O431  1  0.474600  0.087780  0.553690  1.0  -0.589
  O  O432  1  0.651700  0.012310  0.558070  1.0  -0.6268
  O  O433  1  0.340900  0.804190  0.813930  1.0  -0.578
  O  O434  1  0.450800  0.832090  0.749890  1.0  -0.5879
  O  O435  1  0.474600  0.912220  0.946310  1.0  -0.5901
  O  O436  1  0.651700  0.987690  0.941930  1.0  -0.6255
  O  O437  1  0.840900  0.304190  0.313930  1.0  -0.578
  O  O438  1  0.950800  0.332090  0.249890  1.0  -0.5879
  O  O439  1  0.974600  0.412220  0.446310  1.0  -0.5901
  O  O440  1  0.151700  0.487690  0.441930  1.0  -0.6255
  O  O441  1  0.159100  0.195810  0.313930  1.0  -0.579
  O  O442  1  0.049200  0.167910  0.249890  1.0  -0.588
  O  O443  1  0.025400  0.087780  0.446310  1.0  -0.5897
  O  O444  1  0.848300  0.012310  0.441930  1.0  -0.6259
  O  O445  1  0.659100  0.695810  0.813930  1.0  -0.579
  O  O446  1  0.549200  0.667910  0.749890  1.0  -0.588
  O  O447  1  0.525400  0.587780  0.946310  1.0  -0.5897
  O  O448  1  0.348300  0.512310  0.941930  1.0  -0.6259
