# generated using pymatgen
data_AgH4C6NO2
_symmetry_space_group_name_H-M   'P 1'
_cell_length_a   7.21270000
_cell_length_b   23.76520000
_cell_length_c   30.73200000
_cell_angle_alpha   90.00000000
_cell_angle_beta   90.00000000
_cell_angle_gamma   90.00000000
_symmetry_Int_Tables_number   1
_chemical_formula_structural   AgH4C6NO2
_chemical_formula_sum   'Ag32 H128 C192 N32 O64'
_cell_volume   5267.81078209
_cell_formula_units_Z   32
loop_
 _symmetry_equiv_pos_site_id
 _symmetry_equiv_pos_as_xyz
  1  'x, y, z'
loop_
 _atom_site_type_symbol
 _atom_site_label
 _atom_site_symmetry_multiplicity
 _atom_site_fract_x
 _atom_site_fract_y
 _atom_site_fract_z
 _atom_site_occupancy
 _atom_site_charge
  Ag  Ag1  1  0.195240  0.770010  0.290690  1.0  0.4928
  Ag  Ag2  1  0.527850  0.442570  0.484160  1.0  0.431
  Ag  Ag3  1  0.695240  0.270010  0.790690  1.0  0.4928
  Ag  Ag4  1  0.027850  0.942570  0.984160  1.0  0.431
  Ag  Ag5  1  0.304760  0.229990  0.790690  1.0  0.4931
  Ag  Ag6  1  0.972150  0.557430  0.984160  1.0  0.4305
  Ag  Ag7  1  0.804760  0.729990  0.290690  1.0  0.4931
  Ag  Ag8  1  0.472150  0.057430  0.484160  1.0  0.4305
  Ag  Ag9  1  0.804760  0.270010  0.209310  1.0  0.4928
  Ag  Ag10  1  0.472150  0.942570  0.015840  1.0  0.4296
  Ag  Ag11  1  0.304760  0.770010  0.709310  1.0  0.4928
  Ag  Ag12  1  0.972150  0.442570  0.515840  1.0  0.4296
  Ag  Ag13  1  0.695240  0.729990  0.709310  1.0  0.4934
  Ag  Ag14  1  0.027850  0.057430  0.515840  1.0  0.4304
  Ag  Ag15  1  0.195240  0.229990  0.209310  1.0  0.4934
  Ag  Ag16  1  0.527850  0.557430  0.015840  1.0  0.4304
  Ag  Ag17  1  0.804760  0.229990  0.709310  1.0  0.4932
  Ag  Ag18  1  0.472150  0.557430  0.515840  1.0  0.4302
  Ag  Ag19  1  0.304760  0.729990  0.209310  1.0  0.4932
  Ag  Ag20  1  0.972150  0.057430  0.015840  1.0  0.4302
  Ag  Ag21  1  0.695240  0.770010  0.209310  1.0  0.4929
  Ag  Ag22  1  0.027850  0.442570  0.015840  1.0  0.4305
  Ag  Ag23  1  0.195240  0.270010  0.709310  1.0  0.4929
  Ag  Ag24  1  0.527850  0.942570  0.515840  1.0  0.4305
  Ag  Ag25  1  0.195240  0.729990  0.790690  1.0  0.4932
  Ag  Ag26  1  0.527850  0.057430  0.984160  1.0  0.4312
  Ag  Ag27  1  0.695240  0.229990  0.290690  1.0  0.4932
  Ag  Ag28  1  0.027850  0.557430  0.484160  1.0  0.4312
  Ag  Ag29  1  0.304760  0.270010  0.290690  1.0  0.4927
  Ag  Ag30  1  0.972150  0.942570  0.484160  1.0  0.4311
  Ag  Ag31  1  0.804760  0.770010  0.790690  1.0  0.4927
  Ag  Ag32  1  0.472150  0.442570  0.984160  1.0  0.4311
  H  H33  1  0.953900  0.869900  0.328600  1.0  0.0963
  H  H34  1  0.880600  0.920200  0.389900  1.0  0.0903
  H  H35  1  0.169500  0.816100  0.460500  1.0  0.0882
  H  H36  1  0.245500  0.766000  0.399500  1.0  0.0922
  H  H37  1  0.647400  0.581400  0.257700  1.0  0.1062
  H  H38  1  0.803200  0.509000  0.292700  1.0  0.1027
  H  H39  1  0.776500  0.497800  0.366900  1.0  0.0994
  H  H40  1  0.437700  0.632200  0.372700  1.0  0.1053
  H  H41  1  0.453900  0.369900  0.828600  1.0  0.0963
  H  H42  1  0.380600  0.420200  0.889900  1.0  0.0903
  H  H43  1  0.669500  0.316100  0.960500  1.0  0.0882
  H  H44  1  0.745500  0.266000  0.899500  1.0  0.0922
  H  H45  1  0.147400  0.081400  0.757700  1.0  0.1062
  H  H46  1  0.303200  0.009000  0.792700  1.0  0.1027
  H  H47  1  0.276500  0.997800  0.866900  1.0  0.0994
  H  H48  1  0.937700  0.132200  0.872700  1.0  0.1053
  H  H49  1  0.546100  0.130100  0.828600  1.0  0.0965
  H  H50  1  0.619400  0.079800  0.889900  1.0  0.0897
  H  H51  1  0.330500  0.183900  0.960500  1.0  0.0888
  H  H52  1  0.254500  0.234000  0.899500  1.0  0.0921
  H  H53  1  0.852600  0.418600  0.757700  1.0  0.1063
  H  H54  1  0.696800  0.491000  0.792700  1.0  0.1031
  H  H55  1  0.723500  0.502200  0.866900  1.0  0.0995
  H  H56  1  0.062300  0.367800  0.872700  1.0  0.1058
  H  H57  1  0.046100  0.630100  0.328600  1.0  0.0965
  H  H58  1  0.119400  0.579800  0.389900  1.0  0.0897
  H  H59  1  0.830500  0.683900  0.460500  1.0  0.0888
  H  H60  1  0.754500  0.734000  0.399500  1.0  0.0921
  H  H61  1  0.352600  0.918600  0.257700  1.0  0.1063
  H  H62  1  0.196800  0.991000  0.292700  1.0  0.1031
  H  H63  1  0.223500  0.002200  0.366900  1.0  0.0995
  H  H64  1  0.562300  0.867800  0.372700  1.0  0.1058
  H  H65  1  0.046100  0.369900  0.171400  1.0  0.0964
  H  H66  1  0.119400  0.420200  0.110100  1.0  0.0897
  H  H67  1  0.830500  0.316100  0.039500  1.0  0.0886
  H  H68  1  0.754500  0.266000  0.100500  1.0  0.0913
  H  H69  1  0.352600  0.081400  0.242300  1.0  0.1063
  H  H70  1  0.196800  0.009000  0.207300  1.0  0.1035
  H  H71  1  0.223500  0.997800  0.133100  1.0  0.0992
  H  H72  1  0.562300  0.132200  0.127300  1.0  0.1058
  H  H73  1  0.546100  0.869900  0.671400  1.0  0.0964
  H  H74  1  0.619400  0.920200  0.610100  1.0  0.0897
  H  H75  1  0.330500  0.816100  0.539500  1.0  0.0886
  H  H76  1  0.254500  0.766000  0.600500  1.0  0.0913
  H  H77  1  0.852600  0.581400  0.742300  1.0  0.1063
  H  H78  1  0.696800  0.509000  0.707300  1.0  0.1035
  H  H79  1  0.723500  0.497800  0.633100  1.0  0.0992
  H  H80  1  0.062300  0.632200  0.627300  1.0  0.1058
  H  H81  1  0.453900  0.630100  0.671400  1.0  0.096
  H  H82  1  0.380600  0.579800  0.610100  1.0  0.0902
  H  H83  1  0.669500  0.683900  0.539500  1.0  0.0888
  H  H84  1  0.745500  0.734000  0.600500  1.0  0.0923
  H  H85  1  0.147400  0.918600  0.742300  1.0  0.1063
  H  H86  1  0.303200  0.991000  0.707300  1.0  0.1037
  H  H87  1  0.276500  0.002200  0.633100  1.0  0.0996
  H  H88  1  0.937700  0.867800  0.627300  1.0  0.1054
  H  H89  1  0.953900  0.130100  0.171400  1.0  0.096
  H  H90  1  0.880600  0.079800  0.110100  1.0  0.0902
  H  H91  1  0.169500  0.183900  0.039500  1.0  0.0888
  H  H92  1  0.245500  0.234000  0.100500  1.0  0.0923
  H  H93  1  0.647400  0.418600  0.242300  1.0  0.1063
  H  H94  1  0.803200  0.491000  0.207300  1.0  0.1037
  H  H95  1  0.776500  0.502200  0.133100  1.0  0.0996
  H  H96  1  0.437700  0.367800  0.127300  1.0  0.1054
  H  H97  1  0.046100  0.130100  0.671400  1.0  0.0962
  H  H98  1  0.119400  0.079800  0.610100  1.0  0.0894
  H  H99  1  0.830500  0.183900  0.539500  1.0  0.0891
  H  H100  1  0.754500  0.234000  0.600500  1.0  0.0923
  H  H101  1  0.352600  0.418600  0.742300  1.0  0.1064
  H  H102  1  0.196800  0.491000  0.707300  1.0  0.1036
  H  H103  1  0.223500  0.502200  0.633100  1.0  0.1
  H  H104  1  0.562300  0.367800  0.627300  1.0  0.1056
  H  H105  1  0.546100  0.630100  0.171400  1.0  0.0962
  H  H106  1  0.619400  0.579800  0.110100  1.0  0.0894
  H  H107  1  0.330500  0.683900  0.039500  1.0  0.0891
  H  H108  1  0.254500  0.734000  0.100500  1.0  0.0923
  H  H109  1  0.852600  0.918600  0.242300  1.0  0.1064
  H  H110  1  0.696800  0.991000  0.207300  1.0  0.1036
  H  H111  1  0.723500  0.002200  0.133100  1.0  0.1
  H  H112  1  0.062300  0.867800  0.127300  1.0  0.1056
  H  H113  1  0.453900  0.869900  0.171400  1.0  0.0962
  H  H114  1  0.380600  0.920200  0.110100  1.0  0.0904
  H  H115  1  0.669500  0.816100  0.039500  1.0  0.0884
  H  H116  1  0.745500  0.766000  0.100500  1.0  0.0918
  H  H117  1  0.147400  0.581400  0.242300  1.0  0.1061
  H  H118  1  0.303200  0.509000  0.207300  1.0  0.1037
  H  H119  1  0.276500  0.497800  0.133100  1.0  0.099
  H  H120  1  0.937700  0.632200  0.127300  1.0  0.1058
  H  H121  1  0.953900  0.369900  0.671400  1.0  0.0962
  H  H122  1  0.880600  0.420200  0.610100  1.0  0.0904
  H  H123  1  0.169500  0.316100  0.539500  1.0  0.0884
  H  H124  1  0.245500  0.266000  0.600500  1.0  0.0918
  H  H125  1  0.647400  0.081400  0.742300  1.0  0.1061
  H  H126  1  0.803200  0.009000  0.707300  1.0  0.1037
  H  H127  1  0.776500  0.997800  0.633100  1.0  0.099
  H  H128  1  0.437700  0.132200  0.627300  1.0  0.1058
  H  H129  1  0.953900  0.630100  0.828600  1.0  0.0965
  H  H130  1  0.880600  0.579800  0.889900  1.0  0.0901
  H  H131  1  0.169500  0.683900  0.960500  1.0  0.0886
  H  H132  1  0.245500  0.734000  0.899500  1.0  0.092
  H  H133  1  0.647400  0.918600  0.757700  1.0  0.1059
  H  H134  1  0.803200  0.991000  0.792700  1.0  0.1032
  H  H135  1  0.776500  0.002200  0.866900  1.0  0.0992
  H  H136  1  0.437700  0.867800  0.872700  1.0  0.1056
  H  H137  1  0.453900  0.130100  0.328600  1.0  0.0965
  H  H138  1  0.380600  0.079800  0.389900  1.0  0.0901
  H  H139  1  0.669500  0.183900  0.460500  1.0  0.0886
  H  H140  1  0.745500  0.234000  0.399500  1.0  0.092
  H  H141  1  0.147400  0.418600  0.257700  1.0  0.1059
  H  H142  1  0.303200  0.491000  0.292700  1.0  0.1032
  H  H143  1  0.276500  0.502200  0.366900  1.0  0.0992
  H  H144  1  0.937700  0.367800  0.372700  1.0  0.1056
  H  H145  1  0.546100  0.369900  0.328600  1.0  0.0963
  H  H146  1  0.619400  0.420200  0.389900  1.0  0.09
  H  H147  1  0.330500  0.316100  0.460500  1.0  0.0885
  H  H148  1  0.254500  0.266000  0.399500  1.0  0.0917
  H  H149  1  0.852600  0.081400  0.257700  1.0  0.1065
  H  H150  1  0.696800  0.009000  0.292700  1.0  0.1025
  H  H151  1  0.723500  0.997800  0.366900  1.0  0.0996
  H  H152  1  0.062300  0.132200  0.372700  1.0  0.1055
  H  H153  1  0.046100  0.869900  0.828600  1.0  0.0963
  H  H154  1  0.119400  0.920200  0.889900  1.0  0.09
  H  H155  1  0.830500  0.816100  0.960500  1.0  0.0885
  H  H156  1  0.754500  0.766000  0.899500  1.0  0.0917
  H  H157  1  0.352600  0.581400  0.757700  1.0  0.1065
  H  H158  1  0.196800  0.509000  0.792700  1.0  0.1025
  H  H159  1  0.223500  0.497800  0.866900  1.0  0.0996
  H  H160  1  0.562300  0.632200  0.872700  1.0  0.1055
  C  C161  1  0.000900  0.858180  0.355630  1.0  0.1284
  C  C162  1  0.957100  0.888410  0.392550  1.0  0.1596
  C  C163  1  0.124600  0.828180  0.433380  1.0  0.1395
  C  C164  1  0.169600  0.797930  0.396750  1.0  0.1306
  C  C165  1  0.433400  0.663380  0.289970  1.0  0.6695
  C  C166  1  0.528800  0.614520  0.311830  1.0  -0.1494
  C  C167  1  0.636800  0.577230  0.288050  1.0  -0.0536
  C  C168  1  0.728900  0.533920  0.308880  1.0  -0.0931
  C  C169  1  0.712300  0.527160  0.353010  1.0  -0.0803
  C  C170  1  0.601400  0.563260  0.377510  1.0  -0.1047
  C  C171  1  0.511300  0.607190  0.356540  1.0  -0.0306
  C  C172  1  0.578300  0.553760  0.425350  1.0  0.6933
  C  C173  1  0.500900  0.358180  0.855630  1.0  0.1284
  C  C174  1  0.457100  0.388410  0.892550  1.0  0.1596
  C  C175  1  0.624600  0.328180  0.933380  1.0  0.1395
  C  C176  1  0.669600  0.297930  0.896750  1.0  0.1306
  C  C177  1  0.933400  0.163380  0.789970  1.0  0.6695
  C  C178  1  0.028800  0.114520  0.811830  1.0  -0.1494
  C  C179  1  0.136800  0.077230  0.788050  1.0  -0.0536
  C  C180  1  0.228900  0.033920  0.808880  1.0  -0.0931
  C  C181  1  0.212300  0.027160  0.853010  1.0  -0.0803
  C  C182  1  0.101400  0.063260  0.877510  1.0  -0.1047
  C  C183  1  0.011300  0.107190  0.856540  1.0  -0.0306
  C  C184  1  0.078300  0.053760  0.925350  1.0  0.6933
  C  C185  1  0.499100  0.141820  0.855630  1.0  0.1275
  C  C186  1  0.542900  0.111590  0.892550  1.0  0.1587
  C  C187  1  0.375400  0.171820  0.933380  1.0  0.1383
  C  C188  1  0.330400  0.202070  0.896750  1.0  0.1294
  C  C189  1  0.066600  0.336620  0.789970  1.0  0.6679
  C  C190  1  0.971200  0.385480  0.811830  1.0  -0.1507
  C  C191  1  0.863200  0.422770  0.788050  1.0  -0.0533
  C  C192  1  0.771100  0.466080  0.808880  1.0  -0.0933
  C  C193  1  0.787700  0.472840  0.853010  1.0  -0.0795
  C  C194  1  0.898600  0.436740  0.877510  1.0  -0.1043
  C  C195  1  0.988700  0.392810  0.856540  1.0  -0.0314
  C  C196  1  0.921700  0.446240  0.925350  1.0  0.6947
  C  C197  1  0.999100  0.641820  0.355630  1.0  0.1275
  C  C198  1  0.042900  0.611590  0.392550  1.0  0.1587
  C  C199  1  0.875400  0.671820  0.433380  1.0  0.1383
  C  C200  1  0.830400  0.702070  0.396750  1.0  0.1294
  C  C201  1  0.566600  0.836620  0.289970  1.0  0.6679
  C  C202  1  0.471200  0.885480  0.311830  1.0  -0.1507
  C  C203  1  0.363200  0.922770  0.288050  1.0  -0.0533
  C  C204  1  0.271100  0.966080  0.308880  1.0  -0.0933
  C  C205  1  0.287700  0.972840  0.353010  1.0  -0.0795
  C  C206  1  0.398600  0.936740  0.377510  1.0  -0.1043
  C  C207  1  0.488700  0.892810  0.356540  1.0  -0.0314
  C  C208  1  0.421700  0.946240  0.425350  1.0  0.6947
  C  C209  1  0.999100  0.358180  0.144370  1.0  0.1279
  C  C210  1  0.042900  0.388410  0.107450  1.0  0.159
  C  C211  1  0.875400  0.328180  0.066620  1.0  0.1386
  C  C212  1  0.830400  0.297930  0.103250  1.0  0.1292
  C  C213  1  0.566600  0.163380  0.210030  1.0  0.6695
  C  C214  1  0.471200  0.114520  0.188170  1.0  -0.1498
  C  C215  1  0.363200  0.077230  0.211950  1.0  -0.055
  C  C216  1  0.271100  0.033920  0.191120  1.0  -0.0926
  C  C217  1  0.287700  0.027160  0.146990  1.0  -0.0796
  C  C218  1  0.398600  0.063260  0.122490  1.0  -0.1036
  C  C219  1  0.488700  0.107190  0.143460  1.0  -0.0313
  C  C220  1  0.421700  0.053760  0.074650  1.0  0.6953
  C  C221  1  0.499100  0.858180  0.644370  1.0  0.1279
  C  C222  1  0.542900  0.888410  0.607450  1.0  0.159
  C  C223  1  0.375400  0.828180  0.566620  1.0  0.1386
  C  C224  1  0.330400  0.797930  0.603250  1.0  0.1292
  C  C225  1  0.066600  0.663380  0.710030  1.0  0.6695
  C  C226  1  0.971200  0.614520  0.688170  1.0  -0.1498
  C  C227  1  0.863200  0.577230  0.711950  1.0  -0.055
  C  C228  1  0.771100  0.533920  0.691120  1.0  -0.0926
  C  C229  1  0.787700  0.527160  0.646990  1.0  -0.0796
  C  C230  1  0.898600  0.563260  0.622490  1.0  -0.1036
  C  C231  1  0.988700  0.607190  0.643460  1.0  -0.0313
  C  C232  1  0.921700  0.553760  0.574650  1.0  0.6953
  C  C233  1  0.500900  0.641820  0.644370  1.0  0.1272
  C  C234  1  0.457100  0.611590  0.607450  1.0  0.1601
  C  C235  1  0.624600  0.671820  0.566620  1.0  0.1382
  C  C236  1  0.669600  0.702070  0.603250  1.0  0.1298
  C  C237  1  0.933400  0.836620  0.710030  1.0  0.6679
  C  C238  1  0.028800  0.885480  0.688170  1.0  -0.1498
  C  C239  1  0.136800  0.922770  0.711950  1.0  -0.0545
  C  C240  1  0.228900  0.966080  0.691120  1.0  -0.0927
  C  C241  1  0.212300  0.972840  0.646990  1.0  -0.0801
  C  C242  1  0.101400  0.936740  0.622490  1.0  -0.1031
  C  C243  1  0.011300  0.892810  0.643460  1.0  -0.0304
  C  C244  1  0.078300  0.946240  0.574650  1.0  0.6945
  C  C245  1  0.000900  0.141820  0.144370  1.0  0.1272
  C  C246  1  0.957100  0.111590  0.107450  1.0  0.1601
  C  C247  1  0.124600  0.171820  0.066620  1.0  0.1382
  C  C248  1  0.169600  0.202070  0.103250  1.0  0.1298
  C  C249  1  0.433400  0.336620  0.210030  1.0  0.6679
  C  C250  1  0.528800  0.385480  0.188170  1.0  -0.1498
  C  C251  1  0.636800  0.422770  0.211950  1.0  -0.0545
  C  C252  1  0.728900  0.466080  0.191120  1.0  -0.0927
  C  C253  1  0.712300  0.472840  0.146990  1.0  -0.0801
  C  C254  1  0.601400  0.436740  0.122490  1.0  -0.1031
  C  C255  1  0.511300  0.392810  0.143460  1.0  -0.0304
  C  C256  1  0.578300  0.446240  0.074650  1.0  0.6945
  C  C257  1  0.999100  0.141820  0.644370  1.0  0.1274
  C  C258  1  0.042900  0.111590  0.607450  1.0  0.1592
  C  C259  1  0.875400  0.171820  0.566620  1.0  0.138
  C  C260  1  0.830400  0.202070  0.603250  1.0  0.1291
  C  C261  1  0.566600  0.336620  0.710030  1.0  0.6681
  C  C262  1  0.471200  0.385480  0.688170  1.0  -0.1503
  C  C263  1  0.363200  0.422770  0.711950  1.0  -0.0545
  C  C264  1  0.271100  0.466080  0.691120  1.0  -0.0927
  C  C265  1  0.287700  0.472840  0.646990  1.0  -0.0795
  C  C266  1  0.398600  0.436740  0.622490  1.0  -0.1033
  C  C267  1  0.488700  0.392810  0.643460  1.0  -0.0319
  C  C268  1  0.421700  0.446240  0.574650  1.0  0.695
  C  C269  1  0.499100  0.641820  0.144370  1.0  0.1274
  C  C270  1  0.542900  0.611590  0.107450  1.0  0.1592
  C  C271  1  0.375400  0.671820  0.066620  1.0  0.138
  C  C272  1  0.330400  0.702070  0.103250  1.0  0.1291
  C  C273  1  0.066600  0.836620  0.210030  1.0  0.6681
  C  C274  1  0.971200  0.885480  0.188170  1.0  -0.1503
  C  C275  1  0.863200  0.922770  0.211950  1.0  -0.0545
  C  C276  1  0.771100  0.966080  0.191120  1.0  -0.0927
  C  C277  1  0.787700  0.972840  0.146990  1.0  -0.0795
  C  C278  1  0.898600  0.936740  0.122490  1.0  -0.1033
  C  C279  1  0.988700  0.892810  0.143460  1.0  -0.0319
  C  C280  1  0.921700  0.946240  0.074650  1.0  0.695
  C  C281  1  0.500900  0.858180  0.144370  1.0  0.1279
  C  C282  1  0.457100  0.888410  0.107450  1.0  0.1603
  C  C283  1  0.624600  0.828180  0.066620  1.0  0.1386
  C  C284  1  0.669600  0.797930  0.103250  1.0  0.1292
  C  C285  1  0.933400  0.663380  0.210030  1.0  0.6694
  C  C286  1  0.028800  0.614520  0.188170  1.0  -0.1501
  C  C287  1  0.136800  0.577230  0.211950  1.0  -0.0551
  C  C288  1  0.228900  0.533920  0.191120  1.0  -0.0929
  C  C289  1  0.212300  0.527160  0.146990  1.0  -0.0803
  C  C290  1  0.101400  0.563260  0.122490  1.0  -0.1034
  C  C291  1  0.011300  0.607190  0.143460  1.0  -0.0308
  C  C292  1  0.078300  0.553760  0.074650  1.0  0.6949
  C  C293  1  0.000900  0.358180  0.644370  1.0  0.1279
  C  C294  1  0.957100  0.388410  0.607450  1.0  0.1603
  C  C295  1  0.124600  0.328180  0.566620  1.0  0.1386
  C  C296  1  0.169600  0.297930  0.603250  1.0  0.1292
  C  C297  1  0.433400  0.163380  0.710030  1.0  0.6694
  C  C298  1  0.528800  0.114520  0.688170  1.0  -0.1501
  C  C299  1  0.636800  0.077230  0.711950  1.0  -0.0551
  C  C300  1  0.728900  0.033920  0.691120  1.0  -0.0929
  C  C301  1  0.712300  0.027160  0.646990  1.0  -0.0803
  C  C302  1  0.601400  0.063260  0.622490  1.0  -0.1034
  C  C303  1  0.511300  0.107190  0.643460  1.0  -0.0308
  C  C304  1  0.578300  0.053760  0.574650  1.0  0.6949
  C  C305  1  0.000900  0.641820  0.855630  1.0  0.128
  C  C306  1  0.957100  0.611590  0.892550  1.0  0.1593
  C  C307  1  0.124600  0.671820  0.933380  1.0  0.139
  C  C308  1  0.169600  0.702070  0.896750  1.0  0.1303
  C  C309  1  0.433400  0.836620  0.789970  1.0  0.6677
  C  C310  1  0.528800  0.885480  0.811830  1.0  -0.1503
  C  C311  1  0.636800  0.922770  0.788050  1.0  -0.0532
  C  C312  1  0.728900  0.966080  0.808880  1.0  -0.0934
  C  C313  1  0.712300  0.972840  0.853010  1.0  -0.08
  C  C314  1  0.601400  0.936740  0.877510  1.0  -0.104
  C  C315  1  0.511300  0.892810  0.856540  1.0  -0.03
  C  C316  1  0.578300  0.946240  0.925350  1.0  0.6939
  C  C317  1  0.500900  0.141820  0.355630  1.0  0.128
  C  C318  1  0.457100  0.111590  0.392550  1.0  0.1593
  C  C319  1  0.624600  0.171820  0.433380  1.0  0.139
  C  C320  1  0.669600  0.202070  0.396750  1.0  0.1303
  C  C321  1  0.933400  0.336620  0.289970  1.0  0.6677
  C  C322  1  0.028800  0.385480  0.311830  1.0  -0.1503
  C  C323  1  0.136800  0.422770  0.288050  1.0  -0.0532
  C  C324  1  0.228900  0.466080  0.308880  1.0  -0.0934
  C  C325  1  0.212300  0.472840  0.353010  1.0  -0.08
  C  C326  1  0.101400  0.436740  0.377510  1.0  -0.104
  C  C327  1  0.011300  0.392810  0.356540  1.0  -0.03
  C  C328  1  0.078300  0.446240  0.425350  1.0  0.6939
  C  C329  1  0.499100  0.358180  0.355630  1.0  0.1278
  C  C330  1  0.542900  0.388410  0.392550  1.0  0.159
  C  C331  1  0.375400  0.328180  0.433380  1.0  0.139
  C  C332  1  0.330400  0.297930  0.396750  1.0  0.1307
  C  C333  1  0.066600  0.163380  0.289970  1.0  0.6695
  C  C334  1  0.971200  0.114520  0.311830  1.0  -0.1492
  C  C335  1  0.863200  0.077230  0.288050  1.0  -0.0538
  C  C336  1  0.771100  0.033920  0.308880  1.0  -0.0927
  C  C337  1  0.787700  0.027160  0.353010  1.0  -0.0797
  C  C338  1  0.898600  0.063260  0.377510  1.0  -0.1049
  C  C339  1  0.988700  0.107190  0.356540  1.0  -0.0309
  C  C340  1  0.921700  0.053760  0.425350  1.0  0.6942
  C  C341  1  0.999100  0.858180  0.855630  1.0  0.1278
  C  C342  1  0.042900  0.888410  0.892550  1.0  0.159
  C  C343  1  0.875400  0.828180  0.933380  1.0  0.139
  C  C344  1  0.830400  0.797930  0.896750  1.0  0.1307
  C  C345  1  0.566600  0.663380  0.789970  1.0  0.6695
  C  C346  1  0.471200  0.614520  0.811830  1.0  -0.1492
  C  C347  1  0.363200  0.577230  0.788050  1.0  -0.0538
  C  C348  1  0.271100  0.533920  0.808880  1.0  -0.0927
  C  C349  1  0.287700  0.527160  0.853010  1.0  -0.0797
  C  C350  1  0.398600  0.563260  0.877510  1.0  -0.1049
  C  C351  1  0.488700  0.607190  0.856540  1.0  -0.0309
  C  C352  1  0.421700  0.553760  0.925350  1.0  0.6942
  N  N353  1  0.108600  0.812640  0.357540  1.0  -0.3623
  N  N354  1  0.019100  0.874210  0.431520  1.0  -0.3515
  N  N355  1  0.608600  0.312640  0.857540  1.0  -0.3623
  N  N356  1  0.519100  0.374210  0.931520  1.0  -0.3515
  N  N357  1  0.391400  0.187360  0.857540  1.0  -0.3618
  N  N358  1  0.480900  0.125790  0.931520  1.0  -0.3497
  N  N359  1  0.891400  0.687360  0.357540  1.0  -0.3618
  N  N360  1  0.980900  0.625790  0.431520  1.0  -0.3497
  N  N361  1  0.891400  0.312640  0.142460  1.0  -0.3617
  N  N362  1  0.980900  0.374210  0.068480  1.0  -0.3509
  N  N363  1  0.391400  0.812640  0.642460  1.0  -0.3617
  N  N364  1  0.480900  0.874210  0.568480  1.0  -0.3509
  N  N365  1  0.608600  0.687360  0.642460  1.0  -0.3623
  N  N366  1  0.519100  0.625790  0.568480  1.0  -0.3526
  N  N367  1  0.108600  0.187360  0.142460  1.0  -0.3623
  N  N368  1  0.019100  0.125790  0.068480  1.0  -0.3526
  N  N369  1  0.891400  0.187360  0.642460  1.0  -0.3629
  N  N370  1  0.980900  0.125790  0.568480  1.0  -0.3524
  N  N371  1  0.391400  0.687360  0.142460  1.0  -0.3629
  N  N372  1  0.480900  0.625790  0.068480  1.0  -0.3524
  N  N373  1  0.608600  0.812640  0.142460  1.0  -0.361
  N  N374  1  0.519100  0.874210  0.068480  1.0  -0.3505
  N  N375  1  0.108600  0.312640  0.642460  1.0  -0.361
  N  N376  1  0.019100  0.374210  0.568480  1.0  -0.3505
  N  N377  1  0.108600  0.687360  0.857540  1.0  -0.3618
  N  N378  1  0.019100  0.625790  0.931520  1.0  -0.3513
  N  N379  1  0.608600  0.187360  0.357540  1.0  -0.3618
  N  N380  1  0.519100  0.125790  0.431520  1.0  -0.3513
  N  N381  1  0.391400  0.312640  0.357540  1.0  -0.3627
  N  N382  1  0.480900  0.374210  0.431520  1.0  -0.35
  N  N383  1  0.891400  0.812640  0.857540  1.0  -0.3627
  N  N384  1  0.980900  0.874210  0.931520  1.0  -0.35
  O  O385  1  0.343600  0.695920  0.314020  1.0  -0.5797
  O  O386  1  0.452700  0.667470  0.249540  1.0  -0.5872
  O  O387  1  0.479400  0.587870  0.446350  1.0  -0.5894
  O  O388  1  0.658300  0.511670  0.441760  1.0  -0.6432
  O  O389  1  0.843600  0.195920  0.814020  1.0  -0.5797
  O  O390  1  0.952700  0.167470  0.749540  1.0  -0.5872
  O  O391  1  0.979400  0.087870  0.946350  1.0  -0.5894
  O  O392  1  0.158300  0.011670  0.941760  1.0  -0.6432
  O  O393  1  0.156400  0.304080  0.814020  1.0  -0.5801
  O  O394  1  0.047300  0.332530  0.749540  1.0  -0.5863
  O  O395  1  0.020600  0.412130  0.946350  1.0  -0.5882
  O  O396  1  0.841700  0.488330  0.941760  1.0  -0.643
  O  O397  1  0.656400  0.804080  0.314020  1.0  -0.5801
  O  O398  1  0.547300  0.832530  0.249540  1.0  -0.5863
  O  O399  1  0.520600  0.912130  0.446350  1.0  -0.5882
  O  O400  1  0.341700  0.988330  0.441760  1.0  -0.643
  O  O401  1  0.656400  0.195920  0.185980  1.0  -0.5809
  O  O402  1  0.547300  0.167470  0.250460  1.0  -0.5883
  O  O403  1  0.520600  0.087870  0.053650  1.0  -0.5881
  O  O404  1  0.341700  0.011670  0.058240  1.0  -0.6423
  O  O405  1  0.156400  0.695920  0.685980  1.0  -0.5809
  O  O406  1  0.047300  0.667470  0.750460  1.0  -0.5883
  O  O407  1  0.020600  0.587870  0.553650  1.0  -0.5881
  O  O408  1  0.841700  0.511670  0.558240  1.0  -0.6423
  O  O409  1  0.843600  0.804080  0.685980  1.0  -0.5812
  O  O410  1  0.952700  0.832530  0.750460  1.0  -0.5882
  O  O411  1  0.979400  0.912130  0.553650  1.0  -0.5877
  O  O412  1  0.158300  0.988330  0.558240  1.0  -0.6413
  O  O413  1  0.343600  0.304080  0.185980  1.0  -0.5812
  O  O414  1  0.452700  0.332530  0.250460  1.0  -0.5882
  O  O415  1  0.479400  0.412130  0.053650  1.0  -0.5877
  O  O416  1  0.658300  0.488330  0.058240  1.0  -0.6413
  O  O417  1  0.656400  0.304080  0.685980  1.0  -0.5815
  O  O418  1  0.547300  0.332530  0.750460  1.0  -0.588
  O  O419  1  0.520600  0.412130  0.553650  1.0  -0.588
  O  O420  1  0.341700  0.488330  0.558240  1.0  -0.6417
  O  O421  1  0.156400  0.804080  0.185980  1.0  -0.5815
  O  O422  1  0.047300  0.832530  0.250460  1.0  -0.588
  O  O423  1  0.020600  0.912130  0.053650  1.0  -0.588
  O  O424  1  0.841700  0.988330  0.058240  1.0  -0.6417
  O  O425  1  0.843600  0.695920  0.185980  1.0  -0.5801
  O  O426  1  0.952700  0.667470  0.250460  1.0  -0.5893
  O  O427  1  0.979400  0.587870  0.053650  1.0  -0.5878
  O  O428  1  0.158300  0.511670  0.058240  1.0  -0.642
  O  O429  1  0.343600  0.195920  0.685980  1.0  -0.5801
  O  O430  1  0.452700  0.167470  0.750460  1.0  -0.5893
  O  O431  1  0.479400  0.087870  0.553650  1.0  -0.5878
  O  O432  1  0.658300  0.011670  0.558240  1.0  -0.642
  O  O433  1  0.343600  0.804080  0.814020  1.0  -0.5799
  O  O434  1  0.452700  0.832530  0.749540  1.0  -0.5872
  O  O435  1  0.479400  0.912130  0.946350  1.0  -0.5888
  O  O436  1  0.658300  0.988330  0.941760  1.0  -0.6421
  O  O437  1  0.843600  0.304080  0.314020  1.0  -0.5799
  O  O438  1  0.952700  0.332530  0.249540  1.0  -0.5872
  O  O439  1  0.979400  0.412130  0.446350  1.0  -0.5888
  O  O440  1  0.158300  0.488330  0.441760  1.0  -0.6421
  O  O441  1  0.156400  0.195920  0.314020  1.0  -0.5801
  O  O442  1  0.047300  0.167470  0.249540  1.0  -0.5869
  O  O443  1  0.020600  0.087870  0.446350  1.0  -0.5887
  O  O444  1  0.841700  0.011670  0.441760  1.0  -0.6434
  O  O445  1  0.656400  0.695920  0.814020  1.0  -0.5801
  O  O446  1  0.547300  0.667470  0.749540  1.0  -0.5869
  O  O447  1  0.520600  0.587870  0.946350  1.0  -0.5887
  O  O448  1  0.341700  0.511670  0.941760  1.0  -0.6434
