# generated using pymatgen
data_AgH4C6NO2
_symmetry_space_group_name_H-M   'P 1'
_cell_length_a   7.17280000
_cell_length_b   23.75370000
_cell_length_c   30.70100000
_cell_angle_alpha   90.00000000
_cell_angle_beta   90.00000000
_cell_angle_gamma   90.00000000
_symmetry_Int_Tables_number   1
_chemical_formula_structural   AgH4C6NO2
_chemical_formula_sum   'Ag32 H128 C192 N32 O64'
_cell_volume   5230.85293889
_cell_formula_units_Z   32
loop_
 _symmetry_equiv_pos_site_id
 _symmetry_equiv_pos_as_xyz
  1  'x, y, z'
loop_
 _atom_site_type_symbol
 _atom_site_label
 _atom_site_symmetry_multiplicity
 _atom_site_fract_x
 _atom_site_fract_y
 _atom_site_fract_z
 _atom_site_occupancy
 _atom_site_charge
  Ag  Ag1  1  0.195370  0.769970  0.290770  1.0  0.4902
  Ag  Ag2  1  0.530580  0.442860  0.484300  1.0  0.4339
  Ag  Ag3  1  0.695370  0.269970  0.790770  1.0  0.4902
  Ag  Ag4  1  0.030580  0.942860  0.984300  1.0  0.4339
  Ag  Ag5  1  0.304630  0.230030  0.790770  1.0  0.49
  Ag  Ag6  1  0.969420  0.557140  0.984300  1.0  0.4336
  Ag  Ag7  1  0.804630  0.730030  0.290770  1.0  0.49
  Ag  Ag8  1  0.469420  0.057140  0.484300  1.0  0.4336
  Ag  Ag9  1  0.804630  0.269970  0.209230  1.0  0.4899
  Ag  Ag10  1  0.469420  0.942860  0.015700  1.0  0.4333
  Ag  Ag11  1  0.304630  0.769970  0.709230  1.0  0.4899
  Ag  Ag12  1  0.969420  0.442860  0.515700  1.0  0.4333
  Ag  Ag13  1  0.695370  0.730030  0.709230  1.0  0.4907
  Ag  Ag14  1  0.030580  0.057140  0.515700  1.0  0.433
  Ag  Ag15  1  0.195370  0.230030  0.209230  1.0  0.4907
  Ag  Ag16  1  0.530580  0.557140  0.015700  1.0  0.433
  Ag  Ag17  1  0.804630  0.230030  0.709230  1.0  0.4902
  Ag  Ag18  1  0.469420  0.557140  0.515700  1.0  0.433
  Ag  Ag19  1  0.304630  0.730030  0.209230  1.0  0.4902
  Ag  Ag20  1  0.969420  0.057140  0.015700  1.0  0.433
  Ag  Ag21  1  0.695370  0.769970  0.209230  1.0  0.4904
  Ag  Ag22  1  0.030580  0.442860  0.015700  1.0  0.4333
  Ag  Ag23  1  0.195370  0.269970  0.709230  1.0  0.4904
  Ag  Ag24  1  0.530580  0.942860  0.515700  1.0  0.4333
  Ag  Ag25  1  0.195370  0.730030  0.790770  1.0  0.4904
  Ag  Ag26  1  0.530580  0.057140  0.984300  1.0  0.4336
  Ag  Ag27  1  0.695370  0.230030  0.290770  1.0  0.4904
  Ag  Ag28  1  0.030580  0.557140  0.484300  1.0  0.4336
  Ag  Ag29  1  0.304630  0.269970  0.290770  1.0  0.4898
  Ag  Ag30  1  0.969420  0.942860  0.484300  1.0  0.434
  Ag  Ag31  1  0.804630  0.769970  0.790770  1.0  0.4898
  Ag  Ag32  1  0.469420  0.442860  0.984300  1.0  0.434
  H  H33  1  0.952600  0.870300  0.328200  1.0  0.1018
  H  H34  1  0.876800  0.920600  0.390000  1.0  0.0941
  H  H35  1  0.170500  0.816300  0.461200  1.0  0.1021
  H  H36  1  0.245400  0.765100  0.399800  1.0  0.1017
  H  H37  1  0.650100  0.581400  0.257000  1.0  0.1081
  H  H38  1  0.806700  0.507900  0.292400  1.0  0.108
  H  H39  1  0.781300  0.497600  0.367000  1.0  0.0989
  H  H40  1  0.438700  0.632500  0.372900  1.0  0.1123
  H  H41  1  0.452600  0.370300  0.828200  1.0  0.1018
  H  H42  1  0.376800  0.420600  0.890000  1.0  0.0941
  H  H43  1  0.670500  0.316300  0.961200  1.0  0.1021
  H  H44  1  0.745400  0.265100  0.899800  1.0  0.1017
  H  H45  1  0.150100  0.081400  0.757000  1.0  0.1081
  H  H46  1  0.306700  0.007900  0.792400  1.0  0.108
  H  H47  1  0.281300  0.997600  0.867000  1.0  0.0989
  H  H48  1  0.938700  0.132500  0.872900  1.0  0.1123
  H  H49  1  0.547400  0.129700  0.828200  1.0  0.1024
  H  H50  1  0.623200  0.079400  0.890000  1.0  0.0938
  H  H51  1  0.329500  0.183700  0.961200  1.0  0.1028
  H  H52  1  0.254600  0.234900  0.899800  1.0  0.1021
  H  H53  1  0.849900  0.418600  0.757000  1.0  0.1082
  H  H54  1  0.693300  0.492100  0.792400  1.0  0.1079
  H  H55  1  0.718700  0.502400  0.867000  1.0  0.099
  H  H56  1  0.061300  0.367500  0.872900  1.0  0.1127
  H  H57  1  0.047400  0.629700  0.328200  1.0  0.1024
  H  H58  1  0.123200  0.579400  0.390000  1.0  0.0938
  H  H59  1  0.829500  0.683700  0.461200  1.0  0.1028
  H  H60  1  0.754600  0.734900  0.399800  1.0  0.1021
  H  H61  1  0.349900  0.918600  0.257000  1.0  0.1082
  H  H62  1  0.193300  0.992100  0.292400  1.0  0.1079
  H  H63  1  0.218700  0.002400  0.367000  1.0  0.099
  H  H64  1  0.561300  0.867500  0.372900  1.0  0.1127
  H  H65  1  0.047400  0.370300  0.171800  1.0  0.1024
  H  H66  1  0.123200  0.420600  0.110000  1.0  0.0936
  H  H67  1  0.829500  0.316300  0.038800  1.0  0.1026
  H  H68  1  0.754600  0.265100  0.100200  1.0  0.1011
  H  H69  1  0.349900  0.081400  0.243000  1.0  0.1086
  H  H70  1  0.193300  0.007900  0.207600  1.0  0.1083
  H  H71  1  0.218700  0.997600  0.133000  1.0  0.099
  H  H72  1  0.561300  0.132500  0.127100  1.0  0.1125
  H  H73  1  0.547400  0.870300  0.671800  1.0  0.1024
  H  H74  1  0.623200  0.920600  0.610000  1.0  0.0936
  H  H75  1  0.329500  0.816300  0.538800  1.0  0.1026
  H  H76  1  0.254600  0.765100  0.600200  1.0  0.1011
  H  H77  1  0.849900  0.581400  0.743000  1.0  0.1086
  H  H78  1  0.693300  0.507900  0.707600  1.0  0.1083
  H  H79  1  0.718700  0.497600  0.633000  1.0  0.099
  H  H80  1  0.061300  0.632500  0.627100  1.0  0.1125
  H  H81  1  0.452600  0.629700  0.671800  1.0  0.1018
  H  H82  1  0.376800  0.579400  0.610000  1.0  0.0939
  H  H83  1  0.670500  0.683700  0.538800  1.0  0.1028
  H  H84  1  0.745400  0.734900  0.600200  1.0  0.1018
  H  H85  1  0.150100  0.918600  0.743000  1.0  0.1085
  H  H86  1  0.306700  0.992100  0.707600  1.0  0.1084
  H  H87  1  0.281300  0.002400  0.633000  1.0  0.0993
  H  H88  1  0.938700  0.867500  0.627100  1.0  0.1121
  H  H89  1  0.952600  0.129700  0.171800  1.0  0.1018
  H  H90  1  0.876800  0.079400  0.110000  1.0  0.0939
  H  H91  1  0.170500  0.183700  0.038800  1.0  0.1028
  H  H92  1  0.245400  0.234900  0.100200  1.0  0.1018
  H  H93  1  0.650100  0.418600  0.243000  1.0  0.1085
  H  H94  1  0.806700  0.492100  0.207600  1.0  0.1084
  H  H95  1  0.781300  0.502400  0.133000  1.0  0.0993
  H  H96  1  0.438700  0.367500  0.127100  1.0  0.1121
  H  H97  1  0.047400  0.129700  0.671800  1.0  0.1023
  H  H98  1  0.123200  0.079400  0.610000  1.0  0.0936
  H  H99  1  0.829500  0.183700  0.538800  1.0  0.1031
  H  H100  1  0.754600  0.234900  0.600200  1.0  0.102
  H  H101  1  0.349900  0.418600  0.743000  1.0  0.1087
  H  H102  1  0.193300  0.492100  0.707600  1.0  0.108
  H  H103  1  0.218700  0.502400  0.633000  1.0  0.0996
  H  H104  1  0.561300  0.367500  0.627100  1.0  0.1122
  H  H105  1  0.547400  0.629700  0.171800  1.0  0.1023
  H  H106  1  0.623200  0.579400  0.110000  1.0  0.0936
  H  H107  1  0.329500  0.683700  0.038800  1.0  0.1031
  H  H108  1  0.254600  0.734900  0.100200  1.0  0.102
  H  H109  1  0.849900  0.918600  0.243000  1.0  0.1087
  H  H110  1  0.693300  0.992100  0.207600  1.0  0.108
  H  H111  1  0.718700  0.002400  0.133000  1.0  0.0996
  H  H112  1  0.061300  0.867500  0.127100  1.0  0.1122
  H  H113  1  0.452600  0.870300  0.171800  1.0  0.102
  H  H114  1  0.376800  0.920600  0.110000  1.0  0.0942
  H  H115  1  0.670500  0.816300  0.038800  1.0  0.1023
  H  H116  1  0.745400  0.765100  0.100200  1.0  0.1016
  H  H117  1  0.150100  0.581400  0.243000  1.0  0.1085
  H  H118  1  0.306700  0.507900  0.207600  1.0  0.1088
  H  H119  1  0.281300  0.497600  0.133000  1.0  0.0987
  H  H120  1  0.938700  0.632500  0.127100  1.0  0.1125
  H  H121  1  0.952600  0.370300  0.671800  1.0  0.102
  H  H122  1  0.876800  0.420600  0.610000  1.0  0.0942
  H  H123  1  0.170500  0.316300  0.538800  1.0  0.1023
  H  H124  1  0.245400  0.265100  0.600200  1.0  0.1016
  H  H125  1  0.650100  0.081400  0.743000  1.0  0.1085
  H  H126  1  0.806700  0.007900  0.707600  1.0  0.1088
  H  H127  1  0.781300  0.997600  0.633000  1.0  0.0987
  H  H128  1  0.438700  0.132500  0.627100  1.0  0.1125
  H  H129  1  0.952600  0.629700  0.828200  1.0  0.1021
  H  H130  1  0.876800  0.579400  0.890000  1.0  0.094
  H  H131  1  0.170500  0.683700  0.961200  1.0  0.1025
  H  H132  1  0.245400  0.734900  0.899800  1.0  0.1018
  H  H133  1  0.650100  0.918600  0.757000  1.0  0.1078
  H  H134  1  0.806700  0.992100  0.792400  1.0  0.1082
  H  H135  1  0.781300  0.002400  0.867000  1.0  0.0986
  H  H136  1  0.438700  0.867500  0.872900  1.0  0.1125
  H  H137  1  0.452600  0.129700  0.328200  1.0  0.1021
  H  H138  1  0.376800  0.079400  0.390000  1.0  0.094
  H  H139  1  0.670500  0.183700  0.461200  1.0  0.1025
  H  H140  1  0.745400  0.234900  0.399800  1.0  0.1018
  H  H141  1  0.150100  0.418600  0.257000  1.0  0.1078
  H  H142  1  0.306700  0.492100  0.292400  1.0  0.1082
  H  H143  1  0.281300  0.502400  0.367000  1.0  0.0986
  H  H144  1  0.938700  0.367500  0.372900  1.0  0.1125
  H  H145  1  0.547400  0.370300  0.328200  1.0  0.1021
  H  H146  1  0.623200  0.420600  0.390000  1.0  0.094
  H  H147  1  0.329500  0.316300  0.461200  1.0  0.1025
  H  H148  1  0.254600  0.265100  0.399800  1.0  0.1014
  H  H149  1  0.849900  0.081400  0.257000  1.0  0.1084
  H  H150  1  0.693300  0.007900  0.292400  1.0  0.1075
  H  H151  1  0.718700  0.997600  0.367000  1.0  0.0993
  H  H152  1  0.061300  0.132500  0.372900  1.0  0.1125
  H  H153  1  0.047400  0.870300  0.828200  1.0  0.1021
  H  H154  1  0.123200  0.920600  0.890000  1.0  0.094
  H  H155  1  0.829500  0.816300  0.961200  1.0  0.1025
  H  H156  1  0.754600  0.765100  0.899800  1.0  0.1014
  H  H157  1  0.349900  0.581400  0.757000  1.0  0.1084
  H  H158  1  0.193300  0.507900  0.792400  1.0  0.1075
  H  H159  1  0.218700  0.497600  0.867000  1.0  0.0993
  H  H160  1  0.561300  0.632500  0.872900  1.0  0.1125
  C  C161  1  0.999600  0.858300  0.355580  1.0  0.1283
  C  C162  1  0.955000  0.888510  0.392640  1.0  0.1458
  C  C163  1  0.124300  0.828180  0.433720  1.0  0.1209
  C  C164  1  0.169100  0.797560  0.396990  1.0  0.1318
  C  C165  1  0.435000  0.663480  0.289820  1.0  0.6801
  C  C166  1  0.530700  0.614530  0.311730  1.0  -0.1435
  C  C167  1  0.639400  0.577060  0.287680  1.0  -0.047
  C  C168  1  0.732100  0.533380  0.308650  1.0  -0.092
  C  C169  1  0.715700  0.527090  0.352850  1.0  -0.0999
  C  C170  1  0.604700  0.563220  0.377330  1.0  -0.1024
  C  C171  1  0.513400  0.607240  0.356450  1.0  -0.062
  C  C172  1  0.581000  0.553660  0.425400  1.0  0.6935
  C  C173  1  0.499600  0.358300  0.855580  1.0  0.1283
  C  C174  1  0.455000  0.388510  0.892640  1.0  0.1458
  C  C175  1  0.624300  0.328180  0.933720  1.0  0.1209
  C  C176  1  0.669100  0.297560  0.896990  1.0  0.1318
  C  C177  1  0.935000  0.163480  0.789820  1.0  0.6801
  C  C178  1  0.030700  0.114530  0.811730  1.0  -0.1435
  C  C179  1  0.139400  0.077060  0.787680  1.0  -0.047
  C  C180  1  0.232100  0.033380  0.808650  1.0  -0.092
  C  C181  1  0.215700  0.027090  0.852850  1.0  -0.0999
  C  C182  1  0.104700  0.063220  0.877330  1.0  -0.1024
  C  C183  1  0.013400  0.107240  0.856450  1.0  -0.062
  C  C184  1  0.081000  0.053660  0.925400  1.0  0.6935
  C  C185  1  0.500400  0.141700  0.855580  1.0  0.1276
  C  C186  1  0.545000  0.111490  0.892640  1.0  0.1454
  C  C187  1  0.375700  0.171820  0.933720  1.0  0.1195
  C  C188  1  0.330900  0.202440  0.896990  1.0  0.1307
  C  C189  1  0.065000  0.336520  0.789820  1.0  0.6794
  C  C190  1  0.969300  0.385470  0.811730  1.0  -0.1439
  C  C191  1  0.860600  0.422940  0.787680  1.0  -0.0473
  C  C192  1  0.767900  0.466620  0.808650  1.0  -0.0909
  C  C193  1  0.784300  0.472910  0.852850  1.0  -0.0997
  C  C194  1  0.895300  0.436780  0.877330  1.0  -0.1023
  C  C195  1  0.986600  0.392760  0.856450  1.0  -0.0614
  C  C196  1  0.919000  0.446340  0.925400  1.0  0.6946
  C  C197  1  0.000400  0.641700  0.355580  1.0  0.1276
  C  C198  1  0.045000  0.611490  0.392640  1.0  0.1454
  C  C199  1  0.875700  0.671820  0.433720  1.0  0.1195
  C  C200  1  0.830900  0.702440  0.396990  1.0  0.1307
  C  C201  1  0.565000  0.836520  0.289820  1.0  0.6794
  C  C202  1  0.469300  0.885470  0.311730  1.0  -0.1439
  C  C203  1  0.360600  0.922940  0.287680  1.0  -0.0473
  C  C204  1  0.267900  0.966620  0.308650  1.0  -0.0909
  C  C205  1  0.284300  0.972910  0.352850  1.0  -0.0997
  C  C206  1  0.395300  0.936780  0.377330  1.0  -0.1023
  C  C207  1  0.486600  0.892760  0.356450  1.0  -0.0614
  C  C208  1  0.419000  0.946340  0.425400  1.0  0.6946
  C  C209  1  0.000400  0.358300  0.144420  1.0  0.1284
  C  C210  1  0.045000  0.388510  0.107360  1.0  0.1451
  C  C211  1  0.875700  0.328180  0.066280  1.0  0.1211
  C  C212  1  0.830900  0.297560  0.103010  1.0  0.131
  C  C213  1  0.565000  0.163480  0.210180  1.0  0.6806
  C  C214  1  0.469300  0.114530  0.188270  1.0  -0.1438
  C  C215  1  0.360600  0.077060  0.212320  1.0  -0.0475
  C  C216  1  0.267900  0.033380  0.191350  1.0  -0.0901
  C  C217  1  0.284300  0.027090  0.147150  1.0  -0.0993
  C  C218  1  0.395300  0.063220  0.122670  1.0  -0.1018
  C  C219  1  0.486600  0.107240  0.143550  1.0  -0.0615
  C  C220  1  0.419000  0.053660  0.074600  1.0  0.6933
  C  C221  1  0.500400  0.858300  0.644420  1.0  0.1284
  C  C222  1  0.545000  0.888510  0.607360  1.0  0.1451
  C  C223  1  0.375700  0.828180  0.566280  1.0  0.1211
  C  C224  1  0.330900  0.797560  0.603010  1.0  0.131
  C  C225  1  0.065000  0.663480  0.710180  1.0  0.6806
  C  C226  1  0.969300  0.614530  0.688270  1.0  -0.1438
  C  C227  1  0.860600  0.577060  0.712320  1.0  -0.0475
  C  C228  1  0.767900  0.533380  0.691350  1.0  -0.0901
  C  C229  1  0.784300  0.527090  0.647150  1.0  -0.0993
  C  C230  1  0.895300  0.563220  0.622670  1.0  -0.1018
  C  C231  1  0.986600  0.607240  0.643550  1.0  -0.0615
  C  C232  1  0.919000  0.553660  0.574600  1.0  0.6933
  C  C233  1  0.499600  0.641700  0.644420  1.0  0.1271
  C  C234  1  0.455000  0.611490  0.607360  1.0  0.1457
  C  C235  1  0.624300  0.671820  0.566280  1.0  0.1206
  C  C236  1  0.669100  0.702440  0.603010  1.0  0.1315
  C  C237  1  0.935000  0.836520  0.710180  1.0  0.6793
  C  C238  1  0.030700  0.885470  0.688270  1.0  -0.1436
  C  C239  1  0.139400  0.922940  0.712320  1.0  -0.0469
  C  C240  1  0.232100  0.966620  0.691350  1.0  -0.0906
  C  C241  1  0.215700  0.972910  0.647150  1.0  -0.0996
  C  C242  1  0.104700  0.936780  0.622670  1.0  -0.1014
  C  C243  1  0.013400  0.892760  0.643550  1.0  -0.0608
  C  C244  1  0.081000  0.946340  0.574600  1.0  0.6929
  C  C245  1  0.999600  0.141700  0.144420  1.0  0.1271
  C  C246  1  0.955000  0.111490  0.107360  1.0  0.1457
  C  C247  1  0.124300  0.171820  0.066280  1.0  0.1206
  C  C248  1  0.169100  0.202440  0.103010  1.0  0.1315
  C  C249  1  0.435000  0.336520  0.210180  1.0  0.6793
  C  C250  1  0.530700  0.385470  0.188270  1.0  -0.1436
  C  C251  1  0.639400  0.422940  0.212320  1.0  -0.0469
  C  C252  1  0.732100  0.466620  0.191350  1.0  -0.0906
  C  C253  1  0.715700  0.472910  0.147150  1.0  -0.0996
  C  C254  1  0.604700  0.436780  0.122670  1.0  -0.1014
  C  C255  1  0.513400  0.392760  0.143550  1.0  -0.0608
  C  C256  1  0.581000  0.446340  0.074600  1.0  0.6929
  C  C257  1  0.000400  0.141700  0.644420  1.0  0.1277
  C  C258  1  0.045000  0.111490  0.607360  1.0  0.1452
  C  C259  1  0.875700  0.171820  0.566280  1.0  0.1208
  C  C260  1  0.830900  0.202440  0.603010  1.0  0.131
  C  C261  1  0.565000  0.336520  0.710180  1.0  0.6797
  C  C262  1  0.469300  0.385470  0.688270  1.0  -0.1438
  C  C263  1  0.360600  0.422940  0.712320  1.0  -0.0471
  C  C264  1  0.267900  0.466620  0.691350  1.0  -0.0902
  C  C265  1  0.284300  0.472910  0.647150  1.0  -0.0994
  C  C266  1  0.395300  0.436780  0.622670  1.0  -0.1016
  C  C267  1  0.486600  0.392760  0.643550  1.0  -0.0613
  C  C268  1  0.419000  0.446340  0.574600  1.0  0.6931
  C  C269  1  0.500400  0.641700  0.144420  1.0  0.1277
  C  C270  1  0.545000  0.611490  0.107360  1.0  0.1452
  C  C271  1  0.375700  0.671820  0.066280  1.0  0.1208
  C  C272  1  0.330900  0.702440  0.103010  1.0  0.131
  C  C273  1  0.065000  0.836520  0.210180  1.0  0.6797
  C  C274  1  0.969300  0.885470  0.188270  1.0  -0.1438
  C  C275  1  0.860600  0.922940  0.212320  1.0  -0.0471
  C  C276  1  0.767900  0.966620  0.191350  1.0  -0.0902
  C  C277  1  0.784300  0.972910  0.147150  1.0  -0.0994
  C  C278  1  0.895300  0.936780  0.122670  1.0  -0.1016
  C  C279  1  0.986600  0.892760  0.143550  1.0  -0.0613
  C  C280  1  0.919000  0.946340  0.074600  1.0  0.6931
  C  C281  1  0.499600  0.858300  0.144420  1.0  0.1279
  C  C282  1  0.455000  0.888510  0.107360  1.0  0.146
  C  C283  1  0.624300  0.828180  0.066280  1.0  0.121
  C  C284  1  0.669100  0.797560  0.103010  1.0  0.1308
  C  C285  1  0.935000  0.663480  0.210180  1.0  0.6802
  C  C286  1  0.030700  0.614530  0.188270  1.0  -0.1439
  C  C287  1  0.139400  0.577060  0.212320  1.0  -0.0475
  C  C288  1  0.232100  0.533380  0.191350  1.0  -0.091
  C  C289  1  0.215700  0.527090  0.147150  1.0  -0.0996
  C  C290  1  0.104700  0.563220  0.122670  1.0  -0.1016
  C  C291  1  0.013400  0.607240  0.143550  1.0  -0.0616
  C  C292  1  0.081000  0.553660  0.074600  1.0  0.6932
  C  C293  1  0.999600  0.358300  0.644420  1.0  0.1279
  C  C294  1  0.955000  0.388510  0.607360  1.0  0.146
  C  C295  1  0.124300  0.328180  0.566280  1.0  0.121
  C  C296  1  0.169100  0.297560  0.603010  1.0  0.1308
  C  C297  1  0.435000  0.163480  0.710180  1.0  0.6802
  C  C298  1  0.530700  0.114530  0.688270  1.0  -0.1439
  C  C299  1  0.639400  0.077060  0.712320  1.0  -0.0475
  C  C300  1  0.732100  0.033380  0.691350  1.0  -0.091
  C  C301  1  0.715700  0.027090  0.647150  1.0  -0.0996
  C  C302  1  0.604700  0.063220  0.622670  1.0  -0.1016
  C  C303  1  0.513400  0.107240  0.643550  1.0  -0.0616
  C  C304  1  0.581000  0.053660  0.574600  1.0  0.6932
  C  C305  1  0.999600  0.641700  0.855580  1.0  0.1278
  C  C306  1  0.955000  0.611490  0.892640  1.0  0.1455
  C  C307  1  0.124300  0.671820  0.933720  1.0  0.1201
  C  C308  1  0.169100  0.702440  0.896990  1.0  0.1316
  C  C309  1  0.435000  0.836520  0.789820  1.0  0.679
  C  C310  1  0.530700  0.885470  0.811730  1.0  -0.1439
  C  C311  1  0.639400  0.922940  0.787680  1.0  -0.047
  C  C312  1  0.732100  0.966620  0.808650  1.0  -0.0917
  C  C313  1  0.715700  0.972910  0.852850  1.0  -0.0998
  C  C314  1  0.604700  0.936780  0.877330  1.0  -0.1019
  C  C315  1  0.513400  0.892760  0.856450  1.0  -0.0611
  C  C316  1  0.581000  0.946340  0.925400  1.0  0.6941
  C  C317  1  0.499600  0.141700  0.355580  1.0  0.1278
  C  C318  1  0.455000  0.111490  0.392640  1.0  0.1455
  C  C319  1  0.624300  0.171820  0.433720  1.0  0.1201
  C  C320  1  0.669100  0.202440  0.396990  1.0  0.1316
  C  C321  1  0.935000  0.336520  0.289820  1.0  0.679
  C  C322  1  0.030700  0.385470  0.311730  1.0  -0.1439
  C  C323  1  0.139400  0.422940  0.287680  1.0  -0.047
  C  C324  1  0.232100  0.466620  0.308650  1.0  -0.0917
  C  C325  1  0.215700  0.472910  0.352850  1.0  -0.0998
  C  C326  1  0.104700  0.436780  0.377330  1.0  -0.1019
  C  C327  1  0.013400  0.392760  0.356450  1.0  -0.0611
  C  C328  1  0.081000  0.446340  0.425400  1.0  0.6941
  C  C329  1  0.500400  0.358300  0.355580  1.0  0.1281
  C  C330  1  0.545000  0.388510  0.392640  1.0  0.1457
  C  C331  1  0.375700  0.328180  0.433720  1.0  0.1202
  C  C332  1  0.330900  0.297560  0.396990  1.0  0.1318
  C  C333  1  0.065000  0.163480  0.289820  1.0  0.6804
  C  C334  1  0.969300  0.114530  0.311730  1.0  -0.1434
  C  C335  1  0.860600  0.077060  0.287680  1.0  -0.0473
  C  C336  1  0.767900  0.033380  0.308650  1.0  -0.0908
  C  C337  1  0.784300  0.027090  0.352850  1.0  -0.0995
  C  C338  1  0.895300  0.063220  0.377330  1.0  -0.1028
  C  C339  1  0.986600  0.107240  0.356450  1.0  -0.0614
  C  C340  1  0.919000  0.053660  0.425400  1.0  0.694
  C  C341  1  0.000400  0.858300  0.855580  1.0  0.1281
  C  C342  1  0.045000  0.888510  0.892640  1.0  0.1457
  C  C343  1  0.875700  0.828180  0.933720  1.0  0.1202
  C  C344  1  0.830900  0.797560  0.896990  1.0  0.1318
  C  C345  1  0.565000  0.663480  0.789820  1.0  0.6804
  C  C346  1  0.469300  0.614530  0.811730  1.0  -0.1434
  C  C347  1  0.360600  0.577060  0.787680  1.0  -0.0473
  C  C348  1  0.267900  0.533380  0.808650  1.0  -0.0908
  C  C349  1  0.284300  0.527090  0.852850  1.0  -0.0995
  C  C350  1  0.395300  0.563220  0.877330  1.0  -0.1028
  C  C351  1  0.486600  0.607240  0.856450  1.0  -0.0614
  C  C352  1  0.419000  0.553660  0.925400  1.0  0.694
  N  N353  1  0.107600  0.812580  0.357640  1.0  -0.359
  N  N354  1  0.017200  0.874250  0.431580  1.0  -0.3533
  N  N355  1  0.607600  0.312580  0.857640  1.0  -0.359
  N  N356  1  0.517200  0.374250  0.931580  1.0  -0.3533
  N  N357  1  0.392400  0.187420  0.857640  1.0  -0.3598
  N  N358  1  0.482800  0.125750  0.931580  1.0  -0.3516
  N  N359  1  0.892400  0.687420  0.357640  1.0  -0.3598
  N  N360  1  0.982800  0.625750  0.431580  1.0  -0.3516
  N  N361  1  0.892400  0.312580  0.142360  1.0  -0.358
  N  N362  1  0.982800  0.374250  0.068420  1.0  -0.3509
  N  N363  1  0.392400  0.812580  0.642360  1.0  -0.358
  N  N364  1  0.482800  0.874250  0.568420  1.0  -0.3509
  N  N365  1  0.607600  0.687420  0.642360  1.0  -0.3579
  N  N366  1  0.517200  0.625750  0.568420  1.0  -0.3528
  N  N367  1  0.107600  0.187420  0.142360  1.0  -0.3579
  N  N368  1  0.017200  0.125750  0.068420  1.0  -0.3528
  N  N369  1  0.892400  0.187420  0.642360  1.0  -0.3591
  N  N370  1  0.982800  0.125750  0.568420  1.0  -0.3526
  N  N371  1  0.392400  0.687420  0.142360  1.0  -0.3591
  N  N372  1  0.482800  0.625750  0.068420  1.0  -0.3526
  N  N373  1  0.607600  0.812580  0.142360  1.0  -0.3568
  N  N374  1  0.517200  0.874250  0.068420  1.0  -0.3508
  N  N375  1  0.107600  0.312580  0.642360  1.0  -0.3568
  N  N376  1  0.017200  0.374250  0.568420  1.0  -0.3508
  N  N377  1  0.107600  0.687420  0.857640  1.0  -0.3586
  N  N378  1  0.017200  0.625750  0.931580  1.0  -0.3532
  N  N379  1  0.607600  0.187420  0.357640  1.0  -0.3586
  N  N380  1  0.517200  0.125750  0.431580  1.0  -0.3532
  N  N381  1  0.392400  0.312580  0.357640  1.0  -0.3603
  N  N382  1  0.482800  0.374250  0.431580  1.0  -0.3516
  N  N383  1  0.892400  0.812580  0.857640  1.0  -0.3603
  N  N384  1  0.982800  0.874250  0.931580  1.0  -0.3516
  O  O385  1  0.345000  0.695830  0.314010  1.0  -0.5777
  O  O386  1  0.453800  0.667200  0.249190  1.0  -0.5928
  O  O387  1  0.482300  0.587810  0.446420  1.0  -0.5731
  O  O388  1  0.661200  0.511250  0.441560  1.0  -0.652
  O  O389  1  0.845000  0.195830  0.814010  1.0  -0.5777
  O  O390  1  0.953800  0.167200  0.749190  1.0  -0.5928
  O  O391  1  0.982300  0.087810  0.946420  1.0  -0.5731
  O  O392  1  0.161200  0.011250  0.941560  1.0  -0.652
  O  O393  1  0.155000  0.304170  0.814010  1.0  -0.578
  O  O394  1  0.046200  0.332800  0.749190  1.0  -0.5927
  O  O395  1  0.017700  0.412190  0.946420  1.0  -0.5711
  O  O396  1  0.838800  0.488750  0.941560  1.0  -0.6521
  O  O397  1  0.655000  0.804170  0.314010  1.0  -0.578
  O  O398  1  0.546200  0.832800  0.249190  1.0  -0.5927
  O  O399  1  0.517700  0.912190  0.446420  1.0  -0.5711
  O  O400  1  0.338800  0.988750  0.441560  1.0  -0.6521
  O  O401  1  0.655000  0.195830  0.185990  1.0  -0.5784
  O  O402  1  0.546200  0.167200  0.250810  1.0  -0.5931
  O  O403  1  0.517700  0.087810  0.053580  1.0  -0.5718
  O  O404  1  0.338800  0.011250  0.058440  1.0  -0.653
  O  O405  1  0.155000  0.695830  0.685990  1.0  -0.5784
  O  O406  1  0.046200  0.667200  0.750810  1.0  -0.5931
  O  O407  1  0.017700  0.587810  0.553580  1.0  -0.5718
  O  O408  1  0.838800  0.511250  0.558440  1.0  -0.653
  O  O409  1  0.845000  0.804170  0.685990  1.0  -0.5789
  O  O410  1  0.953800  0.832800  0.750810  1.0  -0.5928
  O  O411  1  0.982300  0.912190  0.553580  1.0  -0.5711
  O  O412  1  0.161200  0.988750  0.558440  1.0  -0.652
  O  O413  1  0.345000  0.304170  0.185990  1.0  -0.5789
  O  O414  1  0.453800  0.332800  0.250810  1.0  -0.5928
  O  O415  1  0.482300  0.412190  0.053580  1.0  -0.5711
  O  O416  1  0.661200  0.488750  0.058440  1.0  -0.652
  O  O417  1  0.655000  0.304170  0.685990  1.0  -0.5792
  O  O418  1  0.546200  0.332800  0.750810  1.0  -0.5926
  O  O419  1  0.517700  0.412190  0.553580  1.0  -0.5711
  O  O420  1  0.338800  0.488750  0.558440  1.0  -0.6524
  O  O421  1  0.155000  0.804170  0.185990  1.0  -0.5792
  O  O422  1  0.046200  0.832800  0.250810  1.0  -0.5926
  O  O423  1  0.017700  0.912190  0.053580  1.0  -0.5711
  O  O424  1  0.838800  0.988750  0.058440  1.0  -0.6524
  O  O425  1  0.845000  0.695830  0.185990  1.0  -0.5777
  O  O426  1  0.953800  0.667200  0.250810  1.0  -0.5934
  O  O427  1  0.982300  0.587810  0.053580  1.0  -0.572
  O  O428  1  0.161200  0.511250  0.058440  1.0  -0.6525
  O  O429  1  0.345000  0.195830  0.685990  1.0  -0.5777
  O  O430  1  0.453800  0.167200  0.750810  1.0  -0.5934
  O  O431  1  0.482300  0.087810  0.553580  1.0  -0.572
  O  O432  1  0.661200  0.011250  0.558440  1.0  -0.6525
  O  O433  1  0.345000  0.804170  0.814010  1.0  -0.5779
  O  O434  1  0.453800  0.832800  0.749190  1.0  -0.5929
  O  O435  1  0.482300  0.912190  0.946420  1.0  -0.5719
  O  O436  1  0.661200  0.988750  0.941560  1.0  -0.6515
  O  O437  1  0.845000  0.304170  0.314010  1.0  -0.5779
  O  O438  1  0.953800  0.332800  0.249190  1.0  -0.5929
  O  O439  1  0.982300  0.412190  0.446420  1.0  -0.5719
  O  O440  1  0.161200  0.488750  0.441560  1.0  -0.6515
  O  O441  1  0.155000  0.195830  0.314010  1.0  -0.578
  O  O442  1  0.046200  0.167200  0.249190  1.0  -0.5924
  O  O443  1  0.017700  0.087810  0.446420  1.0  -0.5719
  O  O444  1  0.838800  0.011250  0.441560  1.0  -0.6522
  O  O445  1  0.655000  0.695830  0.814010  1.0  -0.578
  O  O446  1  0.546200  0.667200  0.749190  1.0  -0.5924
  O  O447  1  0.517700  0.587810  0.946420  1.0  -0.5719
  O  O448  1  0.338800  0.511250  0.941560  1.0  -0.6522
