# generated using pymatgen
data_LaCu4H24C36I4(NO2)3
_symmetry_space_group_name_H-M   'P 1'
_cell_length_a   9.77600000
_cell_length_b   16.33700000
_cell_length_c   21.53400000
_cell_angle_alpha   103.82000000
_cell_angle_beta   100.74000000
_cell_angle_gamma   95.87000000
_symmetry_Int_Tables_number   1
_chemical_formula_structural   LaCu4H24C36I4(NO2)3
_chemical_formula_sum   'La2 Cu8 H48 C72 I8 N6 O12'
_cell_volume   3242.07534731
_cell_formula_units_Z   2
loop_
 _symmetry_equiv_pos_site_id
 _symmetry_equiv_pos_as_xyz
  1  'x, y, z'
loop_
 _atom_site_type_symbol
 _atom_site_label
 _atom_site_symmetry_multiplicity
 _atom_site_fract_x
 _atom_site_fract_y
 _atom_site_fract_z
 _atom_site_occupancy
 _atom_site_charge
  La  La1  1  0.278740  0.520020  0.998340  1.0  2.2111
  La  La2  1  0.721260  0.479980  0.001660  1.0  2.2085
  Cu  Cu3  1  0.011220  0.940950  0.537170  1.0  0.2346
  Cu  Cu4  1  0.751500  0.825790  0.498580  1.0  0.1374
  Cu  Cu5  1  0.815250  0.941120  0.617670  1.0  0.1363
  Cu  Cu6  1  0.959840  0.812650  0.592120  1.0  0.1425
  Cu  Cu7  1  0.988780  0.059050  0.462830  1.0  0.2338
  Cu  Cu8  1  0.248500  0.174210  0.501420  1.0  0.1383
  Cu  Cu9  1  0.184750  0.058880  0.382330  1.0  0.1376
  Cu  Cu10  1  0.040160  0.187350  0.407880  1.0  0.1436
  H  H11  1  0.447900  0.834300  0.468300  1.0  0.0725
  H  H12  1  0.241500  0.760800  0.398100  1.0  0.1112
  H  H13  1  0.466500  0.603500  0.303200  1.0  0.1213
  H  H14  1  0.666667  0.677400  0.379400  1.0  0.0854
  H  H15  1  0.267000  0.615200  0.212100  1.0  0.1062
  H  H16  1  0.867700  0.500700  0.180800  1.0  0.1007
  H  H17  1  0.876600  0.542900  0.292300  1.0  0.1212
  H  H18  1  0.076000  0.623100  0.362200  1.0  0.1117
  H  H19  1  0.850000  0.112800  0.719500  1.0  0.0733
  H  H20  1  0.716000  0.204300  0.764600  1.0  0.1219
  H  H21  1  0.376400  0.036300  0.658900  1.0  0.1149
  H  H22  1  0.524000  0.949800  0.619200  1.0  0.0659
  H  H23  1  0.559400  0.251200  0.828200  1.0  0.1138
  H  H24  1  0.182400  0.328500  0.806900  1.0  0.0945
  H  H25  1  0.113900  0.233400  0.702000  1.0  0.1236
  H  H26  1  0.269600  0.150400  0.663300  1.0  0.1088
  H  H27  1  0.254700  0.795700  0.604600  1.0  0.0757
  H  H28  1  0.428100  0.737800  0.659000  1.0  0.1206
  H  H29  1  0.131500  0.628400  0.730900  1.0  0.1049
  H  H30  1  0.971500  0.686400  0.673200  1.0  0.0835
  H  H31  1  0.312500  0.634100  0.815600  1.0  0.1097
  H  H32  1  0.688300  0.557900  0.843900  1.0  0.102
  H  H33  1  0.711900  0.573500  0.740700  1.0  0.1025
  H  H34  1  0.544000  0.629200  0.680000  1.0  0.1213
  H  H35  1  0.552100  0.165700  0.531700  1.0  0.0727
  H  H36  1  0.758500  0.239200  0.601900  1.0  0.1114
  H  H37  1  0.533500  0.396500  0.696800  1.0  0.1207
  H  H38  1  0.333400  0.322600  0.620600  1.0  0.0862
  H  H39  1  0.733000  0.384800  0.787900  1.0  0.1064
  H  H40  1  0.132300  0.499300  0.819200  1.0  0.101
  H  H41  1  0.123400  0.457100  0.707700  1.0  0.1218
  H  H42  1  0.924000  0.376900  0.637800  1.0  0.113
  H  H43  1  0.150000  0.887200  0.280500  1.0  0.076
  H  H44  1  0.284000  0.795700  0.235400  1.0  0.1209
  H  H45  1  0.623600  0.963700  0.341100  1.0  0.1151
  H  H46  1  0.476000  0.050200  0.380800  1.0  0.0657
  H  H47  1  0.440600  0.748800  0.171800  1.0  0.114
  H  H48  1  0.817600  0.671500  0.193100  1.0  0.0942
  H  H49  1  0.886100  0.766600  0.298000  1.0  0.123
  H  H50  1  0.730400  0.849600  0.336700  1.0  0.1081
  H  H51  1  0.745300  0.204300  0.395400  1.0  0.0761
  H  H52  1  0.571900  0.262200  0.341000  1.0  0.12
  H  H53  1  0.868500  0.371600  0.269100  1.0  0.1038
  H  H54  1  0.028500  0.313600  0.326800  1.0  0.0828
  H  H55  1  0.687500  0.365900  0.184400  1.0  0.1092
  H  H56  1  0.311700  0.442100  0.156100  1.0  0.1026
  H  H57  1  0.288100  0.426500  0.259300  1.0  0.1027
  H  H58  1  0.456000  0.370800  0.320000  1.0  0.1213
  C  C59  1  0.451600  0.786500  0.435300  1.0  0.1652
  C  C60  1  0.326800  0.742800  0.392700  1.0  -0.182
  C  C61  1  0.329000  0.673800  0.343000  1.0  0.1253
  C  C62  1  0.459800  0.649400  0.337100  1.0  -0.1889
  C  C63  1  0.580000  0.694900  0.382600  1.0  0.1593
  C  C64  1  0.199300  0.626200  0.296800  1.0  0.109
  C  C65  1  0.189200  0.600900  0.228700  1.0  -0.0717
  C  C66  1  0.066900  0.555400  0.185500  1.0  -0.1193
  C  C67  1  0.949200  0.532600  0.209500  1.0  -0.0466
  C  C68  1  0.954500  0.557700  0.276000  1.0  -0.1594
  C  C69  1  0.075600  0.604700  0.317900  1.0  -0.1054
  C  C70  1  0.058100  0.531000  0.112300  1.0  0.6803
  C  C71  1  0.752600  0.097100  0.707100  1.0  0.1625
  C  C72  1  0.672900  0.153300  0.734200  1.0  -0.2028
  C  C73  1  0.526500  0.134200  0.716300  1.0  0.1088
  C  C74  1  0.473200  0.054100  0.672100  1.0  -0.1862
  C  C75  1  0.563400  0.002200  0.648500  1.0  0.1767
  C  C76  1  0.430100  0.191300  0.742500  1.0  0.0127
  C  C77  1  0.469500  0.247600  0.803000  1.0  -0.0533
  C  C78  1  0.376800  0.300000  0.827800  1.0  -0.1383
  C  C79  1  0.245000  0.294400  0.790600  1.0  -0.0527
  C  C80  1  0.203300  0.237200  0.727600  1.0  -0.1628
  C  C81  1  0.296200  0.187800  0.705000  1.0  -0.1362
  C  C82  1  0.416400  0.359200  0.893600  1.0  0.7714
  C  C83  1  0.229700  0.760900  0.630400  1.0  0.1596
  C  C84  1  0.335800  0.726400  0.663500  1.0  -0.2016
  C  C85  1  0.302900  0.674300  0.703600  1.0  0.0877
  C  C86  1  0.161400  0.662100  0.705200  1.0  -0.2019
  C  C87  1  0.065100  0.697700  0.670600  1.0  0.1718
  C  C88  1  0.411700  0.639400  0.741900  1.0  0.0551
  C  C89  1  0.394400  0.623000  0.801200  1.0  -0.0641
  C  C90  1  0.493800  0.591100  0.838900  1.0  -0.1711
  C  C91  1  0.616700  0.575800  0.817800  1.0  -0.0626
  C  C92  1  0.632700  0.587700  0.756400  1.0  -0.1026
  C  C93  1  0.531600  0.620200  0.719800  1.0  -0.0991
  C  C94  1  0.468800  0.573700  0.901100  1.0  0.8012
  C  C95  1  0.548400  0.213500  0.564700  1.0  0.1655
  C  C96  1  0.673200  0.257200  0.607300  1.0  -0.1805
  C  C97  1  0.671000  0.326200  0.657000  1.0  0.1246
  C  C98  1  0.540200  0.350600  0.662900  1.0  -0.1823
  C  C99  1  0.420000  0.305100  0.617400  1.0  0.1608
  C  C100  1  0.800700  0.373800  0.703200  1.0  0.1086
  C  C101  1  0.810800  0.399100  0.771300  1.0  -0.07
  C  C102  1  0.933100  0.444600  0.814500  1.0  -0.119
  C  C103  1  0.050800  0.467400  0.790500  1.0  -0.0465
  C  C104  1  0.045500  0.442300  0.724000  1.0  -0.1597
  C  C105  1  0.924400  0.395300  0.682100  1.0  -0.1048
  C  C106  1  0.941900  0.469000  0.887700  1.0  0.6737
  C  C107  1  0.247400  0.902900  0.292900  1.0  0.1618
  C  C108  1  0.327100  0.846700  0.265800  1.0  -0.2032
  C  C109  1  0.473500  0.865800  0.283700  1.0  0.1079
  C  C110  1  0.526800  0.945900  0.327900  1.0  -0.1868
  C  C111  1  0.436600  0.997800  0.351500  1.0  0.1774
  C  C112  1  0.569900  0.808700  0.257500  1.0  0.0129
  C  C113  1  0.530500  0.752400  0.197000  1.0  -0.0593
  C  C114  1  0.623200  0.700000  0.172200  1.0  -0.1402
  C  C115  1  0.755000  0.705600  0.209400  1.0  -0.0511
  C  C116  1  0.796700  0.762800  0.272400  1.0  -0.1645
  C  C117  1  0.703800  0.812200  0.295000  1.0  -0.1375
  C  C118  1  0.583600  0.640800  0.106400  1.0  0.7695
  C  C119  1  0.770300  0.239100  0.369600  1.0  0.161
  C  C120  1  0.664200  0.273600  0.336500  1.0  -0.2038
  C  C121  1  0.697100  0.325700  0.296400  1.0  0.0867
  C  C122  1  0.838600  0.337900  0.294800  1.0  -0.2014
  C  C123  1  0.934900  0.302300  0.329400  1.0  0.1713
  C  C124  1  0.588300  0.360600  0.258100  1.0  0.0536
  C  C125  1  0.605600  0.377000  0.198800  1.0  -0.0623
  C  C126  1  0.506200  0.408900  0.161100  1.0  -0.1732
  C  C127  1  0.383300  0.424200  0.182200  1.0  -0.062
  C  C128  1  0.367300  0.412300  0.243600  1.0  -0.1013
  C  C129  1  0.468400  0.379800  0.280200  1.0  -0.0984
  C  C130  1  0.531200  0.426300  0.098900  1.0  0.7991
  I  I131  1  0.762440  0.993040  0.499550  1.0  -0.1633
  I  I132  1  0.982350  0.776720  0.465790  1.0  -0.281
  I  I133  1  0.081370  0.975050  0.668160  1.0  -0.2977
  I  I134  1  0.698720  0.782200  0.607120  1.0  -0.2873
  I  I135  1  0.237560  0.006960  0.500450  1.0  -0.1664
  I  I136  1  0.017650  0.223280  0.534210  1.0  -0.2801
  I  I137  1  0.918630  0.024950  0.331840  1.0  -0.3003
  I  I138  1  0.301280  0.217800  0.392880  1.0  -0.2879
  N  N139  1  0.575700  0.762800  0.430800  1.0  -0.2877
  N  N140  1  0.703000  0.021200  0.664300  1.0  -0.307
  N  N141  1  0.095800  0.747300  0.633400  1.0  -0.2945
  N  N142  1  0.424300  0.237200  0.569200  1.0  -0.2899
  N  N143  1  0.297000  0.978800  0.335700  1.0  -0.3065
  N  N144  1  0.904200  0.252700  0.366600  1.0  -0.2969
  O  O145  1  0.170200  0.554900  0.094200  1.0  -0.7258
  O  O146  1  0.949000  0.489700  0.076200  1.0  -0.7301
  O  O147  1  0.541500  0.364100  0.926800  1.0  -0.7485
  O  O148  1  0.327900  0.401800  0.915000  1.0  -0.7337
  O  O149  1  0.353000  0.587900  0.915300  1.0  -0.6653
  O  O150  1  0.561500  0.547500  0.935600  1.0  -0.8366
  O  O151  1  0.829800  0.445100  0.905800  1.0  -0.7201
  O  O152  1  0.051000  0.510300  0.923800  1.0  -0.7295
  O  O153  1  0.458500  0.635900  0.073200  1.0  -0.7481
  O  O154  1  0.672100  0.598200  0.085000  1.0  -0.7379
  O  O155  1  0.647000  0.412100  0.084700  1.0  -0.6668
  O  O156  1  0.438500  0.452500  0.064400  1.0  -0.8358
