# generated using pymatgen
data_CeCu4H24C36I4(NO2)3
_symmetry_space_group_name_H-M   'P 1'
_cell_length_a   9.75800000
_cell_length_b   16.57500000
_cell_length_c   21.45200000
_cell_angle_alpha   104.13000000
_cell_angle_beta   100.68000000
_cell_angle_gamma   96.53000000
_symmetry_Int_Tables_number   1
_chemical_formula_structural   CeCu4H24C36I4(NO2)3
_chemical_formula_sum   'Ce2 Cu8 H48 C72 I8 N6 O12'
_cell_volume   3260.03440868
_cell_formula_units_Z   2
loop_
 _symmetry_equiv_pos_site_id
 _symmetry_equiv_pos_as_xyz
  1  'x, y, z'
loop_
 _atom_site_type_symbol
 _atom_site_label
 _atom_site_symmetry_multiplicity
 _atom_site_fract_x
 _atom_site_fract_y
 _atom_site_fract_z
 _atom_site_occupancy
 _atom_site_charge
  Ce  Ce1  1  0.277200  0.517460  0.998270  1.0  2.272
  Ce  Ce2  1  0.722800  0.482540  0.001730  1.0  2.2725
  Cu  Cu3  1  0.012580  0.942280  0.539080  1.0  0.2417
  Cu  Cu4  1  0.753880  0.826950  0.502230  1.0  0.1375
  Cu  Cu5  1  0.820170  0.945110  0.620780  1.0  0.1318
  Cu  Cu6  1  0.963050  0.816850  0.597130  1.0  0.109
  Cu  Cu7  1  0.987420  0.057720  0.460920  1.0  0.2414
  Cu  Cu8  1  0.246120  0.173050  0.497770  1.0  0.1368
  Cu  Cu9  1  0.179830  0.054890  0.379220  1.0  0.1326
  Cu  Cu10  1  0.036950  0.183150  0.402870  1.0  0.1086
  H  H11  1  0.449400  0.834700  0.470300  1.0  0.072
  H  H12  1  0.242400  0.758000  0.403100  1.0  0.1136
  H  H13  1  0.467500  0.601100  0.307900  1.0  0.1244
  H  H14  1  0.665800  0.681400  0.380700  1.0  0.0754
  H  H15  1  0.271600  0.608900  0.215400  1.0  0.104
  H  H16  1  0.865500  0.499500  0.180600  1.0  0.1087
  H  H17  1  0.870200  0.543500  0.291200  1.0  0.1058
  H  H18  1  0.069100  0.625900  0.363400  1.0  0.1122
  H  H19  1  0.857900  0.119900  0.720700  1.0  0.0877
  H  H20  1  0.724100  0.208600  0.763600  1.0  0.1055
  H  H21  1  0.375900  0.038700  0.655600  1.0  0.131
  H  H22  1  0.528400  0.953200  0.621400  1.0  0.0576
  H  H23  1  0.562500  0.261000  0.828900  1.0  0.1089
  H  H24  1  0.179300  0.326300  0.802900  1.0  0.094
  H  H25  1  0.117900  0.237600  0.698000  1.0  0.111
  H  H26  1  0.270500  0.149600  0.660500  1.0  0.108
  H  H27  1  0.266500  0.805400  0.613900  1.0  0.1038
  H  H28  1  0.431700  0.740500  0.665300  1.0  0.1102
  H  H29  1  0.129900  0.628300  0.732500  1.0  0.0995
  H  H30  1  0.969200  0.679800  0.672100  1.0  0.0883
  H  H31  1  0.310500  0.634800  0.818000  1.0  0.1058
  H  H32  1  0.688500  0.558800  0.845300  1.0  0.1046
  H  H33  1  0.708200  0.570300  0.738200  1.0  0.1014
  H  H34  1  0.541300  0.626200  0.678500  1.0  0.122
  H  H35  1  0.550600  0.165300  0.529700  1.0  0.0723
  H  H36  1  0.757600  0.242000  0.596900  1.0  0.113
  H  H37  1  0.532500  0.398900  0.692100  1.0  0.1238
  H  H38  1  0.334200  0.318600  0.619300  1.0  0.0739
  H  H39  1  0.728400  0.391100  0.784600  1.0  0.1037
  H  H40  1  0.134500  0.500500  0.819400  1.0  0.1086
  H  H41  1  0.129800  0.456500  0.708800  1.0  0.1063
  H  H42  1  0.930900  0.374100  0.636600  1.0  0.1125
  H  H43  1  0.142100  0.880100  0.279300  1.0  0.0906
  H  H44  1  0.275900  0.791400  0.236400  1.0  0.1047
  H  H45  1  0.624100  0.961300  0.344400  1.0  0.1301
  H  H46  1  0.471600  0.046800  0.378600  1.0  0.0573
  H  H47  1  0.437500  0.739000  0.171100  1.0  0.1086
  H  H48  1  0.820700  0.673700  0.197100  1.0  0.0938
  H  H49  1  0.882100  0.762400  0.302000  1.0  0.1113
  H  H50  1  0.729500  0.850400  0.339500  1.0  0.1085
  H  H51  1  0.733500  0.194600  0.386100  1.0  0.1042
  H  H52  1  0.568300  0.259500  0.334700  1.0  0.1102
  H  H53  1  0.870100  0.371700  0.267500  1.0  0.0979
  H  H54  1  0.030800  0.320200  0.327900  1.0  0.088
  H  H55  1  0.689500  0.365200  0.182000  1.0  0.1058
  H  H56  1  0.311500  0.441200  0.154700  1.0  0.1047
  H  H57  1  0.291800  0.429700  0.261800  1.0  0.1032
  H  H58  1  0.458700  0.373800  0.321500  1.0  0.1221
  C  C59  1  0.452800  0.786200  0.438300  1.0  0.1581
  C  C60  1  0.327900  0.741700  0.396500  1.0  -0.1871
  C  C61  1  0.328900  0.672100  0.344400  1.0  0.1244
  C  C62  1  0.459900  0.648300  0.340200  1.0  -0.2182
  C  C63  1  0.578600  0.696600  0.385400  1.0  0.1698
  C  C64  1  0.196400  0.623200  0.298000  1.0  0.0617
  C  C65  1  0.190800  0.597100  0.230800  1.0  -0.0572
  C  C66  1  0.067400  0.553800  0.186300  1.0  -0.1395
  C  C67  1  0.946900  0.531800  0.209800  1.0  -0.0453
  C  C68  1  0.949900  0.557800  0.275700  1.0  -0.0877
  C  C69  1  0.070600  0.605300  0.319200  1.0  -0.1166
  C  C70  1  0.060500  0.527400  0.114200  1.0  0.6936
  C  C71  1  0.760100  0.103800  0.708700  1.0  0.1538
  C  C72  1  0.680600  0.157300  0.733700  1.0  -0.1395
  C  C73  1  0.531700  0.138600  0.716300  1.0  0.0653
  C  C74  1  0.473000  0.056400  0.670300  1.0  -0.1876
  C  C75  1  0.566400  0.006400  0.649700  1.0  0.1755
  C  C76  1  0.433300  0.194400  0.740600  1.0  0.0374
  C  C77  1  0.471800  0.254300  0.803200  1.0  -0.0395
  C  C78  1  0.377200  0.302500  0.826500  1.0  -0.1395
  C  C79  1  0.244100  0.294300  0.787000  1.0  -0.0107
  C  C80  1  0.205700  0.239900  0.724700  1.0  -0.1267
  C  C81  1  0.298200  0.188300  0.701800  1.0  -0.1198
  C  C82  1  0.417600  0.363800  0.893000  1.0  0.7611
  C  C83  1  0.238200  0.767700  0.636600  1.0  0.1145
  C  C84  1  0.338200  0.730300  0.668900  1.0  -0.1477
  C  C85  1  0.300900  0.677700  0.706900  1.0  0.0894
  C  C86  1  0.159600  0.662400  0.707300  1.0  -0.1733
  C  C87  1  0.064100  0.695200  0.672500  1.0  0.1373
  C  C88  1  0.410300  0.639300  0.743400  1.0  0.0196
  C  C89  1  0.391800  0.623900  0.802900  1.0  -0.0605
  C  C90  1  0.495300  0.592100  0.839600  1.0  -0.1227
  C  C91  1  0.616900  0.575800  0.818900  1.0  -0.0707
  C  C92  1  0.630800  0.585900  0.754900  1.0  -0.1021
  C  C93  1  0.530500  0.618200  0.718800  1.0  -0.1164
  C  C94  1  0.472400  0.575000  0.903200  1.0  0.7818
  C  C95  1  0.547200  0.213800  0.561700  1.0  0.1579
  C  C96  1  0.672100  0.258300  0.603500  1.0  -0.1846
  C  C97  1  0.671100  0.327900  0.655600  1.0  0.1242
  C  C98  1  0.540100  0.351700  0.659800  1.0  -0.2164
  C  C99  1  0.421400  0.303400  0.614600  1.0  0.1707
  C  C100  1  0.803600  0.376800  0.702000  1.0  0.061
  C  C101  1  0.809200  0.402900  0.769200  1.0  -0.0561
  C  C102  1  0.932600  0.446200  0.813700  1.0  -0.1412
  C  C103  1  0.053100  0.468200  0.790200  1.0  -0.0451
  C  C104  1  0.050100  0.442200  0.724300  1.0  -0.0881
  C  C105  1  0.929400  0.394700  0.680800  1.0  -0.1152
  C  C106  1  0.939500  0.472600  0.885800  1.0  0.6953
  C  C107  1  0.239900  0.896200  0.291300  1.0  0.1529
  C  C108  1  0.319400  0.842700  0.266300  1.0  -0.1397
  C  C109  1  0.468300  0.861400  0.283700  1.0  0.0656
  C  C110  1  0.527000  0.943600  0.329700  1.0  -0.1908
  C  C111  1  0.433600  0.993600  0.350300  1.0  0.1749
  C  C112  1  0.566700  0.805600  0.259400  1.0  0.0388
  C  C113  1  0.528200  0.745700  0.196800  1.0  -0.0413
  C  C114  1  0.622800  0.697500  0.173500  1.0  -0.1404
  C  C115  1  0.755900  0.705700  0.213000  1.0  -0.0094
  C  C116  1  0.794300  0.760100  0.275300  1.0  -0.1273
  C  C117  1  0.701800  0.811700  0.298200  1.0  -0.1209
  C  C118  1  0.582400  0.636200  0.107000  1.0  0.7589
  C  C119  1  0.761800  0.232300  0.363400  1.0  0.1119
  C  C120  1  0.661800  0.269700  0.331100  1.0  -0.1479
  C  C121  1  0.699100  0.322300  0.293100  1.0  0.0888
  C  C122  1  0.840400  0.337600  0.292700  1.0  -0.1739
  C  C123  1  0.935900  0.304800  0.327500  1.0  0.1362
  C  C124  1  0.589700  0.360700  0.256600  1.0  0.0201
  C  C125  1  0.608200  0.376100  0.197100  1.0  -0.0597
  C  C126  1  0.504700  0.407900  0.160400  1.0  -0.122
  C  C127  1  0.383100  0.424200  0.181100  1.0  -0.0701
  C  C128  1  0.369200  0.414100  0.245100  1.0  -0.1019
  C  C129  1  0.469500  0.381800  0.281200  1.0  -0.1176
  C  C130  1  0.527600  0.425000  0.096800  1.0  0.7782
  I  I131  1  0.763730  0.991640  0.500250  1.0  -0.1913
  I  I132  1  0.984930  0.778480  0.469570  1.0  -0.2774
  I  I133  1  0.087120  0.978350  0.671450  1.0  -0.2939
  I  I134  1  0.700940  0.787690  0.612200  1.0  -0.262
  I  I135  1  0.236270  0.008360  0.499750  1.0  -0.1942
  I  I136  1  0.015070  0.221520  0.530430  1.0  -0.2776
  I  I137  1  0.912880  0.021650  0.328550  1.0  -0.2936
  I  I138  1  0.299060  0.212310  0.387800  1.0  -0.2625
  N  N139  1  0.578200  0.763100  0.434900  1.0  -0.2898
  N  N140  1  0.705600  0.026100  0.666100  1.0  -0.3096
  N  N141  1  0.097900  0.749900  0.637500  1.0  -0.294
  N  N142  1  0.421800  0.236900  0.565100  1.0  -0.2927
  N  N143  1  0.294400  0.973900  0.333900  1.0  -0.3082
  N  N144  1  0.902100  0.250100  0.362500  1.0  -0.2996
  O  O145  1  0.173200  0.549300  0.094300  1.0  -0.7054
  O  O146  1  0.945900  0.489200  0.075100  1.0  -0.7556
  O  O147  1  0.543800  0.370300  0.926400  1.0  -0.7455
  O  O148  1  0.324300  0.405200  0.912000  1.0  -0.7653
  O  O149  1  0.355000  0.587100  0.918800  1.0  -0.7357
  O  O150  1  0.568800  0.549900  0.937200  1.0  -0.8453
  O  O151  1  0.826800  0.450700  0.905700  1.0  -0.7059
  O  O152  1  0.054100  0.510800  0.924900  1.0  -0.7534
  O  O153  1  0.456200  0.629700  0.073600  1.0  -0.745
  O  O154  1  0.675700  0.594800  0.088000  1.0  -0.7654
  O  O155  1  0.645000  0.412900  0.081200  1.0  -0.7406
  O  O156  1  0.431200  0.450100  0.062800  1.0  -0.8453
