# generated using pymatgen
data_TbCu4H24C36I4(NO2)3
_symmetry_space_group_name_H-M   'P 1'
_cell_length_a   9.60500000
_cell_length_b   16.76900000
_cell_length_c   21.15500000
_cell_angle_alpha   104.16000000
_cell_angle_beta   100.31000000
_cell_angle_gamma   97.16000000
_symmetry_Int_Tables_number   1
_chemical_formula_structural   TbCu4H24C36I4(NO2)3
_chemical_formula_sum   'Tb2 Cu8 H48 C72 I8 N6 O12'
_cell_volume   3199.42387508
_cell_formula_units_Z   2
loop_
 _symmetry_equiv_pos_site_id
 _symmetry_equiv_pos_as_xyz
  1  'x, y, z'
loop_
 _atom_site_type_symbol
 _atom_site_label
 _atom_site_symmetry_multiplicity
 _atom_site_fract_x
 _atom_site_fract_y
 _atom_site_fract_z
 _atom_site_occupancy
 _atom_site_charge
  Tb  Tb1  1  0.276840  0.512300  0.997100  1.0  2.289
  Tb  Tb2  1  0.723160  0.487700  0.002900  1.0  2.2896
  Cu  Cu3  1  0.014030  0.942450  0.540440  1.0  0.2212
  Cu  Cu4  1  0.755210  0.826920  0.501690  1.0  0.1319
  Cu  Cu5  1  0.820350  0.944940  0.622430  1.0  0.1321
  Cu  Cu6  1  0.961950  0.817700  0.599790  1.0  0.118
  Cu  Cu7  1  0.985970  0.057550  0.459560  1.0  0.2208
  Cu  Cu8  1  0.244790  0.173080  0.498310  1.0  0.1329
  Cu  Cu9  1  0.179650  0.055060  0.377570  1.0  0.1326
  Cu  Cu10  1  0.038050  0.182300  0.400210  1.0  0.118
  H  H11  1  0.446000  0.831500  0.467000  1.0  0.0727
  H  H12  1  0.239200  0.758000  0.396600  1.0  0.1115
  H  H13  1  0.467200  0.601300  0.305500  1.0  0.1227
  H  H14  1  0.668300  0.678000  0.381700  1.0  0.0792
  H  H15  1  0.269600  0.606700  0.210400  1.0  0.1061
  H  H16  1  0.854600  0.497800  0.176500  1.0  0.1047
  H  H17  1  0.860000  0.542600  0.288400  1.0  0.1024
  H  H18  1  0.067600  0.621700  0.362200  1.0  0.1172
  H  H19  1  0.866900  0.116400  0.725900  1.0  0.0852
  H  H20  1  0.729400  0.209200  0.768700  1.0  0.1146
  H  H21  1  0.380100  0.045600  0.657900  1.0  0.1101
  H  H22  1  0.524700  0.953400  0.624600  1.0  0.0774
  H  H23  1  0.569200  0.261500  0.830700  1.0  0.1094
  H  H24  1  0.182500  0.330600  0.805500  1.0  0.0985
  H  H25  1  0.115000  0.233400  0.700000  1.0  0.1082
  H  H26  1  0.271300  0.149900  0.662200  1.0  0.1075
  H  H27  1  0.263100  0.807400  0.619300  1.0  0.0767
  H  H28  1  0.435000  0.747600  0.673100  1.0  0.1166
  H  H29  1  0.127500  0.625500  0.732200  1.0  0.1027
  H  H30  1  0.964400  0.688900  0.677900  1.0  0.0872
  H  H31  1  0.314500  0.638600  0.824300  1.0  0.1087
  H  H32  1  0.691100  0.557200  0.843400  1.0  0.0969
  H  H33  1  0.717200  0.582100  0.741900  1.0  0.1069
  H  H34  1  0.543400  0.634200  0.682300  1.0  0.1147
  H  H35  1  0.554000  0.168500  0.533000  1.0  0.0733
  H  H36  1  0.760800  0.242000  0.603400  1.0  0.1106
  H  H37  1  0.532800  0.398700  0.694500  1.0  0.1222
  H  H38  1  0.331700  0.322000  0.618300  1.0  0.0767
  H  H39  1  0.730400  0.393300  0.789600  1.0  0.106
  H  H40  1  0.145400  0.502200  0.823500  1.0  0.1049
  H  H41  1  0.140000  0.457400  0.711600  1.0  0.1025
  H  H42  1  0.932400  0.378300  0.637800  1.0  0.1176
  H  H43  1  0.133100  0.883600  0.274100  1.0  0.0866
  H  H44  1  0.270600  0.790800  0.231300  1.0  0.1142
  H  H45  1  0.619900  0.954400  0.342100  1.0  0.109
  H  H46  1  0.475300  0.046600  0.375400  1.0  0.0767
  H  H47  1  0.430800  0.738500  0.169300  1.0  0.109
  H  H48  1  0.817500  0.669400  0.194500  1.0  0.0986
  H  H49  1  0.885000  0.766600  0.300000  1.0  0.1075
  H  H50  1  0.728700  0.850100  0.337800  1.0  0.1079
  H  H51  1  0.736900  0.192600  0.380700  1.0  0.0769
  H  H52  1  0.565000  0.252400  0.326900  1.0  0.1163
  H  H53  1  0.872500  0.374500  0.267800  1.0  0.1022
  H  H54  1  0.035600  0.311100  0.322100  1.0  0.0863
  H  H55  1  0.685500  0.361400  0.175700  1.0  0.1089
  H  H56  1  0.308900  0.442800  0.156600  1.0  0.0973
  H  H57  1  0.282800  0.417900  0.258100  1.0  0.1079
  H  H58  1  0.456600  0.365800  0.317700  1.0  0.1152
  C  C59  1  0.450100  0.783600  0.434600  1.0  0.1683
  C  C60  1  0.325600  0.740200  0.391900  1.0  -0.22
  C  C61  1  0.325800  0.670200  0.341700  1.0  0.119
  C  C62  1  0.459300  0.647600  0.338500  1.0  -0.2068
  C  C63  1  0.580200  0.694400  0.384700  1.0  0.1758
  C  C64  1  0.191800  0.621000  0.294000  1.0  0.059
  C  C65  1  0.187700  0.594200  0.226300  1.0  -0.0555
  C  C66  1  0.061100  0.548400  0.181400  1.0  -0.144
  C  C67  1  0.938500  0.529000  0.205800  1.0  -0.0837
  C  C68  1  0.941700  0.555700  0.272500  1.0  -0.0919
  C  C69  1  0.067000  0.602600  0.317000  1.0  -0.1118
  C  C70  1  0.056700  0.522400  0.107900  1.0  0.7234
  C  C71  1  0.767300  0.101700  0.712800  1.0  0.1455
  C  C72  1  0.684900  0.158300  0.738400  1.0  -0.1849
  C  C73  1  0.534700  0.139400  0.719100  1.0  0.1058
  C  C74  1  0.479000  0.061000  0.673800  1.0  -0.156
  C  C75  1  0.566500  0.006300  0.652300  1.0  0.1396
  C  C76  1  0.439000  0.196600  0.743300  1.0  0.0102
  C  C77  1  0.477600  0.255300  0.804600  1.0  -0.0366
  C  C78  1  0.382100  0.305900  0.828500  1.0  -0.1359
  C  C79  1  0.246700  0.297500  0.789900  1.0  -0.0127
  C  C80  1  0.205800  0.238500  0.726400  1.0  -0.1033
  C  C81  1  0.299400  0.188900  0.703800  1.0  -0.1285
  C  C82  1  0.424900  0.368900  0.895000  1.0  0.766
  C  C83  1  0.234400  0.769900  0.642400  1.0  0.1492
  C  C84  1  0.339300  0.734200  0.675200  1.0  -0.1848
  C  C85  1  0.302000  0.680300  0.709800  1.0  0.0993
  C  C86  1  0.159100  0.663000  0.709700  1.0  -0.1874
  C  C87  1  0.060700  0.700800  0.676400  1.0  0.144
  C  C88  1  0.412200  0.643700  0.747300  1.0  0.0485
  C  C89  1  0.395800  0.627400  0.808000  1.0  -0.0739
  C  C90  1  0.499500  0.594900  0.843900  1.0  -0.1771
  C  C91  1  0.620500  0.578300  0.819500  1.0  -0.0302
  C  C92  1  0.636200  0.593500  0.758400  1.0  -0.1014
  C  C93  1  0.532600  0.625100  0.723000  1.0  -0.1356
  C  C94  1  0.477200  0.575100  0.907000  1.0  0.7745
  C  C95  1  0.549900  0.216400  0.565400  1.0  0.1697
  C  C96  1  0.674400  0.259800  0.608100  1.0  -0.219
  C  C97  1  0.674200  0.329800  0.658300  1.0  0.118
  C  C98  1  0.540700  0.352400  0.661500  1.0  -0.2062
  C  C99  1  0.419800  0.305600  0.615300  1.0  0.1747
  C  C100  1  0.808200  0.379000  0.706000  1.0  0.0586
  C  C101  1  0.812300  0.405800  0.773700  1.0  -0.0545
  C  C102  1  0.938900  0.451600  0.818600  1.0  -0.1458
  C  C103  1  0.061500  0.471000  0.794200  1.0  -0.0824
  C  C104  1  0.058300  0.444300  0.727500  1.0  -0.0925
  C  C105  1  0.933000  0.397400  0.683000  1.0  -0.1099
  C  C106  1  0.943300  0.477600  0.892100  1.0  0.7243
  C  C107  1  0.232700  0.898300  0.287200  1.0  0.1449
  C  C108  1  0.315100  0.841700  0.261600  1.0  -0.1851
  C  C109  1  0.465300  0.860600  0.280900  1.0  0.1051
  C  C110  1  0.521000  0.939000  0.326200  1.0  -0.1548
  C  C111  1  0.433500  0.993700  0.347700  1.0  0.1403
  C  C112  1  0.561000  0.803400  0.256700  1.0  0.0111
  C  C113  1  0.522400  0.744700  0.195400  1.0  -0.0393
  C  C114  1  0.617900  0.694100  0.171500  1.0  -0.1372
  C  C115  1  0.753300  0.702500  0.210100  1.0  -0.0124
  C  C116  1  0.794200  0.761500  0.273600  1.0  -0.1037
  C  C117  1  0.700600  0.811100  0.296200  1.0  -0.1283
  C  C118  1  0.575100  0.631100  0.105000  1.0  0.7636
  C  C119  1  0.765600  0.230100  0.357600  1.0  0.1512
  C  C120  1  0.660700  0.265800  0.324800  1.0  -0.1851
  C  C121  1  0.698000  0.319700  0.290200  1.0  0.0989
  C  C122  1  0.840900  0.337000  0.290300  1.0  -0.1908
  C  C123  1  0.939300  0.299200  0.323600  1.0  0.1433
  C  C124  1  0.587800  0.356300  0.252700  1.0  0.0487
  C  C125  1  0.604200  0.372600  0.192000  1.0  -0.0721
  C  C126  1  0.500500  0.405100  0.156100  1.0  -0.1782
  C  C127  1  0.379500  0.421700  0.180500  1.0  -0.0298
  C  C128  1  0.363800  0.406500  0.241600  1.0  -0.1008
  C  C129  1  0.467400  0.374900  0.277000  1.0  -0.1356
  C  C130  1  0.522800  0.424900  0.093000  1.0  0.7699
  I  I131  1  0.761600  0.989200  0.499960  1.0  -0.1758
  I  I132  1  0.990710  0.779920  0.471070  1.0  -0.2912
  I  I133  1  0.089180  0.977680  0.674720  1.0  -0.2965
  I  I134  1  0.694980  0.789420  0.612930  1.0  -0.2842
  I  I135  1  0.238400  0.010800  0.500040  1.0  -0.1797
  I  I136  1  0.009290  0.220080  0.528930  1.0  -0.2904
  I  I137  1  0.910820  0.022320  0.325280  1.0  -0.2962
  I  I138  1  0.305020  0.210580  0.387070  1.0  -0.2851
  N  N139  1  0.577400  0.760800  0.432600  1.0  -0.2862
  N  N140  1  0.710600  0.026600  0.669700  1.0  -0.3427
  N  N141  1  0.099200  0.753100  0.642700  1.0  -0.2821
  N  N142  1  0.422600  0.239200  0.567400  1.0  -0.288
  N  N143  1  0.289400  0.973400  0.330300  1.0  -0.3404
  N  N144  1  0.900800  0.246900  0.357300  1.0  -0.2833
  O  O145  1  0.169600  0.540400  0.088800  1.0  -0.7625
  O  O146  1  0.939300  0.483000  0.069300  1.0  -0.7402
  O  O147  1  0.551600  0.377900  0.928200  1.0  -0.7534
  O  O148  1  0.330900  0.409900  0.913000  1.0  -0.7089
  O  O149  1  0.359200  0.583500  0.923400  1.0  -0.66
  O  O150  1  0.578100  0.552200  0.940600  1.0  -0.8033
  O  O151  1  0.830400  0.459600  0.911200  1.0  -0.7631
  O  O152  1  0.060700  0.517000  0.930700  1.0  -0.7411
  O  O153  1  0.448400  0.622100  0.071800  1.0  -0.7535
  O  O154  1  0.669100  0.590100  0.087000  1.0  -0.7101
  O  O155  1  0.640800  0.416500  0.076600  1.0  -0.661
  O  O156  1  0.421900  0.447800  0.059400  1.0  -0.8042
