# generated using pymatgen
data_EuCu4H24C36I4(NO2)3
_symmetry_space_group_name_H-M   'P 1'
_cell_length_a   9.66890000
_cell_length_b   16.71600000
_cell_length_c   21.27700000
_cell_angle_alpha   104.23000000
_cell_angle_beta   100.42000000
_cell_angle_gamma   96.86000000
_symmetry_Int_Tables_number   1
_chemical_formula_structural   EuCu4H24C36I4(NO2)3
_chemical_formula_sum   'Eu2 Cu8 H48 C72 I8 N6 O12'
_cell_volume   3229.59670692
_cell_formula_units_Z   2
loop_
 _symmetry_equiv_pos_site_id
 _symmetry_equiv_pos_as_xyz
  1  'x, y, z'
loop_
 _atom_site_type_symbol
 _atom_site_label
 _atom_site_symmetry_multiplicity
 _atom_site_fract_x
 _atom_site_fract_y
 _atom_site_fract_z
 _atom_site_occupancy
 _atom_site_charge
  Eu  Eu1  1  0.276130  0.515360  0.998160  1.0  2.1867
  Eu  Eu2  1  0.723870  0.484640  0.001840  1.0  2.1868
  Cu  Cu3  1  0.014040  0.942780  0.540530  1.0  0.224
  Cu  Cu4  1  0.755410  0.827410  0.502770  1.0  0.1402
  Cu  Cu5  1  0.820780  0.946730  0.622660  1.0  0.1277
  Cu  Cu6  1  0.962710  0.818310  0.599920  1.0  0.1116
  Cu  Cu7  1  0.985960  0.057220  0.459470  1.0  0.2237
  Cu  Cu8  1  0.244590  0.172590  0.497230  1.0  0.1394
  Cu  Cu9  1  0.179220  0.053270  0.377340  1.0  0.1278
  Cu  Cu10  1  0.037290  0.181690  0.400080  1.0  0.1128
  H  H11  1  0.448600  0.831100  0.470000  1.0  0.0722
  H  H12  1  0.242700  0.761000  0.398500  1.0  0.1166
  H  H13  1  0.463700  0.601900  0.306300  1.0  0.1277
  H  H14  1  0.666400  0.678400  0.381100  1.0  0.0857
  H  H15  1  0.267500  0.610300  0.211800  1.0  0.1092
  H  H16  1  0.858100  0.499400  0.179000  1.0  0.1015
  H  H17  1  0.864400  0.543800  0.291000  1.0  0.111
  H  H18  1  0.072100  0.619900  0.364000  1.0  0.1147
  H  H19  1  0.863200  0.118600  0.723600  1.0  0.0852
  H  H20  1  0.724000  0.210500  0.767400  1.0  0.1148
  H  H21  1  0.378100  0.043300  0.655800  1.0  0.1127
  H  H22  1  0.524700  0.955300  0.621500  1.0  0.0752
  H  H23  1  0.568400  0.264400  0.827200  1.0  0.1138
  H  H24  1  0.179400  0.329200  0.803200  1.0  0.0944
  H  H25  1  0.113800  0.236300  0.700000  1.0  0.1127
  H  H26  1  0.269600  0.152000  0.661800  1.0  0.1096
  H  H27  1  0.268400  0.809900  0.621600  1.0  0.0814
  H  H28  1  0.435800  0.747900  0.671800  1.0  0.1319
  H  H29  1  0.124300  0.623300  0.729300  1.0  0.1238
  H  H30  1  0.969700  0.688900  0.675800  1.0  0.0709
  H  H31  1  0.314700  0.637600  0.823100  1.0  0.1082
  H  H32  1  0.692800  0.557100  0.842100  1.0  0.1139
  H  H33  1  0.718300  0.581000  0.743300  1.0  0.107
  H  H34  1  0.544200  0.632600  0.682600  1.0  0.114
  H  H35  1  0.551400  0.168900  0.530000  1.0  0.0729
  H  H36  1  0.757300  0.239000  0.601500  1.0  0.1149
  H  H37  1  0.536300  0.398100  0.693700  1.0  0.1272
  H  H38  1  0.333600  0.321600  0.618900  1.0  0.0862
  H  H39  1  0.732500  0.389700  0.788200  1.0  0.1092
  H  H40  1  0.141900  0.500600  0.821000  1.0  0.1018
  H  H41  1  0.135600  0.456200  0.709000  1.0  0.1108
  H  H42  1  0.927900  0.380100  0.636000  1.0  0.1153
  H  H43  1  0.136800  0.881400  0.276400  1.0  0.0862
  H  H44  1  0.276000  0.789500  0.232600  1.0  0.1133
  H  H45  1  0.621900  0.956700  0.344200  1.0  0.1129
  H  H46  1  0.475300  0.044700  0.378500  1.0  0.0748
  H  H47  1  0.431600  0.735600  0.172800  1.0  0.1138
  H  H48  1  0.820600  0.670800  0.196800  1.0  0.0941
  H  H49  1  0.886200  0.763700  0.300000  1.0  0.112
  H  H50  1  0.730400  0.848000  0.338200  1.0  0.1097
  H  H51  1  0.731600  0.190100  0.378400  1.0  0.0819
  H  H52  1  0.564200  0.252100  0.328200  1.0  0.1314
  H  H53  1  0.875700  0.376700  0.270700  1.0  0.1233
  H  H54  1  0.030300  0.311100  0.324200  1.0  0.0701
  H  H55  1  0.685300  0.362400  0.176900  1.0  0.1085
  H  H56  1  0.307200  0.442900  0.157900  1.0  0.1157
  H  H57  1  0.281700  0.419000  0.256700  1.0  0.108
  H  H58  1  0.455800  0.367400  0.317400  1.0  0.1144
  C  C59  1  0.452600  0.783700  0.437100  1.0  0.1811
  C  C60  1  0.327600  0.741600  0.394200  1.0  -0.2235
  C  C61  1  0.326300  0.671500  0.345300  1.0  0.1211
  C  C62  1  0.457500  0.648100  0.339800  1.0  -0.2142
  C  C63  1  0.579100  0.694700  0.385200  1.0  0.1676
  C  C64  1  0.193600  0.622100  0.297100  1.0  0.0362
  C  C65  1  0.187500  0.596600  0.228100  1.0  -0.0615
  C  C66  1  0.062400  0.551100  0.184600  1.0  -0.1148
  C  C67  1  0.941200  0.530600  0.208400  1.0  -0.0691
  C  C68  1  0.945200  0.556600  0.275000  1.0  -0.1044
  C  C69  1  0.070900  0.602300  0.318900  1.0  -0.1192
  C  C70  1  0.057900  0.525500  0.110600  1.0  0.7205
  C  C71  1  0.764400  0.103500  0.710900  1.0  0.1451
  C  C72  1  0.681000  0.159600  0.736900  1.0  -0.1647
  C  C73  1  0.531400  0.139600  0.717100  1.0  0.0981
  C  C74  1  0.476300  0.059900  0.671300  1.0  -0.1457
  C  C75  1  0.564700  0.008000  0.650100  1.0  0.1493
  C  C76  1  0.434800  0.197600  0.742300  1.0  0.0477
  C  C77  1  0.475600  0.256400  0.802500  1.0  -0.037
  C  C78  1  0.378200  0.304800  0.827300  1.0  -0.1445
  C  C79  1  0.243600  0.296300  0.787600  1.0  -0.0338
  C  C80  1  0.203900  0.240600  0.726300  1.0  -0.1226
  C  C81  1  0.297400  0.190700  0.703400  1.0  -0.1157
  C  C82  1  0.419600  0.367500  0.894900  1.0  0.7578
  C  C83  1  0.238800  0.771300  0.643500  1.0  0.157
  C  C84  1  0.341000  0.735600  0.674500  1.0  -0.2044
  C  C85  1  0.301100  0.680100  0.710600  1.0  0.1049
  C  C86  1  0.158200  0.661900  0.708400  1.0  -0.2119
  C  C87  1  0.065500  0.701400  0.674900  1.0  0.1716
  C  C88  1  0.412100  0.643400  0.745500  1.0  0.0304
  C  C89  1  0.394900  0.626000  0.806500  1.0  -0.0588
  C  C90  1  0.496300  0.592100  0.840800  1.0  -0.1458
  C  C91  1  0.621800  0.577100  0.817600  1.0  -0.0746
  C  C92  1  0.637300  0.592100  0.759300  1.0  -0.0859
  C  C93  1  0.532300  0.624100  0.723000  1.0  -0.1163
  C  C94  1  0.477900  0.574400  0.906700  1.0  0.7734
  C  C95  1  0.547400  0.216300  0.562900  1.0  0.1806
  C  C96  1  0.672400  0.258400  0.605800  1.0  -0.2224
  C  C97  1  0.673700  0.328500  0.654700  1.0  0.1178
  C  C98  1  0.542500  0.351900  0.660200  1.0  -0.2146
  C  C99  1  0.420900  0.305300  0.614800  1.0  0.1664
  C  C100  1  0.806400  0.377900  0.702900  1.0  0.0346
  C  C101  1  0.812500  0.403400  0.771900  1.0  -0.0609
  C  C102  1  0.937600  0.448900  0.815400  1.0  -0.115
  C  C103  1  0.058800  0.469400  0.791600  1.0  -0.0683
  C  C104  1  0.054800  0.443400  0.725000  1.0  -0.1045
  C  C105  1  0.929100  0.397700  0.681100  1.0  -0.1164
  C  C106  1  0.942100  0.474500  0.889400  1.0  0.7236
  C  C107  1  0.235600  0.896500  0.289100  1.0  0.1425
  C  C108  1  0.319000  0.840400  0.263100  1.0  -0.1646
  C  C109  1  0.468600  0.860400  0.282900  1.0  0.0987
  C  C110  1  0.523700  0.940100  0.328700  1.0  -0.1463
  C  C111  1  0.435300  0.992000  0.349900  1.0  0.1498
  C  C112  1  0.565200  0.802400  0.257700  1.0  0.0465
  C  C113  1  0.524400  0.743600  0.197500  1.0  -0.0383
  C  C114  1  0.621800  0.695200  0.172700  1.0  -0.146
  C  C115  1  0.756400  0.703700  0.212400  1.0  -0.0337
  C  C116  1  0.796100  0.759400  0.273700  1.0  -0.1227
  C  C117  1  0.702600  0.809300  0.296600  1.0  -0.1169
  C  C118  1  0.580400  0.632500  0.105100  1.0  0.7547
  C  C119  1  0.761200  0.228700  0.356500  1.0  0.1573
  C  C120  1  0.659000  0.264400  0.325500  1.0  -0.2048
  C  C121  1  0.698900  0.319900  0.289400  1.0  0.1049
  C  C122  1  0.841800  0.338100  0.291600  1.0  -0.2133
  C  C123  1  0.934500  0.298600  0.325100  1.0  0.1722
  C  C124  1  0.587900  0.356600  0.254500  1.0  0.0296
  C  C125  1  0.605100  0.374000  0.193500  1.0  -0.055
  C  C126  1  0.503700  0.407900  0.159200  1.0  -0.1438
  C  C127  1  0.378200  0.422900  0.182400  1.0  -0.0737
  C  C128  1  0.362700  0.407900  0.240700  1.0  -0.0867
  C  C129  1  0.467700  0.375900  0.277000  1.0  -0.1163
  C  C130  1  0.522100  0.425600  0.093300  1.0  0.7724
  I  I131  1  0.763000  0.990300  0.500230  1.0  -0.1884
  I  I132  1  0.989480  0.779640  0.471650  1.0  -0.2911
  I  I133  1  0.089400  0.978730  0.674340  1.0  -0.2996
  I  I134  1  0.697720  0.790380  0.614070  1.0  -0.2802
  I  I135  1  0.237000  0.009700  0.499770  1.0  -0.191
  I  I136  1  0.010520  0.220360  0.528350  1.0  -0.2911
  I  I137  1  0.910600  0.021270  0.325660  1.0  -0.2988
  I  I138  1  0.302280  0.209620  0.385930  1.0  -0.2817
  N  N139  1  0.577800  0.761700  0.434700  1.0  -0.2861
  N  N140  1  0.707900  0.028200  0.668100  1.0  -0.3365
  N  N141  1  0.098100  0.754700  0.642200  1.0  -0.3123
  N  N142  1  0.422200  0.238300  0.565300  1.0  -0.2851
  N  N143  1  0.292100  0.971800  0.331900  1.0  -0.3347
  N  N144  1  0.901900  0.245300  0.357800  1.0  -0.3146
  O  O145  1  0.170400  0.544400  0.091800  1.0  -0.7421
  O  O146  1  0.940000  0.485300  0.072000  1.0  -0.7251
  O  O147  1  0.545200  0.375400  0.928300  1.0  -0.7414
  O  O148  1  0.326400  0.408000  0.912800  1.0  -0.7473
  O  O149  1  0.359200  0.583000  0.921700  1.0  -0.6471
  O  O150  1  0.576700  0.550100  0.938800  1.0  -0.7872
  O  O151  1  0.829600  0.455600  0.908200  1.0  -0.743
  O  O152  1  0.060000  0.514700  0.928000  1.0  -0.7257
  O  O153  1  0.454800  0.624600  0.071700  1.0  -0.7411
  O  O154  1  0.673600  0.592000  0.087200  1.0  -0.7473
  O  O155  1  0.640800  0.417000  0.078300  1.0  -0.6488
  O  O156  1  0.423300  0.449900  0.061200  1.0  -0.7904
