# generated using pymatgen
data_FeH4C8O5
_symmetry_space_group_name_H-M   'P 1'
_cell_length_a   14.93200000
_cell_length_b   14.93200000
_cell_length_c   11.95600000
_cell_angle_alpha   90.00000000
_cell_angle_beta   90.00000000
_cell_angle_gamma   90.00000000
_symmetry_Int_Tables_number   1
_chemical_formula_structural   FeH4C8O5
_chemical_formula_sum   'Fe8 H32 C64 O40'
_cell_volume   2665.76504454
_cell_formula_units_Z   8
loop_
 _symmetry_equiv_pos_site_id
 _symmetry_equiv_pos_as_xyz
  1  'x, y, z'
loop_
 _atom_site_type_symbol
 _atom_site_label
 _atom_site_symmetry_multiplicity
 _atom_site_fract_x
 _atom_site_fract_y
 _atom_site_fract_z
 _atom_site_occupancy
 _atom_site_charge
  Fe  Fe1  1  0.307280  0.307280  0.000000  1.0  0.6077
  Fe  Fe2  1  0.807280  0.807280  0.500000  1.0  0.6077
  Fe  Fe3  1  0.192720  0.192720  0.500000  1.0  0.6158
  Fe  Fe4  1  0.692720  0.807280  0.250000  1.0  0.6147
  Fe  Fe5  1  0.807280  0.692720  0.750000  1.0  0.6086
  Fe  Fe6  1  0.192720  0.307280  0.750000  1.0  0.6147
  Fe  Fe7  1  0.307280  0.192720  0.250000  1.0  0.6086
  Fe  Fe8  1  0.692720  0.692720  0.000000  1.0  0.6158
  H  H9  1  0.437500  0.118400  0.831500  1.0  0.1653
  H  H10  1  0.937500  0.618400  0.331500  1.0  0.1653
  H  H11  1  0.062500  0.381600  0.331500  1.0  0.165
  H  H12  1  0.562500  0.881600  0.831500  1.0  0.165
  H  H13  1  0.881600  0.937500  0.081500  1.0  0.1655
  H  H14  1  0.381600  0.437500  0.581500  1.0  0.1655
  H  H15  1  0.618400  0.562500  0.581500  1.0  0.1652
  H  H16  1  0.118400  0.062500  0.081500  1.0  0.1652
  H  H17  1  0.062500  0.118400  0.918500  1.0  0.1653
  H  H18  1  0.562500  0.618400  0.418500  1.0  0.1653
  H  H19  1  0.437500  0.381600  0.418500  1.0  0.1655
  H  H20  1  0.937500  0.881600  0.918500  1.0  0.1655
  H  H21  1  0.618400  0.937500  0.668500  1.0  0.1652
  H  H22  1  0.118400  0.437500  0.168500  1.0  0.1652
  H  H23  1  0.881600  0.562500  0.168500  1.0  0.1656
  H  H24  1  0.381600  0.062500  0.668500  1.0  0.1656
  H  H25  1  0.191600  0.250000  0.125000  1.0  0.5441
  H  H26  1  0.691600  0.750000  0.625000  1.0  0.5441
  H  H27  1  0.308400  0.250000  0.625000  1.0  0.5441
  H  H28  1  0.808400  0.750000  0.125000  1.0  0.5441
  H  H29  1  0.750000  0.691600  0.375000  1.0  0.5464
  H  H30  1  0.250000  0.191600  0.875000  1.0  0.5464
  H  H31  1  0.750000  0.808400  0.875000  1.0  0.5461
  H  H32  1  0.250000  0.308400  0.375000  1.0  0.5461
  H  H33  1  0.500000  0.000000  0.124500  1.0  0.1696
  H  H34  1  0.000000  0.500000  0.624500  1.0  0.1696
  H  H35  1  0.000000  0.000000  0.374500  1.0  0.1696
  H  H36  1  0.500000  0.500000  0.874500  1.0  0.1696
  H  H37  1  0.000000  0.000000  0.625500  1.0  0.17
  H  H38  1  0.500000  0.500000  0.125500  1.0  0.17
  H  H39  1  0.500000  0.000000  0.375500  1.0  0.17
  H  H40  1  0.000000  0.500000  0.875500  1.0  0.17
  C  C41  1  0.408000  0.140300  0.047800  1.0  0.7743
  C  C42  1  0.454500  0.068600  0.990700  1.0  -0.0315
  C  C43  1  0.460600  0.069800  0.870800  1.0  -0.0131
  C  C44  1  0.908000  0.640300  0.547800  1.0  0.7743
  C  C45  1  0.954500  0.568600  0.490700  1.0  -0.0315
  C  C46  1  0.960600  0.569800  0.370800  1.0  -0.0131
  C  C47  1  0.092000  0.359700  0.547800  1.0  0.7728
  C  C48  1  0.045500  0.431400  0.490700  1.0  -0.031
  C  C49  1  0.039400  0.430200  0.370800  1.0  -0.0125
  C  C50  1  0.592000  0.859700  0.047800  1.0  0.7728
  C  C51  1  0.545500  0.931400  0.990700  1.0  -0.031
  C  C52  1  0.539400  0.930200  0.870800  1.0  -0.0125
  C  C53  1  0.859700  0.908000  0.297800  1.0  0.7714
  C  C54  1  0.931400  0.954500  0.240700  1.0  -0.0307
  C  C55  1  0.930200  0.960600  0.120800  1.0  -0.0137
  C  C56  1  0.359700  0.408000  0.797800  1.0  0.7714
  C  C57  1  0.431400  0.454500  0.740700  1.0  -0.0307
  C  C58  1  0.430200  0.460600  0.620800  1.0  -0.0137
  C  C59  1  0.640300  0.592000  0.797800  1.0  0.7724
  C  C60  1  0.568600  0.545500  0.740700  1.0  -0.0303
  C  C61  1  0.569800  0.539400  0.620800  1.0  -0.0122
  C  C62  1  0.140300  0.092000  0.297800  1.0  0.7724
  C  C63  1  0.068600  0.045500  0.240700  1.0  -0.0303
  C  C64  1  0.069800  0.039400  0.120800  1.0  -0.0122
  C  C65  1  0.092000  0.140300  0.702200  1.0  0.7737
  C  C66  1  0.045500  0.068600  0.759300  1.0  -0.0306
  C  C67  1  0.039400  0.069800  0.879200  1.0  -0.0133
  C  C68  1  0.592000  0.640300  0.202200  1.0  0.7737
  C  C69  1  0.545500  0.568600  0.259300  1.0  -0.0306
  C  C70  1  0.539400  0.569800  0.379200  1.0  -0.0133
  C  C71  1  0.408000  0.359700  0.202200  1.0  0.7738
  C  C72  1  0.454500  0.431400  0.259300  1.0  -0.0308
  C  C73  1  0.460600  0.430200  0.379200  1.0  -0.0134
  C  C74  1  0.908000  0.859700  0.702200  1.0  0.7738
  C  C75  1  0.954500  0.931400  0.759300  1.0  -0.0308
  C  C76  1  0.960600  0.930200  0.879200  1.0  -0.0134
  C  C77  1  0.640300  0.908000  0.452200  1.0  0.7723
  C  C78  1  0.568600  0.954500  0.509300  1.0  -0.0294
  C  C79  1  0.569800  0.960600  0.629200  1.0  -0.0138
  C  C80  1  0.140300  0.408000  0.952200  1.0  0.7723
  C  C81  1  0.068600  0.454500  0.009300  1.0  -0.0294
  C  C82  1  0.069800  0.460600  0.129200  1.0  -0.0138
  C  C83  1  0.859700  0.592000  0.952200  1.0  0.7723
  C  C84  1  0.931400  0.545500  0.009300  1.0  -0.0305
  C  C85  1  0.930200  0.539400  0.129200  1.0  -0.0133
  C  C86  1  0.359700  0.092000  0.452200  1.0  0.7723
  C  C87  1  0.431400  0.045500  0.509300  1.0  -0.0305
  C  C88  1  0.430200  0.039400  0.629200  1.0  -0.0133
  C  C89  1  0.500000  0.000000  0.046700  1.0  0.0678
  C  C90  1  0.500000  0.000000  0.812800  1.0  0.0262
  C  C91  1  0.000000  0.500000  0.546700  1.0  0.0678
  C  C92  1  0.000000  0.500000  0.312800  1.0  0.0262
  C  C93  1  0.000000  0.000000  0.296700  1.0  0.0678
  C  C94  1  0.000000  0.000000  0.062800  1.0  0.0262
  C  C95  1  0.500000  0.500000  0.796700  1.0  0.0678
  C  C96  1  0.500000  0.500000  0.562800  1.0  0.0262
  C  C97  1  0.000000  0.000000  0.703300  1.0  0.0687
  C  C98  1  0.000000  0.000000  0.937200  1.0  0.0256
  C  C99  1  0.500000  0.500000  0.203300  1.0  0.0687
  C  C100  1  0.500000  0.500000  0.437200  1.0  0.0256
  C  C101  1  0.500000  0.000000  0.453300  1.0  0.0687
  C  C102  1  0.500000  0.000000  0.687200  1.0  0.0256
  C  C103  1  0.000000  0.500000  0.953300  1.0  0.0687
  C  C104  1  0.000000  0.500000  0.187200  1.0  0.0256
  O  O105  1  0.399860  0.213480  0.996120  1.0  -0.5579
  O  O106  1  0.378300  0.120900  0.143400  1.0  -0.5421
  O  O107  1  0.899860  0.713480  0.496120  1.0  -0.5579
  O  O108  1  0.878300  0.620900  0.643400  1.0  -0.5421
  O  O109  1  0.100140  0.286520  0.496120  1.0  -0.5588
  O  O110  1  0.121700  0.379100  0.643400  1.0  -0.5422
  O  O111  1  0.600140  0.786520  0.996120  1.0  -0.5588
  O  O112  1  0.621700  0.879100  0.143400  1.0  -0.5422
  O  O113  1  0.786520  0.899860  0.246120  1.0  -0.5578
  O  O114  1  0.879100  0.878300  0.393400  1.0  -0.5414
  O  O115  1  0.286520  0.399860  0.746120  1.0  -0.5578
  O  O116  1  0.379100  0.378300  0.893400  1.0  -0.5414
  O  O117  1  0.713480  0.600140  0.746120  1.0  -0.5558
  O  O118  1  0.620900  0.621700  0.893400  1.0  -0.5409
  O  O119  1  0.213480  0.100140  0.246120  1.0  -0.5558
  O  O120  1  0.120900  0.121700  0.393400  1.0  -0.5409
  O  O121  1  0.100140  0.213480  0.753880  1.0  -0.558
  O  O122  1  0.121700  0.120900  0.606600  1.0  -0.5433
  O  O123  1  0.600140  0.713480  0.253880  1.0  -0.558
  O  O124  1  0.621700  0.620900  0.106600  1.0  -0.5433
  O  O125  1  0.399860  0.286520  0.253880  1.0  -0.5576
  O  O126  1  0.378300  0.379100  0.106600  1.0  -0.5434
  O  O127  1  0.899860  0.786520  0.753880  1.0  -0.5576
  O  O128  1  0.878300  0.879100  0.606600  1.0  -0.5434
  O  O129  1  0.713480  0.899860  0.503880  1.0  -0.5569
  O  O130  1  0.620900  0.878300  0.356600  1.0  -0.5418
  O  O131  1  0.213480  0.399860  0.003880  1.0  -0.5569
  O  O132  1  0.120900  0.378300  0.856600  1.0  -0.5418
  O  O133  1  0.786520  0.600140  0.003880  1.0  -0.5558
  O  O134  1  0.879100  0.621700  0.856600  1.0  -0.5425
  O  O135  1  0.286520  0.100140  0.503880  1.0  -0.5558
  O  O136  1  0.379100  0.121700  0.356600  1.0  -0.5425
  O  O137  1  0.246800  0.250000  0.125000  1.0  -1.0096
  O  O138  1  0.746800  0.750000  0.625000  1.0  -1.0096
  O  O139  1  0.253200  0.250000  0.625000  1.0  -1.0114
  O  O140  1  0.753200  0.750000  0.125000  1.0  -1.0114
  O  O141  1  0.750000  0.746800  0.375000  1.0  -1.0108
  O  O142  1  0.250000  0.246800  0.875000  1.0  -1.0108
  O  O143  1  0.750000  0.753200  0.875000  1.0  -1.0111
  O  O144  1  0.250000  0.253200  0.375000  1.0  -1.0111
