# generated using pymatgen
data_GaH4C8O5
_symmetry_space_group_name_H-M   'P 1'
_cell_length_a   15.05350000
_cell_length_b   15.05350000
_cell_length_c   11.87370000
_cell_angle_alpha   90.00000000
_cell_angle_beta   90.00000000
_cell_angle_gamma   90.00000000
_symmetry_Int_Tables_number   1
_chemical_formula_structural   GaH4C8O5
_chemical_formula_sum   'Ga8 H32 C64 O40'
_cell_volume   2690.67377400
_cell_formula_units_Z   8
loop_
 _symmetry_equiv_pos_site_id
 _symmetry_equiv_pos_as_xyz
  1  'x, y, z'
loop_
 _atom_site_type_symbol
 _atom_site_label
 _atom_site_symmetry_multiplicity
 _atom_site_fract_x
 _atom_site_fract_y
 _atom_site_fract_z
 _atom_site_occupancy
 _atom_site_charge
  Ga  Ga1  1  0.194730  0.194730  0.000000  1.0  1.6074
  Ga  Ga2  1  0.694730  0.694730  0.500000  1.0  1.6074
  Ga  Ga3  1  0.305270  0.305270  0.500000  1.0  1.6036
  Ga  Ga4  1  0.805270  0.694730  0.250000  1.0  1.6036
  Ga  Ga5  1  0.694730  0.805270  0.750000  1.0  1.6075
  Ga  Ga6  1  0.305270  0.194730  0.750000  1.0  1.6036
  Ga  Ga7  1  0.194730  0.305270  0.250000  1.0  1.6075
  Ga  Ga8  1  0.805270  0.805270  0.000000  1.0  1.6036
  H  H9  1  0.062300  0.381400  0.830300  1.0  0.1139
  H  H10  1  0.562300  0.881400  0.330300  1.0  0.1139
  H  H11  1  0.437700  0.118600  0.330300  1.0  0.1145
  H  H12  1  0.937700  0.618600  0.830300  1.0  0.1145
  H  H13  1  0.618600  0.562300  0.080300  1.0  0.1143
  H  H14  1  0.118600  0.062300  0.580300  1.0  0.1143
  H  H15  1  0.881400  0.937700  0.580300  1.0  0.1148
  H  H16  1  0.381400  0.437700  0.080300  1.0  0.1148
  H  H17  1  0.437700  0.381400  0.919700  1.0  0.114
  H  H18  1  0.937700  0.881400  0.419700  1.0  0.114
  H  H19  1  0.062300  0.118600  0.419700  1.0  0.1139
  H  H20  1  0.562300  0.618600  0.919700  1.0  0.1139
  H  H21  1  0.881400  0.562300  0.669700  1.0  0.1144
  H  H22  1  0.381400  0.062300  0.169700  1.0  0.1144
  H  H23  1  0.618600  0.937700  0.169700  1.0  0.1142
  H  H24  1  0.118600  0.437700  0.669700  1.0  0.1142
  H  H25  1  0.307900  0.250000  0.125000  1.0  0.4906
  H  H26  1  0.807900  0.750000  0.625000  1.0  0.4906
  H  H27  1  0.192100  0.250000  0.625000  1.0  0.4911
  H  H28  1  0.692100  0.750000  0.125000  1.0  0.4911
  H  H29  1  0.750000  0.807900  0.375000  1.0  0.4938
  H  H30  1  0.250000  0.307900  0.875000  1.0  0.4938
  H  H31  1  0.750000  0.692100  0.875000  1.0  0.4931
  H  H32  1  0.250000  0.192100  0.375000  1.0  0.4931
  H  H33  1  0.000000  0.500000  0.130200  1.0  0.1269
  H  H34  1  0.500000  0.000000  0.630200  1.0  0.1269
  H  H35  1  0.500000  0.500000  0.380200  1.0  0.1269
  H  H36  1  0.000000  0.000000  0.880200  1.0  0.1269
  H  H37  1  0.500000  0.500000  0.619800  1.0  0.127
  H  H38  1  0.000000  0.000000  0.119800  1.0  0.127
  H  H39  1  0.000000  0.500000  0.369800  1.0  0.127
  H  H40  1  0.500000  0.000000  0.869800  1.0  0.127
  C  C41  1  0.092300  0.361900  0.048400  1.0  0.7301
  C  C42  1  0.041100  0.430300  0.989700  1.0  -0.0906
  C  C43  1  0.038000  0.430100  0.870900  1.0  -0.0918
  C  C44  1  0.592300  0.861900  0.548400  1.0  0.7301
  C  C45  1  0.541100  0.930300  0.489700  1.0  -0.0906
  C  C46  1  0.538000  0.930100  0.370900  1.0  -0.0918
  C  C47  1  0.407700  0.138100  0.548400  1.0  0.7308
  C  C48  1  0.458900  0.069700  0.489700  1.0  -0.0902
  C  C49  1  0.462000  0.069900  0.370900  1.0  -0.0922
  C  C50  1  0.907700  0.638100  0.048400  1.0  0.7308
  C  C51  1  0.958900  0.569700  0.989700  1.0  -0.0902
  C  C52  1  0.962000  0.569900  0.870900  1.0  -0.0922
  C  C53  1  0.638100  0.592300  0.298400  1.0  0.7294
  C  C54  1  0.569700  0.541100  0.239700  1.0  -0.0893
  C  C55  1  0.569900  0.538000  0.120900  1.0  -0.0918
  C  C56  1  0.138100  0.092300  0.798400  1.0  0.7294
  C  C57  1  0.069700  0.041100  0.739700  1.0  -0.0893
  C  C58  1  0.069900  0.038000  0.620900  1.0  -0.0918
  C  C59  1  0.861900  0.907700  0.798400  1.0  0.7303
  C  C60  1  0.930300  0.958900  0.739700  1.0  -0.0892
  C  C61  1  0.930100  0.962000  0.620900  1.0  -0.0927
  C  C62  1  0.361900  0.407700  0.298400  1.0  0.7303
  C  C63  1  0.430300  0.458900  0.239700  1.0  -0.0892
  C  C64  1  0.430100  0.462000  0.120900  1.0  -0.0927
  C  C65  1  0.407700  0.361900  0.701600  1.0  0.73
  C  C66  1  0.458900  0.430300  0.760300  1.0  -0.0904
  C  C67  1  0.462000  0.430100  0.879100  1.0  -0.0925
  C  C68  1  0.907700  0.861900  0.201600  1.0  0.73
  C  C69  1  0.958900  0.930300  0.260300  1.0  -0.0904
  C  C70  1  0.962000  0.930100  0.379100  1.0  -0.0925
  C  C71  1  0.092300  0.138100  0.201600  1.0  0.7308
  C  C72  1  0.041100  0.069700  0.260300  1.0  -0.0902
  C  C73  1  0.038000  0.069900  0.379100  1.0  -0.0926
  C  C74  1  0.592300  0.638100  0.701600  1.0  0.7308
  C  C75  1  0.541100  0.569700  0.760300  1.0  -0.0902
  C  C76  1  0.538000  0.569900  0.879100  1.0  -0.0926
  C  C77  1  0.861900  0.592300  0.451600  1.0  0.73
  C  C78  1  0.930300  0.541100  0.510300  1.0  -0.0892
  C  C79  1  0.930100  0.538000  0.629100  1.0  -0.0927
  C  C80  1  0.361900  0.092300  0.951600  1.0  0.73
  C  C81  1  0.430300  0.041100  0.010300  1.0  -0.0892
  C  C82  1  0.430100  0.038000  0.129100  1.0  -0.0927
  C  C83  1  0.638100  0.907700  0.951600  1.0  0.7298
  C  C84  1  0.569700  0.958900  0.010300  1.0  -0.0897
  C  C85  1  0.569900  0.962000  0.129100  1.0  -0.0919
  C  C86  1  0.138100  0.407700  0.451600  1.0  0.7298
  C  C87  1  0.069700  0.458900  0.510300  1.0  -0.0897
  C  C88  1  0.069900  0.462000  0.629100  1.0  -0.0919
  C  C89  1  0.000000  0.500000  0.050200  1.0  -0.056
  C  C90  1  0.000000  0.500000  0.813600  1.0  0.0023
  C  C91  1  0.500000  0.000000  0.550200  1.0  -0.056
  C  C92  1  0.500000  0.000000  0.313600  1.0  0.0023
  C  C93  1  0.500000  0.500000  0.300200  1.0  -0.056
  C  C94  1  0.500000  0.500000  0.063600  1.0  0.0023
  C  C95  1  0.000000  0.000000  0.800200  1.0  -0.056
  C  C96  1  0.000000  0.000000  0.563600  1.0  0.0023
  C  C97  1  0.500000  0.500000  0.699800  1.0  -0.0538
  C  C98  1  0.500000  0.500000  0.936400  1.0  0.0019
  C  C99  1  0.000000  0.000000  0.199800  1.0  -0.0538
  C  C100  1  0.000000  0.000000  0.436400  1.0  0.0019
  C  C101  1  0.000000  0.500000  0.449800  1.0  -0.0538
  C  C102  1  0.000000  0.500000  0.686400  1.0  0.0019
  C  C103  1  0.500000  0.000000  0.949800  1.0  -0.0538
  C  C104  1  0.500000  0.000000  0.186400  1.0  0.0019
  O  O105  1  0.099600  0.285800  0.998800  1.0  -0.6204
  O  O106  1  0.125100  0.380700  0.142500  1.0  -0.5911
  O  O107  1  0.599600  0.785800  0.498800  1.0  -0.6204
  O  O108  1  0.625100  0.880700  0.642500  1.0  -0.5911
  O  O109  1  0.400400  0.214200  0.498800  1.0  -0.6171
  O  O110  1  0.374900  0.119300  0.642500  1.0  -0.5921
  O  O111  1  0.900400  0.714200  0.998800  1.0  -0.6171
  O  O112  1  0.874900  0.619300  0.142500  1.0  -0.5921
  O  O113  1  0.714200  0.599600  0.248800  1.0  -0.6162
  O  O114  1  0.619300  0.625100  0.392500  1.0  -0.5899
  O  O115  1  0.214200  0.099600  0.748800  1.0  -0.6162
  O  O116  1  0.119300  0.125100  0.892500  1.0  -0.5899
  O  O117  1  0.785800  0.900400  0.748800  1.0  -0.6178
  O  O118  1  0.880700  0.874900  0.892500  1.0  -0.5904
  O  O119  1  0.285800  0.400400  0.248800  1.0  -0.6178
  O  O120  1  0.380700  0.374900  0.392500  1.0  -0.5904
  O  O121  1  0.400400  0.285800  0.751200  1.0  -0.618
  O  O122  1  0.374900  0.380700  0.607500  1.0  -0.5936
  O  O123  1  0.900400  0.785800  0.251200  1.0  -0.618
  O  O124  1  0.874900  0.880700  0.107500  1.0  -0.5936
  O  O125  1  0.099600  0.214200  0.251200  1.0  -0.6185
  O  O126  1  0.125100  0.119300  0.107500  1.0  -0.5918
  O  O127  1  0.599600  0.714200  0.751200  1.0  -0.6185
  O  O128  1  0.625100  0.619300  0.607500  1.0  -0.5918
  O  O129  1  0.785800  0.599600  0.501200  1.0  -0.6183
  O  O130  1  0.880700  0.625100  0.357500  1.0  -0.5903
  O  O131  1  0.285800  0.099600  0.001200  1.0  -0.6183
  O  O132  1  0.380700  0.125100  0.857500  1.0  -0.5903
  O  O133  1  0.714200  0.900400  0.001200  1.0  -0.6163
  O  O134  1  0.619300  0.874900  0.857500  1.0  -0.5904
  O  O135  1  0.214200  0.400400  0.501200  1.0  -0.6163
  O  O136  1  0.119300  0.374900  0.357500  1.0  -0.5904
  O  O137  1  0.252300  0.250000  0.125000  1.0  -1.0788
  O  O138  1  0.752300  0.750000  0.625000  1.0  -1.0788
  O  O139  1  0.247700  0.250000  0.625000  1.0  -1.0769
  O  O140  1  0.747700  0.750000  0.125000  1.0  -1.0769
  O  O141  1  0.750000  0.752300  0.375000  1.0  -1.0781
  O  O142  1  0.250000  0.252300  0.875000  1.0  -1.0781
  O  O143  1  0.750000  0.747700  0.875000  1.0  -1.0794
  O  O144  1  0.250000  0.247700  0.375000  1.0  -1.0794
