# generated using pymatgen
data_FeH4C8O5
_symmetry_space_group_name_H-M   'P 1'
_cell_length_a   14.92400000
_cell_length_b   14.92400000
_cell_length_c   11.92900000
_cell_angle_alpha   90.00000000
_cell_angle_beta   90.00000000
_cell_angle_gamma   90.00000000
_symmetry_Int_Tables_number   1
_chemical_formula_structural   FeH4C8O5
_chemical_formula_sum   'Fe8 H32 C64 O40'
_cell_volume   2656.89578190
_cell_formula_units_Z   8
loop_
 _symmetry_equiv_pos_site_id
 _symmetry_equiv_pos_as_xyz
  1  'x, y, z'
loop_
 _atom_site_type_symbol
 _atom_site_label
 _atom_site_symmetry_multiplicity
 _atom_site_fract_x
 _atom_site_fract_y
 _atom_site_fract_z
 _atom_site_occupancy
 _atom_site_charge
  Fe  Fe1  1  0.193470  0.193470  0.000000  1.0  0.6558
  Fe  Fe2  1  0.693470  0.693470  0.500000  1.0  0.6558
  Fe  Fe3  1  0.306530  0.306530  0.500000  1.0  0.6464
  Fe  Fe4  1  0.806530  0.693470  0.250000  1.0  0.6475
  Fe  Fe5  1  0.693470  0.806530  0.750000  1.0  0.6544
  Fe  Fe6  1  0.306530  0.193470  0.750000  1.0  0.6475
  Fe  Fe7  1  0.193470  0.306530  0.250000  1.0  0.6544
  Fe  Fe8  1  0.806530  0.806530  0.000000  1.0  0.6464
  H  H9  1  0.064100  0.382400  0.829800  1.0  0.1589
  H  H10  1  0.564100  0.882400  0.329800  1.0  0.1589
  H  H11  1  0.435900  0.117600  0.329800  1.0  0.1595
  H  H12  1  0.935900  0.617600  0.829800  1.0  0.1595
  H  H13  1  0.617600  0.564100  0.079800  1.0  0.1592
  H  H14  1  0.117600  0.064100  0.579800  1.0  0.1592
  H  H15  1  0.882400  0.935900  0.579800  1.0  0.1597
  H  H16  1  0.382400  0.435900  0.079800  1.0  0.1597
  H  H17  1  0.435900  0.382400  0.920200  1.0  0.1598
  H  H18  1  0.935900  0.882400  0.420200  1.0  0.1598
  H  H19  1  0.064100  0.117600  0.420200  1.0  0.1597
  H  H20  1  0.564100  0.617600  0.920200  1.0  0.1597
  H  H21  1  0.882400  0.564100  0.670200  1.0  0.16
  H  H22  1  0.382400  0.064100  0.170200  1.0  0.16
  H  H23  1  0.617600  0.935900  0.170200  1.0  0.1597
  H  H24  1  0.117600  0.435900  0.670200  1.0  0.1597
  H  H25  1  0.308800  0.250000  0.125000  1.0  0.544
  H  H26  1  0.808800  0.750000  0.625000  1.0  0.544
  H  H27  1  0.191200  0.250000  0.625000  1.0  0.5438
  H  H28  1  0.691200  0.750000  0.125000  1.0  0.5438
  H  H29  1  0.750000  0.808800  0.375000  1.0  0.5468
  H  H30  1  0.250000  0.308800  0.875000  1.0  0.5468
  H  H31  1  0.750000  0.691200  0.875000  1.0  0.5463
  H  H32  1  0.250000  0.191200  0.375000  1.0  0.5463
  H  H33  1  0.000000  0.500000  0.126800  1.0  0.168
  H  H34  1  0.500000  0.000000  0.626800  1.0  0.168
  H  H35  1  0.500000  0.500000  0.376800  1.0  0.168
  H  H36  1  0.000000  0.000000  0.876800  1.0  0.168
  H  H37  1  0.500000  0.500000  0.623200  1.0  0.1685
  H  H38  1  0.000000  0.000000  0.123200  1.0  0.1685
  H  H39  1  0.000000  0.500000  0.373200  1.0  0.1685
  H  H40  1  0.500000  0.000000  0.873200  1.0  0.1685
  C  C41  1  0.091100  0.359600  0.049000  1.0  0.7886
  C  C42  1  0.043300  0.430560  0.990500  1.0  -0.0423
  C  C43  1  0.039100  0.431100  0.870300  1.0  -0.0276
  C  C44  1  0.591100  0.859600  0.549000  1.0  0.7886
  C  C45  1  0.543300  0.930560  0.490500  1.0  -0.0423
  C  C46  1  0.539100  0.931100  0.370300  1.0  -0.0276
  C  C47  1  0.408900  0.140400  0.549000  1.0  0.789
  C  C48  1  0.456700  0.069440  0.490500  1.0  -0.0429
  C  C49  1  0.460900  0.068900  0.370300  1.0  -0.0264
  C  C50  1  0.908900  0.640400  0.049000  1.0  0.789
  C  C51  1  0.956700  0.569440  0.990500  1.0  -0.0429
  C  C52  1  0.960900  0.568900  0.870300  1.0  -0.0264
  C  C53  1  0.640400  0.591100  0.299000  1.0  0.7873
  C  C54  1  0.569440  0.543300  0.240500  1.0  -0.0415
  C  C55  1  0.568900  0.539100  0.120300  1.0  -0.0264
  C  C56  1  0.140400  0.091100  0.799000  1.0  0.7873
  C  C57  1  0.069440  0.043300  0.740500  1.0  -0.0415
  C  C58  1  0.068900  0.039100  0.620300  1.0  -0.0264
  C  C59  1  0.859600  0.908900  0.799000  1.0  0.7867
  C  C60  1  0.930560  0.956700  0.740500  1.0  -0.0411
  C  C61  1  0.931100  0.960900  0.620300  1.0  -0.0261
  C  C62  1  0.359600  0.408900  0.299000  1.0  0.7867
  C  C63  1  0.430560  0.456700  0.240500  1.0  -0.0411
  C  C64  1  0.431100  0.460900  0.120300  1.0  -0.0261
  C  C65  1  0.408900  0.359600  0.701000  1.0  0.7884
  C  C66  1  0.456700  0.430560  0.759500  1.0  -0.0424
  C  C67  1  0.460900  0.431100  0.879700  1.0  -0.0272
  C  C68  1  0.908900  0.859600  0.201000  1.0  0.7884
  C  C69  1  0.956700  0.930560  0.259500  1.0  -0.0424
  C  C70  1  0.960900  0.931100  0.379700  1.0  -0.0272
  C  C71  1  0.091100  0.140400  0.201000  1.0  0.7894
  C  C72  1  0.043300  0.069440  0.259500  1.0  -0.042
  C  C73  1  0.039100  0.068900  0.379700  1.0  -0.0265
  C  C74  1  0.591100  0.640400  0.701000  1.0  0.7894
  C  C75  1  0.543300  0.569440  0.759500  1.0  -0.042
  C  C76  1  0.539100  0.568900  0.879700  1.0  -0.0265
  C  C77  1  0.859600  0.591100  0.451000  1.0  0.7875
  C  C78  1  0.930560  0.543300  0.509500  1.0  -0.0408
  C  C79  1  0.931100  0.539100  0.629700  1.0  -0.026
  C  C80  1  0.359600  0.091100  0.951000  1.0  0.7875
  C  C81  1  0.430560  0.043300  0.009500  1.0  -0.0408
  C  C82  1  0.431100  0.039100  0.129700  1.0  -0.026
  C  C83  1  0.640400  0.908900  0.951000  1.0  0.787
  C  C84  1  0.569440  0.956700  0.009500  1.0  -0.0412
  C  C85  1  0.568900  0.960900  0.129700  1.0  -0.0254
  C  C86  1  0.140400  0.408900  0.451000  1.0  0.787
  C  C87  1  0.069440  0.456700  0.509500  1.0  -0.0412
  C  C88  1  0.068900  0.460900  0.629700  1.0  -0.0254
  C  C89  1  0.000000  0.500000  0.812300  1.0  0.0514
  C  C90  1  0.000000  0.500000  0.047100  1.0  0.0561
  C  C91  1  0.500000  0.000000  0.312300  1.0  0.0514
  C  C92  1  0.500000  0.000000  0.547100  1.0  0.0561
  C  C93  1  0.500000  0.500000  0.062300  1.0  0.0514
  C  C94  1  0.500000  0.500000  0.297100  1.0  0.0561
  C  C95  1  0.000000  0.000000  0.562300  1.0  0.0514
  C  C96  1  0.000000  0.000000  0.797100  1.0  0.0561
  C  C97  1  0.500000  0.500000  0.937700  1.0  0.0508
  C  C98  1  0.500000  0.500000  0.702900  1.0  0.0562
  C  C99  1  0.000000  0.000000  0.437700  1.0  0.0508
  C  C100  1  0.000000  0.000000  0.202900  1.0  0.0562
  C  C101  1  0.000000  0.500000  0.687700  1.0  0.0508
  C  C102  1  0.000000  0.500000  0.452900  1.0  0.0562
  C  C103  1  0.500000  0.000000  0.187700  1.0  0.0508
  C  C104  1  0.500000  0.000000  0.952900  1.0  0.0562
  O  O105  1  0.099440  0.286120  0.997830  1.0  -0.5654
  O  O106  1  0.122490  0.379510  0.143310  1.0  -0.5386
  O  O107  1  0.599440  0.786120  0.497830  1.0  -0.5654
  O  O108  1  0.622490  0.879510  0.643310  1.0  -0.5386
  O  O109  1  0.400560  0.213880  0.497830  1.0  -0.5643
  O  O110  1  0.377510  0.120490  0.643310  1.0  -0.5392
  O  O111  1  0.900560  0.713880  0.997830  1.0  -0.5643
  O  O112  1  0.877510  0.620490  0.143310  1.0  -0.5392
  O  O113  1  0.713880  0.599440  0.247830  1.0  -0.563
  O  O114  1  0.620490  0.622490  0.393310  1.0  -0.537
  O  O115  1  0.213880  0.099440  0.747830  1.0  -0.563
  O  O116  1  0.120490  0.122490  0.893310  1.0  -0.537
  O  O117  1  0.786120  0.900560  0.747830  1.0  -0.5639
  O  O118  1  0.879510  0.877510  0.893310  1.0  -0.5383
  O  O119  1  0.286120  0.400560  0.247830  1.0  -0.5639
  O  O120  1  0.379510  0.377510  0.393310  1.0  -0.5383
  O  O121  1  0.400560  0.286120  0.752170  1.0  -0.5642
  O  O122  1  0.377510  0.379510  0.606690  1.0  -0.5398
  O  O123  1  0.900560  0.786120  0.252170  1.0  -0.5642
  O  O124  1  0.877510  0.879510  0.106690  1.0  -0.5398
  O  O125  1  0.099440  0.213880  0.252170  1.0  -0.5647
  O  O126  1  0.122490  0.120490  0.106690  1.0  -0.539
  O  O127  1  0.599440  0.713880  0.752170  1.0  -0.5647
  O  O128  1  0.622490  0.620490  0.606690  1.0  -0.539
  O  O129  1  0.786120  0.599440  0.502170  1.0  -0.5629
  O  O130  1  0.879510  0.622490  0.356690  1.0  -0.5383
  O  O131  1  0.286120  0.099440  0.002170  1.0  -0.5629
  O  O132  1  0.379510  0.122490  0.856690  1.0  -0.5383
  O  O133  1  0.713880  0.900560  0.002170  1.0  -0.5639
  O  O134  1  0.620490  0.877510  0.856690  1.0  -0.5374
  O  O135  1  0.213880  0.400560  0.502170  1.0  -0.5639
  O  O136  1  0.120490  0.377510  0.356690  1.0  -0.5374
  O  O137  1  0.253700  0.250000  0.125000  1.0  -1.0263
  O  O138  1  0.753700  0.750000  0.625000  1.0  -1.0263
  O  O139  1  0.246300  0.250000  0.625000  1.0  -1.0242
  O  O140  1  0.746300  0.750000  0.125000  1.0  -1.0242
  O  O141  1  0.750000  0.753700  0.375000  1.0  -1.0257
  O  O142  1  0.250000  0.253700  0.875000  1.0  -1.0257
  O  O143  1  0.750000  0.746300  0.875000  1.0  -1.0254
  O  O144  1  0.250000  0.246300  0.375000  1.0  -1.0254
