# generated using pymatgen
data_Dy2Co3H18C42(NO4)6
_symmetry_space_group_name_H-M   'P 1'
_cell_length_a   15.14730000
_cell_length_b   15.14730000
_cell_length_c   15.47660000
_cell_angle_alpha   90.00000000
_cell_angle_beta   90.00000000
_cell_angle_gamma   120.00000000
_symmetry_Int_Tables_number   1
_chemical_formula_structural   Dy2Co3H18C42(NO4)6
_chemical_formula_sum   'Dy4 Co6 H36 C84 N12 O48'
_cell_volume   3075.22320953
_cell_formula_units_Z   2
loop_
 _symmetry_equiv_pos_site_id
 _symmetry_equiv_pos_as_xyz
  1  'x, y, z'
loop_
 _atom_site_type_symbol
 _atom_site_label
 _atom_site_symmetry_multiplicity
 _atom_site_fract_x
 _atom_site_fract_y
 _atom_site_fract_z
 _atom_site_occupancy
 _atom_site_charge
  Dy  Dy1  1  0.666667  0.333333  0.750000  1.0  2.1217
  Dy  Dy2  1  0.333333  0.666667  0.750000  1.0  2.1217
  Dy  Dy3  1  0.333333  0.666667  0.250000  1.0  2.1217
  Dy  Dy4  1  0.666667  0.333333  0.250000  1.0  2.1217
  Co  Co5  1  0.500000  0.500000  0.500000  1.0  1.0581
  Co  Co6  1  0.000000  0.500000  0.500000  1.0  1.0581
  Co  Co7  1  0.500000  0.000000  0.500000  1.0  1.0581
  Co  Co8  1  0.000000  0.500000  0.000000  1.0  1.0581
  Co  Co9  1  0.500000  0.500000  0.000000  1.0  1.0581
  Co  Co10  1  0.500000  0.000000  0.000000  1.0  1.0581
  H  H11  1  0.286700  0.233100  0.655000  1.0  0.1196
  H  H12  1  0.946400  0.713300  0.655000  1.0  0.1202
  H  H13  1  0.766900  0.053600  0.655000  1.0  0.1204
  H  H14  1  0.713300  0.766900  0.655000  1.0  0.1211
  H  H15  1  0.053600  0.286700  0.655000  1.0  0.1199
  H  H16  1  0.233100  0.946400  0.655000  1.0  0.1195
  H  H17  1  0.053600  0.766900  0.845000  1.0  0.1218
  H  H18  1  0.233100  0.286700  0.845000  1.0  0.1204
  H  H19  1  0.713300  0.946400  0.845000  1.0  0.121
  H  H20  1  0.946400  0.233100  0.845000  1.0  0.1204
  H  H21  1  0.766900  0.713300  0.845000  1.0  0.1219
  H  H22  1  0.286700  0.053600  0.845000  1.0  0.1196
  H  H23  1  0.713300  0.766900  0.345000  1.0  0.1219
  H  H24  1  0.053600  0.286700  0.345000  1.0  0.1204
  H  H25  1  0.233100  0.946400  0.345000  1.0  0.1197
  H  H26  1  0.286700  0.233100  0.345000  1.0  0.1199
  H  H27  1  0.946400  0.713300  0.345000  1.0  0.1206
  H  H28  1  0.766900  0.053600  0.345000  1.0  0.1208
  H  H29  1  0.946400  0.233100  0.155000  1.0  0.1196
  H  H30  1  0.766900  0.713300  0.155000  1.0  0.1215
  H  H31  1  0.286700  0.053600  0.155000  1.0  0.1192
  H  H32  1  0.053600  0.766900  0.155000  1.0  0.1205
  H  H33  1  0.233100  0.286700  0.155000  1.0  0.12
  H  H34  1  0.713300  0.946400  0.155000  1.0  0.1207
  H  H35  1  0.199300  0.099650  0.750000  1.0  0.0881
  H  H36  1  0.900350  0.800700  0.750000  1.0  0.0877
  H  H37  1  0.900350  0.099650  0.750000  1.0  0.088
  H  H38  1  0.800700  0.900350  0.750000  1.0  0.0879
  H  H39  1  0.099650  0.199300  0.750000  1.0  0.0865
  H  H40  1  0.099650  0.900350  0.750000  1.0  0.0881
  H  H41  1  0.800700  0.900350  0.250000  1.0  0.0879
  H  H42  1  0.099650  0.199300  0.250000  1.0  0.0865
  H  H43  1  0.099650  0.900350  0.250000  1.0  0.0881
  H  H44  1  0.199300  0.099650  0.250000  1.0  0.0881
  H  H45  1  0.900350  0.800700  0.250000  1.0  0.0877
  H  H46  1  0.900350  0.099650  0.250000  1.0  0.088
  C  C47  1  0.492400  0.354400  0.639200  1.0  0.6597
  C  C48  1  0.426600  0.265100  0.696100  1.0  0.1489
  C  C49  1  0.321400  0.214200  0.693600  1.0  -0.1275
  C  C50  1  0.862000  0.507600  0.639200  1.0  0.6609
  C  C51  1  0.838500  0.573400  0.696100  1.0  0.1484
  C  C52  1  0.892800  0.678600  0.693600  1.0  -0.1278
  C  C53  1  0.645600  0.138000  0.639200  1.0  0.6617
  C  C54  1  0.734900  0.161500  0.696100  1.0  0.1492
  C  C55  1  0.785800  0.107200  0.693600  1.0  -0.1295
  C  C56  1  0.507600  0.645600  0.639200  1.0  0.6621
  C  C57  1  0.573400  0.734900  0.696100  1.0  0.1477
  C  C58  1  0.678600  0.785800  0.693600  1.0  -0.1284
  C  C59  1  0.138000  0.492400  0.639200  1.0  0.6591
  C  C60  1  0.161500  0.426600  0.696100  1.0  0.1488
  C  C61  1  0.107200  0.321400  0.693600  1.0  -0.126
  C  C62  1  0.354400  0.862000  0.639200  1.0  0.6596
  C  C63  1  0.265100  0.838500  0.696100  1.0  0.1496
  C  C64  1  0.214200  0.892800  0.693600  1.0  -0.1269
  C  C65  1  0.138000  0.645600  0.860800  1.0  0.6598
  C  C66  1  0.161500  0.734900  0.803900  1.0  0.1479
  C  C67  1  0.107200  0.785800  0.806400  1.0  -0.1288
  C  C68  1  0.354400  0.492400  0.860800  1.0  0.6604
  C  C69  1  0.265100  0.426600  0.803900  1.0  0.1487
  C  C70  1  0.214200  0.321400  0.806400  1.0  -0.1288
  C  C71  1  0.507600  0.862000  0.860800  1.0  0.662
  C  C72  1  0.573400  0.838500  0.803900  1.0  0.1489
  C  C73  1  0.678600  0.892800  0.806400  1.0  -0.129
  C  C74  1  0.862000  0.354400  0.860800  1.0  0.6609
  C  C75  1  0.838500  0.265100  0.803900  1.0  0.1484
  C  C76  1  0.892800  0.214200  0.806400  1.0  -0.1281
  C  C77  1  0.645600  0.507600  0.860800  1.0  0.6601
  C  C78  1  0.734900  0.573400  0.803900  1.0  0.1491
  C  C79  1  0.785800  0.678600  0.806400  1.0  -0.1283
  C  C80  1  0.492400  0.138000  0.860800  1.0  0.6587
  C  C81  1  0.426600  0.161500  0.803900  1.0  0.1498
  C  C82  1  0.321400  0.107200  0.806400  1.0  -0.1288
  C  C83  1  0.507600  0.645600  0.360800  1.0  0.662
  C  C84  1  0.573400  0.734900  0.303900  1.0  0.1483
  C  C85  1  0.678600  0.785800  0.306400  1.0  -0.1282
  C  C86  1  0.138000  0.492400  0.360800  1.0  0.6584
  C  C87  1  0.161500  0.426600  0.303900  1.0  0.1486
  C  C88  1  0.107200  0.321400  0.306400  1.0  -0.1265
  C  C89  1  0.354400  0.862000  0.360800  1.0  0.6597
  C  C90  1  0.265100  0.838500  0.303900  1.0  0.1497
  C  C91  1  0.214200  0.892800  0.306400  1.0  -0.1275
  C  C92  1  0.492400  0.354400  0.360800  1.0  0.659
  C  C93  1  0.426600  0.265100  0.303900  1.0  0.1482
  C  C94  1  0.321400  0.214200  0.306400  1.0  -0.1284
  C  C95  1  0.862000  0.507600  0.360800  1.0  0.6611
  C  C96  1  0.838500  0.573400  0.303900  1.0  0.1491
  C  C97  1  0.892800  0.678600  0.306400  1.0  -0.1278
  C  C98  1  0.645600  0.138000  0.360800  1.0  0.6619
  C  C99  1  0.734900  0.161500  0.303900  1.0  0.149
  C  C100  1  0.785800  0.107200  0.306400  1.0  -0.1293
  C  C101  1  0.862000  0.354400  0.139200  1.0  0.6617
  C  C102  1  0.838500  0.265100  0.196100  1.0  0.1487
  C  C103  1  0.892800  0.214200  0.193600  1.0  -0.1284
  C  C104  1  0.645600  0.507600  0.139200  1.0  0.6603
  C  C105  1  0.734900  0.573400  0.196100  1.0  0.1484
  C  C106  1  0.785800  0.678600  0.193600  1.0  -0.1279
  C  C107  1  0.492400  0.138000  0.139200  1.0  0.6584
  C  C108  1  0.426600  0.161500  0.196100  1.0  0.1496
  C  C109  1  0.321400  0.107200  0.193600  1.0  -0.1284
  C  C110  1  0.138000  0.645600  0.139200  1.0  0.6596
  C  C111  1  0.161500  0.734900  0.196100  1.0  0.148
  C  C112  1  0.107200  0.785800  0.193600  1.0  -0.1278
  C  C113  1  0.354400  0.492400  0.139200  1.0  0.6607
  C  C114  1  0.265100  0.426600  0.196100  1.0  0.1489
  C  C115  1  0.214200  0.321400  0.193600  1.0  -0.1286
  C  C116  1  0.507600  0.862000  0.139200  1.0  0.6625
  C  C117  1  0.573400  0.838500  0.196100  1.0  0.1492
  C  C118  1  0.678600  0.892800  0.193600  1.0  -0.1296
  C  C119  1  0.270200  0.135100  0.750000  1.0  -0.0145
  C  C120  1  0.864900  0.729800  0.750000  1.0  -0.0128
  C  C121  1  0.864900  0.135100  0.750000  1.0  -0.0166
  C  C122  1  0.729800  0.864900  0.750000  1.0  -0.0158
  C  C123  1  0.135100  0.270200  0.750000  1.0  -0.0139
  C  C124  1  0.135100  0.864900  0.750000  1.0  -0.0217
  C  C125  1  0.729800  0.864900  0.250000  1.0  -0.0185
  C  C126  1  0.135100  0.270200  0.250000  1.0  -0.014
  C  C127  1  0.135100  0.864900  0.250000  1.0  -0.0155
  C  C128  1  0.270200  0.135100  0.250000  1.0  -0.0171
  C  C129  1  0.864900  0.729800  0.250000  1.0  -0.0131
  C  C130  1  0.864900  0.135100  0.250000  1.0  -0.018
  N  N131  1  0.478100  0.239050  0.750000  1.0  -0.4062
  N  N132  1  0.760950  0.521900  0.750000  1.0  -0.4051
  N  N133  1  0.760950  0.239050  0.750000  1.0  -0.4061
  N  N134  1  0.521900  0.760950  0.750000  1.0  -0.406
  N  N135  1  0.239050  0.478100  0.750000  1.0  -0.4064
  N  N136  1  0.239050  0.760950  0.750000  1.0  -0.4058
  N  N137  1  0.521900  0.760950  0.250000  1.0  -0.406
  N  N138  1  0.239050  0.478100  0.250000  1.0  -0.4064
  N  N139  1  0.239050  0.760950  0.250000  1.0  -0.4058
  N  N140  1  0.478100  0.239050  0.250000  1.0  -0.4062
  N  N141  1  0.760950  0.521900  0.250000  1.0  -0.4051
  N  N142  1  0.760950  0.239050  0.250000  1.0  -0.4061
  O  O143  1  0.587700  0.388900  0.643600  1.0  -0.6637
  O  O144  1  0.448400  0.386900  0.592000  1.0  -0.5919
  O  O145  1  0.801200  0.412300  0.643600  1.0  -0.6612
  O  O146  1  0.938500  0.551600  0.592000  1.0  -0.5902
  O  O147  1  0.611100  0.198800  0.643600  1.0  -0.662
  O  O148  1  0.613100  0.061500  0.592000  1.0  -0.5902
  O  O149  1  0.412300  0.611100  0.643600  1.0  -0.6622
  O  O150  1  0.551600  0.613100  0.592000  1.0  -0.5928
  O  O151  1  0.198800  0.587700  0.643600  1.0  -0.6612
  O  O152  1  0.061500  0.448400  0.592000  1.0  -0.5877
  O  O153  1  0.388900  0.801200  0.643600  1.0  -0.6632
  O  O154  1  0.386900  0.938500  0.592000  1.0  -0.5905
  O  O155  1  0.198800  0.611100  0.856400  1.0  -0.6626
  O  O156  1  0.061500  0.613100  0.908000  1.0  -0.5916
  O  O157  1  0.388900  0.587700  0.856400  1.0  -0.661
  O  O158  1  0.386900  0.448400  0.908000  1.0  -0.5894
  O  O159  1  0.412300  0.801200  0.856400  1.0  -0.6617
  O  O160  1  0.551600  0.938500  0.908000  1.0  -0.5899
  O  O161  1  0.801200  0.388900  0.856400  1.0  -0.6625
  O  O162  1  0.938500  0.386900  0.908000  1.0  -0.5917
  O  O163  1  0.611100  0.412300  0.856400  1.0  -0.6606
  O  O164  1  0.613100  0.551600  0.908000  1.0  -0.5879
  O  O165  1  0.587700  0.198800  0.856400  1.0  -0.6639
  O  O166  1  0.448400  0.061500  0.908000  1.0  -0.5905
  O  O167  1  0.412300  0.611100  0.356400  1.0  -0.6617
  O  O168  1  0.551600  0.613100  0.408000  1.0  -0.5924
  O  O169  1  0.198800  0.587700  0.356400  1.0  -0.6611
  O  O170  1  0.061500  0.448400  0.408000  1.0  -0.5875
  O  O171  1  0.388900  0.801200  0.356400  1.0  -0.662
  O  O172  1  0.386900  0.938500  0.408000  1.0  -0.5899
  O  O173  1  0.587700  0.388900  0.356400  1.0  -0.6631
  O  O174  1  0.448400  0.386900  0.408000  1.0  -0.5916
  O  O175  1  0.801200  0.412300  0.356400  1.0  -0.6605
  O  O176  1  0.938500  0.551600  0.408000  1.0  -0.5893
  O  O177  1  0.611100  0.198800  0.356400  1.0  -0.662
  O  O178  1  0.613100  0.061500  0.408000  1.0  -0.5903
  O  O179  1  0.801200  0.388900  0.143600  1.0  -0.6625
  O  O180  1  0.938500  0.386900  0.092000  1.0  -0.5922
  O  O181  1  0.611100  0.412300  0.143600  1.0  -0.661
  O  O182  1  0.613100  0.551600  0.092000  1.0  -0.5883
  O  O183  1  0.587700  0.198800  0.143600  1.0  -0.6643
  O  O184  1  0.448400  0.061500  0.092000  1.0  -0.5905
  O  O185  1  0.198800  0.611100  0.143600  1.0  -0.6637
  O  O186  1  0.061500  0.613100  0.092000  1.0  -0.5923
  O  O187  1  0.388900  0.587700  0.143600  1.0  -0.6615
  O  O188  1  0.386900  0.448400  0.092000  1.0  -0.5893
  O  O189  1  0.412300  0.801200  0.143600  1.0  -0.6621
  O  O190  1  0.551600  0.938500  0.092000  1.0  -0.5903
