# generated using pymatgen
data_Eu2Co3H18C42(NO4)6
_symmetry_space_group_name_H-M   'P 1'
_cell_length_a   15.29700000
_cell_length_b   15.29700000
_cell_length_c   15.37000000
_cell_angle_alpha   90.00000000
_cell_angle_beta   90.00000000
_cell_angle_gamma   120.00000000
_symmetry_Int_Tables_number   1
_chemical_formula_structural   Eu2Co3H18C42(NO4)6
_chemical_formula_sum   'Eu4 Co6 H36 C84 N12 O48'
_cell_volume   3114.70580708
_cell_formula_units_Z   2
loop_
 _symmetry_equiv_pos_site_id
 _symmetry_equiv_pos_as_xyz
  1  'x, y, z'
loop_
 _atom_site_type_symbol
 _atom_site_label
 _atom_site_symmetry_multiplicity
 _atom_site_fract_x
 _atom_site_fract_y
 _atom_site_fract_z
 _atom_site_occupancy
 _atom_site_charge
  Eu  Eu1  1  0.666667  0.333333  0.750000  1.0  1.9743
  Eu  Eu2  1  0.333333  0.666667  0.750000  1.0  1.9743
  Eu  Eu3  1  0.333333  0.666667  0.250000  1.0  1.9743
  Eu  Eu4  1  0.666667  0.333333  0.250000  1.0  1.9743
  Co  Co5  1  0.500000  0.500000  0.500000  1.0  1.1331
  Co  Co6  1  0.000000  0.500000  0.500000  1.0  1.1331
  Co  Co7  1  0.500000  0.000000  0.500000  1.0  1.1331
  Co  Co8  1  0.000000  0.500000  0.000000  1.0  1.1331
  Co  Co9  1  0.500000  0.500000  0.000000  1.0  1.1331
  Co  Co10  1  0.500000  0.000000  0.000000  1.0  1.1331
  H  H11  1  0.285300  0.232400  0.654900  1.0  0.1469
  H  H12  1  0.947100  0.714700  0.654900  1.0  0.1468
  H  H13  1  0.767600  0.052900  0.654900  1.0  0.1461
  H  H14  1  0.714700  0.767600  0.654900  1.0  0.1464
  H  H15  1  0.052900  0.285300  0.654900  1.0  0.1469
  H  H16  1  0.232400  0.947100  0.654900  1.0  0.1466
  H  H17  1  0.052900  0.767600  0.845100  1.0  0.1469
  H  H18  1  0.232400  0.285300  0.845100  1.0  0.147
  H  H19  1  0.714700  0.947100  0.845100  1.0  0.146
  H  H20  1  0.947100  0.232400  0.845100  1.0  0.1465
  H  H21  1  0.767600  0.714700  0.845100  1.0  0.1469
  H  H22  1  0.285300  0.052900  0.845100  1.0  0.1468
  H  H23  1  0.714700  0.767600  0.345100  1.0  0.1465
  H  H24  1  0.052900  0.285300  0.345100  1.0  0.147
  H  H25  1  0.232400  0.947100  0.345100  1.0  0.1466
  H  H26  1  0.285300  0.232400  0.345100  1.0  0.1469
  H  H27  1  0.947100  0.714700  0.345100  1.0  0.1468
  H  H28  1  0.767600  0.052900  0.345100  1.0  0.1461
  H  H29  1  0.947100  0.232400  0.154900  1.0  0.1464
  H  H30  1  0.767600  0.714700  0.154900  1.0  0.1469
  H  H31  1  0.285300  0.052900  0.154900  1.0  0.1466
  H  H32  1  0.052900  0.767600  0.154900  1.0  0.147
  H  H33  1  0.232400  0.285300  0.154900  1.0  0.147
  H  H34  1  0.714700  0.947100  0.154900  1.0  0.1461
  H  H35  1  0.200300  0.100150  0.750000  1.0  0.093
  H  H36  1  0.899850  0.799700  0.750000  1.0  0.0914
  H  H37  1  0.899850  0.100150  0.750000  1.0  0.0929
  H  H38  1  0.799700  0.899850  0.750000  1.0  0.0927
  H  H39  1  0.100150  0.200300  0.750000  1.0  0.0908
  H  H40  1  0.100150  0.899850  0.750000  1.0  0.093
  H  H41  1  0.799700  0.899850  0.250000  1.0  0.0927
  H  H42  1  0.100150  0.200300  0.250000  1.0  0.0908
  H  H43  1  0.100150  0.899850  0.250000  1.0  0.093
  H  H44  1  0.200300  0.100150  0.250000  1.0  0.093
  H  H45  1  0.899850  0.799700  0.250000  1.0  0.0914
  H  H46  1  0.899850  0.100150  0.250000  1.0  0.0929
  C  C47  1  0.491000  0.354050  0.639100  1.0  0.6553
  C  C48  1  0.425080  0.264750  0.696200  1.0  0.133
  C  C49  1  0.320080  0.213840  0.693400  1.0  -0.1492
  C  C50  1  0.863050  0.509000  0.639100  1.0  0.6543
  C  C51  1  0.839670  0.574920  0.696200  1.0  0.1325
  C  C52  1  0.893760  0.679920  0.693400  1.0  -0.1486
  C  C53  1  0.645950  0.136950  0.639100  1.0  0.6555
  C  C54  1  0.735250  0.160330  0.696200  1.0  0.1336
  C  C55  1  0.786160  0.106240  0.693400  1.0  -0.1498
  C  C56  1  0.509000  0.645950  0.639100  1.0  0.6552
  C  C57  1  0.574920  0.735250  0.696200  1.0  0.1326
  C  C58  1  0.679920  0.786160  0.693400  1.0  -0.1493
  C  C59  1  0.136950  0.491000  0.639100  1.0  0.6548
  C  C60  1  0.160330  0.425080  0.696200  1.0  0.133
  C  C61  1  0.106240  0.320080  0.693400  1.0  -0.1485
  C  C62  1  0.354050  0.863050  0.639100  1.0  0.6544
  C  C63  1  0.264750  0.839670  0.696200  1.0  0.1339
  C  C64  1  0.213840  0.893760  0.693400  1.0  -0.1491
  C  C65  1  0.136950  0.645950  0.860900  1.0  0.6549
  C  C66  1  0.160330  0.735250  0.803800  1.0  0.1329
  C  C67  1  0.106240  0.786160  0.806600  1.0  -0.1508
  C  C68  1  0.354050  0.491000  0.860900  1.0  0.6543
  C  C69  1  0.264750  0.425080  0.803800  1.0  0.1324
  C  C70  1  0.213840  0.320080  0.806600  1.0  -0.1505
  C  C71  1  0.509000  0.863050  0.860900  1.0  0.6547
  C  C72  1  0.574920  0.839670  0.803800  1.0  0.1337
  C  C73  1  0.679920  0.893760  0.806600  1.0  -0.1511
  C  C74  1  0.863050  0.354050  0.860900  1.0  0.6546
  C  C75  1  0.839670  0.264750  0.803800  1.0  0.1327
  C  C76  1  0.893760  0.213840  0.806600  1.0  -0.1513
  C  C77  1  0.645950  0.509000  0.860900  1.0  0.6541
  C  C78  1  0.735250  0.574920  0.803800  1.0  0.133
  C  C79  1  0.786160  0.679920  0.806600  1.0  -0.1511
  C  C80  1  0.491000  0.136950  0.860900  1.0  0.6545
  C  C81  1  0.425080  0.160330  0.803800  1.0  0.1337
  C  C82  1  0.320080  0.106240  0.806600  1.0  -0.1517
  C  C83  1  0.509000  0.645950  0.360900  1.0  0.6548
  C  C84  1  0.574920  0.735250  0.303800  1.0  0.1331
  C  C85  1  0.679920  0.786160  0.306600  1.0  -0.15
  C  C86  1  0.136950  0.491000  0.360900  1.0  0.6541
  C  C87  1  0.160330  0.425080  0.303800  1.0  0.133
  C  C88  1  0.106240  0.320080  0.306600  1.0  -0.15
  C  C89  1  0.354050  0.863050  0.360900  1.0  0.6544
  C  C90  1  0.264750  0.839670  0.303800  1.0  0.134
  C  C91  1  0.213840  0.893760  0.306600  1.0  -0.1505
  C  C92  1  0.491000  0.354050  0.360900  1.0  0.6545
  C  C93  1  0.425080  0.264750  0.303800  1.0  0.1329
  C  C94  1  0.320080  0.213840  0.306600  1.0  -0.1508
  C  C95  1  0.863050  0.509000  0.360900  1.0  0.6544
  C  C96  1  0.839670  0.574920  0.303800  1.0  0.133
  C  C97  1  0.893760  0.679920  0.306600  1.0  -0.1495
  C  C98  1  0.645950  0.136950  0.360900  1.0  0.6549
  C  C99  1  0.735250  0.160330  0.303800  1.0  0.1336
  C  C100  1  0.786160  0.106240  0.306600  1.0  -0.1511
  C  C101  1  0.863050  0.354050  0.139100  1.0  0.6555
  C  C102  1  0.839670  0.264750  0.196200  1.0  0.1329
  C  C103  1  0.893760  0.213840  0.193400  1.0  -0.1507
  C  C104  1  0.645950  0.509000  0.139100  1.0  0.6545
  C  C105  1  0.735250  0.574920  0.196200  1.0  0.1325
  C  C106  1  0.786160  0.679920  0.193400  1.0  -0.1497
  C  C107  1  0.491000  0.136950  0.139100  1.0  0.6545
  C  C108  1  0.425080  0.160330  0.196200  1.0  0.1335
  C  C109  1  0.320080  0.106240  0.193400  1.0  -0.1495
  C  C110  1  0.136950  0.645950  0.139100  1.0  0.6551
  C  C111  1  0.160330  0.735250  0.196200  1.0  0.1323
  C  C112  1  0.106240  0.786160  0.193400  1.0  -0.1492
  C  C113  1  0.354050  0.491000  0.139100  1.0  0.6547
  C  C114  1  0.264750  0.425080  0.196200  1.0  0.1324
  C  C115  1  0.213840  0.320080  0.193400  1.0  -0.1494
  C  C116  1  0.509000  0.863050  0.139100  1.0  0.6554
  C  C117  1  0.574920  0.839670  0.196200  1.0  0.1336
  C  C118  1  0.679920  0.893760  0.193400  1.0  -0.1505
  C  C119  1  0.270500  0.135250  0.750000  1.0  -0.0224
  C  C120  1  0.864750  0.729500  0.750000  1.0  -0.0212
  C  C121  1  0.864750  0.135250  0.750000  1.0  -0.0224
  C  C122  1  0.729500  0.864750  0.750000  1.0  -0.0228
  C  C123  1  0.135250  0.270500  0.750000  1.0  -0.0214
  C  C124  1  0.135250  0.864750  0.750000  1.0  -0.0226
  C  C125  1  0.729500  0.864750  0.250000  1.0  -0.0228
  C  C126  1  0.135250  0.270500  0.250000  1.0  -0.0214
  C  C127  1  0.135250  0.864750  0.250000  1.0  -0.0226
  C  C128  1  0.270500  0.135250  0.250000  1.0  -0.0224
  C  C129  1  0.864750  0.729500  0.250000  1.0  -0.0212
  C  C130  1  0.864750  0.135250  0.250000  1.0  -0.0224
  N  N131  1  0.477700  0.238850  0.750000  1.0  -0.3747
  N  N132  1  0.761150  0.522300  0.750000  1.0  -0.3744
  N  N133  1  0.761150  0.238850  0.750000  1.0  -0.3744
  N  N134  1  0.522300  0.761150  0.750000  1.0  -0.3746
  N  N135  1  0.238850  0.477700  0.750000  1.0  -0.3756
  N  N136  1  0.238850  0.761150  0.750000  1.0  -0.3745
  N  N137  1  0.522300  0.761150  0.250000  1.0  -0.3746
  N  N138  1  0.238850  0.477700  0.250000  1.0  -0.3756
  N  N139  1  0.238850  0.761150  0.250000  1.0  -0.3745
  N  N140  1  0.477700  0.238850  0.250000  1.0  -0.3747
  N  N141  1  0.761150  0.522300  0.250000  1.0  -0.3744
  N  N142  1  0.761150  0.238850  0.250000  1.0  -0.3744
  O  O143  1  0.586130  0.388580  0.643500  1.0  -0.6511
  O  O144  1  0.446590  0.386460  0.592100  1.0  -0.5961
  O  O145  1  0.802450  0.413870  0.643500  1.0  -0.6479
  O  O146  1  0.939870  0.553410  0.592100  1.0  -0.5954
  O  O147  1  0.611420  0.197550  0.643500  1.0  -0.6488
  O  O148  1  0.613540  0.060130  0.592100  1.0  -0.5946
  O  O149  1  0.413870  0.611420  0.643500  1.0  -0.6493
  O  O150  1  0.553410  0.613540  0.592100  1.0  -0.5969
  O  O151  1  0.197550  0.586130  0.643500  1.0  -0.6484
  O  O152  1  0.060130  0.446590  0.592100  1.0  -0.5959
  O  O153  1  0.388580  0.802450  0.643500  1.0  -0.6506
  O  O154  1  0.386460  0.939870  0.592100  1.0  -0.5948
  O  O155  1  0.197550  0.611420  0.856500  1.0  -0.6498
  O  O156  1  0.060130  0.613540  0.907900  1.0  -0.5961
  O  O157  1  0.388580  0.586130  0.856500  1.0  -0.6479
  O  O158  1  0.386460  0.446590  0.907900  1.0  -0.5955
  O  O159  1  0.413870  0.802450  0.856500  1.0  -0.6479
  O  O160  1  0.553410  0.939870  0.907900  1.0  -0.5948
  O  O161  1  0.802450  0.388580  0.856500  1.0  -0.6487
  O  O162  1  0.939870  0.386460  0.907900  1.0  -0.5966
  O  O163  1  0.611420  0.413870  0.856500  1.0  -0.6471
  O  O164  1  0.613540  0.553410  0.907900  1.0  -0.5949
  O  O165  1  0.586130  0.197550  0.856500  1.0  -0.6497
  O  O166  1  0.446590  0.060130  0.907900  1.0  -0.595
  O  O167  1  0.413870  0.611420  0.356500  1.0  -0.6484
  O  O168  1  0.553410  0.613540  0.407900  1.0  -0.5966
  O  O169  1  0.197550  0.586130  0.356500  1.0  -0.6479
  O  O170  1  0.060130  0.446590  0.407900  1.0  -0.5955
  O  O171  1  0.388580  0.802450  0.356500  1.0  -0.6494
  O  O172  1  0.386460  0.939870  0.407900  1.0  -0.5947
  O  O173  1  0.586130  0.388580  0.356500  1.0  -0.65
  O  O174  1  0.446590  0.386460  0.407900  1.0  -0.596
  O  O175  1  0.802450  0.413870  0.356500  1.0  -0.6472
  O  O176  1  0.939870  0.553410  0.407900  1.0  -0.5951
  O  O177  1  0.611420  0.197550  0.356500  1.0  -0.6482
  O  O178  1  0.613540  0.060130  0.407900  1.0  -0.5945
  O  O179  1  0.802450  0.388580  0.143500  1.0  -0.6494
  O  O180  1  0.939870  0.386460  0.092100  1.0  -0.596
  O  O181  1  0.611420  0.413870  0.143500  1.0  -0.6477
  O  O182  1  0.613540  0.553410  0.092100  1.0  -0.5956
  O  O183  1  0.586130  0.197550  0.143500  1.0  -0.6508
  O  O184  1  0.446590  0.060130  0.092100  1.0  -0.5948
  O  O185  1  0.197550  0.611420  0.143500  1.0  -0.6511
  O  O186  1  0.060130  0.613540  0.092100  1.0  -0.5964
  O  O187  1  0.388580  0.586130  0.143500  1.0  -0.6486
  O  O188  1  0.386460  0.446590  0.092100  1.0  -0.5956
  O  O189  1  0.413870  0.802450  0.143500  1.0  -0.6487
  O  O190  1  0.553410  0.939870  0.092100  1.0  -0.5945
