# generated using pymatgen
data_Zn2H11C12N7O3
_symmetry_space_group_name_H-M   'P 1'
_cell_length_a   8.01800000
_cell_length_b   21.04000000
_cell_length_c   11.06900000
_cell_angle_alpha   90.00000000
_cell_angle_beta   91.26000000
_cell_angle_gamma   90.00000000
_symmetry_Int_Tables_number   1
_chemical_formula_structural   Zn2H11C12N7O3
_chemical_formula_sum   'Zn8 H44 C48 N28 O12'
_cell_volume   1866.87462051
_cell_formula_units_Z   4
loop_
 _symmetry_equiv_pos_site_id
 _symmetry_equiv_pos_as_xyz
  1  'x, y, z'
loop_
 _atom_site_type_symbol
 _atom_site_label
 _atom_site_symmetry_multiplicity
 _atom_site_fract_x
 _atom_site_fract_y
 _atom_site_fract_z
 _atom_site_occupancy
 _atom_site_charge
  Zn  Zn1  1  0.103370  0.613550  0.276690  1.0  0.8823
  Zn  Zn2  1  0.815210  0.691680  0.135540  1.0  0.8397
  Zn  Zn3  1  0.896630  0.113550  0.223310  1.0  0.8813
  Zn  Zn4  1  0.184790  0.191680  0.364460  1.0  0.8399
  Zn  Zn5  1  0.896630  0.386450  0.723310  1.0  0.881
  Zn  Zn6  1  0.184790  0.308320  0.864460  1.0  0.8405
  Zn  Zn7  1  0.103370  0.886450  0.776690  1.0  0.8821
  Zn  Zn8  1  0.815210  0.808320  0.635540  1.0  0.8401
  H  H9  1  0.963100  0.593900  0.078200  1.0  0.4369
  H  H10  1  0.568000  0.603400  0.630800  1.0  0.0956
  H  H11  1  0.804500  0.490100  0.395500  1.0  0.0998
  H  H12  1  0.451600  0.660800  0.469700  1.0  0.1053
  H  H13  1  0.685200  0.546600  0.236000  1.0  0.1142
  H  H14  1  0.746700  0.856200  0.352700  1.0  0.1339
  H  H15  1  0.594700  0.812600  0.383200  1.0  0.1526
  H  H16  1  0.670500  0.810700  0.253900  1.0  0.1341
  H  H17  1  0.117300  0.633200  0.563400  1.0  0.1378
  H  H18  1  0.972400  0.654000  0.647600  1.0  0.1391
  H  H19  1  0.127700  0.698300  0.632300  1.0  0.1391
  H  H20  1  0.036900  0.093900  0.421800  1.0  0.4401
  H  H21  1  0.432000  0.103400  0.869200  1.0  0.0952
  H  H22  1  0.195500  0.990100  0.104500  1.0  0.0995
  H  H23  1  0.548400  0.160800  0.030300  1.0  0.1052
  H  H24  1  0.314800  0.046600  0.264000  1.0  0.1137
  H  H25  1  0.253300  0.356200  0.147300  1.0  0.1335
  H  H26  1  0.405300  0.312600  0.116800  1.0  0.1528
  H  H27  1  0.329500  0.310700  0.246100  1.0  0.1329
  H  H28  1  0.882700  0.133200  0.936600  1.0  0.1378
  H  H29  1  0.027600  0.154000  0.852400  1.0  0.1378
  H  H30  1  0.872300  0.198300  0.867700  1.0  0.1401
  H  H31  1  0.036900  0.406100  0.921800  1.0  0.4352
  H  H32  1  0.432000  0.396600  0.369200  1.0  0.0953
  H  H33  1  0.195500  0.509900  0.604500  1.0  0.0995
  H  H34  1  0.548400  0.339200  0.530300  1.0  0.1051
  H  H35  1  0.314800  0.453400  0.764000  1.0  0.1135
  H  H36  1  0.253300  0.143800  0.647300  1.0  0.1341
  H  H37  1  0.405300  0.187400  0.616800  1.0  0.1529
  H  H38  1  0.329500  0.189300  0.746100  1.0  0.1337
  H  H39  1  0.882700  0.366800  0.436600  1.0  0.1373
  H  H40  1  0.027600  0.346000  0.352400  1.0  0.1384
  H  H41  1  0.872300  0.301700  0.367700  1.0  0.1398
  H  H42  1  0.963100  0.906100  0.578200  1.0  0.4312
  H  H43  1  0.568000  0.896600  0.130800  1.0  0.0955
  H  H44  1  0.804500  0.009900  0.895500  1.0  0.1001
  H  H45  1  0.451600  0.839200  0.969700  1.0  0.1053
  H  H46  1  0.685200  0.953400  0.736000  1.0  0.1145
  H  H47  1  0.746700  0.643800  0.852700  1.0  0.134
  H  H48  1  0.594700  0.687400  0.883200  1.0  0.153
  H  H49  1  0.670500  0.689300  0.753900  1.0  0.1336
  H  H50  1  0.117300  0.866800  0.063400  1.0  0.1373
  H  H51  1  0.972400  0.846000  0.147600  1.0  0.1389
  H  H52  1  0.127700  0.801700  0.132300  1.0  0.1396
  C  C53  1  0.770400  0.503100  0.634200  1.0  0.6616
  C  C54  1  0.698000  0.540900  0.529000  1.0  -0.1144
  C  C55  1  0.591800  0.592200  0.551700  1.0  -0.0124
  C  C56  1  0.733600  0.524000  0.410600  1.0  -0.0209
  C  C57  1  0.521700  0.626600  0.454900  1.0  -0.0495
  C  C58  1  0.662300  0.558200  0.315000  1.0  -0.077
  C  C59  1  0.556900  0.609700  0.336200  1.0  -0.0422
  C  C60  1  0.478900  0.646900  0.234300  1.0  0.3232
  C  C61  1  0.695800  0.815500  0.338600  1.0  -0.4163
  C  C62  1  0.813000  0.764200  0.379000  1.0  0.4144
  C  C63  1  0.968500  0.700800  0.487600  1.0  0.419
  C  C64  1  0.054100  0.668700  0.592100  1.0  -0.4402
  C  C65  1  0.229600  0.003100  0.865800  1.0  0.6621
  C  C66  1  0.302000  0.040900  0.971000  1.0  -0.1161
  C  C67  1  0.408200  0.092200  0.948300  1.0  -0.0138
  C  C68  1  0.266400  0.024000  0.089400  1.0  -0.0199
  C  C69  1  0.478300  0.126600  0.045100  1.0  -0.0508
  C  C70  1  0.337700  0.058200  0.185000  1.0  -0.0788
  C  C71  1  0.443100  0.109700  0.163800  1.0  -0.0427
  C  C72  1  0.521100  0.146900  0.265700  1.0  0.3236
  C  C73  1  0.304200  0.315500  0.161400  1.0  -0.4171
  C  C74  1  0.187000  0.264200  0.121000  1.0  0.4142
  C  C75  1  0.031500  0.200800  0.012400  1.0  0.4187
  C  C76  1  0.945900  0.168700  0.907900  1.0  -0.4386
  C  C77  1  0.229600  0.496900  0.365800  1.0  0.6619
  C  C78  1  0.302000  0.459100  0.471000  1.0  -0.1155
  C  C79  1  0.408200  0.407800  0.448300  1.0  -0.0132
  C  C80  1  0.266400  0.476000  0.589400  1.0  -0.0206
  C  C81  1  0.478300  0.373400  0.545100  1.0  -0.0502
  C  C82  1  0.337700  0.441800  0.685000  1.0  -0.0786
  C  C83  1  0.443100  0.390300  0.663800  1.0  -0.042
  C  C84  1  0.521100  0.353100  0.765700  1.0  0.3235
  C  C85  1  0.304200  0.184500  0.661400  1.0  -0.4174
  C  C86  1  0.187000  0.235800  0.621000  1.0  0.4142
  C  C87  1  0.031500  0.299200  0.512400  1.0  0.419
  C  C88  1  0.945900  0.331300  0.407900  1.0  -0.4385
  C  C89  1  0.770400  0.996900  0.134200  1.0  0.6615
  C  C90  1  0.698000  0.959100  0.029000  1.0  -0.1146
  C  C91  1  0.591800  0.907800  0.051700  1.0  -0.0124
  C  C92  1  0.733600  0.976000  0.910600  1.0  -0.021
  C  C93  1  0.521700  0.873400  0.954900  1.0  -0.0482
  C  C94  1  0.662300  0.941800  0.815000  1.0  -0.0778
  C  C95  1  0.556900  0.890300  0.836200  1.0  -0.0433
  C  C96  1  0.478900  0.853100  0.734300  1.0  0.3233
  C  C97  1  0.695800  0.684500  0.838600  1.0  -0.4163
  C  C98  1  0.813000  0.735800  0.879000  1.0  0.4143
  C  C99  1  0.968500  0.799200  0.987600  1.0  0.4194
  C  C100  1  0.054100  0.831300  0.092100  1.0  -0.4402
  N  N101  1  0.864100  0.752100  0.495100  1.0  -0.4726
  N  N102  1  0.981600  0.681900  0.374500  1.0  -0.3897
  N  N103  1  0.879900  0.722600  0.304200  1.0  -0.3231
  N  N104  1  0.315900  0.653900  0.212200  1.0  -0.3042
  N  N105  1  0.563200  0.678700  0.150300  1.0  -0.2937
  N  N106  1  0.448300  0.707400  0.077300  1.0  -0.0734
  N  N107  1  0.300500  0.692400  0.113500  1.0  -0.0993
  N  N108  1  0.135900  0.252100  0.004900  1.0  -0.4722
  N  N109  1  0.018400  0.181900  0.125500  1.0  -0.3898
  N  N110  1  0.120100  0.222600  0.195800  1.0  -0.3251
  N  N111  1  0.684100  0.153900  0.287800  1.0  -0.3019
  N  N112  1  0.436800  0.178700  0.349700  1.0  -0.2965
  N  N113  1  0.551700  0.207400  0.422700  1.0  -0.0735
  N  N114  1  0.699500  0.192400  0.386500  1.0  -0.1015
  N  N115  1  0.135900  0.247900  0.504900  1.0  -0.4722
  N  N116  1  0.018400  0.318100  0.625500  1.0  -0.3901
  N  N117  1  0.120100  0.277400  0.695800  1.0  -0.3251
  N  N118  1  0.684100  0.346100  0.787800  1.0  -0.3021
  N  N119  1  0.436800  0.321300  0.849700  1.0  -0.2962
  N  N120  1  0.551700  0.292600  0.922700  1.0  -0.0731
  N  N121  1  0.699500  0.307600  0.886500  1.0  -0.1013
  N  N122  1  0.864100  0.747900  0.995100  1.0  -0.4719
  N  N123  1  0.981600  0.818100  0.874500  1.0  -0.3892
  N  N124  1  0.879900  0.777400  0.804200  1.0  -0.3229
  N  N125  1  0.315900  0.846100  0.712200  1.0  -0.3043
  N  N126  1  0.563200  0.821300  0.650300  1.0  -0.2937
  N  N127  1  0.448300  0.792600  0.577300  1.0  -0.0734
  N  N128  1  0.300500  0.807600  0.613500  1.0  -0.1002
  O  O129  1  0.846000  0.451300  0.604900  1.0  -0.5949
  O  O130  1  0.751400  0.520700  0.739700  1.0  -0.5731
  O  O131  1  0.946100  0.614100  0.141100  1.0  -0.9273
  O  O132  1  0.154000  0.951300  0.895100  1.0  -0.5952
  O  O133  1  0.248600  0.020700  0.760300  1.0  -0.5715
  O  O134  1  0.053900  0.114100  0.358900  1.0  -0.9252
  O  O135  1  0.154000  0.548700  0.395100  1.0  -0.5952
  O  O136  1  0.248600  0.479300  0.260300  1.0  -0.5713
  O  O137  1  0.053900  0.385900  0.858900  1.0  -0.9251
  O  O138  1  0.846000  0.048700  0.104900  1.0  -0.5949
  O  O139  1  0.751400  0.979300  0.239700  1.0  -0.5727
  O  O140  1  0.946100  0.885900  0.641100  1.0  -0.9256
