# generated using pymatgen
data_Cu9B6H76C96(N5F3)8
_symmetry_space_group_name_H-M   'P 1'
_cell_length_a   16.94890000
_cell_length_b   20.44360000
_cell_length_c   23.12650000
_cell_angle_alpha   112.00700000
_cell_angle_beta   90.00000000
_cell_angle_gamma   90.00000000
_symmetry_Int_Tables_number   1
_chemical_formula_structural   Cu9B6H76C96(N5F3)8
_chemical_formula_sum   'Cu18 B12 H152 C192 N80 F48'
_cell_volume   7429.39112510
_cell_formula_units_Z   2
loop_
 _symmetry_equiv_pos_site_id
 _symmetry_equiv_pos_as_xyz
  1  'x, y, z'
loop_
 _atom_site_type_symbol
 _atom_site_label
 _atom_site_symmetry_multiplicity
 _atom_site_fract_x
 _atom_site_fract_y
 _atom_site_fract_z
 _atom_site_occupancy
 _atom_site_charge
  Cu  Cu1  1  0.184440  0.454190  0.051360  1.0  0.4157
  Cu  Cu2  1  0.399220  0.541780  0.884250  1.0  0.3971
  Cu  Cu3  1  0.297150  0.061300  0.344270  1.0  0.3916
  Cu  Cu4  1  0.228700  0.985090  0.942100  1.0  0.6689
  Cu  Cu5  1  0.684440  0.045810  0.448640  1.0  0.4156
  Cu  Cu6  1  0.899220  0.958220  0.615750  1.0  0.3976
  Cu  Cu7  1  0.797150  0.438700  0.155730  1.0  0.391
  Cu  Cu8  1  0.728700  0.514910  0.557900  1.0  0.6686
  Cu  Cu9  1  0.815560  0.545810  0.948640  1.0  0.4152
  Cu  Cu10  1  0.600780  0.458220  0.115750  1.0  0.3967
  Cu  Cu11  1  0.702850  0.938700  0.655730  1.0  0.3908
  Cu  Cu12  1  0.771300  0.014910  0.057900  1.0  0.6677
  Cu  Cu13  1  0.315560  0.954190  0.551360  1.0  0.4154
  Cu  Cu14  1  0.100780  0.041780  0.384250  1.0  0.3963
  Cu  Cu15  1  0.202850  0.561300  0.844270  1.0  0.3914
  Cu  Cu16  1  0.271300  0.485090  0.442100  1.0  0.6677
  Cu  Cu17  1  0.500000  0.500000  0.500000  1.0  0.7389
  Cu  Cu18  1  0.000000  0.000000  0.000000  1.0  0.7389
  B  B19  1  0.111600  0.181200  0.166800  1.0  0.9474
  B  B20  1  0.236700  0.719600  0.133300  1.0  0.9265
  B  B21  1  0.750300  0.667200  0.207400  1.0  0.9634
  B  B22  1  0.611600  0.318800  0.333200  1.0  0.9468
  B  B23  1  0.736700  0.780400  0.366700  1.0  0.9271
  B  B24  1  0.250300  0.832800  0.292600  1.0  0.9634
  B  B25  1  0.888400  0.818800  0.833200  1.0  0.9489
  B  B26  1  0.763300  0.280400  0.866700  1.0  0.9275
  B  B27  1  0.249700  0.332800  0.792600  1.0  0.9615
  B  B28  1  0.388400  0.681200  0.666800  1.0  0.9492
  B  B29  1  0.263300  0.219600  0.633300  1.0  0.9269
  B  B30  1  0.749700  0.167200  0.707400  1.0  0.9616
  H  H31  1  0.274100  0.430800  0.328400  1.0  0.2788
  H  H32  1  0.951100  0.479100  0.854600  1.0  0.0633
  H  H33  1  0.340200  0.552600  0.091300  1.0  0.081
  H  H34  1  0.315100  0.607500  0.503000  1.0  0.2107
  H  H35  1  0.082900  0.459200  0.855000  1.0  0.116
  H  H36  1  0.469300  0.382800  0.427700  1.0  0.3371
  H  H37  1  0.214000  0.040100  0.055000  1.0  0.3392
  H  H38  1  0.263500  0.863100  0.886700  1.0  0.2938
  H  H39  1  0.333200  0.935700  0.235400  1.0  0.0612
  H  H40  1  0.414700  0.401700  0.934600  1.0  0.1042
  H  H41  1  0.953600  0.612300  0.026200  1.0  0.0541
  H  H42  1  0.521900  0.384100  0.989700  1.0  0.071
  H  H43  1  0.447700  0.535200  0.142100  1.0  0.0845
  H  H44  1  0.086400  0.598300  0.033700  1.0  0.1204
  H  H45  1  0.379400  0.655900  0.820800  1.0  0.0561
  H  H46  1  0.384100  0.705900  0.525400  1.0  0.103
  H  H47  1  0.307300  0.168000  0.474600  1.0  0.0507
  H  H48  1  0.370000  0.387600  0.658800  1.0  0.1025
  H  H49  1  0.194600  0.578400  0.172300  1.0  0.0804
  H  H50  1  0.489100  0.540100  0.611500  1.0  0.3261
  H  H51  1  0.516900  0.558700  0.800400  1.0  0.0598
  H  H52  1  0.535200  0.539100  0.697300  1.0  0.1099
  H  H53  1  0.303700  0.406100  0.228100  1.0  0.1062
  H  H54  1  0.347500  0.422400  0.763100  1.0  0.2055
  H  H55  1  0.270100  0.386000  0.127000  1.0  0.0554
  H  H56  1  0.331200  0.768700  0.848700  1.0  0.1016
  H  H57  1  0.353400  0.664600  0.990500  1.0  0.0667
  H  H58  1  0.360200  0.274700  0.531500  1.0  0.0931
  H  H59  1  0.319600  0.894400  0.128300  1.0  0.1088
  H  H60  1  0.375000  0.828000  0.571300  1.0  0.0518
  H  H61  1  0.224200  0.602800  0.272200  1.0  0.0873
  H  H62  1  0.234200  0.716600  0.392900  1.0  0.1015
  H  H63  1  0.243600  0.085200  0.143000  1.0  0.104
  H  H64  1  0.243500  0.836500  0.436200  1.0  0.0492
  H  H65  1  0.338300  0.787200  0.025500  1.0  0.0979
  H  H66  1  0.263800  0.122500  0.252800  1.0  0.058
  H  H67  1  0.463200  0.276000  0.380800  1.0  0.0994
  H  H68  1  0.411800  0.164100  0.326400  1.0  0.0676
  H  H69  1  0.774100  0.069200  0.171600  1.0  0.2802
  H  H70  1  0.451100  0.020900  0.645400  1.0  0.0628
  H  H71  1  0.840200  0.947400  0.408700  1.0  0.081
  H  H72  1  0.815100  0.892500  0.997000  1.0  0.2083
  H  H73  1  0.582900  0.040800  0.645000  1.0  0.1163
  H  H74  1  0.969300  0.117200  0.072300  1.0  0.3379
  H  H75  1  0.714000  0.459900  0.445000  1.0  0.3392
  H  H76  1  0.763500  0.636900  0.613300  1.0  0.2959
  H  H77  1  0.833200  0.564300  0.264600  1.0  0.0613
  H  H78  1  0.914700  0.098300  0.565400  1.0  0.1037
  H  H79  1  0.453600  0.887700  0.473800  1.0  0.0539
  H  H80  1  0.021900  0.115900  0.510300  1.0  0.0705
  H  H81  1  0.947700  0.964800  0.357900  1.0  0.0845
  H  H82  1  0.586400  0.901700  0.466300  1.0  0.1209
  H  H83  1  0.879400  0.844100  0.679200  1.0  0.0567
  H  H84  1  0.884100  0.794100  0.974600  1.0  0.1031
  H  H85  1  0.807300  0.332000  0.025400  1.0  0.0506
  H  H86  1  0.870000  0.112400  0.841200  1.0  0.103
  H  H87  1  0.694600  0.921600  0.327700  1.0  0.0802
  H  H88  1  0.989100  0.959900  0.888500  1.0  0.3244
  H  H89  1  0.016900  0.941300  0.699600  1.0  0.0598
  H  H90  1  0.035200  0.960900  0.802700  1.0  0.11
  H  H91  1  0.803700  0.093900  0.271900  1.0  0.1065
  H  H92  1  0.847500  0.077600  0.736900  1.0  0.2061
  H  H93  1  0.770100  0.114000  0.373000  1.0  0.0544
  H  H94  1  0.831200  0.731300  0.651300  1.0  0.1015
  H  H95  1  0.853400  0.835400  0.509500  1.0  0.0669
  H  H96  1  0.860200  0.225300  0.968500  1.0  0.0942
  H  H97  1  0.819600  0.605600  0.371700  1.0  0.1086
  H  H98  1  0.875000  0.672000  0.928700  1.0  0.053
  H  H99  1  0.724200  0.897200  0.227800  1.0  0.0871
  H  H100  1  0.734200  0.783400  0.107100  1.0  0.1019
  H  H101  1  0.743600  0.414800  0.357000  1.0  0.1054
  H  H102  1  0.743500  0.663500  0.063800  1.0  0.0493
  H  H103  1  0.838300  0.712800  0.474500  1.0  0.0981
  H  H104  1  0.763800  0.377500  0.247200  1.0  0.0589
  H  H105  1  0.963200  0.224000  0.119200  1.0  0.0996
  H  H106  1  0.911800  0.335900  0.173600  1.0  0.0669
  H  H107  1  0.725900  0.569200  0.671600  1.0  0.2807
  H  H108  1  0.048900  0.520900  0.145400  1.0  0.0628
  H  H109  1  0.659800  0.447400  0.908700  1.0  0.0813
  H  H110  1  0.684900  0.392500  0.497000  1.0  0.2093
  H  H111  1  0.917100  0.540800  0.145000  1.0  0.1162
  H  H112  1  0.530700  0.617200  0.572300  1.0  0.3383
  H  H113  1  0.786000  0.959900  0.945000  1.0  0.3378
  H  H114  1  0.736500  0.136900  0.113300  1.0  0.2968
  H  H115  1  0.666800  0.064300  0.764600  1.0  0.0619
  H  H116  1  0.585300  0.598300  0.065400  1.0  0.1039
  H  H117  1  0.046400  0.387700  0.973800  1.0  0.054
  H  H118  1  0.478100  0.615900  0.010300  1.0  0.0709
  H  H119  1  0.552300  0.464800  0.857900  1.0  0.0848
  H  H120  1  0.913600  0.401700  0.966300  1.0  0.1216
  H  H121  1  0.620600  0.344100  0.179200  1.0  0.0562
  H  H122  1  0.615900  0.294100  0.474600  1.0  0.1031
  H  H123  1  0.692700  0.832000  0.525400  1.0  0.0505
  H  H124  1  0.630000  0.612400  0.341200  1.0  0.1035
  H  H125  1  0.805400  0.421600  0.827700  1.0  0.0801
  H  H126  1  0.510900  0.459900  0.388500  1.0  0.3244
  H  H127  1  0.483100  0.441300  0.199600  1.0  0.0595
  H  H128  1  0.464800  0.460900  0.302700  1.0  0.1101
  H  H129  1  0.696300  0.593900  0.771900  1.0  0.1067
  H  H130  1  0.652500  0.577600  0.236900  1.0  0.2062
  H  H131  1  0.729900  0.614000  0.873000  1.0  0.0544
  H  H132  1  0.668800  0.231300  0.151300  1.0  0.1023
  H  H133  1  0.646600  0.335400  0.009500  1.0  0.0673
  H  H134  1  0.639800  0.725300  0.468500  1.0  0.0941
  H  H135  1  0.680400  0.105600  0.871700  1.0  0.1082
  H  H136  1  0.625000  0.172000  0.428700  1.0  0.0526
  H  H137  1  0.775800  0.397200  0.727800  1.0  0.0871
  H  H138  1  0.765800  0.283400  0.607100  1.0  0.1013
  H  H139  1  0.756400  0.914800  0.857000  1.0  0.1056
  H  H140  1  0.756500  0.163500  0.563800  1.0  0.0491
  H  H141  1  0.661700  0.212800  0.974500  1.0  0.0982
  H  H142  1  0.736200  0.877500  0.747200  1.0  0.0584
  H  H143  1  0.536800  0.724000  0.619200  1.0  0.0993
  H  H144  1  0.588200  0.835900  0.673600  1.0  0.0671
  H  H145  1  0.225900  0.930800  0.828400  1.0  0.2806
  H  H146  1  0.548900  0.979100  0.354600  1.0  0.0632
  H  H147  1  0.159800  0.052600  0.591300  1.0  0.0812
  H  H148  1  0.184900  0.107500  0.003000  1.0  0.2107
  H  H149  1  0.417100  0.959200  0.355000  1.0  0.1158
  H  H150  1  0.030700  0.882800  0.927700  1.0  0.3372
  H  H151  1  0.286000  0.540100  0.555000  1.0  0.338
  H  H152  1  0.236500  0.363100  0.386700  1.0  0.2929
  H  H153  1  0.166800  0.435700  0.735400  1.0  0.0617
  H  H154  1  0.085300  0.901700  0.434600  1.0  0.104
  H  H155  1  0.546400  0.112300  0.526200  1.0  0.0538
  H  H156  1  0.978100  0.884100  0.489700  1.0  0.0708
  H  H157  1  0.052300  0.035200  0.642100  1.0  0.0848
  H  H158  1  0.413600  0.098300  0.533700  1.0  0.1211
  H  H159  1  0.120600  0.155900  0.320800  1.0  0.0554
  H  H160  1  0.115900  0.205900  0.025400  1.0  0.1028
  H  H161  1  0.192700  0.668000  0.974600  1.0  0.0509
  H  H162  1  0.130000  0.887600  0.158800  1.0  0.103
  H  H163  1  0.305400  0.078400  0.672300  1.0  0.0802
  H  H164  1  0.010900  0.040100  0.111500  1.0  0.3261
  H  H165  1  0.983100  0.058700  0.300400  1.0  0.0597
  H  H166  1  0.964800  0.039100  0.197300  1.0  0.1102
  H  H167  1  0.196300  0.906100  0.728100  1.0  0.106
  H  H168  1  0.152500  0.922400  0.263100  1.0  0.206
  H  H169  1  0.229900  0.886000  0.627000  1.0  0.0551
  H  H170  1  0.168800  0.268700  0.348700  1.0  0.1017
  H  H171  1  0.146600  0.164600  0.490500  1.0  0.0669
  H  H172  1  0.139800  0.774700  0.031500  1.0  0.0932
  H  H173  1  0.180400  0.394400  0.628300  1.0  0.1076
  H  H174  1  0.125000  0.328000  0.071300  1.0  0.0513
  H  H175  1  0.275800  0.102800  0.772200  1.0  0.0872
  H  H176  1  0.265800  0.216600  0.892900  1.0  0.1011
  H  H177  1  0.256400  0.585200  0.643000  1.0  0.1037
  H  H178  1  0.256500  0.336500  0.936200  1.0  0.0493
  H  H179  1  0.161700  0.287200  0.525500  1.0  0.0983
  H  H180  1  0.236200  0.622500  0.752800  1.0  0.0579
  H  H181  1  0.036800  0.776000  0.880800  1.0  0.0992
  H  H182  1  0.088200  0.664100  0.826400  1.0  0.0677
  C  C183  1  0.366000  0.480000  0.005700  1.0  0.0536
  C  C184  1  0.186100  0.514500  0.948100  1.0  0.3145
  C  C185  1  0.097800  0.521300  0.945000  1.0  0.0102
  C  C186  1  0.301200  0.493800  0.970900  1.0  0.355
  C  C187  1  0.978600  0.502300  0.892100  1.0  0.1313
  C  C188  1  0.377500  0.518200  0.069200  1.0  -0.1446
  C  C189  1  0.057500  0.489300  0.891400  1.0  -0.2215
  C  C190  1  0.314400  0.967000  0.217400  1.0  0.1593
  C  C191  1  0.420300  0.429700  0.977200  1.0  -0.1438
  C  C192  1  0.327400  0.790600  0.941600  1.0  0.0639
  C  C193  1  0.979500  0.579600  0.991400  1.0  0.1418
  C  C194  1  0.484500  0.419000  0.010500  1.0  0.1211
  C  C195  1  0.295500  0.864100  0.962100  1.0  0.2169
  C  C196  1  0.306200  0.695600  0.455500  1.0  -0.0318
  C  C197  1  0.440800  0.507100  0.099700  1.0  0.1314
  C  C198  1  0.059000  0.571700  0.997100  1.0  -0.2048
  C  C199  1  0.365600  0.680900  0.862700  1.0  0.1742
  C  C200  1  0.351600  0.730800  0.507800  1.0  -0.23
  C  C201  1  0.339400  0.190100  0.454200  1.0  0.1355
  C  C202  1  0.282200  0.987700  0.124700  1.0  -0.0312
  C  C203  1  0.453800  0.460600  0.664900  1.0  0.0192
  C  C204  1  0.303400  0.617900  0.426900  1.0  0.3209
  C  C205  1  0.445700  0.362900  0.498400  1.0  0.3446
  C  C206  1  0.398900  0.425400  0.686900  1.0  -0.1713
  C  C207  1  0.265000  0.505700  0.263400  1.0  0.0074
  C  C208  1  0.215500  0.542400  0.183700  1.0  0.1345
  C  C209  1  0.414000  0.288700  0.461200  1.0  0.0925
  C  C210  1  0.279200  0.521500  0.330400  1.0  0.3024
  C  C211  1  0.483700  0.526100  0.771000  1.0  0.1714
  C  C212  1  0.464400  0.448200  0.596300  1.0  0.3897
  C  C213  1  0.497300  0.513100  0.709300  1.0  -0.2342
  C  C214  1  0.279800  0.442100  0.218300  1.0  -0.2515
  C  C215  1  0.386800  0.445500  0.749300  1.0  0.1748
  C  C216  1  0.259500  0.430800  0.157500  1.0  0.1604
  C  C217  1  0.340000  0.749700  0.879400  1.0  -0.2185
  C  C218  1  0.355200  0.686700  0.961500  1.0  0.1069
  C  C219  1  0.370000  0.254400  0.488400  1.0  -0.1858
  C  C220  1  0.307400  0.941700  0.152700  1.0  -0.1616
  C  C221  1  0.347500  0.804800  0.533800  1.0  0.1386
  C  C222  1  0.274900  0.962000  0.055300  1.0  0.2277
  C  C223  1  0.233100  0.557000  0.243000  1.0  -0.1498
  C  C224  1  0.264700  0.738000  0.429100  1.0  -0.1625
  C  C225  1  0.263200  0.053600  0.160400  1.0  -0.1916
  C  C226  1  0.269100  0.809900  0.456100  1.0  0.1574
  C  C227  1  0.339800  0.760000  0.982500  1.0  -0.1013
  C  C228  1  0.273700  0.075100  0.227600  1.0  0.1484
  C  C229  1  0.430200  0.254900  0.401500  1.0  -0.1779
  C  C230  1  0.398400  0.187500  0.368600  1.0  0.1275
  C  C231  1  0.866000  0.020000  0.494300  1.0  0.0536
  C  C232  1  0.686100  0.985500  0.551900  1.0  0.3146
  C  C233  1  0.597800  0.978700  0.555000  1.0  0.0096
  C  C234  1  0.801200  0.006200  0.529100  1.0  0.3552
  C  C235  1  0.478600  0.997700  0.607900  1.0  0.1304
  C  C236  1  0.877500  0.981800  0.430800  1.0  -0.1426
  C  C237  1  0.557500  0.010700  0.608600  1.0  -0.2235
  C  C238  1  0.814400  0.533000  0.282600  1.0  0.1599
  C  C239  1  0.920300  0.070300  0.522800  1.0  -0.1434
  C  C240  1  0.827400  0.709400  0.558400  1.0  0.0637
  C  C241  1  0.479500  0.920400  0.508600  1.0  0.1433
  C  C242  1  0.984500  0.081000  0.489500  1.0  0.1222
  C  C243  1  0.795500  0.635900  0.537900  1.0  0.2186
  C  C244  1  0.806200  0.804400  0.044500  1.0  -0.0316
  C  C245  1  0.940800  0.992900  0.400300  1.0  0.1323
  C  C246  1  0.559000  0.928300  0.502900  1.0  -0.2046
  C  C247  1  0.865600  0.819100  0.637300  1.0  0.1747
  C  C248  1  0.851600  0.769200  0.992200  1.0  -0.2302
  C  C249  1  0.839400  0.309900  0.045800  1.0  0.135
  C  C250  1  0.782200  0.512300  0.375300  1.0  -0.0318
  C  C251  1  0.953800  0.039400  0.835100  1.0  0.019
  C  C252  1  0.803400  0.882100  0.073100  1.0  0.3212
  C  C253  1  0.945700  0.137100  0.001600  1.0  0.3442
  C  C254  1  0.898900  0.074600  0.813100  1.0  -0.1704
  C  C255  1  0.765000  0.994300  0.236600  1.0  0.0066
  C  C256  1  0.715500  0.957600  0.316300  1.0  0.1342
  C  C257  1  0.914000  0.211300  0.038800  1.0  0.0931
  C  C258  1  0.779200  0.978500  0.169600  1.0  0.3026
  C  C259  1  0.983700  0.973900  0.729000  1.0  0.1712
  C  C260  1  0.964400  0.051800  0.903700  1.0  0.3895
  C  C261  1  0.997300  0.986900  0.790700  1.0  -0.234
  C  C262  1  0.779800  0.057900  0.281700  1.0  -0.2506
  C  C263  1  0.886800  0.054500  0.750700  1.0  0.1752
  C  C264  1  0.759500  0.069200  0.342500  1.0  0.1617
  C  C265  1  0.840000  0.750300  0.620600  1.0  -0.217
  C  C266  1  0.855200  0.813300  0.538500  1.0  0.1054
  C  C267  1  0.870000  0.245600  0.011600  1.0  -0.185
  C  C268  1  0.807400  0.558300  0.347300  1.0  -0.1612
  C  C269  1  0.847500  0.695200  0.966200  1.0  0.1384
  C  C270  1  0.774900  0.538000  0.444700  1.0  0.227
  C  C271  1  0.733100  0.943000  0.257000  1.0  -0.1494
  C  C272  1  0.764700  0.762000  0.070900  1.0  -0.1639
  C  C273  1  0.763200  0.446400  0.339600  1.0  -0.1916
  C  C274  1  0.769100  0.690100  0.043900  1.0  0.1568
  C  C275  1  0.839800  0.740000  0.517500  1.0  -0.1011
  C  C276  1  0.773700  0.424900  0.272400  1.0  0.1493
  C  C277  1  0.930200  0.245100  0.098500  1.0  -0.1766
  C  C278  1  0.898400  0.312500  0.131400  1.0  0.1274
  C  C279  1  0.634000  0.520000  0.994300  1.0  0.0545
  C  C280  1  0.813900  0.485500  0.051900  1.0  0.3118
  C  C281  1  0.902200  0.478700  0.055000  1.0  0.01
  C  C282  1  0.698800  0.506200  0.029100  1.0  0.3552
  C  C283  1  0.021400  0.497700  0.107900  1.0  0.132
  C  C284  1  0.622500  0.481800  0.930800  1.0  -0.1425
  C  C285  1  0.942500  0.510700  0.108600  1.0  -0.2243
  C  C286  1  0.685600  0.033000  0.782600  1.0  0.1585
  C  C287  1  0.579700  0.570300  0.022800  1.0  -0.1439
  C  C288  1  0.672600  0.209400  0.058400  1.0  0.0637
  C  C289  1  0.020500  0.420400  0.008600  1.0  0.1433
  C  C290  1  0.515500  0.581000  0.989500  1.0  0.1236
  C  C291  1  0.704500  0.135900  0.037900  1.0  0.219
  C  C292  1  0.693800  0.304400  0.544500  1.0  -0.0319
  C  C293  1  0.559200  0.492900  0.900300  1.0  0.1321
  C  C294  1  0.941000  0.428300  0.002900  1.0  -0.2056
  C  C295  1  0.634400  0.319100  0.137300  1.0  0.1732
  C  C296  1  0.648400  0.269200  0.492200  1.0  -0.2284
  C  C297  1  0.660600  0.809900  0.545800  1.0  0.1348
  C  C298  1  0.717800  0.012300  0.875300  1.0  -0.0295
  C  C299  1  0.546200  0.539400  0.335100  1.0  0.0188
  C  C300  1  0.696600  0.382100  0.573100  1.0  0.3216
  C  C301  1  0.554300  0.637100  0.501600  1.0  0.3434
  C  C302  1  0.601100  0.574600  0.313100  1.0  -0.1716
  C  C303  1  0.735000  0.494300  0.736600  1.0  0.0076
  C  C304  1  0.784500  0.457600  0.816300  1.0  0.1345
  C  C305  1  0.586000  0.711300  0.538800  1.0  0.0927
  C  C306  1  0.720800  0.478500  0.669600  1.0  0.3032
  C  C307  1  0.516300  0.473900  0.229000  1.0  0.1705
  C  C308  1  0.535600  0.551800  0.403700  1.0  0.3894
  C  C309  1  0.502700  0.486900  0.290700  1.0  -0.2334
  C  C310  1  0.720200  0.557900  0.781700  1.0  -0.2507
  C  C311  1  0.613200  0.554500  0.250700  1.0  0.1758
  C  C312  1  0.740500  0.569200  0.842500  1.0  0.1614
  C  C313  1  0.660000  0.250300  0.120600  1.0  -0.2151
  C  C314  1  0.644800  0.313300  0.038500  1.0  0.1046
  C  C315  1  0.630000  0.745600  0.511600  1.0  -0.1856
  C  C316  1  0.692600  0.058300  0.847300  1.0  -0.1635
  C  C317  1  0.652500  0.195200  0.466200  1.0  0.1385
  C  C318  1  0.725100  0.038000  0.944700  1.0  0.2239
  C  C319  1  0.766900  0.443000  0.757000  1.0  -0.15
  C  C320  1  0.735300  0.262000  0.570900  1.0  -0.1652
  C  C321  1  0.736800  0.946400  0.839600  1.0  -0.1917
  C  C322  1  0.730900  0.190100  0.543900  1.0  0.1561
  C  C323  1  0.660200  0.240000  0.017500  1.0  -0.1037
  C  C324  1  0.726300  0.924900  0.772400  1.0  0.1464
  C  C325  1  0.569800  0.745100  0.598500  1.0  -0.177
  C  C326  1  0.601600  0.812500  0.631400  1.0  0.1262
  C  C327  1  0.134000  0.980000  0.505700  1.0  0.0549
  C  C328  1  0.313900  0.014500  0.448100  1.0  0.3119
  C  C329  1  0.402200  0.021300  0.445000  1.0  0.01
  C  C330  1  0.198800  0.993800  0.470900  1.0  0.355
  C  C331  1  0.521400  0.002300  0.392100  1.0  0.1322
  C  C332  1  0.122500  0.018200  0.569200  1.0  -0.1444
  C  C333  1  0.442500  0.989300  0.391400  1.0  -0.223
  C  C334  1  0.185600  0.467000  0.717400  1.0  0.1588
  C  C335  1  0.079700  0.929700  0.477200  1.0  -0.1435
  C  C336  1  0.172600  0.290600  0.441600  1.0  0.0641
  C  C337  1  0.520500  0.079600  0.491400  1.0  0.1424
  C  C338  1  0.015500  0.919000  0.510500  1.0  0.1229
  C  C339  1  0.204500  0.364100  0.462100  1.0  0.2186
  C  C340  1  0.193800  0.195600  0.955500  1.0  -0.0316
  C  C341  1  0.059200  0.007100  0.599700  1.0  0.1308
  C  C342  1  0.441000  0.071700  0.497100  1.0  -0.2062
  C  C343  1  0.134400  0.180900  0.362700  1.0  0.1718
  C  C344  1  0.148400  0.230800  0.007800  1.0  -0.2283
  C  C345  1  0.160600  0.690100  0.954200  1.0  0.1349
  C  C346  1  0.217800  0.487700  0.624700  1.0  -0.0298
  C  C347  1  0.046200  0.960600  0.164900  1.0  0.019
  C  C348  1  0.196600  0.117900  0.926900  1.0  0.3216
  C  C349  1  0.054300  0.862900  0.998400  1.0  0.3439
  C  C350  1  0.101100  0.925400  0.186900  1.0  -0.1726
  C  C351  1  0.235000  0.005700  0.763400  1.0  0.0078
  C  C352  1  0.284500  0.042400  0.683700  1.0  0.1346
  C  C353  1  0.086000  0.788700  0.961200  1.0  0.0925
  C  C354  1  0.220800  0.021500  0.830400  1.0  0.3031
  C  C355  1  0.016300  0.026100  0.271000  1.0  0.1707
  C  C356  1  0.035600  0.948200  0.096300  1.0  0.39
  C  C357  1  0.002700  0.013100  0.209300  1.0  -0.2336
  C  C358  1  0.220200  0.942100  0.718300  1.0  -0.2511
  C  C359  1  0.113200  0.945500  0.249300  1.0  0.1753
  C  C360  1  0.240500  0.930800  0.657500  1.0  0.1602
  C  C361  1  0.160000  0.249700  0.379400  1.0  -0.2174
  C  C362  1  0.144800  0.186700  0.461500  1.0  0.1073
  C  C363  1  0.130000  0.754400  0.988400  1.0  -0.1859
  C  C364  1  0.192600  0.441700  0.652700  1.0  -0.1618
  C  C365  1  0.152500  0.304800  0.033800  1.0  0.1386
  C  C366  1  0.225100  0.462000  0.555300  1.0  0.2258
  C  C367  1  0.266900  0.057000  0.743000  1.0  -0.1495
  C  C368  1  0.235300  0.238000  0.929100  1.0  -0.1637
  C  C369  1  0.236800  0.553600  0.660400  1.0  -0.1912
  C  C370  1  0.230900  0.309900  0.956100  1.0  0.1566
  C  C371  1  0.160200  0.260000  0.482500  1.0  -0.1034
  C  C372  1  0.226300  0.575100  0.727600  1.0  0.146
  C  C373  1  0.069800  0.754900  0.901500  1.0  -0.1773
  C  C374  1  0.101600  0.687500  0.868600  1.0  0.128
  N  N375  1  0.226300  0.477700  0.138920  1.0  -0.3388
  N  N376  1  0.232500  0.521000  0.904320  1.0  -0.3596
  N  N377  1  0.224800  0.497000  0.991220  1.0  -0.4891
  N  N378  1  0.307200  0.509000  0.922300  1.0  -0.2016
  N  N379  1  0.296400  0.032100  0.255400  1.0  -0.3374
  N  N380  1  0.275200  0.474200  0.355010  1.0  -0.5551
  N  N381  1  0.307700  0.844800  0.509410  1.0  -0.3273
  N  N382  1  0.428400  0.496900  0.792100  1.0  -0.333
  N  N383  1  0.494100  0.457100  0.071000  1.0  -0.3463
  N  N384  1  0.934900  0.545600  0.941580  1.0  -0.3672
  N  N385  1  0.294400  0.591800  0.363780  1.0  -0.4052
  N  N386  1  0.371900  0.648000  0.902390  1.0  -0.3443
  N  N387  1  0.301600  0.584200  0.464500  1.0  -0.3211
  N  N388  1  0.468500  0.403400  0.468100  1.0  -0.6006
  N  N389  1  0.237100  0.002300  0.029500  1.0  -0.5532
  N  N390  1  0.266600  0.891600  0.925500  1.0  -0.5677
  N  N391  1  0.444500  0.380500  0.558300  1.0  -0.4057
  N  N392  1  0.305500  0.898400  0.026900  1.0  -0.387
  N  N393  1  0.351800  0.157000  0.394070  1.0  -0.3496
  N  N394  1  0.483200  0.499600  0.580800  1.0  -0.5769
  N  N395  1  0.726300  0.022300  0.361080  1.0  -0.3396
  N  N396  1  0.732500  0.979000  0.595680  1.0  -0.3604
  N  N397  1  0.724800  0.003000  0.508780  1.0  -0.4885
  N  N398  1  0.807200  0.991000  0.577700  1.0  -0.201
  N  N399  1  0.796400  0.467900  0.244600  1.0  -0.3392
  N  N400  1  0.775200  0.025800  0.144990  1.0  -0.557
  N  N401  1  0.807700  0.655200  0.990590  1.0  -0.3274
  N  N402  1  0.928400  0.003100  0.707900  1.0  -0.3367
  N  N403  1  0.994100  0.042900  0.429000  1.0  -0.3466
  N  N404  1  0.434900  0.954400  0.558420  1.0  -0.3678
  N  N405  1  0.794400  0.908200  0.136220  1.0  -0.4054
  N  N406  1  0.871900  0.852000  0.597610  1.0  -0.3449
  N  N407  1  0.801600  0.915800  0.035500  1.0  -0.3195
  N  N408  1  0.968500  0.096600  0.031900  1.0  -0.6005
  N  N409  1  0.737100  0.497700  0.470500  1.0  -0.5497
  N  N410  1  0.766600  0.608400  0.574500  1.0  -0.5712
  N  N411  1  0.944500  0.119500  0.941700  1.0  -0.4058
  N  N412  1  0.805500  0.601600  0.473100  1.0  -0.387
  N  N413  1  0.851800  0.343000  0.105930  1.0  -0.3477
  N  N414  1  0.983200  0.000400  0.919200  1.0  -0.577
  N  N415  1  0.773700  0.522300  0.861080  1.0  -0.3391
  N  N416  1  0.767500  0.479000  0.095680  1.0  -0.361
  N  N417  1  0.775200  0.503000  0.008780  1.0  -0.488
  N  N418  1  0.692800  0.491000  0.077700  1.0  -0.2034
  N  N419  1  0.703600  0.967900  0.744600  1.0  -0.3369
  N  N420  1  0.724800  0.525800  0.644990  1.0  -0.5591
  N  N421  1  0.692300  0.155200  0.490590  1.0  -0.327
  N  N422  1  0.571600  0.503100  0.207900  1.0  -0.3365
  N  N423  1  0.505900  0.542900  0.929000  1.0  -0.3459
  N  N424  1  0.065100  0.454400  0.058420  1.0  -0.3677
  N  N425  1  0.705600  0.408200  0.636220  1.0  -0.4058
  N  N426  1  0.628100  0.352000  0.097610  1.0  -0.3472
  N  N427  1  0.698400  0.415800  0.535500  1.0  -0.3202
  N  N428  1  0.531500  0.596600  0.531900  1.0  -0.6003
  N  N429  1  0.762900  0.997700  0.970500  1.0  -0.5493
  N  N430  1  0.733400  0.108400  0.074500  1.0  -0.5707
  N  N431  1  0.555500  0.619500  0.441700  1.0  -0.4058
  N  N432  1  0.694500  0.101600  0.973100  1.0  -0.388
  N  N433  1  0.648200  0.843000  0.605930  1.0  -0.3471
  N  N434  1  0.516800  0.500400  0.419200  1.0  -0.5773
  N  N435  1  0.273700  0.977700  0.638920  1.0  -0.3386
  N  N436  1  0.267500  0.021000  0.404320  1.0  -0.3603
  N  N437  1  0.275200  0.997000  0.491220  1.0  -0.4887
  N  N438  1  0.192800  0.009000  0.422300  1.0  -0.2039
  N  N439  1  0.203600  0.532100  0.755400  1.0  -0.3363
  N  N440  1  0.224800  0.974200  0.855010  1.0  -0.5561
  N  N441  1  0.192300  0.344800  0.009410  1.0  -0.3269
  N  N442  1  0.071600  0.996900  0.292100  1.0  -0.3331
  N  N443  1  0.005900  0.957100  0.571000  1.0  -0.3456
  N  N444  1  0.565100  0.045600  0.441580  1.0  -0.3678
  N  N445  1  0.205600  0.091800  0.863780  1.0  -0.4058
  N  N446  1  0.128100  0.148000  0.402390  1.0  -0.3463
  N  N447  1  0.198400  0.084200  0.964500  1.0  -0.322
  N  N448  1  0.031500  0.903400  0.968100  1.0  -0.6004
  N  N449  1  0.262900  0.502300  0.529500  1.0  -0.551
  N  N450  1  0.233400  0.391600  0.425500  1.0  -0.5692
  N  N451  1  0.055500  0.880500  0.058300  1.0  -0.4064
  N  N452  1  0.194500  0.398400  0.526900  1.0  -0.3874
  N  N453  1  0.148200  0.657000  0.894070  1.0  -0.3474
  N  N454  1  0.016800  0.999600  0.080800  1.0  -0.5772
  F  F455  1  0.153400  0.141200  0.112800  1.0  -0.3305
  F  F456  1  0.162200  0.190500  0.217100  1.0  -0.303
  F  F457  1  0.040600  0.152200  0.172600  1.0  -0.2814
  F  F458  1  0.102400  0.245500  0.165200  1.0  -0.1849
  F  F459  1  0.211900  0.784400  0.145000  1.0  -0.3743
  F  F460  1  0.235400  0.702600  0.182600  1.0  -0.3335
  F  F461  1  0.191200  0.673900  0.087600  1.0  -0.2771
  F  F462  1  0.311200  0.713700  0.111400  1.0  -0.2544
  F  F463  1  0.688300  0.701300  0.190000  1.0  -0.2198
  F  F464  1  0.750100  0.696100  0.273000  1.0  -0.4034
  F  F465  1  0.814200  0.679100  0.185500  1.0  -0.2018
  F  F466  1  0.731900  0.599500  0.190800  1.0  -0.3243
  F  F467  1  0.653400  0.358800  0.387200  1.0  -0.3295
  F  F468  1  0.662200  0.309500  0.282900  1.0  -0.3036
  F  F469  1  0.540600  0.347800  0.327400  1.0  -0.2799
  F  F470  1  0.602400  0.254500  0.334800  1.0  -0.1872
  F  F471  1  0.711900  0.715600  0.355000  1.0  -0.3739
  F  F472  1  0.735400  0.797400  0.317400  1.0  -0.3321
  F  F473  1  0.691200  0.826100  0.412400  1.0  -0.277
  F  F474  1  0.811200  0.786300  0.388600  1.0  -0.2544
  F  F475  1  0.188300  0.798700  0.310000  1.0  -0.2193
  F  F476  1  0.250100  0.803900  0.227000  1.0  -0.4016
  F  F477  1  0.314200  0.820900  0.314500  1.0  -0.2019
  F  F478  1  0.231900  0.900500  0.309200  1.0  -0.3238
  F  F479  1  0.846600  0.858800  0.887200  1.0  -0.3291
  F  F480  1  0.837800  0.809500  0.782900  1.0  -0.3034
  F  F481  1  0.959400  0.847800  0.827400  1.0  -0.281
  F  F482  1  0.897600  0.754500  0.834800  1.0  -0.1873
  F  F483  1  0.788100  0.215600  0.855000  1.0  -0.3749
  F  F484  1  0.764600  0.297400  0.817400  1.0  -0.3319
  F  F485  1  0.808800  0.326100  0.912400  1.0  -0.2774
  F  F486  1  0.688800  0.286300  0.888600  1.0  -0.2548
  F  F487  1  0.311700  0.298700  0.810000  1.0  -0.2203
  F  F488  1  0.249900  0.303900  0.727000  1.0  -0.401
  F  F489  1  0.185800  0.320900  0.814500  1.0  -0.2003
  F  F490  1  0.268100  0.400500  0.809200  1.0  -0.3242
  F  F491  1  0.346600  0.641200  0.612800  1.0  -0.3298
  F  F492  1  0.337800  0.690500  0.717100  1.0  -0.3032
  F  F493  1  0.459400  0.652200  0.672600  1.0  -0.2816
  F  F494  1  0.397600  0.745500  0.665200  1.0  -0.1853
  F  F495  1  0.288100  0.284400  0.645000  1.0  -0.3732
  F  F496  1  0.264600  0.202600  0.682600  1.0  -0.3334
  F  F497  1  0.308800  0.173900  0.587600  1.0  -0.2781
  F  F498  1  0.188800  0.213700  0.611400  1.0  -0.2546
  F  F499  1  0.811700  0.201300  0.690000  1.0  -0.22
  F  F500  1  0.749900  0.196100  0.773000  1.0  -0.4024
  F  F501  1  0.685800  0.179100  0.685500  1.0  -0.201
  F  F502  1  0.768100  0.099500  0.690800  1.0  -0.3246
