# generated using pymatgen
data_AgH8C9N4
_symmetry_space_group_name_H-M   'P 1'
_cell_length_a   27.97800000
_cell_length_b   27.97800000
_cell_length_c   14.97980000
_cell_angle_alpha   90.00000000
_cell_angle_beta   90.00000000
_cell_angle_gamma   120.00000000
_symmetry_Int_Tables_number   1
_chemical_formula_structural   AgH8C9N4
_chemical_formula_sum   'Ag18 H144 C162 N72'
_cell_volume   10154.76735906
_cell_formula_units_Z   18
loop_
 _symmetry_equiv_pos_site_id
 _symmetry_equiv_pos_as_xyz
  1  'x, y, z'
loop_
 _atom_site_type_symbol
 _atom_site_label
 _atom_site_symmetry_multiplicity
 _atom_site_fract_x
 _atom_site_fract_y
 _atom_site_fract_z
 _atom_site_occupancy
 _atom_site_charge
  Ag  Ag1  1  0.743080  0.129400  0.427700  1.0  0.3024
  Ag  Ag2  1  0.409750  0.462730  0.761030  1.0  0.3024
  Ag  Ag3  1  0.076410  0.796070  0.094370  1.0  0.3025
  Ag  Ag4  1  0.870600  0.613680  0.427700  1.0  0.3011
  Ag  Ag5  1  0.537270  0.947010  0.761030  1.0  0.3012
  Ag  Ag6  1  0.203930  0.280350  0.094370  1.0  0.3012
  Ag  Ag7  1  0.386320  0.256920  0.427700  1.0  0.3074
  Ag  Ag8  1  0.052990  0.590250  0.761030  1.0  0.3074
  Ag  Ag9  1  0.719650  0.923590  0.094370  1.0  0.3074
  Ag  Ag10  1  0.256920  0.870600  0.572300  1.0  0.3009
  Ag  Ag11  1  0.923590  0.203930  0.905630  1.0  0.3009
  Ag  Ag12  1  0.590250  0.537270  0.238970  1.0  0.3009
  Ag  Ag13  1  0.129400  0.386320  0.572300  1.0  0.3017
  Ag  Ag14  1  0.796070  0.719650  0.905630  1.0  0.3017
  Ag  Ag15  1  0.462730  0.052990  0.238970  1.0  0.3017
  Ag  Ag16  1  0.613680  0.743080  0.572300  1.0  0.3025
  Ag  Ag17  1  0.280350  0.076410  0.905630  1.0  0.3025
  Ag  Ag18  1  0.947010  0.409750  0.238970  1.0  0.3025
  H  H19  1  0.847400  0.230700  0.043100  1.0  0.0632
  H  H20  1  0.776200  0.201600  0.250500  1.0  0.065
  H  H21  1  0.907100  0.331900  0.430100  1.0  0.0446
  H  H22  1  0.010300  0.391100  0.081800  1.0  0.0588
  H  H23  1  0.847700  0.246400  0.487600  1.0  0.0809
  H  H24  1  0.004800  0.325500  0.981800  1.0  0.0644
  H  H25  1  0.801300  0.265200  0.135600  1.0  0.0632
  H  H26  1  0.833300  0.329300  0.161000  1.0  0.0909
  H  H27  1  0.514070  0.564030  0.376430  1.0  0.0633
  H  H28  1  0.442870  0.534930  0.583830  1.0  0.0651
  H  H29  1  0.573770  0.665230  0.763430  1.0  0.0446
  H  H30  1  0.676970  0.724430  0.415130  1.0  0.0588
  H  H31  1  0.514370  0.579730  0.820930  1.0  0.0809
  H  H32  1  0.671470  0.658830  0.315130  1.0  0.0643
  H  H33  1  0.467970  0.598530  0.468930  1.0  0.0632
  H  H34  1  0.499970  0.662630  0.494330  1.0  0.0909
  H  H35  1  0.180730  0.897370  0.709770  1.0  0.0632
  H  H36  1  0.109530  0.868270  0.917170  1.0  0.0652
  H  H37  1  0.240430  0.998570  0.096770  1.0  0.0446
  H  H38  1  0.343630  0.057770  0.748470  1.0  0.0589
  H  H39  1  0.181030  0.913070  0.154270  1.0  0.0809
  H  H40  1  0.338130  0.992170  0.648470  1.0  0.0644
  H  H41  1  0.134630  0.931870  0.802270  1.0  0.0633
  H  H42  1  0.166630  0.995970  0.827670  1.0  0.0908
  H  H43  1  0.769300  0.616700  0.043100  1.0  0.0631
  H  H44  1  0.798400  0.574600  0.250500  1.0  0.0655
  H  H45  1  0.668100  0.575200  0.430100  1.0  0.044
  H  H46  1  0.608900  0.619200  0.081800  1.0  0.0592
  H  H47  1  0.753600  0.601300  0.487600  1.0  0.081
  H  H48  1  0.674500  0.679300  0.981800  1.0  0.0641
  H  H49  1  0.734800  0.536100  0.135600  1.0  0.061
  H  H50  1  0.670700  0.504000  0.161000  1.0  0.0939
  H  H51  1  0.435970  0.950030  0.376430  1.0  0.063
  H  H52  1  0.465070  0.907930  0.583830  1.0  0.0655
  H  H53  1  0.334770  0.908530  0.763430  1.0  0.0439
  H  H54  1  0.275570  0.952530  0.415130  1.0  0.0592
  H  H55  1  0.420270  0.934630  0.820930  1.0  0.081
  H  H56  1  0.341170  0.012630  0.315130  1.0  0.0641
  H  H57  1  0.401470  0.869430  0.468930  1.0  0.061
  H  H58  1  0.337370  0.837330  0.494330  1.0  0.0939
  H  H59  1  0.102630  0.283370  0.709770  1.0  0.0631
  H  H60  1  0.131730  0.241270  0.917170  1.0  0.0653
  H  H61  1  0.001430  0.241870  0.096770  1.0  0.044
  H  H62  1  0.942230  0.285870  0.748470  1.0  0.0592
  H  H63  1  0.086930  0.267970  0.154270  1.0  0.081
  H  H64  1  0.007830  0.345970  0.648470  1.0  0.064
  H  H65  1  0.068130  0.202770  0.802270  1.0  0.0595
  H  H66  1  0.004030  0.170670  0.827670  1.0  0.0928
  H  H67  1  0.383300  0.152600  0.043100  1.0  0.0642
  H  H68  1  0.425400  0.223800  0.250500  1.0  0.0662
  H  H69  1  0.424800  0.092900  0.430100  1.0  0.0448
  H  H70  1  0.380800  0.989700  0.081800  1.0  0.0596
  H  H71  1  0.398700  0.152300  0.487600  1.0  0.0809
  H  H72  1  0.320700  0.995200  0.981800  1.0  0.0634
  H  H73  1  0.463900  0.198700  0.135600  1.0  0.0604
  H  H74  1  0.496000  0.166700  0.161000  1.0  0.084
  H  H75  1  0.049970  0.485930  0.376430  1.0  0.0643
  H  H76  1  0.092070  0.557130  0.583830  1.0  0.066
  H  H77  1  0.091470  0.426230  0.763430  1.0  0.0448
  H  H78  1  0.047470  0.323030  0.415130  1.0  0.0596
  H  H79  1  0.065370  0.485630  0.820930  1.0  0.0809
  H  H80  1  0.987370  0.328530  0.315130  1.0  0.0635
  H  H81  1  0.130570  0.532030  0.468930  1.0  0.0604
  H  H82  1  0.162670  0.500030  0.494330  1.0  0.084
  H  H83  1  0.716630  0.819270  0.709770  1.0  0.0642
  H  H84  1  0.758730  0.890470  0.917170  1.0  0.0662
  H  H85  1  0.758130  0.759570  0.096770  1.0  0.0448
  H  H86  1  0.714130  0.656370  0.748470  1.0  0.0596
  H  H87  1  0.732030  0.818970  0.154270  1.0  0.0809
  H  H88  1  0.654030  0.661870  0.648470  1.0  0.0634
  H  H89  1  0.797230  0.865370  0.802270  1.0  0.0603
  H  H90  1  0.829330  0.833370  0.827670  1.0  0.0841
  H  H91  1  0.152600  0.769300  0.956900  1.0  0.0625
  H  H92  1  0.223800  0.798400  0.749500  1.0  0.0653
  H  H93  1  0.092900  0.668100  0.569900  1.0  0.0445
  H  H94  1  0.989700  0.608900  0.918200  1.0  0.0597
  H  H95  1  0.152300  0.753600  0.512400  1.0  0.081
  H  H96  1  0.995200  0.674500  0.018200  1.0  0.064
  H  H97  1  0.198700  0.734800  0.864400  1.0  0.0629
  H  H98  1  0.166700  0.670700  0.839000  1.0  0.0896
  H  H99  1  0.819270  0.102630  0.290230  1.0  0.0625
  H  H100  1  0.890470  0.131730  0.082830  1.0  0.0654
  H  H101  1  0.759570  0.001430  0.903230  1.0  0.0445
  H  H102  1  0.656370  0.942230  0.251530  1.0  0.0597
  H  H103  1  0.818970  0.086930  0.845730  1.0  0.081
  H  H104  1  0.661870  0.007830  0.351530  1.0  0.064
  H  H105  1  0.865370  0.068130  0.197730  1.0  0.0629
  H  H106  1  0.833370  0.004030  0.172330  1.0  0.0896
  H  H107  1  0.485930  0.435970  0.623570  1.0  0.0626
  H  H108  1  0.557130  0.465070  0.416170  1.0  0.0653
  H  H109  1  0.426230  0.334770  0.236570  1.0  0.0446
  H  H110  1  0.323030  0.275570  0.584870  1.0  0.0597
  H  H111  1  0.485630  0.420270  0.179070  1.0  0.081
  H  H112  1  0.328530  0.341170  0.684870  1.0  0.0639
  H  H113  1  0.532030  0.401470  0.531070  1.0  0.0629
  H  H114  1  0.500030  0.337370  0.505670  1.0  0.0896
  H  H115  1  0.230700  0.383300  0.956900  1.0  0.0627
  H  H116  1  0.201600  0.425400  0.749500  1.0  0.0653
  H  H117  1  0.331900  0.424800  0.569900  1.0  0.0437
  H  H118  1  0.391100  0.380800  0.918200  1.0  0.0594
  H  H119  1  0.246400  0.398700  0.512400  1.0  0.0803
  H  H120  1  0.325500  0.320700  0.018200  1.0  0.0639
  H  H121  1  0.265200  0.463900  0.864400  1.0  0.0623
  H  H122  1  0.329300  0.496000  0.839000  1.0  0.0926
  H  H123  1  0.897370  0.716630  0.290230  1.0  0.0629
  H  H124  1  0.868270  0.758730  0.082830  1.0  0.0651
  H  H125  1  0.998570  0.758130  0.903230  1.0  0.0437
  H  H126  1  0.057770  0.714130  0.251530  1.0  0.0594
  H  H127  1  0.913070  0.732030  0.845730  1.0  0.0803
  H  H128  1  0.992170  0.654030  0.351530  1.0  0.0638
  H  H129  1  0.931870  0.797230  0.197730  1.0  0.0609
  H  H130  1  0.995970  0.829330  0.172330  1.0  0.0913
  H  H131  1  0.564030  0.049970  0.623570  1.0  0.0627
  H  H132  1  0.534930  0.092070  0.416170  1.0  0.0653
  H  H133  1  0.665230  0.091470  0.236570  1.0  0.0437
  H  H134  1  0.724430  0.047470  0.584870  1.0  0.0595
  H  H135  1  0.579730  0.065370  0.179070  1.0  0.0803
  H  H136  1  0.658830  0.987370  0.684870  1.0  0.0639
  H  H137  1  0.598530  0.130570  0.531070  1.0  0.0623
  H  H138  1  0.662630  0.162670  0.505670  1.0  0.0926
  H  H139  1  0.616700  0.847400  0.956900  1.0  0.0645
  H  H140  1  0.574600  0.776200  0.749500  1.0  0.0659
  H  H141  1  0.575200  0.907100  0.569900  1.0  0.0442
  H  H142  1  0.619200  0.010300  0.918200  1.0  0.0594
  H  H143  1  0.601300  0.847700  0.512400  1.0  0.0809
  H  H144  1  0.679300  0.004800  0.018200  1.0  0.063
  H  H145  1  0.536100  0.801300  0.864400  1.0  0.0614
  H  H146  1  0.504000  0.833300  0.839000  1.0  0.084
  H  H147  1  0.283370  0.180730  0.290230  1.0  0.0645
  H  H148  1  0.241270  0.109530  0.082830  1.0  0.066
  H  H149  1  0.241870  0.240430  0.903230  1.0  0.0442
  H  H150  1  0.285870  0.343630  0.251530  1.0  0.0594
  H  H151  1  0.267970  0.181030  0.845730  1.0  0.0809
  H  H152  1  0.345970  0.338130  0.351530  1.0  0.0631
  H  H153  1  0.202770  0.134630  0.197730  1.0  0.0613
  H  H154  1  0.170670  0.166630  0.172330  1.0  0.0842
  H  H155  1  0.950030  0.514070  0.623570  1.0  0.0646
  H  H156  1  0.907930  0.442870  0.416170  1.0  0.0658
  H  H157  1  0.908530  0.573770  0.236570  1.0  0.0442
  H  H158  1  0.952530  0.676970  0.584870  1.0  0.0594
  H  H159  1  0.934630  0.514370  0.179070  1.0  0.0809
  H  H160  1  0.012630  0.671470  0.684870  1.0  0.0632
  H  H161  1  0.869430  0.467970  0.531070  1.0  0.0614
  H  H162  1  0.837330  0.499970  0.505670  1.0  0.084
  C  C163  1  0.881600  0.264000  0.049400  1.0  0.1186
  C  C164  1  0.884900  0.303200  0.108900  1.0  0.2967
  C  C165  1  0.802300  0.228200  0.290300  1.0  0.069
  C  C166  1  0.879300  0.305300  0.392300  1.0  0.117
  C  C167  1  0.838500  0.280600  0.258100  1.0  0.3046
  C  C168  1  0.976200  0.357700  0.074800  1.0  0.0959
  C  C169  1  0.843900  0.254100  0.427100  1.0  0.0612
  C  C170  1  0.973000  0.319000  0.014400  1.0  0.0679
  C  C171  1  0.835400  0.295000  0.163000  1.0  -0.4156
  C  C172  1  0.548270  0.597330  0.382730  1.0  0.1187
  C  C173  1  0.551570  0.636530  0.442230  1.0  0.2968
  C  C174  1  0.468970  0.561530  0.623630  1.0  0.069
  C  C175  1  0.545970  0.638630  0.725630  1.0  0.117
  C  C176  1  0.505170  0.613930  0.591430  1.0  0.3045
  C  C177  1  0.642870  0.691030  0.408130  1.0  0.0959
  C  C178  1  0.510570  0.587430  0.760430  1.0  0.0612
  C  C179  1  0.639670  0.652330  0.347730  1.0  0.0679
  C  C180  1  0.502070  0.628330  0.496330  1.0  -0.4156
  C  C181  1  0.214930  0.930670  0.716070  1.0  0.1187
  C  C182  1  0.218230  0.969870  0.775570  1.0  0.2967
  C  C183  1  0.135630  0.894870  0.956970  1.0  0.069
  C  C184  1  0.212630  0.971970  0.058970  1.0  0.1168
  C  C185  1  0.171830  0.947270  0.924770  1.0  0.3048
  C  C186  1  0.309530  0.024370  0.741470  1.0  0.0958
  C  C187  1  0.177230  0.920770  0.093770  1.0  0.0612
  C  C188  1  0.306330  0.985670  0.681070  1.0  0.0677
  C  C189  1  0.168730  0.961670  0.829670  1.0  -0.4156
  C  C190  1  0.736000  0.617600  0.049400  1.0  0.1149
  C  C191  1  0.696800  0.581700  0.108900  1.0  0.2979
  C  C192  1  0.771800  0.574100  0.290300  1.0  0.0708
  C  C193  1  0.694700  0.574000  0.392300  1.0  0.1175
  C  C194  1  0.719400  0.557900  0.258100  1.0  0.3054
  C  C195  1  0.642300  0.618500  0.074800  1.0  0.0979
  C  C196  1  0.745900  0.589800  0.427100  1.0  0.0606
  C  C197  1  0.681000  0.654000  0.014400  1.0  0.0668
  C  C198  1  0.705000  0.540400  0.163000  1.0  -0.4133
  C  C199  1  0.402670  0.950930  0.382730  1.0  0.1151
  C  C200  1  0.363470  0.915030  0.442230  1.0  0.2979
  C  C201  1  0.438470  0.907430  0.623630  1.0  0.0708
  C  C202  1  0.361370  0.907330  0.725630  1.0  0.1176
  C  C203  1  0.386070  0.891230  0.591430  1.0  0.3056
  C  C204  1  0.308970  0.951830  0.408130  1.0  0.0979
  C  C205  1  0.412570  0.923130  0.760430  1.0  0.0606
  C  C206  1  0.347670  0.987330  0.347730  1.0  0.0669
  C  C207  1  0.371670  0.873730  0.496330  1.0  -0.4133
  C  C208  1  0.069330  0.284270  0.716070  1.0  0.115
  C  C209  1  0.030130  0.248370  0.775570  1.0  0.2979
  C  C210  1  0.105130  0.240770  0.956970  1.0  0.0708
  C  C211  1  0.028030  0.240670  0.058970  1.0  0.1176
  C  C212  1  0.052730  0.224570  0.924770  1.0  0.3052
  C  C213  1  0.975630  0.285170  0.741470  1.0  0.0979
  C  C214  1  0.079230  0.256470  0.093770  1.0  0.0606
  C  C215  1  0.014330  0.320670  0.681070  1.0  0.0668
  C  C216  1  0.038330  0.207070  0.829670  1.0  -0.4137
  C  C217  1  0.382400  0.118400  0.049400  1.0  0.1176
  C  C218  1  0.418300  0.115100  0.108900  1.0  0.2975
  C  C219  1  0.425900  0.197700  0.290300  1.0  0.0697
  C  C220  1  0.426000  0.120700  0.392300  1.0  0.1175
  C  C221  1  0.442100  0.161500  0.258100  1.0  0.3049
  C  C222  1  0.381500  0.023800  0.074800  1.0  0.0935
  C  C223  1  0.410200  0.156100  0.427100  1.0  0.0592
  C  C224  1  0.346000  0.027000  0.014400  1.0  0.0684
  C  C225  1  0.459600  0.164600  0.163000  1.0  -0.4148
  C  C226  1  0.049070  0.451730  0.382730  1.0  0.1175
  C  C227  1  0.084970  0.448430  0.442230  1.0  0.2975
  C  C228  1  0.092570  0.531030  0.623630  1.0  0.0697
  C  C229  1  0.092670  0.454030  0.725630  1.0  0.1175
  C  C230  1  0.108770  0.494830  0.591430  1.0  0.3049
  C  C231  1  0.048170  0.357130  0.408130  1.0  0.0935
  C  C232  1  0.076870  0.489430  0.760430  1.0  0.0592
  C  C233  1  0.012670  0.360330  0.347730  1.0  0.0683
  C  C234  1  0.126270  0.497930  0.496330  1.0  -0.4148
  C  C235  1  0.715730  0.785070  0.716070  1.0  0.1175
  C  C236  1  0.751630  0.781770  0.775570  1.0  0.2975
  C  C237  1  0.759230  0.864370  0.956970  1.0  0.0697
  C  C238  1  0.759330  0.787370  0.058970  1.0  0.1174
  C  C239  1  0.775430  0.828170  0.924770  1.0  0.3049
  C  C240  1  0.714830  0.690470  0.741470  1.0  0.0935
  C  C241  1  0.743530  0.822770  0.093770  1.0  0.0592
  C  C242  1  0.679330  0.693670  0.681070  1.0  0.0683
  C  C243  1  0.792930  0.831270  0.829670  1.0  -0.4146
  C  C244  1  0.118400  0.736000  0.950600  1.0  0.1159
  C  C245  1  0.115100  0.696800  0.891100  1.0  0.2971
  C  C246  1  0.197700  0.771800  0.709700  1.0  0.0683
  C  C247  1  0.120700  0.694700  0.607700  1.0  0.116
  C  C248  1  0.161500  0.719400  0.741900  1.0  0.3042
  C  C249  1  0.023800  0.642300  0.925200  1.0  0.0977
  C  C250  1  0.156100  0.745900  0.572900  1.0  0.0609
  C  C251  1  0.027000  0.681000  0.985600  1.0  0.0679
  C  C252  1  0.164600  0.705000  0.837000  1.0  -0.4166
  C  C253  1  0.785070  0.069330  0.283930  1.0  0.116
  C  C254  1  0.781770  0.030130  0.224430  1.0  0.2971
  C  C255  1  0.864370  0.105130  0.043030  1.0  0.0683
  C  C256  1  0.787370  0.028030  0.941030  1.0  0.1159
  C  C257  1  0.828170  0.052730  0.075230  1.0  0.3045
  C  C258  1  0.690470  0.975630  0.258530  1.0  0.0977
  C  C259  1  0.822770  0.079230  0.906230  1.0  0.0609
  C  C260  1  0.693670  0.014330  0.318930  1.0  0.0677
  C  C261  1  0.831270  0.038330  0.170330  1.0  -0.4166
  C  C262  1  0.451730  0.402670  0.617270  1.0  0.1159
  C  C263  1  0.448430  0.363470  0.557770  1.0  0.2971
  C  C264  1  0.531030  0.438470  0.376370  1.0  0.0683
  C  C265  1  0.454030  0.361370  0.274370  1.0  0.116
  C  C266  1  0.494830  0.386070  0.408570  1.0  0.3042
  C  C267  1  0.357130  0.308970  0.591870  1.0  0.0977
  C  C268  1  0.489430  0.412570  0.239570  1.0  0.0609
  C  C269  1  0.360330  0.347670  0.652270  1.0  0.0679
  C  C270  1  0.497930  0.371670  0.503670  1.0  -0.4166
  C  C271  1  0.264000  0.382400  0.950600  1.0  0.1159
  C  C272  1  0.303200  0.418300  0.891100  1.0  0.2957
  C  C273  1  0.228200  0.425900  0.709700  1.0  0.0718
  C  C274  1  0.305300  0.426000  0.607700  1.0  0.1169
  C  C275  1  0.280600  0.442100  0.741900  1.0  0.3038
  C  C276  1  0.357700  0.381500  0.925200  1.0  0.0977
  C  C277  1  0.254100  0.410200  0.572900  1.0  0.0606
  C  C278  1  0.319000  0.346000  0.985600  1.0  0.0679
  C  C279  1  0.295000  0.459600  0.837000  1.0  -0.4166
  C  C280  1  0.930670  0.715730  0.283930  1.0  0.1159
  C  C281  1  0.969870  0.751630  0.224430  1.0  0.2957
  C  C282  1  0.894870  0.759230  0.043030  1.0  0.0718
  C  C283  1  0.971970  0.759330  0.941030  1.0  0.117
  C  C284  1  0.947270  0.775430  0.075230  1.0  0.3036
  C  C285  1  0.024370  0.714830  0.258530  1.0  0.0977
  C  C286  1  0.920770  0.743530  0.906230  1.0  0.0606
  C  C287  1  0.985670  0.679330  0.318930  1.0  0.0679
  C  C288  1  0.961670  0.792930  0.170330  1.0  -0.417
  C  C289  1  0.597330  0.049070  0.617270  1.0  0.116
  C  C290  1  0.636530  0.084970  0.557770  1.0  0.2957
  C  C291  1  0.561530  0.092570  0.376370  1.0  0.0718
  C  C292  1  0.638630  0.092670  0.274370  1.0  0.117
  C  C293  1  0.613930  0.108770  0.408570  1.0  0.3039
  C  C294  1  0.691030  0.048170  0.591870  1.0  0.0977
  C  C295  1  0.587430  0.076870  0.239570  1.0  0.0606
  C  C296  1  0.652330  0.012670  0.652270  1.0  0.0679
  C  C297  1  0.628330  0.126270  0.503670  1.0  -0.4166
  C  C298  1  0.617600  0.881600  0.950600  1.0  0.1173
  C  C299  1  0.581700  0.884900  0.891100  1.0  0.2959
  C  C300  1  0.574100  0.802300  0.709700  1.0  0.0699
  C  C301  1  0.574000  0.879300  0.607700  1.0  0.1156
  C  C302  1  0.557900  0.838500  0.741900  1.0  0.3046
  C  C303  1  0.618500  0.976200  0.925200  1.0  0.0945
  C  C304  1  0.589800  0.843900  0.572900  1.0  0.0598
  C  C305  1  0.654000  0.973000  0.985600  1.0  0.0681
  C  C306  1  0.540400  0.835400  0.837000  1.0  -0.4147
  C  C307  1  0.284270  0.214930  0.283930  1.0  0.1172
  C  C308  1  0.248370  0.218230  0.224430  1.0  0.2959
  C  C309  1  0.240770  0.135630  0.043030  1.0  0.0699
  C  C310  1  0.240670  0.212630  0.941030  1.0  0.1156
  C  C311  1  0.224570  0.171830  0.075230  1.0  0.3046
  C  C312  1  0.285170  0.309530  0.258530  1.0  0.0945
  C  C313  1  0.256470  0.177230  0.906230  1.0  0.0599
  C  C314  1  0.320670  0.306330  0.318930  1.0  0.068
  C  C315  1  0.207070  0.168730  0.170330  1.0  -0.4145
  C  C316  1  0.950930  0.548270  0.617270  1.0  0.1172
  C  C317  1  0.915030  0.551570  0.557770  1.0  0.2959
  C  C318  1  0.907430  0.468970  0.376370  1.0  0.0699
  C  C319  1  0.907330  0.545970  0.274370  1.0  0.1156
  C  C320  1  0.891230  0.505170  0.408570  1.0  0.3046
  C  C321  1  0.951830  0.642870  0.591870  1.0  0.0945
  C  C322  1  0.923130  0.510570  0.239570  1.0  0.0598
  C  C323  1  0.987330  0.639670  0.652270  1.0  0.068
  C  C324  1  0.873730  0.502070  0.503670  1.0  -0.4147
  N  N325  1  0.802900  0.213800  0.374600  1.0  -0.3516
  N  N326  1  0.876800  0.319400  0.310200  1.0  -0.421
  N  N327  1  0.932900  0.349700  0.123700  1.0  -0.3864
  N  N328  1  0.923800  0.270900  0.001100  1.0  -0.3848
  N  N329  1  0.469570  0.547130  0.707930  1.0  -0.3516
  N  N330  1  0.543470  0.652730  0.643530  1.0  -0.4208
  N  N331  1  0.599570  0.683030  0.457030  1.0  -0.3864
  N  N332  1  0.590470  0.604230  0.334430  1.0  -0.3848
  N  N333  1  0.136230  0.880470  0.041270  1.0  -0.3516
  N  N334  1  0.210130  0.986070  0.976870  1.0  -0.4208
  N  N335  1  0.266230  0.016370  0.790370  1.0  -0.3864
  N  N336  1  0.257130  0.937570  0.667770  1.0  -0.3851
  N  N337  1  0.786200  0.589100  0.374600  1.0  -0.3562
  N  N338  1  0.680600  0.557400  0.310200  1.0  -0.4203
  N  N339  1  0.650300  0.583200  0.123700  1.0  -0.3861
  N  N340  1  0.729100  0.652900  0.001100  1.0  -0.3835
  N  N341  1  0.452870  0.922430  0.707930  1.0  -0.3562
  N  N342  1  0.347270  0.890730  0.643530  1.0  -0.4205
  N  N343  1  0.316970  0.916530  0.457030  1.0  -0.3861
  N  N344  1  0.395770  0.986230  0.334430  1.0  -0.3832
  N  N345  1  0.119530  0.255770  0.041270  1.0  -0.3562
  N  N346  1  0.013930  0.224070  0.976870  1.0  -0.4203
  N  N347  1  0.983630  0.249870  0.790370  1.0  -0.3861
  N  N348  1  0.062430  0.319570  0.667770  1.0  -0.3832
  N  N349  1  0.410900  0.197100  0.374600  1.0  -0.353
  N  N350  1  0.442600  0.123200  0.310200  1.0  -0.4213
  N  N351  1  0.416800  0.067100  0.123700  1.0  -0.3862
  N  N352  1  0.347100  0.076200  0.001100  1.0  -0.383
  N  N353  1  0.077570  0.530430  0.707930  1.0  -0.353
  N  N354  1  0.109270  0.456530  0.643530  1.0  -0.4213
  N  N355  1  0.083470  0.400430  0.457030  1.0  -0.3862
  N  N356  1  0.013770  0.409530  0.334430  1.0  -0.3835
  N  N357  1  0.744230  0.863770  0.041270  1.0  -0.353
  N  N358  1  0.775930  0.789870  0.976870  1.0  -0.4213
  N  N359  1  0.750130  0.733770  0.790370  1.0  -0.3862
  N  N360  1  0.680430  0.742870  0.667770  1.0  -0.3832
  N  N361  1  0.197100  0.786200  0.625400  1.0  -0.3513
  N  N362  1  0.123200  0.680600  0.689800  1.0  -0.4209
  N  N363  1  0.067100  0.650300  0.876300  1.0  -0.3844
  N  N364  1  0.076200  0.729100  0.998900  1.0  -0.3855
  N  N365  1  0.863770  0.119530  0.958730  1.0  -0.3514
  N  N366  1  0.789870  0.013930  0.023130  1.0  -0.4208
  N  N367  1  0.733770  0.983630  0.209630  1.0  -0.3844
  N  N368  1  0.742870  0.062430  0.332230  1.0  -0.3858
  N  N369  1  0.530430  0.452870  0.292070  1.0  -0.3513
  N  N370  1  0.456530  0.347270  0.356470  1.0  -0.4209
  N  N371  1  0.400430  0.316970  0.542970  1.0  -0.3844
  N  N372  1  0.409530  0.395770  0.665570  1.0  -0.3854
  N  N373  1  0.213800  0.410900  0.625400  1.0  -0.3557
  N  N374  1  0.319400  0.442600  0.689800  1.0  -0.4202
  N  N375  1  0.349700  0.416800  0.876300  1.0  -0.386
  N  N376  1  0.270900  0.347100  0.998900  1.0  -0.3841
  N  N377  1  0.880470  0.744230  0.958730  1.0  -0.3558
  N  N378  1  0.986070  0.775930  0.023130  1.0  -0.4203
  N  N379  1  0.016370  0.750130  0.209630  1.0  -0.386
  N  N380  1  0.937570  0.680430  0.332230  1.0  -0.3839
  N  N381  1  0.547130  0.077570  0.292070  1.0  -0.3557
  N  N382  1  0.652730  0.109270  0.356470  1.0  -0.4202
  N  N383  1  0.683030  0.083470  0.542970  1.0  -0.386
  N  N384  1  0.604230  0.013770  0.665570  1.0  -0.3838
  N  N385  1  0.589100  0.802900  0.625400  1.0  -0.3531
  N  N386  1  0.557400  0.876800  0.689800  1.0  -0.4234
  N  N387  1  0.583200  0.932900  0.876300  1.0  -0.3854
  N  N388  1  0.652900  0.923800  0.998900  1.0  -0.3839
  N  N389  1  0.255770  0.136230  0.958730  1.0  -0.3531
  N  N390  1  0.224070  0.210130  0.023130  1.0  -0.4235
  N  N391  1  0.249870  0.266230  0.209630  1.0  -0.3854
  N  N392  1  0.319570  0.257130  0.332230  1.0  -0.384
  N  N393  1  0.922430  0.469570  0.292070  1.0  -0.3531
  N  N394  1  0.890730  0.543470  0.356470  1.0  -0.4234
  N  N395  1  0.916530  0.599570  0.542970  1.0  -0.3854
  N  N396  1  0.986230  0.590470  0.665570  1.0  -0.3844
