# generated using pymatgen
data_AgH8C9N4ClO4
_symmetry_space_group_name_H-M   'P 1'
_cell_length_a   11.77660000
_cell_length_b   16.85510000
_cell_length_c   16.85510000
_cell_angle_alpha   65.25140000
_cell_angle_beta   76.53220000
_cell_angle_gamma   103.46800000
_symmetry_Int_Tables_number   1
_chemical_formula_structural   AgH8C9N4ClO4
_chemical_formula_sum   'Ag6 H48 C54 N24 Cl6 O24'
_cell_volume   2740.26437340
_cell_formula_units_Z   6
loop_
 _symmetry_equiv_pos_site_id
 _symmetry_equiv_pos_as_xyz
  1  'x, y, z'
loop_
 _atom_site_type_symbol
 _atom_site_label
 _atom_site_symmetry_multiplicity
 _atom_site_fract_x
 _atom_site_fract_y
 _atom_site_fract_z
 _atom_site_occupancy
 _atom_site_charge
  Ag  Ag1  1  0.125860  0.343350  0.545310  1.0  0.4014
  Ag  Ag2  1  0.671170  0.545310  0.111340  1.0  0.3945
  Ag  Ag3  1  0.782510  0.111340  0.343350  1.0  0.4053
  Ag  Ag4  1  0.874140  0.656650  0.454690  1.0  0.4033
  Ag  Ag5  1  0.328830  0.454690  0.888660  1.0  0.4017
  Ag  Ag6  1  0.217490  0.888660  0.656650  1.0  0.4053
  H  H7  1  0.985800  0.386000  0.396500  1.0  0.0959
  H  H8  1  0.828000  0.066100  0.541600  1.0  0.1097
  H  H9  1  0.012300  0.978700  0.660600  1.0  0.1151
  H  H10  1  0.348600  0.251000  0.527900  1.0  0.0884
  H  H11  1  0.930400  0.152400  0.678600  1.0  0.1411
  H  H12  1  0.874300  0.057100  0.676900  1.0  0.1213
  H  H13  1  0.380500  0.108000  0.562800  1.0  0.1264
  H  H14  1  0.893200  0.312700  0.328900  1.0  0.1004
  H  H15  1  0.382300  0.396500  0.217500  1.0  0.0953
  H  H16  1  0.369600  0.541600  0.392300  1.0  0.1102
  H  H17  1  0.672900  0.660600  0.360700  1.0  0.1139
  H  H18  1  0.876500  0.527900  0.221100  1.0  0.0887
  H  H19  1  0.609000  0.678600  0.169000  1.0  0.1402
  H  H20  1  0.551200  0.676900  0.266000  1.0  0.1184
  H  H21  1  0.943300  0.562800  0.329200  1.0  0.1267
  H  H22  1  0.222100  0.328900  0.358400  1.0  0.1007
  H  H23  1  0.599800  0.217500  0.386000  1.0  0.0946
  H  H24  1  0.761900  0.392300  0.066100  1.0  0.109
  H  H25  1  0.033600  0.360700  0.978700  1.0  0.1154
  H  H26  1  0.097600  0.221100  0.251000  1.0  0.0891
  H  H27  1  0.778000  0.169000  0.152400  1.0  0.1437
  H  H28  1  0.817200  0.266000  0.057100  1.0  0.1191
  H  H29  1  0.272500  0.329200  0.108000  1.0  0.1268
  H  H30  1  0.580500  0.358400  0.312700  1.0  0.1004
  H  H31  1  0.014200  0.614000  0.603500  1.0  0.0967
  H  H32  1  0.172000  0.933900  0.458400  1.0  0.1083
  H  H33  1  0.987700  0.021300  0.339400  1.0  0.115
  H  H34  1  0.651400  0.749000  0.472100  1.0  0.0887
  H  H35  1  0.069600  0.847600  0.321400  1.0  0.1408
  H  H36  1  0.125700  0.942900  0.323100  1.0  0.1185
  H  H37  1  0.619500  0.892000  0.437200  1.0  0.1263
  H  H38  1  0.106800  0.687300  0.671100  1.0  0.1007
  H  H39  1  0.617700  0.603500  0.782500  1.0  0.0951
  H  H40  1  0.630400  0.458400  0.607700  1.0  0.1108
  H  H41  1  0.327100  0.339400  0.639300  1.0  0.1142
  H  H42  1  0.123500  0.472100  0.778900  1.0  0.0882
  H  H43  1  0.391000  0.321400  0.831000  1.0  0.1416
  H  H44  1  0.448800  0.323100  0.734000  1.0  0.1191
  H  H45  1  0.056700  0.437200  0.670800  1.0  0.1264
  H  H46  1  0.777900  0.671100  0.641600  1.0  0.1006
  H  H47  1  0.400200  0.782500  0.614000  1.0  0.0939
  H  H48  1  0.238100  0.607700  0.933900  1.0  0.1089
  H  H49  1  0.966400  0.639300  0.021300  1.0  0.1161
  H  H50  1  0.902400  0.778900  0.749000  1.0  0.0894
  H  H51  1  0.222000  0.831000  0.847600  1.0  0.1432
  H  H52  1  0.182800  0.734000  0.942900  1.0  0.1195
  H  H53  1  0.727500  0.670800  0.892000  1.0  0.1266
  H  H54  1  0.419500  0.641600  0.687300  1.0  0.1002
  C  C55  1  0.955300  0.319200  0.427200  1.0  0.1387
  C  C56  1  0.862700  0.133000  0.510100  1.0  0.151
  C  C57  1  0.072300  0.115700  0.618200  1.0  0.2446
  C  C58  1  0.084800  0.033500  0.636200  1.0  0.106
  C  C59  1  0.277500  0.194000  0.557900  1.0  0.1595
  C  C60  1  0.922300  0.175800  0.551100  1.0  0.2095
  C  C61  1  0.939700  0.121500  0.640200  1.0  -0.3125
  C  C62  1  0.297800  0.108300  0.578400  1.0  0.1271
  C  C63  1  0.899100  0.275500  0.387400  1.0  0.1586
  C  C64  1  0.382500  0.427200  0.253600  1.0  0.1391
  C  C65  1  0.372800  0.510100  0.356900  1.0  0.1523
  C  C66  1  0.690500  0.618200  0.266100  1.0  0.241
  C  C67  1  0.721000  0.636200  0.330300  1.0  0.1104
  C  C68  1  0.835400  0.557900  0.248100  1.0  0.1625
  C  C69  1  0.473400  0.551100  0.273100  1.0  0.2127
  C  C70  1  0.579900  0.640200  0.238300  1.0  -0.314
  C  C71  1  0.876200  0.578400  0.313300  1.0  0.129
  C  C72  1  0.286500  0.387400  0.337100  1.0  0.1564
  C  C73  1  0.636100  0.253600  0.319200  1.0  0.137
  C  C74  1  0.729700  0.356900  0.133000  1.0  0.1516
  C  C75  1  0.956600  0.266100  0.115700  1.0  0.2444
  C  C76  1  0.051300  0.330300  0.033500  1.0  0.1093
  C  C77  1  0.083500  0.248100  0.194000  1.0  0.1617
  C  C78  1  0.746500  0.273100  0.175800  1.0  0.2107
  C  C79  1  0.818200  0.238300  0.121500  1.0  -0.3114
  C  C80  1  0.189500  0.313300  0.108300  1.0  0.1296
  C  C81  1  0.623600  0.337100  0.275500  1.0  0.1566
  C  C82  1  0.044700  0.680800  0.572800  1.0  0.1396
  C  C83  1  0.137300  0.867000  0.489900  1.0  0.1502
  C  C84  1  0.927700  0.884300  0.381800  1.0  0.2453
  C  C85  1  0.915200  0.966500  0.363800  1.0  0.1076
  C  C86  1  0.722500  0.806000  0.442100  1.0  0.1604
  C  C87  1  0.077700  0.824200  0.448900  1.0  0.2112
  C  C88  1  0.060300  0.878500  0.359800  1.0  -0.3121
  C  C89  1  0.702200  0.891700  0.421600  1.0  0.1284
  C  C90  1  0.100900  0.724500  0.612600  1.0  0.1584
  C  C91  1  0.617500  0.572800  0.746400  1.0  0.1378
  C  C92  1  0.627200  0.489900  0.643100  1.0  0.1532
  C  C93  1  0.309500  0.381800  0.733900  1.0  0.243
  C  C94  1  0.279000  0.363800  0.669700  1.0  0.1104
  C  C95  1  0.164600  0.442100  0.751900  1.0  0.1634
  C  C96  1  0.526600  0.448900  0.726900  1.0  0.2124
  C  C97  1  0.420100  0.359800  0.761700  1.0  -0.3121
  C  C98  1  0.123800  0.421600  0.686700  1.0  0.1278
  C  C99  1  0.713500  0.612600  0.662900  1.0  0.1573
  C  C100  1  0.363900  0.746400  0.680800  1.0  0.1376
  C  C101  1  0.270300  0.643100  0.867000  1.0  0.152
  C  C102  1  0.043400  0.733900  0.884300  1.0  0.2433
  C  C103  1  0.948700  0.669700  0.966500  1.0  0.1087
  C  C104  1  0.916500  0.751900  0.806000  1.0  0.1602
  C  C105  1  0.253500  0.726900  0.824200  1.0  0.211
  C  C106  1  0.181800  0.761700  0.878500  1.0  -0.3168
  C  C107  1  0.810500  0.686700  0.891700  1.0  0.1282
  C  C108  1  0.376400  0.662900  0.724500  1.0  0.1565
  N  N109  1  0.969500  0.271600  0.508900  1.0  -0.3662
  N  N110  1  0.164800  0.197000  0.578900  1.0  -0.342
  N  N111  1  0.851700  0.181500  0.427500  1.0  -0.3484
  N  N112  1  0.196500  0.028300  0.620200  1.0  -0.307
  N  N113  1  0.478400  0.508900  0.219500  1.0  -0.3627
  N  N114  1  0.743700  0.578900  0.224100  1.0  -0.3432
  N  N115  1  0.279200  0.427500  0.391000  1.0  -0.3469
  N  N116  1  0.816700  0.620200  0.351500  1.0  -0.3109
  N  N117  1  0.697900  0.219500  0.271600  1.0  -0.3583
  N  N118  1  0.967800  0.224100  0.197000  1.0  -0.3427
  N  N119  1  0.670200  0.391000  0.181500  1.0  -0.3468
  N  N120  1  0.168200  0.351500  0.028300  1.0  -0.3112
  N  N121  1  0.030500  0.728400  0.491100  1.0  -0.3669
  N  N122  1  0.835200  0.803000  0.421100  1.0  -0.3409
  N  N123  1  0.148300  0.818500  0.572500  1.0  -0.348
  N  N124  1  0.803500  0.971700  0.379800  1.0  -0.3077
  N  N125  1  0.521600  0.491100  0.780500  1.0  -0.3618
  N  N126  1  0.256300  0.421100  0.775900  1.0  -0.3462
  N  N127  1  0.720800  0.572500  0.609000  1.0  -0.349
  N  N128  1  0.183300  0.379800  0.648500  1.0  -0.3106
  N  N129  1  0.302100  0.780500  0.728400  1.0  -0.3601
  N  N130  1  0.032200  0.775900  0.803000  1.0  -0.3419
  N  N131  1  0.329800  0.609000  0.818500  1.0  -0.3459
  N  N132  1  0.831800  0.648500  0.971700  1.0  -0.311
  Cl  Cl133  1  0.389060  0.666667  0.484600  1.0  1.4171
  Cl  Cl134  1  0.873660  0.484600  0.848720  1.0  1.4186
  Cl  Cl135  1  0.722380  0.848720  0.666667  1.0  1.4202
  Cl  Cl136  1  0.610940  0.333333  0.515400  1.0  1.4183
  Cl  Cl137  1  0.126340  0.515400  0.151280  1.0  1.419
  Cl  Cl138  1  0.277620  0.151280  0.333333  1.0  1.4192
  O  O139  1  0.462300  0.692100  0.395600  1.0  -0.5465
  O  O140  1  0.391000  0.745100  0.493300  1.0  -0.5926
  O  O141  1  0.432900  0.609900  0.551900  1.0  -0.5846
  O  O142  1  0.263300  0.609400  0.500700  1.0  -0.6227
  O  O143  1  0.857900  0.395600  0.912300  1.0  -0.5437
  O  O144  1  0.884300  0.493300  0.761600  1.0  -0.592
  O  O145  1  0.984800  0.551900  0.838200  1.0  -0.5846
  O  O146  1  0.764000  0.500700  0.889900  1.0  -0.6161
  O  O147  1  0.770200  0.912300  0.692100  1.0  -0.5457
  O  O148  1  0.645900  0.761600  0.745100  1.0  -0.592
  O  O149  1  0.823000  0.838200  0.609900  1.0  -0.584
  O  O150  1  0.653900  0.889900  0.609400  1.0  -0.62
  O  O151  1  0.537700  0.307900  0.604400  1.0  -0.5463
  O  O152  1  0.609000  0.254900  0.506700  1.0  -0.591
  O  O153  1  0.567100  0.390100  0.448100  1.0  -0.5838
  O  O154  1  0.736700  0.390600  0.499300  1.0  -0.622
  O  O155  1  0.142100  0.604400  0.087700  1.0  -0.5438
  O  O156  1  0.115700  0.506700  0.238400  1.0  -0.5917
  O  O157  1  0.015200  0.448100  0.161800  1.0  -0.5857
  O  O158  1  0.236000  0.499300  0.110100  1.0  -0.6137
  O  O159  1  0.229800  0.087700  0.307900  1.0  -0.5496
  O  O160  1  0.354100  0.238400  0.254900  1.0  -0.5933
  O  O161  1  0.177000  0.161800  0.390100  1.0  -0.5839
  O  O162  1  0.346100  0.110100  0.390600  1.0  -0.6226
