# generated using pymatgen
data_AgH8C9N4ClO4
_symmetry_space_group_name_H-M   'P 1'
_cell_length_a   13.95440000
_cell_length_b   17.01790000
_cell_length_c   17.01790000
_cell_angle_alpha   67.17380000
_cell_angle_beta   74.13760000
_cell_angle_gamma   105.86200000
_symmetry_Int_Tables_number   1
_chemical_formula_structural   AgH8C9N4ClO4
_chemical_formula_sum   'Ag6 H48 C54 N24 Cl6 O24'
_cell_volume   3238.42880071
_cell_formula_units_Z   6
loop_
 _symmetry_equiv_pos_site_id
 _symmetry_equiv_pos_as_xyz
  1  'x, y, z'
loop_
 _atom_site_type_symbol
 _atom_site_label
 _atom_site_symmetry_multiplicity
 _atom_site_fract_x
 _atom_site_fract_y
 _atom_site_fract_z
 _atom_site_occupancy
 _atom_site_charge
  Ag  Ag1  1  0.675980  0.871850  0.659660  1.0  0.2805
  Ag  Ag2  1  0.335640  0.659660  0.468490  1.0  0.285
  Ag  Ag3  1  0.804130  0.468490  0.871850  1.0  0.2762
  Ag  Ag4  1  0.324020  0.128150  0.340340  1.0  0.2843
  Ag  Ag5  1  0.664360  0.340340  0.531510  1.0  0.2846
  Ag  Ag6  1  0.195870  0.531510  0.128150  1.0  0.2744
  H  H7  1  0.388500  0.076800  0.521800  1.0  0.0837
  H  H8  1  0.528600  0.972200  0.647600  1.0  0.0988
  H  H9  1  0.422000  0.060500  0.659100  1.0  0.1308
  H  H10  1  0.479700  0.153900  0.661900  1.0  0.138
  H  H11  1  0.574500  0.395700  0.376300  1.0  0.112
  H  H12  1  0.846200  0.087400  0.563300  1.0  0.1083
  H  H13  1  0.846000  0.234200  0.521100  1.0  0.0936
  H  H14  1  0.476600  0.322400  0.312300  1.0  0.0823
  H  H15  1  0.910300  0.521800  0.401400  1.0  0.0836
  H  H16  1  0.176200  0.647600  0.380200  1.0  0.0973
  H  H17  1  0.081100  0.659100  0.280400  1.0  0.1273
  H  H18  1  0.141600  0.661900  0.184200  1.0  0.137
  H  H19  1  0.950800  0.376300  0.228000  1.0  0.1128
  H  H20  1  0.409500  0.563300  0.349300  1.0  0.1085
  H  H21  1  0.367100  0.521100  0.244700  1.0  0.0934
  H  H22  1  0.788900  0.312300  0.365300  1.0  0.0828
  H  H23  1  0.311700  0.401400  0.076800  1.0  0.0821
  H  H24  1  0.556400  0.380200  0.972200  1.0  0.0995
  H  H25  1  0.361500  0.280400  0.060500  1.0  0.1329
  H  H26  1  0.325800  0.184200  0.153900  1.0  0.1409
  H  H27  1  0.178800  0.228000  0.395700  1.0  0.1129
  H  H28  1  0.758800  0.349300  0.087400  1.0  0.1093
  H  H29  1  0.611800  0.244700  0.234200  1.0  0.0947
  H  H30  1  0.154200  0.365300  0.322400  1.0  0.0826
  H  H31  1  0.611500  0.923200  0.478200  1.0  0.0829
  H  H32  1  0.471400  0.027800  0.352400  1.0  0.0991
  H  H33  1  0.578000  0.939500  0.340900  1.0  0.128
  H  H34  1  0.520300  0.846100  0.338100  1.0  0.1371
  H  H35  1  0.425500  0.604300  0.623700  1.0  0.1124
  H  H36  1  0.153800  0.912600  0.436700  1.0  0.1097
  H  H37  1  0.154000  0.765800  0.478900  1.0  0.0932
  H  H38  1  0.523400  0.677600  0.687700  1.0  0.0826
  H  H39  1  0.089700  0.478200  0.598600  1.0  0.0835
  H  H40  1  0.823800  0.352400  0.619800  1.0  0.0971
  H  H41  1  0.918900  0.340900  0.719600  1.0  0.1288
  H  H42  1  0.858400  0.338100  0.815800  1.0  0.1377
  H  H43  1  0.049200  0.623700  0.772000  1.0  0.113
  H  H44  1  0.590500  0.436700  0.650700  1.0  0.1091
  H  H45  1  0.632900  0.478900  0.755300  1.0  0.0931
  H  H46  1  0.211100  0.687700  0.634700  1.0  0.0825
  H  H47  1  0.688300  0.598600  0.923200  1.0  0.0822
  H  H48  1  0.443600  0.619800  0.027800  1.0  0.0988
  H  H49  1  0.638500  0.719600  0.939500  1.0  0.1342
  H  H50  1  0.674200  0.815800  0.846100  1.0  0.1401
  H  H51  1  0.821200  0.772000  0.604300  1.0  0.1128
  H  H52  1  0.241200  0.650700  0.912600  1.0  0.1105
  H  H53  1  0.388200  0.755300  0.765800  1.0  0.0934
  H  H54  1  0.845800  0.634700  0.677600  1.0  0.0824
  C  C55  1  0.588500  0.110900  0.605700  1.0  0.2393
  C  C56  1  0.480100  0.182000  0.532500  1.0  0.229
  C  C57  1  0.423300  0.143500  0.492800  1.0  0.0794
  C  C58  1  0.594500  0.026500  0.623000  1.0  0.0363
  C  C59  1  0.485500  0.123100  0.623000  1.0  -0.2924
  C  C60  1  0.535400  0.328900  0.408500  1.0  0.1151
  C  C61  1  0.778500  0.092900  0.573000  1.0  0.1006
  C  C62  1  0.778100  0.180100  0.550400  1.0  0.1319
  C  C63  1  0.473900  0.284400  0.371800  1.0  0.1187
  C  C64  1  0.194200  0.605700  0.283400  1.0  0.2414
  C  C65  1  0.012600  0.532500  0.285500  1.0  0.2294
  C  C66  1  0.916100  0.492800  0.363700  1.0  0.0792
  C  C67  1  0.217500  0.623000  0.350500  1.0  0.0391
  C  C68  1  0.108500  0.623000  0.253900  1.0  -0.2937
  C  C69  1  0.943900  0.408500  0.262600  1.0  0.1181
  C  C70  1  0.351500  0.573000  0.334100  1.0  0.1008
  C  C71  1  0.328500  0.550400  0.269500  1.0  0.1366
  C  C72  1  0.845700  0.371800  0.343800  1.0  0.1162
  C  C73  1  0.477600  0.283400  0.110900  1.0  0.2396
  C  C74  1  0.298100  0.285500  0.182000  1.0  0.2279
  C  C75  1  0.279800  0.363700  0.143500  1.0  0.0839
  C  C76  1  0.568000  0.350500  0.026500  1.0  0.0411
  C  C77  1  0.362400  0.253900  0.123100  1.0  -0.2894
  C  C78  1  0.206500  0.262600  0.328900  1.0  0.1172
  C  C79  1  0.685600  0.334100  0.092900  1.0  0.0991
  C  C80  1  0.598000  0.269500  0.180100  1.0  0.1335
  C  C81  1  0.189500  0.343800  0.284400  1.0  0.1184
  C  C82  1  0.411500  0.889100  0.394300  1.0  0.2407
  C  C83  1  0.519900  0.818000  0.467500  1.0  0.2289
  C  C84  1  0.576700  0.856500  0.507200  1.0  0.0828
  C  C85  1  0.405500  0.973500  0.377000  1.0  0.0386
  C  C86  1  0.514500  0.876900  0.377000  1.0  -0.2925
  C  C87  1  0.464600  0.671100  0.591500  1.0  0.1167
  C  C88  1  0.221500  0.907100  0.427000  1.0  0.0991
  C  C89  1  0.221900  0.819900  0.449600  1.0  0.1321
  C  C90  1  0.526100  0.715600  0.628200  1.0  0.121
  C  C91  1  0.805800  0.394300  0.716600  1.0  0.2416
  C  C92  1  0.987400  0.467500  0.714500  1.0  0.2302
  C  C93  1  0.083900  0.507200  0.636300  1.0  0.0796
  C  C94  1  0.782500  0.377000  0.649500  1.0  0.0418
  C  C95  1  0.891500  0.377000  0.746100  1.0  -0.2933
  C  C96  1  0.056100  0.591500  0.737400  1.0  0.1168
  C  C97  1  0.648500  0.427000  0.665900  1.0  0.1005
  C  C98  1  0.671500  0.449600  0.730500  1.0  0.1361
  C  C99  1  0.154300  0.628200  0.656200  1.0  0.1174
  C  C100  1  0.522400  0.716600  0.889100  1.0  0.2395
  C  C101  1  0.701900  0.714500  0.818000  1.0  0.228
  C  C102  1  0.720200  0.636300  0.856500  1.0  0.0809
  C  C103  1  0.432000  0.649500  0.973500  1.0  0.0397
  C  C104  1  0.637600  0.746100  0.876900  1.0  -0.2951
  C  C105  1  0.793500  0.737400  0.671100  1.0  0.1178
  C  C106  1  0.314400  0.665900  0.907100  1.0  0.0984
  C  C107  1  0.402000  0.730500  0.819900  1.0  0.1346
  C  C108  1  0.810500  0.656200  0.715600  1.0  0.118
  N  N109  1  0.688900  0.018800  0.606600  1.0  -0.2082
  N  N110  1  0.537300  0.277200  0.486700  1.0  -0.2867
  N  N111  1  0.684300  0.189800  0.569100  1.0  -0.3251
  N  N112  1  0.414400  0.194400  0.415900  1.0  -0.2345
  N  N113  1  0.295500  0.606600  0.374600  1.0  -0.2135
  N  N114  1  0.024000  0.486700  0.236100  1.0  -0.2827
  N  N115  1  0.253400  0.569100  0.241100  1.0  -0.3226
  N  N116  1  0.830300  0.415900  0.389700  1.0  -0.2398
  N  N117  1  0.670100  0.374600  0.018800  1.0  -0.2087
  N  N118  1  0.260100  0.236100  0.277200  1.0  -0.2805
  N  N119  1  0.494500  0.241100  0.189800  1.0  -0.3231
  N  N120  1  0.220000  0.389700  0.194400  1.0  -0.2359
  N  N121  1  0.311100  0.981200  0.393400  1.0  -0.2062
  N  N122  1  0.462700  0.722800  0.513300  1.0  -0.2858
  N  N123  1  0.315700  0.810200  0.430900  1.0  -0.3198
  N  N124  1  0.585600  0.805600  0.584100  1.0  -0.2406
  N  N125  1  0.704500  0.393400  0.625400  1.0  -0.2156
  N  N126  1  0.976000  0.513300  0.763900  1.0  -0.2825
  N  N127  1  0.746600  0.430900  0.758900  1.0  -0.3223
  N  N128  1  0.169700  0.584100  0.610300  1.0  -0.2425
  N  N129  1  0.329900  0.625400  0.981200  1.0  -0.2103
  N  N130  1  0.739900  0.763900  0.722800  1.0  -0.2868
  N  N131  1  0.505500  0.758900  0.810200  1.0  -0.3237
  N  N132  1  0.780000  0.610300  0.805600  1.0  -0.2401
  Cl  Cl133  1  0.936360  0.682520  0.468740  1.0  1.5651
  Cl  Cl134  1  0.405100  0.468740  0.848740  1.0  1.5675
  Cl  Cl135  1  0.253840  0.848740  0.682520  1.0  1.565
  Cl  Cl136  1  0.063640  0.317480  0.531260  1.0  1.5669
  Cl  Cl137  1  0.594900  0.531260  0.151260  1.0  1.5651
  Cl  Cl138  1  0.746160  0.151260  0.317480  1.0  1.5655
  O  O139  1  0.968100  0.768000  0.471000  1.0  -0.639
  O  O140  1  0.983700  0.631100  0.516500  1.0  -0.587
  O  O141  1  0.821800  0.643900  0.517300  1.0  -0.6173
  O  O142  1  0.956500  0.701000  0.377300  1.0  -0.5698
  O  O143  1  0.439100  0.471000  0.761000  1.0  -0.6431
  O  O144  1  0.500200  0.516500  0.852400  1.0  -0.5868
  O  O145  1  0.339100  0.517300  0.838800  1.0  -0.6145
  O  O146  1  0.333800  0.377300  0.921700  1.0  -0.5541
  O  O147  1  0.200100  0.761000  0.768000  1.0  -0.6374
  O  O148  1  0.352600  0.852400  0.631100  1.0  -0.5875
  O  O149  1  0.177900  0.838800  0.643900  1.0  -0.6188
  O  O150  1  0.255500  0.921700  0.701000  1.0  -0.5615
  O  O151  1  0.031900  0.232000  0.529000  1.0  -0.6355
  O  O152  1  0.016300  0.368900  0.483500  1.0  -0.5853
  O  O153  1  0.178200  0.356100  0.482700  1.0  -0.6175
  O  O154  1  0.043500  0.299000  0.622700  1.0  -0.5668
  O  O155  1  0.560900  0.529000  0.239000  1.0  -0.6415
  O  O156  1  0.499800  0.483500  0.147600  1.0  -0.5867
  O  O157  1  0.660900  0.482700  0.161200  1.0  -0.617
  O  O158  1  0.666200  0.622700  0.078300  1.0  -0.5554
  O  O159  1  0.799900  0.239000  0.232000  1.0  -0.6384
  O  O160  1  0.647400  0.147600  0.368900  1.0  -0.5858
  O  O161  1  0.822100  0.161200  0.356100  1.0  -0.6186
  O  O162  1  0.744500  0.078300  0.299000  1.0  -0.5623
