# generated using pymatgen
data_Gd2CoH30C36(NO3)9
_symmetry_space_group_name_H-M   'P 1'
_cell_length_a   11.14500000
_cell_length_b   12.42400000
_cell_length_c   22.18000000
_cell_angle_alpha   102.01600000
_cell_angle_beta   103.47500000
_cell_angle_gamma   95.41900000
_symmetry_Int_Tables_number   1
_chemical_formula_structural   Gd2CoH30C36(NO3)9
_chemical_formula_sum   'Gd4 Co2 H60 C72 N18 O54'
_cell_volume   2888.00339638
_cell_formula_units_Z   2
loop_
 _symmetry_equiv_pos_site_id
 _symmetry_equiv_pos_as_xyz
  1  'x, y, z'
loop_
 _atom_site_type_symbol
 _atom_site_label
 _atom_site_symmetry_multiplicity
 _atom_site_fract_x
 _atom_site_fract_y
 _atom_site_fract_z
 _atom_site_occupancy
 _atom_site_charge
  Gd  Gd1  1  0.698740  0.553510  0.548650  1.0  2.0969
  Gd  Gd2  1  0.040600  0.368520  0.050690  1.0  2.113
  Gd  Gd3  1  0.301260  0.446490  0.451350  1.0  2.0962
  Gd  Gd4  1  0.959400  0.631480  0.949310  1.0  2.1136
  Co  Co5  1  0.677610  0.913710  0.256990  1.0  0.4696
  Co  Co6  1  0.322390  0.086290  0.743010  1.0  0.468
  H  H7  1  0.775700  0.873400  0.388300  1.0  0.1056
  H  H8  1  0.695200  0.764900  0.450400  1.0  0.1157
  H  H9  1  0.402300  0.642700  0.297700  1.0  0.1075
  H  H10  1  0.326400  0.634200  0.193400  1.0  0.123
  H  H11  1  0.319400  0.815100  0.065500  1.0  0.0856
  H  H12  1  0.497200  0.926300  0.129900  1.0  0.1117
  H  H13  1  0.679500  0.151000  0.224900  1.0  0.1023
  H  H14  1  0.760900  0.229400  0.159000  1.0  0.1192
  H  H15  1  0.851100  0.936000  0.080000  1.0  0.1181
  H  H16  1  0.842700  0.758000  0.081500  1.0  0.1394
  H  H17  1  0.804400  0.542100  0.186900  1.0  0.1208
  H  H18  1  0.732300  0.675800  0.250800  1.0  0.0819
  H  H19  1  0.947600  0.869900  0.280700  1.0  0.098
  H  H20  1  0.139400  0.961200  0.348600  1.0  0.1247
  H  H21  1  0.958800  0.215000  0.412300  1.0  0.1321
  H  H22  1  0.769400  0.252200  0.417600  1.0  0.099
  H  H23  1  0.401500  0.165300  0.334700  1.0  0.1098
  H  H24  1  0.439800  0.015700  0.267800  1.0  0.1248
  H  H25  1  0.742700  0.674500  0.681600  1.0  0.2877
  H  H26  1  0.873800  0.682300  0.666900  1.0  0.2732
  H  H27  1  0.838200  0.398800  0.601000  1.0  0.2958
  H  H28  1  0.930300  0.510600  0.617900  1.0  0.185
  H  H29  1  0.881400  0.614200  0.483900  1.0  0.2109
  H  H30  1  0.773200  0.533000  0.431300  1.0  0.3071
  H  H31  1  0.050900  0.356000  0.180600  1.0  0.3305
  H  H32  1  0.165600  0.443500  0.185200  1.0  0.3126
  H  H33  1  0.257200  0.276800  0.032100  1.0  0.3251
  H  H34  1  0.306400  0.390200  0.082900  1.0  0.325
  H  H35  1  0.981700  0.199400  0.934800  1.0  0.2559
  H  H36  1  0.982600  0.138100  0.977400  1.0  0.4407
  H  H37  1  0.224300  0.126600  0.611700  1.0  0.1053
  H  H38  1  0.304800  0.235100  0.549600  1.0  0.1155
  H  H39  1  0.597700  0.357300  0.702300  1.0  0.1079
  H  H40  1  0.673600  0.365800  0.806600  1.0  0.1229
  H  H41  1  0.680600  0.184900  0.934500  1.0  0.0862
  H  H42  1  0.502800  0.073700  0.870100  1.0  0.1114
  H  H43  1  0.320500  0.849000  0.775100  1.0  0.1032
  H  H44  1  0.239100  0.770600  0.841000  1.0  0.1188
  H  H45  1  0.148900  0.064000  0.920000  1.0  0.1179
  H  H46  1  0.157300  0.242000  0.918500  1.0  0.1402
  H  H47  1  0.195600  0.457900  0.813100  1.0  0.1215
  H  H48  1  0.267700  0.324200  0.749200  1.0  0.0828
  H  H49  1  0.052400  0.130100  0.719300  1.0  0.0981
  H  H50  1  0.860600  0.038800  0.651400  1.0  0.1244
  H  H51  1  0.041200  0.785000  0.587700  1.0  0.1321
  H  H52  1  0.230600  0.747800  0.582400  1.0  0.0993
  H  H53  1  0.598500  0.834700  0.665300  1.0  0.1084
  H  H54  1  0.560200  0.984300  0.732200  1.0  0.1247
  H  H55  1  0.257300  0.325500  0.318400  1.0  0.2872
  H  H56  1  0.126200  0.317700  0.333100  1.0  0.273
  H  H57  1  0.161800  0.601200  0.399000  1.0  0.2941
  H  H58  1  0.069700  0.489400  0.382100  1.0  0.1856
  H  H59  1  0.118600  0.385800  0.516100  1.0  0.2134
  H  H60  1  0.226800  0.467000  0.568700  1.0  0.3097
  H  H61  1  0.949100  0.644000  0.819400  1.0  0.3326
  H  H62  1  0.834400  0.556500  0.814800  1.0  0.3133
  H  H63  1  0.742800  0.723200  0.967900  1.0  0.3277
  H  H64  1  0.693600  0.609800  0.917100  1.0  0.3288
  H  H65  1  0.018300  0.800600  0.065200  1.0  0.2594
  H  H66  1  0.017400  0.861900  0.022600  1.0  0.4422
  C  C67  1  0.699200  0.827600  0.370800  1.0  0.1458
  C  C68  1  0.652500  0.759100  0.408200  1.0  -0.0748
  C  C69  1  0.546500  0.687000  0.380900  1.0  -0.1037
  C  C70  1  0.477800  0.689400  0.317000  1.0  -0.0262
  C  C71  1  0.522500  0.758400  0.285900  1.0  0.2031
  C  C72  1  0.466300  0.768800  0.221500  1.0  0.2107
  C  C73  1  0.360400  0.693500  0.180100  1.0  -0.0244
  C  C74  1  0.306300  0.710200  0.117300  1.0  -0.0867
  C  C75  1  0.356400  0.798200  0.103800  1.0  -0.029
  C  C76  1  0.461900  0.867900  0.143600  1.0  0.1292
  C  C77  1  0.493500  0.608000  0.415300  1.0  0.704
  C  C78  1  0.193200  0.630400  0.073800  1.0  0.7218
  C  C79  1  0.715900  0.108000  0.196600  1.0  0.1925
  C  C80  1  0.761700  0.154000  0.157000  1.0  -0.109
  C  C81  1  0.812900  0.088900  0.111100  1.0  -0.1337
  C  C82  1  0.818600  0.980000  0.109800  1.0  -0.0931
  C  C83  1  0.774000  0.936700  0.154800  1.0  0.1925
  C  C84  1  0.770100  0.817400  0.156200  1.0  0.1582
  C  C85  1  0.816300  0.739200  0.115300  1.0  -0.117
  C  C86  1  0.821900  0.635100  0.126000  1.0  -0.0339
  C  C87  1  0.795100  0.610600  0.177100  1.0  -0.1573
  C  C88  1  0.751800  0.694500  0.215400  1.0  0.1687
  C  C89  1  0.865100  0.142500  0.067700  1.0  0.6766
  C  C90  1  0.879300  0.560900  0.083800  1.0  0.695
  C  C91  1  0.951200  0.938000  0.308600  1.0  0.1617
  C  C92  1  0.067500  0.994100  0.347200  1.0  -0.089
  C  C93  1  0.071300  0.097300  0.381900  1.0  -0.0783
  C  C94  1  0.956600  0.145600  0.385900  1.0  -0.0732
  C  C95  1  0.846700  0.082600  0.348500  1.0  0.1946
  C  C96  1  0.724000  0.114800  0.349700  1.0  0.1787
  C  C97  1  0.702500  0.203800  0.388400  1.0  -0.0197
  C  C98  1  0.578400  0.226200  0.385800  1.0  -0.1111
  C  C99  1  0.483400  0.152200  0.338800  1.0  0.0108
  C  C100  1  0.505400  0.062300  0.298900  1.0  0.1316
  C  C101  1  0.193100  0.170400  0.417000  1.0  0.6818
  C  C102  1  0.543500  0.322200  0.427900  1.0  0.7152
  C  C103  1  0.300800  0.172400  0.629200  1.0  0.1448
  C  C104  1  0.347500  0.240900  0.591800  1.0  -0.0757
  C  C105  1  0.453500  0.313000  0.619100  1.0  -0.103
  C  C106  1  0.522200  0.310600  0.683000  1.0  -0.027
  C  C107  1  0.477500  0.241600  0.714100  1.0  0.204
  C  C108  1  0.533700  0.231200  0.778500  1.0  0.2119
  C  C109  1  0.639600  0.306500  0.819900  1.0  -0.0246
  C  C110  1  0.693700  0.289800  0.882700  1.0  -0.0852
  C  C111  1  0.643600  0.201800  0.896200  1.0  -0.03
  C  C112  1  0.538100  0.132100  0.856400  1.0  0.1286
  C  C113  1  0.506500  0.392000  0.584700  1.0  0.7037
  C  C114  1  0.806800  0.369600  0.926200  1.0  0.7196
  C  C115  1  0.284100  0.892000  0.803400  1.0  0.1939
  C  C116  1  0.238300  0.846000  0.843000  1.0  -0.1089
  C  C117  1  0.187100  0.911100  0.888900  1.0  -0.1342
  C  C118  1  0.181400  0.020000  0.890200  1.0  -0.0948
  C  C119  1  0.226000  0.063300  0.845200  1.0  0.1925
  C  C120  1  0.229900  0.182600  0.843800  1.0  0.1594
  C  C121  1  0.183700  0.260800  0.884700  1.0  -0.1192
  C  C122  1  0.178100  0.364900  0.874000  1.0  -0.0322
  C  C123  1  0.204900  0.389400  0.822900  1.0  -0.1583
  C  C124  1  0.248200  0.305500  0.784600  1.0  0.1694
  C  C125  1  0.134900  0.857500  0.932300  1.0  0.6771
  C  C126  1  0.120700  0.439100  0.916200  1.0  0.6959
  C  C127  1  0.048800  0.062000  0.691400  1.0  0.1627
  C  C128  1  0.932500  0.005900  0.652800  1.0  -0.0875
  C  C129  1  0.928700  0.902700  0.618100  1.0  -0.0778
  C  C130  1  0.043400  0.854400  0.614100  1.0  -0.0696
  C  C131  1  0.153300  0.917400  0.651500  1.0  0.1943
  C  C132  1  0.276000  0.885200  0.650300  1.0  0.1772
  C  C133  1  0.297500  0.796200  0.611600  1.0  -0.0203
  C  C134  1  0.421600  0.773800  0.614200  1.0  -0.1106
  C  C135  1  0.516600  0.847800  0.661200  1.0  0.0105
  C  C136  1  0.494600  0.937700  0.701100  1.0  0.132
  C  C137  1  0.806900  0.829600  0.583000  1.0  0.6794
  C  C138  1  0.456500  0.677800  0.572100  1.0  0.7138
  N  N139  1  0.632400  0.826600  0.309200  1.0  -0.2277
  N  N140  1  0.514600  0.852500  0.202100  1.0  -0.254
  N  N141  1  0.720300  0.992900  0.197600  1.0  -0.2898
  N  N142  1  0.734800  0.792200  0.209700  1.0  -0.2854
  N  N143  1  0.844000  0.979200  0.310700  1.0  -0.301
  N  N144  1  0.623500  0.041100  0.304800  1.0  -0.2957
  N  N145  1  0.367600  0.173400  0.690800  1.0  -0.229
  N  N146  1  0.485400  0.147500  0.797900  1.0  -0.2534
  N  N147  1  0.279700  0.007100  0.802400  1.0  -0.2893
  N  N148  1  0.265200  0.207800  0.790300  1.0  -0.2851
  N  N149  1  0.156000  0.020800  0.689300  1.0  -0.2997
  N  N150  1  0.376500  0.958900  0.695200  1.0  -0.2963
  N  N151  1  0.861800  0.035900  0.799400  1.0  0.8342
  N  N152  1  0.123400  0.604700  0.708900  1.0  0.8201
  N  N153  1  0.211600  0.848700  0.461600  1.0  0.8299
  N  N154  1  0.138200  0.964100  0.200600  1.0  0.835
  N  N155  1  0.876600  0.395300  0.291100  1.0  0.8201
  N  N156  1  0.788400  0.151300  0.538400  1.0  0.8293
  O  O157  1  0.570100  0.590200  0.462100  1.0  -0.6949
  O  O158  1  0.378200  0.566900  0.399730  1.0  -0.5966
  O  O159  1  0.160100  0.548900  0.090300  1.0  -0.6282
  O  O160  1  0.144300  0.659600  0.028100  1.0  -0.6352
  O  O161  1  0.909000  0.244900  0.081700  1.0  -0.6664
  O  O162  1  0.871200  0.076000  0.016400  1.0  -0.5989
  O  O163  1  0.904600  0.584300  0.036700  1.0  -0.6632
  O  O164  1  0.908300  0.472100  0.103300  1.0  -0.6115
  O  O165  1  0.286900  0.125200  0.428300  1.0  -0.5205
  O  O166  1  0.195200  0.273200  0.438600  1.0  -0.6079
  O  O167  1  0.636600  0.377700  0.471000  1.0  -0.7298
  O  O168  1  0.443800  0.353100  0.413000  1.0  -0.6048
  O  O169  1  0.798600  0.633400  0.662400  1.0  -0.6997
  O  O170  1  0.867300  0.459200  0.584700  1.0  -0.7523
  O  O171  1  0.826000  0.545200  0.473800  1.0  -0.7143
  O  O172  1  0.119400  0.371500  0.162800  1.0  -0.698
  O  O173  1  0.246800  0.323300  0.070400  1.0  -0.674
  O  O174  1  0.020800  0.190000  0.974700  1.0  -0.6541
  O  O175  1  0.429900  0.409800  0.537900  1.0  -0.6942
  O  O176  1  0.621800  0.433100  0.600270  1.0  -0.5963
  O  O177  1  0.839900  0.451100  0.909700  1.0  -0.6295
  O  O178  1  0.855700  0.340400  0.971900  1.0  -0.6352
  O  O179  1  0.091000  0.755100  0.918300  1.0  -0.6657
  O  O180  1  0.128800  0.924000  0.983600  1.0  -0.5972
  O  O181  1  0.095400  0.415700  0.963300  1.0  -0.6627
  O  O182  1  0.091700  0.527900  0.896700  1.0  -0.6106
  O  O183  1  0.713100  0.874800  0.571700  1.0  -0.5205
  O  O184  1  0.804800  0.726800  0.561400  1.0  -0.6064
  O  O185  1  0.363400  0.622300  0.529000  1.0  -0.7311
  O  O186  1  0.556200  0.646900  0.587000  1.0  -0.6044
  O  O187  1  0.201400  0.366600  0.337600  1.0  -0.7007
  O  O188  1  0.132700  0.540800  0.415300  1.0  -0.7499
  O  O189  1  0.174000  0.454800  0.526200  1.0  -0.7181
  O  O190  1  0.880600  0.628500  0.837200  1.0  -0.7017
  O  O191  1  0.753200  0.676700  0.929600  1.0  -0.674
  O  O192  1  0.979200  0.810000  0.025300  1.0  -0.6521
  O  O193  1  0.902100  0.947800  0.797200  1.0  -0.4179
  O  O194  1  0.909200  0.116800  0.844400  1.0  -0.5657
  O  O195  1  0.775100  0.045900  0.758100  1.0  -0.4903
  O  O196  1  0.038600  0.623600  0.734900  1.0  -0.5181
  O  O197  1  0.211700  0.570900  0.738300  1.0  -0.3932
  O  O198  1  0.125000  0.628900  0.658400  1.0  -0.419
  O  O199  1  0.316500  0.897100  0.477600  1.0  -0.3779
  O  O200  1  0.189700  0.747900  0.437600  1.0  -0.6342
  O  O201  1  0.123800  0.898700  0.468500  1.0  -0.4313
  O  O202  1  0.097900  0.052200  0.202800  1.0  -0.4192
  O  O203  1  0.090800  0.883200  0.155600  1.0  -0.5653
  O  O204  1  0.224900  0.954100  0.241900  1.0  -0.49
  O  O205  1  0.961400  0.376400  0.265100  1.0  -0.5211
  O  O206  1  0.788300  0.429100  0.261700  1.0  -0.3945
  O  O207  1  0.875000  0.371100  0.341600  1.0  -0.4176
  O  O208  1  0.683500  0.102900  0.522400  1.0  -0.3765
  O  O209  1  0.810300  0.252100  0.562400  1.0  -0.6346
  O  O210  1  0.876200  0.101300  0.531500  1.0  -0.4329
