# generated using pymatgen
data_Eu2CoH30C36(NO3)9
_symmetry_space_group_name_H-M   'P 1'
_cell_length_a   11.16680000
_cell_length_b   12.45540000
_cell_length_c   22.25930000
_cell_angle_alpha   101.98600000
_cell_angle_beta   103.31900000
_cell_angle_gamma   95.54800000
_symmetry_Int_Tables_number   1
_chemical_formula_structural   Eu2CoH30C36(NO3)9
_chemical_formula_sum   'Eu4 Co2 H60 C72 N18 O54'
_cell_volume   2912.85820676
_cell_formula_units_Z   2
loop_
 _symmetry_equiv_pos_site_id
 _symmetry_equiv_pos_as_xyz
  1  'x, y, z'
loop_
 _atom_site_type_symbol
 _atom_site_label
 _atom_site_symmetry_multiplicity
 _atom_site_fract_x
 _atom_site_fract_y
 _atom_site_fract_z
 _atom_site_occupancy
 _atom_site_charge
  Eu  Eu1  1  0.301300  0.446460  0.451400  1.0  2.0302
  Eu  Eu2  1  0.959550  0.631540  0.949400  1.0  2.0321
  Eu  Eu3  1  0.698700  0.553540  0.548600  1.0  2.0296
  Eu  Eu4  1  0.040450  0.368460  0.050600  1.0  2.0329
  Co  Co5  1  0.322220  0.086060  0.742770  1.0  0.4878
  Co  Co6  1  0.677780  0.913940  0.257230  1.0  0.4904
  H  H7  1  0.225300  0.126400  0.611600  1.0  0.1099
  H  H8  1  0.302200  0.236200  0.549600  1.0  0.1266
  H  H9  1  0.596800  0.359800  0.703000  1.0  0.1227
  H  H10  1  0.676200  0.365100  0.807400  1.0  0.1259
  H  H11  1  0.684600  0.181700  0.933700  1.0  0.102
  H  H12  1  0.502200  0.074700  0.869700  1.0  0.1073
  H  H13  1  0.316700  0.847800  0.773500  1.0  0.1206
  H  H14  1  0.240300  0.772500  0.842000  1.0  0.1132
  H  H15  1  0.148200  0.062000  0.919500  1.0  0.1216
  H  H16  1  0.158100  0.242000  0.917900  1.0  0.1383
  H  H17  1  0.198600  0.457500  0.813000  1.0  0.1393
  H  H18  1  0.270700  0.325600  0.749700  1.0  0.0902
  H  H19  1  0.053300  0.130400  0.719600  1.0  0.1028
  H  H20  1  0.862300  0.040100  0.651600  1.0  0.1334
  H  H21  1  0.042000  0.785300  0.587200  1.0  0.1375
  H  H22  1  0.230000  0.746700  0.582000  1.0  0.1183
  H  H23  1  0.598300  0.834000  0.665500  1.0  0.105
  H  H24  1  0.560000  0.984300  0.732400  1.0  0.1381
  H  H25  1  0.257100  0.325400  0.318000  1.0  0.2909
  H  H26  1  0.126000  0.317500  0.332700  1.0  0.2822
  H  H27  1  0.161000  0.601600  0.399100  1.0  0.3009
  H  H28  1  0.068900  0.489800  0.382300  1.0  0.1886
  H  H29  1  0.117900  0.386400  0.516300  1.0  0.2248
  H  H30  1  0.226100  0.467600  0.568900  1.0  0.3123
  H  H31  1  0.948600  0.644100  0.819400  1.0  0.3099
  H  H32  1  0.833900  0.556600  0.814800  1.0  0.318
  H  H33  1  0.743400  0.723800  0.968600  1.0  0.3315
  H  H34  1  0.694200  0.610500  0.917800  1.0  0.3286
  H  H35  1  0.018000  0.800600  0.065100  1.0  0.2577
  H  H36  1  0.017000  0.861900  0.022600  1.0  0.4248
  H  H37  1  0.774700  0.873600  0.388400  1.0  0.1103
  H  H38  1  0.697800  0.763800  0.450400  1.0  0.127
  H  H39  1  0.403200  0.640200  0.297000  1.0  0.1224
  H  H40  1  0.323800  0.634900  0.192600  1.0  0.1262
  H  H41  1  0.315400  0.818300  0.066300  1.0  0.1018
  H  H42  1  0.497800  0.925300  0.130300  1.0  0.1071
  H  H43  1  0.683300  0.152200  0.226500  1.0  0.1202
  H  H44  1  0.759700  0.227500  0.158000  1.0  0.1134
  H  H45  1  0.851800  0.938000  0.080500  1.0  0.1209
  H  H46  1  0.841900  0.758000  0.082100  1.0  0.137
  H  H47  1  0.801400  0.542500  0.187000  1.0  0.1387
  H  H48  1  0.729300  0.674400  0.250300  1.0  0.089
  H  H49  1  0.946700  0.869600  0.280400  1.0  0.1029
  H  H50  1  0.137700  0.959900  0.348400  1.0  0.1342
  H  H51  1  0.958000  0.214700  0.412800  1.0  0.1371
  H  H52  1  0.770000  0.253300  0.418000  1.0  0.1188
  H  H53  1  0.401700  0.166000  0.334500  1.0  0.1057
  H  H54  1  0.440000  0.015700  0.267600  1.0  0.1386
  H  H55  1  0.742900  0.674600  0.682000  1.0  0.2908
  H  H56  1  0.874000  0.682500  0.667300  1.0  0.2821
  H  H57  1  0.839000  0.398400  0.600900  1.0  0.3022
  H  H58  1  0.931100  0.510200  0.617700  1.0  0.1879
  H  H59  1  0.882100  0.613600  0.483700  1.0  0.2227
  H  H60  1  0.773900  0.532400  0.431100  1.0  0.3095
  H  H61  1  0.051400  0.355900  0.180600  1.0  0.3092
  H  H62  1  0.166100  0.443400  0.185200  1.0  0.3165
  H  H63  1  0.256600  0.276200  0.031400  1.0  0.3301
  H  H64  1  0.305800  0.389500  0.082200  1.0  0.3255
  H  H65  1  0.982000  0.199400  0.934900  1.0  0.2533
  H  H66  1  0.983000  0.138100  0.977400  1.0  0.4247
  C  C67  1  0.301200  0.172800  0.628800  1.0  0.1452
  C  C68  1  0.345900  0.241100  0.591300  1.0  -0.0854
  C  C69  1  0.454300  0.313000  0.618600  1.0  -0.0973
  C  C70  1  0.522700  0.311600  0.683200  1.0  -0.0168
  C  C71  1  0.477800  0.240300  0.713800  1.0  0.2308
  C  C72  1  0.535600  0.231600  0.778700  1.0  0.1602
  C  C73  1  0.641700  0.306000  0.820600  1.0  -0.0197
  C  C74  1  0.695000  0.290500  0.882300  1.0  -0.1475
  C  C75  1  0.646300  0.200200  0.896300  1.0  -0.045
  C  C76  1  0.538600  0.132200  0.855900  1.0  0.1685
  C  C77  1  0.506300  0.390300  0.584200  1.0  0.7169
  C  C78  1  0.805400  0.368800  0.925800  1.0  0.7327
  C  C79  1  0.282700  0.891300  0.802600  1.0  0.1762
  C  C80  1  0.238300  0.847400  0.843300  1.0  -0.0528
  C  C81  1  0.187500  0.910700  0.889000  1.0  -0.0891
  C  C82  1  0.181600  0.018800  0.889900  1.0  -0.088
  C  C83  1  0.226400  0.064700  0.845600  1.0  0.1904
  C  C84  1  0.229500  0.182200  0.844000  1.0  0.1309
  C  C85  1  0.184000  0.260500  0.884100  1.0  -0.0947
  C  C86  1  0.177500  0.365000  0.873700  1.0  -0.116
  C  C87  1  0.206600  0.388900  0.822600  1.0  -0.1624
  C  C88  1  0.249500  0.306600  0.784600  1.0  0.1968
  C  C89  1  0.134200  0.858400  0.932000  1.0  0.6836
  C  C90  1  0.121500  0.439800  0.915700  1.0  0.7168
  C  C91  1  0.049500  0.062500  0.691700  1.0  0.174
  C  C92  1  0.933700  0.006900  0.653400  1.0  -0.1158
  C  C93  1  0.929600  0.902300  0.618800  1.0  -0.0819
  C  C94  1  0.044200  0.854100  0.613900  1.0  -0.083
  C  C95  1  0.152600  0.916800  0.650800  1.0  0.1806
  C  C96  1  0.275100  0.885200  0.649900  1.0  0.1881
  C  C97  1  0.296300  0.795500  0.611100  1.0  -0.0013
  C  C98  1  0.422200  0.774900  0.614500  1.0  -0.1746
  C  C99  1  0.516700  0.847700  0.661400  1.0  0.0169
  C  C100  1  0.494900  0.937700  0.701200  1.0  0.154
  C  C101  1  0.806500  0.829200  0.582700  1.0  0.6967
  C  C102  1  0.455300  0.677700  0.572300  1.0  0.7321
  C  C103  1  0.698800  0.827200  0.371200  1.0  0.1452
  C  C104  1  0.654100  0.758900  0.408700  1.0  -0.0853
  C  C105  1  0.545700  0.687000  0.381400  1.0  -0.097
  C  C106  1  0.477300  0.688400  0.316800  1.0  -0.0165
  C  C107  1  0.522200  0.759700  0.286200  1.0  0.2318
  C  C108  1  0.464400  0.768400  0.221300  1.0  0.1597
  C  C109  1  0.358300  0.694000  0.179400  1.0  -0.0193
  C  C110  1  0.305000  0.709500  0.117700  1.0  -0.1481
  C  C111  1  0.353700  0.799800  0.103700  1.0  -0.0458
  C  C112  1  0.461400  0.867800  0.144100  1.0  0.1683
  C  C113  1  0.493700  0.609700  0.415800  1.0  0.7169
  C  C114  1  0.194600  0.631200  0.074200  1.0  0.7263
  C  C115  1  0.717300  0.108700  0.197400  1.0  0.1762
  C  C116  1  0.761700  0.152600  0.156700  1.0  -0.052
  C  C117  1  0.812500  0.089300  0.111000  1.0  -0.0862
  C  C118  1  0.818400  0.981200  0.110100  1.0  -0.0881
  C  C119  1  0.773600  0.935300  0.154400  1.0  0.1904
  C  C120  1  0.770500  0.817800  0.156000  1.0  0.1301
  C  C121  1  0.816000  0.739500  0.115900  1.0  -0.0926
  C  C122  1  0.822500  0.635000  0.126300  1.0  -0.117
  C  C123  1  0.793400  0.611100  0.177400  1.0  -0.1611
  C  C124  1  0.750500  0.693400  0.215400  1.0  0.1978
  C  C125  1  0.865800  0.141600  0.068000  1.0  0.6829
  C  C126  1  0.878500  0.560200  0.084300  1.0  0.7153
  C  C127  1  0.950500  0.937500  0.308300  1.0  0.1742
  C  C128  1  0.066300  0.993100  0.346600  1.0  -0.1193
  C  C129  1  0.070400  0.097700  0.381200  1.0  -0.0804
  C  C130  1  0.955800  0.145900  0.386100  1.0  -0.0853
  C  C131  1  0.847400  0.083200  0.349200  1.0  0.182
  C  C132  1  0.724900  0.114800  0.350100  1.0  0.1879
  C  C133  1  0.703700  0.204500  0.388900  1.0  -0.0024
  C  C134  1  0.577800  0.225100  0.385500  1.0  -0.1762
  C  C135  1  0.483300  0.152300  0.338600  1.0  0.0172
  C  C136  1  0.505100  0.062300  0.298800  1.0  0.1528
  C  C137  1  0.193500  0.170800  0.417300  1.0  0.6969
  C  C138  1  0.544700  0.322300  0.427700  1.0  0.7232
  N  N139  1  0.368600  0.174100  0.690700  1.0  -0.2789
  N  N140  1  0.485300  0.146400  0.797500  1.0  -0.3074
  N  N141  1  0.278800  0.006500  0.802980  1.0  -0.2752
  N  N142  1  0.264400  0.207600  0.790380  1.0  -0.3095
  N  N143  1  0.155500  0.020900  0.689500  1.0  -0.2868
  N  N144  1  0.374700  0.958400  0.694450  1.0  -0.3009
  N  N145  1  0.631400  0.825900  0.309300  1.0  -0.2793
  N  N146  1  0.514700  0.853600  0.202500  1.0  -0.3089
  N  N147  1  0.721200  0.993500  0.197020  1.0  -0.2756
  N  N148  1  0.735600  0.792400  0.209620  1.0  -0.3093
  N  N149  1  0.844500  0.979100  0.310500  1.0  -0.2883
  N  N150  1  0.625300  0.041600  0.305550  1.0  -0.3012
  N  N151  1  0.862300  0.036100  0.799700  1.0  0.841
  N  N152  1  0.124300  0.605600  0.708900  1.0  0.8266
  N  N153  1  0.211700  0.848600  0.461400  1.0  0.845
  N  N154  1  0.137700  0.963900  0.200300  1.0  0.8418
  N  N155  1  0.875700  0.394400  0.291100  1.0  0.8268
  N  N156  1  0.788300  0.151400  0.538600  1.0  0.8445
  O  O157  1  0.430000  0.409600  0.537650  1.0  -0.7018
  O  O158  1  0.621000  0.432500  0.600750  1.0  -0.5819
  O  O159  1  0.840100  0.451100  0.909130  1.0  -0.6335
  O  O160  1  0.856000  0.340700  0.971990  1.0  -0.6319
  O  O161  1  0.091600  0.755900  0.918620  1.0  -0.6837
  O  O162  1  0.128900  0.923600  0.983050  1.0  -0.5924
  O  O163  1  0.095500  0.415900  0.962860  1.0  -0.6699
  O  O164  1  0.091500  0.527800  0.896650  1.0  -0.6149
  O  O165  1  0.713400  0.874300  0.571890  1.0  -0.5112
  O  O166  1  0.804600  0.727200  0.561610  1.0  -0.5998
  O  O167  1  0.363500  0.622600  0.529040  1.0  -0.6838
  O  O168  1  0.555000  0.646400  0.586990  1.0  -0.604
  O  O169  1  0.201200  0.366500  0.337170  1.0  -0.6979
  O  O170  1  0.131900  0.541200  0.415500  1.0  -0.7266
  O  O171  1  0.173300  0.455400  0.526430  1.0  -0.7086
  O  O172  1  0.880100  0.628700  0.837210  1.0  -0.7116
  O  O173  1  0.753700  0.677300  0.930400  1.0  -0.6672
  O  O174  1  0.978800  0.810100  0.025240  1.0  -0.6521
  O  O175  1  0.570000  0.590400  0.462350  1.0  -0.7014
  O  O176  1  0.379000  0.567500  0.399250  1.0  -0.5816
  O  O177  1  0.159900  0.548900  0.090870  1.0  -0.6322
  O  O178  1  0.144000  0.659300  0.028010  1.0  -0.6337
  O  O179  1  0.908400  0.244100  0.081380  1.0  -0.6841
  O  O180  1  0.871100  0.076400  0.016950  1.0  -0.5932
  O  O181  1  0.904500  0.584100  0.037140  1.0  -0.6703
  O  O182  1  0.908500  0.472200  0.103350  1.0  -0.6159
  O  O183  1  0.286600  0.125700  0.428110  1.0  -0.5091
  O  O184  1  0.195400  0.272800  0.438390  1.0  -0.5993
  O  O185  1  0.636500  0.377400  0.470960  1.0  -0.6826
  O  O186  1  0.445000  0.353600  0.413010  1.0  -0.6035
  O  O187  1  0.798800  0.633500  0.662830  1.0  -0.6974
  O  O188  1  0.868100  0.458800  0.584500  1.0  -0.7291
  O  O189  1  0.826700  0.544600  0.473570  1.0  -0.7055
  O  O190  1  0.119900  0.371300  0.162790  1.0  -0.7077
  O  O191  1  0.246300  0.322700  0.069600  1.0  -0.6648
  O  O192  1  0.021200  0.189900  0.974760  1.0  -0.6529
  O  O193  1  0.901700  0.947800  0.796900  1.0  -0.4173
  O  O194  1  0.909300  0.117000  0.844300  1.0  -0.5579
  O  O195  1  0.775500  0.046500  0.758530  1.0  -0.4963
  O  O196  1  0.038400  0.623500  0.734920  1.0  -0.5366
  O  O197  1  0.212300  0.570900  0.738570  1.0  -0.4236
  O  O198  1  0.125100  0.629300  0.658400  1.0  -0.3956
  O  O199  1  0.316400  0.897100  0.477500  1.0  -0.3595
  O  O200  1  0.189600  0.748100  0.437940  1.0  -0.6314
  O  O201  1  0.124100  0.898900  0.468770  1.0  -0.4417
  O  O202  1  0.098300  0.052200  0.203100  1.0  -0.4192
  O  O203  1  0.090700  0.883000  0.155700  1.0  -0.5576
  O  O204  1  0.224500  0.953500  0.241470  1.0  -0.4958
  O  O205  1  0.961600  0.376500  0.265080  1.0  -0.5353
  O  O206  1  0.787700  0.429100  0.261430  1.0  -0.4244
  O  O207  1  0.874900  0.370700  0.341600  1.0  -0.3941
  O  O208  1  0.683600  0.102900  0.522500  1.0  -0.3599
  O  O209  1  0.810400  0.251900  0.562060  1.0  -0.6324
  O  O210  1  0.875900  0.101100  0.531230  1.0  -0.4432
