# generated using pymatgen
data_La2CoH30C36(NO3)9
_symmetry_space_group_name_H-M   'P 1'
_cell_length_a   11.03960000
_cell_length_b   12.51100000
_cell_length_c   22.49800000
_cell_angle_alpha   101.49200000
_cell_angle_beta   102.41600000
_cell_angle_gamma   95.97500000
_symmetry_Int_Tables_number   1
_chemical_formula_structural   La2CoH30C36(NO3)9
_chemical_formula_sum   'La4 Co2 H60 C72 N18 O54'
_cell_volume   2938.57587110
_cell_formula_units_Z   2
loop_
 _symmetry_equiv_pos_site_id
 _symmetry_equiv_pos_as_xyz
  1  'x, y, z'
loop_
 _atom_site_type_symbol
 _atom_site_label
 _atom_site_symmetry_multiplicity
 _atom_site_fract_x
 _atom_site_fract_y
 _atom_site_fract_z
 _atom_site_occupancy
 _atom_site_charge
  La  La1  1  0.300980  0.446270  0.451910  1.0  2.064
  La  La2  1  0.959740  0.632880  0.949830  1.0  2.0371
  La  La3  1  0.699020  0.553730  0.548090  1.0  2.0637
  La  La4  1  0.040260  0.367120  0.050170  1.0  2.0363
  Co  Co5  1  0.322000  0.086670  0.742610  1.0  0.5073
  Co  Co6  1  0.678000  0.913330  0.257390  1.0  0.5082
  H  H7  1  0.226000  0.126100  0.612200  1.0  0.107
  H  H8  1  0.307800  0.233900  0.549100  1.0  0.1322
  H  H9  1  0.596400  0.359100  0.702800  1.0  0.1111
  H  H10  1  0.677100  0.367600  0.807900  1.0  0.1323
  H  H11  1  0.680900  0.183900  0.933300  1.0  0.1061
  H  H12  1  0.498200  0.073000  0.868500  1.0  0.1138
  H  H13  1  0.318400  0.849600  0.774000  1.0  0.1116
  H  H14  1  0.238300  0.772300  0.841400  1.0  0.1224
  H  H15  1  0.150100  0.063700  0.921200  1.0  0.1262
  H  H16  1  0.161600  0.246200  0.919600  1.0  0.1368
  H  H17  1  0.197600  0.456400  0.813000  1.0  0.1449
  H  H18  1  0.265200  0.325000  0.748600  1.0  0.0942
  H  H19  1  0.051500  0.130100  0.717900  1.0  0.1092
  H  H20  1  0.861400  0.040700  0.651800  1.0  0.1375
  H  H21  1  0.042100  0.787400  0.587700  1.0  0.1395
  H  H22  1  0.231000  0.746000  0.583500  1.0  0.1297
  H  H23  1  0.598900  0.831100  0.668300  1.0  0.1144
  H  H24  1  0.560400  0.983400  0.729900  1.0  0.1268
  H  H25  1  0.257500  0.324900  0.318400  1.0  0.3406
  H  H26  1  0.126400  0.317100  0.333100  1.0  0.2725
  H  H27  1  0.161200  0.600800  0.399000  1.0  0.3041
  H  H28  1  0.069200  0.489000  0.382200  1.0  0.2086
  H  H29  1  0.119200  0.384700  0.516300  1.0  0.2567
  H  H30  1  0.227400  0.465900  0.568900  1.0  0.3085
  H  H31  1  0.949000  0.644600  0.819300  1.0  0.3302
  H  H32  1  0.834300  0.557100  0.814700  1.0  0.2883
  H  H33  1  0.744100  0.723000  0.969000  1.0  0.3254
  H  H34  1  0.694900  0.609700  0.918200  1.0  0.3221
  H  H35  1  0.018000  0.801000  0.065800  1.0  0.2864
  H  H36  1  0.017100  0.862300  0.023200  1.0  0.4311
  H  H37  1  0.774000  0.873900  0.387800  1.0  0.1067
  H  H38  1  0.692200  0.766100  0.450900  1.0  0.1325
  H  H39  1  0.403600  0.640900  0.297200  1.0  0.1103
  H  H40  1  0.322900  0.632400  0.192100  1.0  0.1329
  H  H41  1  0.319100  0.816100  0.066700  1.0  0.1055
  H  H42  1  0.501800  0.927000  0.131500  1.0  0.114
  H  H43  1  0.681600  0.150400  0.226000  1.0  0.1119
  H  H44  1  0.761700  0.227700  0.158600  1.0  0.1227
  H  H45  1  0.849900  0.936300  0.078800  1.0  0.1258
  H  H46  1  0.838400  0.753800  0.080400  1.0  0.1371
  H  H47  1  0.802400  0.543600  0.187000  1.0  0.144
  H  H48  1  0.734800  0.675000  0.251400  1.0  0.0939
  H  H49  1  0.948500  0.869900  0.282100  1.0  0.109
  H  H50  1  0.138600  0.959300  0.348200  1.0  0.1381
  H  H51  1  0.957900  0.212600  0.412300  1.0  0.1394
  H  H52  1  0.769000  0.254000  0.416500  1.0  0.1294
  H  H53  1  0.401100  0.168900  0.331700  1.0  0.1154
  H  H54  1  0.439600  0.016600  0.270100  1.0  0.1268
  H  H55  1  0.742500  0.675100  0.681600  1.0  0.3439
  H  H56  1  0.873600  0.682900  0.666900  1.0  0.2721
  H  H57  1  0.838800  0.399200  0.601000  1.0  0.3037
  H  H58  1  0.930800  0.511000  0.617800  1.0  0.207
  H  H59  1  0.880800  0.615300  0.483700  1.0  0.2546
  H  H60  1  0.772600  0.534100  0.431100  1.0  0.306
  H  H61  1  0.051000  0.355400  0.180700  1.0  0.3286
  H  H62  1  0.165700  0.442900  0.185300  1.0  0.2865
  H  H63  1  0.255900  0.277000  0.031000  1.0  0.3224
  H  H64  1  0.305100  0.390300  0.081800  1.0  0.3204
  H  H65  1  0.982000  0.199000  0.934200  1.0  0.2835
  H  H66  1  0.982900  0.137700  0.976800  1.0  0.4306
  C  C67  1  0.302500  0.172400  0.629000  1.0  0.1605
  C  C68  1  0.349100  0.240200  0.590600  1.0  -0.1269
  C  C69  1  0.455100  0.312400  0.618100  1.0  -0.0813
  C  C70  1  0.522200  0.310800  0.683600  1.0  -0.0223
  C  C71  1  0.477400  0.241300  0.715000  1.0  0.2367
  C  C72  1  0.534700  0.233400  0.778600  1.0  0.1759
  C  C73  1  0.641100  0.307800  0.820300  1.0  -0.0121
  C  C74  1  0.692100  0.288800  0.882000  1.0  -0.0688
  C  C75  1  0.644000  0.201500  0.896000  1.0  -0.0256
  C  C76  1  0.535500  0.131400  0.855400  1.0  0.1561
  C  C77  1  0.507000  0.391900  0.584700  1.0  0.7245
  C  C78  1  0.804700  0.368700  0.925200  1.0  0.7158
  C  C79  1  0.283300  0.892200  0.802600  1.0  0.1787
  C  C80  1  0.237900  0.847200  0.843000  1.0  -0.0857
  C  C81  1  0.188400  0.911300  0.889100  1.0  -0.1304
  C  C82  1  0.182500  0.020900  0.891400  1.0  -0.0748
  C  C83  1  0.228400  0.065100  0.846000  1.0  0.1321
  C  C84  1  0.229900  0.182400  0.844400  1.0  0.1462
  C  C85  1  0.185500  0.263600  0.885100  1.0  -0.0617
  C  C86  1  0.177800  0.365100  0.874300  1.0  -0.0708
  C  C87  1  0.205800  0.388200  0.822600  1.0  -0.1468
  C  C88  1  0.247300  0.306500  0.784200  1.0  0.1944
  C  C89  1  0.134900  0.859900  0.932700  1.0  0.6823
  C  C90  1  0.120000  0.440600  0.915200  1.0  0.7145
  C  C91  1  0.048400  0.062700  0.690800  1.0  0.1796
  C  C92  1  0.933200  0.007600  0.653000  1.0  -0.0869
  C  C93  1  0.927600  0.903600  0.617500  1.0  -0.0757
  C  C94  1  0.043400  0.855400  0.613800  1.0  -0.1015
  C  C95  1  0.152400  0.917400  0.651400  1.0  0.2093
  C  C96  1  0.275200  0.886600  0.650600  1.0  0.1072
  C  C97  1  0.297300  0.794900  0.611700  1.0  -0.0064
  C  C98  1  0.422100  0.776100  0.615200  1.0  -0.1394
  C  C99  1  0.517200  0.846900  0.662700  1.0  -0.0017
  C  C100  1  0.494500  0.936700  0.700100  1.0  0.1732
  C  C101  1  0.806300  0.829900  0.581900  1.0  0.7101
  C  C102  1  0.458100  0.678100  0.574200  1.0  0.7033
  C  C103  1  0.697500  0.827600  0.371000  1.0  0.1613
  C  C104  1  0.650900  0.759800  0.409400  1.0  -0.1258
  C  C105  1  0.544900  0.687600  0.381900  1.0  -0.0812
  C  C106  1  0.477800  0.689200  0.316400  1.0  -0.0219
  C  C107  1  0.522600  0.758700  0.285000  1.0  0.2372
  C  C108  1  0.465300  0.766600  0.221400  1.0  0.1745
  C  C109  1  0.358900  0.692200  0.179700  1.0  -0.0112
  C  C110  1  0.307900  0.711200  0.118000  1.0  -0.0693
  C  C111  1  0.356000  0.798500  0.104000  1.0  -0.026
  C  C112  1  0.464500  0.868600  0.144600  1.0  0.155
  C  C113  1  0.493000  0.608100  0.415300  1.0  0.7258
  C  C114  1  0.195300  0.631300  0.074800  1.0  0.7154
  C  C115  1  0.716700  0.107800  0.197400  1.0  0.1806
  C  C116  1  0.762100  0.152800  0.157000  1.0  -0.0861
  C  C117  1  0.811600  0.088700  0.110900  1.0  -0.1274
  C  C118  1  0.817500  0.979100  0.108600  1.0  -0.0752
  C  C119  1  0.771600  0.934900  0.154000  1.0  0.1314
  C  C120  1  0.770100  0.817600  0.155600  1.0  0.1474
  C  C121  1  0.814500  0.736400  0.114900  1.0  -0.0595
  C  C122  1  0.822200  0.634900  0.125700  1.0  -0.0727
  C  C123  1  0.794200  0.611800  0.177400  1.0  -0.1452
  C  C124  1  0.752700  0.693500  0.215800  1.0  0.1947
  C  C125  1  0.865100  0.140100  0.067300  1.0  0.6816
  C  C126  1  0.880000  0.559400  0.084800  1.0  0.7147
  C  C127  1  0.951600  0.937300  0.309200  1.0  0.177
  C  C128  1  0.066800  0.992400  0.347000  1.0  -0.0899
  C  C129  1  0.072400  0.096400  0.382500  1.0  -0.0752
  C  C130  1  0.956600  0.144600  0.386200  1.0  -0.104
  C  C131  1  0.847600  0.082600  0.348600  1.0  0.2104
  C  C132  1  0.724800  0.113400  0.349400  1.0  0.1077
  C  C133  1  0.702700  0.205100  0.388300  1.0  -0.0067
  C  C134  1  0.577900  0.223900  0.384800  1.0  -0.1408
  C  C135  1  0.482800  0.153100  0.337300  1.0  -0.0017
  C  C136  1  0.505500  0.063300  0.299900  1.0  0.1724
  C  C137  1  0.193700  0.170100  0.418100  1.0  0.7096
  C  C138  1  0.541900  0.321900  0.425800  1.0  0.7017
  N  N139  1  0.366900  0.173500  0.689800  1.0  -0.3035
  N  N140  1  0.484700  0.148300  0.796900  1.0  -0.3102
  N  N141  1  0.279100  0.006300  0.802380  1.0  -0.3472
  N  N142  1  0.264800  0.208300  0.790300  1.0  -0.3189
  N  N143  1  0.155700  0.021100  0.689100  1.0  -0.3044
  N  N144  1  0.375200  0.959100  0.694490  1.0  -0.2955
  N  N145  1  0.633100  0.826500  0.310200  1.0  -0.3008
  N  N146  1  0.515300  0.851700  0.203100  1.0  -0.311
  N  N147  1  0.720900  0.993700  0.197620  1.0  -0.3482
  N  N148  1  0.735200  0.791700  0.209700  1.0  -0.3192
  N  N149  1  0.844300  0.978900  0.310900  1.0  -0.3038
  N  N150  1  0.624800  0.040900  0.305510  1.0  -0.2945
  N  N151  1  0.861500  0.034600  0.799100  1.0  0.7369
  N  N152  1  0.123500  0.605300  0.708800  1.0  0.8505
  N  N153  1  0.212200  0.848200  0.461600  1.0  0.8374
  N  N154  1  0.138500  0.965400  0.200900  1.0  0.7373
  N  N155  1  0.876500  0.394700  0.291200  1.0  0.8496
  N  N156  1  0.787800  0.151800  0.538400  1.0  0.8369
  O  O157  1  0.432200  0.410300  0.537750  1.0  -0.7237
  O  O158  1  0.622900  0.431900  0.600900  1.0  -0.5737
  O  O159  1  0.838600  0.451700  0.908840  1.0  -0.6457
  O  O160  1  0.855000  0.341200  0.972000  1.0  -0.6335
  O  O161  1  0.092700  0.755100  0.918250  1.0  -0.6218
  O  O162  1  0.129200  0.924000  0.983110  1.0  -0.5699
  O  O163  1  0.094200  0.416500  0.962630  1.0  -0.6947
  O  O164  1  0.092200  0.529200  0.896670  1.0  -0.6444
  O  O165  1  0.712800  0.874900  0.571800  1.0  -0.5375
  O  O166  1  0.805300  0.727700  0.561460  1.0  -0.6047
  O  O167  1  0.363900  0.622600  0.529920  1.0  -0.7148
  O  O168  1  0.556000  0.647500  0.587060  1.0  -0.5912
  O  O169  1  0.201600  0.366000  0.337510  1.0  -0.7141
  O  O170  1  0.132100  0.540500  0.415400  1.0  -0.6885
  O  O171  1  0.174600  0.453700  0.526420  1.0  -0.6975
  O  O172  1  0.880500  0.629100  0.837100  1.0  -0.7152
  O  O173  1  0.754400  0.676500  0.930700  1.0  -0.6405
  O  O174  1  0.978900  0.810500  0.025890  1.0  -0.6629
  O  O175  1  0.567800  0.589700  0.462250  1.0  -0.7243
  O  O176  1  0.377100  0.568100  0.399100  1.0  -0.573
  O  O177  1  0.161400  0.548300  0.091160  1.0  -0.6452
  O  O178  1  0.145000  0.658800  0.028000  1.0  -0.6345
  O  O179  1  0.907300  0.244900  0.081750  1.0  -0.6209
  O  O180  1  0.870800  0.076000  0.016890  1.0  -0.5699
  O  O181  1  0.905800  0.583500  0.037370  1.0  -0.6951
  O  O182  1  0.907800  0.470800  0.103330  1.0  -0.6443
  O  O183  1  0.287200  0.125100  0.428200  1.0  -0.535
  O  O184  1  0.194700  0.272300  0.438540  1.0  -0.6056
  O  O185  1  0.636100  0.377400  0.470080  1.0  -0.7143
  O  O186  1  0.444000  0.352500  0.412940  1.0  -0.591
  O  O187  1  0.798400  0.634000  0.662490  1.0  -0.7141
  O  O188  1  0.867900  0.459500  0.584600  1.0  -0.6908
  O  O189  1  0.825400  0.546300  0.473580  1.0  -0.6955
  O  O190  1  0.119500  0.370900  0.162900  1.0  -0.7123
  O  O191  1  0.245600  0.323500  0.069300  1.0  -0.6367
  O  O192  1  0.021100  0.189500  0.974110  1.0  -0.6633
  O  O193  1  0.901900  0.947200  0.797000  1.0  -0.409
  O  O194  1  0.908800  0.117100  0.844100  1.0  -0.5856
  O  O195  1  0.775200  0.045400  0.758340  1.0  -0.4882
  O  O196  1  0.038500  0.622800  0.735120  1.0  -0.5254
  O  O197  1  0.211900  0.571300  0.738450  1.0  -0.4314
  O  O198  1  0.125400  0.628700  0.658600  1.0  -0.4185
  O  O199  1  0.315800  0.896100  0.477200  1.0  -0.3707
  O  O200  1  0.189700  0.747900  0.437470  1.0  -0.6399
  O  O201  1  0.123300  0.898800  0.468410  1.0  -0.4573
  O  O202  1  0.098100  0.052800  0.203000  1.0  -0.4092
  O  O203  1  0.091200  0.882900  0.155900  1.0  -0.5853
  O  O204  1  0.224800  0.954600  0.241660  1.0  -0.4878
  O  O205  1  0.961500  0.377200  0.264880  1.0  -0.5246
  O  O206  1  0.788100  0.428700  0.261550  1.0  -0.4302
  O  O207  1  0.874600  0.371300  0.341400  1.0  -0.4179
  O  O208  1  0.684200  0.103900  0.522800  1.0  -0.3733
  O  O209  1  0.810300  0.252100  0.562530  1.0  -0.6405
  O  O210  1  0.876700  0.101200  0.531590  1.0  -0.4579
