# generated using pymatgen
data_Sm2CoH30C36(NO3)9
_symmetry_space_group_name_H-M   'P 1'
_cell_length_a   11.23970000
_cell_length_b   12.49640000
_cell_length_c   22.30200000
_cell_angle_alpha   102.11400000
_cell_angle_beta   103.41000000
_cell_angle_gamma   95.59700000
_symmetry_Int_Tables_number   1
_chemical_formula_structural   Sm2CoH30C36(NO3)9
_chemical_formula_sum   'Sm4 Co2 H60 C72 N18 O54'
_cell_volume   2943.77870537
_cell_formula_units_Z   2
loop_
 _symmetry_equiv_pos_site_id
 _symmetry_equiv_pos_as_xyz
  1  'x, y, z'
loop_
 _atom_site_type_symbol
 _atom_site_label
 _atom_site_symmetry_multiplicity
 _atom_site_fract_x
 _atom_site_fract_y
 _atom_site_fract_z
 _atom_site_occupancy
 _atom_site_charge
  Sm  Sm1  1  0.301330  0.446590  0.451220  1.0  2.217
  Sm  Sm2  1  0.959710  0.631530  0.949410  1.0  2.214
  Sm  Sm3  1  0.698670  0.553410  0.548780  1.0  2.2162
  Sm  Sm4  1  0.040290  0.368470  0.050590  1.0  2.2175
  Co  Co5  1  0.321980  0.086320  0.742860  1.0  0.4642
  Co  Co6  1  0.678020  0.913680  0.257140  1.0  0.4641
  H  H7  1  0.224400  0.128300  0.611500  1.0  0.1085
  H  H8  1  0.305600  0.234100  0.549800  1.0  0.1109
  H  H9  1  0.594500  0.358800  0.702300  1.0  0.109
  H  H10  1  0.673200  0.366600  0.808000  1.0  0.1223
  H  H11  1  0.681600  0.181400  0.932500  1.0  0.0933
  H  H12  1  0.501800  0.074000  0.869700  1.0  0.1121
  H  H13  1  0.318800  0.849100  0.774600  1.0  0.1112
  H  H14  1  0.238600  0.772600  0.840800  1.0  0.1105
  H  H15  1  0.151100  0.063000  0.920500  1.0  0.1222
  H  H16  1  0.157400  0.241700  0.918600  1.0  0.1358
  H  H17  1  0.197800  0.458000  0.813200  1.0  0.1365
  H  H18  1  0.267800  0.325300  0.749600  1.0  0.0842
  H  H19  1  0.051100  0.131000  0.719600  1.0  0.1079
  H  H20  1  0.863300  0.040100  0.651300  1.0  0.1243
  H  H21  1  0.041800  0.785800  0.587200  1.0  0.1366
  H  H22  1  0.232400  0.750200  0.581100  1.0  0.099
  H  H23  1  0.598200  0.832300  0.665500  1.0  0.1034
  H  H24  1  0.560600  0.984600  0.731400  1.0  0.1308
  H  H25  1  0.257700  0.325500  0.318400  1.0  0.2814
  H  H26  1  0.126700  0.317600  0.333100  1.0  0.2569
  H  H27  1  0.161000  0.600300  0.398200  1.0  0.3128
  H  H28  1  0.068900  0.488500  0.381400  1.0  0.1892
  H  H29  1  0.118000  0.385100  0.516200  1.0  0.2214
  H  H30  1  0.226100  0.466300  0.568800  1.0  0.3118
  H  H31  1  0.949000  0.643600  0.819300  1.0  0.3071
  H  H32  1  0.834300  0.556000  0.814700  1.0  0.3243
  H  H33  1  0.743800  0.724100  0.968800  1.0  0.331
  H  H34  1  0.694700  0.610700  0.918000  1.0  0.3262
  H  H35  1  0.018600  0.800700  0.065700  1.0  0.2698
  H  H36  1  0.017600  0.862000  0.023100  1.0  0.4438
  H  H37  1  0.775600  0.871700  0.388500  1.0  0.1083
  H  H38  1  0.694400  0.765900  0.450200  1.0  0.1113
  H  H39  1  0.405500  0.641200  0.297700  1.0  0.1084
  H  H40  1  0.326800  0.633400  0.192000  1.0  0.1223
  H  H41  1  0.318400  0.818600  0.067500  1.0  0.0928
  H  H42  1  0.498200  0.926000  0.130300  1.0  0.1121
  H  H43  1  0.681200  0.150900  0.225400  1.0  0.1104
  H  H44  1  0.761400  0.227400  0.159200  1.0  0.1107
  H  H45  1  0.848900  0.937000  0.079500  1.0  0.1227
  H  H46  1  0.842600  0.758300  0.081400  1.0  0.1341
  H  H47  1  0.802200  0.542000  0.186800  1.0  0.1359
  H  H48  1  0.732200  0.674700  0.250400  1.0  0.0844
  H  H49  1  0.948900  0.869000  0.280400  1.0  0.1079
  H  H50  1  0.136700  0.959900  0.348700  1.0  0.1249
  H  H51  1  0.958200  0.214200  0.412800  1.0  0.1368
  H  H52  1  0.767600  0.249800  0.418900  1.0  0.0989
  H  H53  1  0.401800  0.167700  0.334500  1.0  0.1038
  H  H54  1  0.439400  0.015400  0.268600  1.0  0.1313
  H  H55  1  0.742300  0.674500  0.681600  1.0  0.2815
  H  H56  1  0.873300  0.682400  0.666900  1.0  0.2562
  H  H57  1  0.839000  0.399700  0.601800  1.0  0.3136
  H  H58  1  0.931100  0.511500  0.618600  1.0  0.1883
  H  H59  1  0.882000  0.614900  0.483800  1.0  0.2186
  H  H60  1  0.773900  0.533700  0.431200  1.0  0.3089
  H  H61  1  0.051000  0.356400  0.180700  1.0  0.3059
  H  H62  1  0.165700  0.444000  0.185300  1.0  0.3221
  H  H63  1  0.256200  0.275900  0.031200  1.0  0.3285
  H  H64  1  0.305300  0.389300  0.082000  1.0  0.3227
  H  H65  1  0.981400  0.199300  0.934300  1.0  0.2675
  H  H66  1  0.982400  0.138000  0.976900  1.0  0.4434
  C  C67  1  0.301000  0.173200  0.629000  1.0  0.1481
  C  C68  1  0.348000  0.240500  0.591800  1.0  -0.1095
  C  C69  1  0.453500  0.312500  0.618120  1.0  -0.1084
  C  C70  1  0.520700  0.310700  0.682600  1.0  -0.0567
  C  C71  1  0.477400  0.240700  0.713750  1.0  0.2273
  C  C72  1  0.533900  0.231500  0.778610  1.0  0.165
  C  C73  1  0.639700  0.306800  0.820700  1.0  -0.0175
  C  C74  1  0.693000  0.290000  0.881500  1.0  -0.1445
  C  C75  1  0.643300  0.199500  0.895100  1.0  -0.0053
  C  C76  1  0.537600  0.131500  0.856000  1.0  0.1492
  C  C77  1  0.505000  0.392300  0.585250  1.0  0.7095
  C  C78  1  0.805400  0.368600  0.924900  1.0  0.7169
  C  C79  1  0.283200  0.892000  0.802900  1.0  0.1594
  C  C80  1  0.237800  0.847600  0.842840  1.0  -0.0501
  C  C81  1  0.187500  0.910200  0.888900  1.0  -0.0973
  C  C82  1  0.182700  0.019500  0.890400  1.0  -0.1053
  C  C83  1  0.226700  0.065100  0.845600  1.0  0.1719
  C  C84  1  0.229400  0.182100  0.843800  1.0  0.1409
  C  C85  1  0.183600  0.260400  0.885000  1.0  -0.0712
  C  C86  1  0.178400  0.364700  0.874500  1.0  -0.1058
  C  C87  1  0.206200  0.389700  0.822800  1.0  -0.1523
  C  C88  1  0.248100  0.306600  0.784750  1.0  0.1801
  C  C89  1  0.133200  0.857100  0.931800  1.0  0.6863
  C  C90  1  0.121700  0.439500  0.915600  1.0  0.7019
  C  C91  1  0.047800  0.063300  0.691700  1.0  0.1726
  C  C92  1  0.934400  0.007200  0.653100  1.0  -0.1116
  C  C93  1  0.929100  0.903100  0.618100  1.0  -0.0893
  C  C94  1  0.043800  0.854500  0.613780  1.0  -0.1015
  C  C95  1  0.153000  0.918000  0.651700  1.0  0.1954
  C  C96  1  0.275800  0.885500  0.649770  1.0  0.1604
  C  C97  1  0.298300  0.797900  0.610900  1.0  0.007
  C  C98  1  0.422500  0.775200  0.614080  1.0  -0.11
  C  C99  1  0.517400  0.846700  0.661000  1.0  0.0066
  C  C100  1  0.495500  0.937500  0.700700  1.0  0.155
  C  C101  1  0.807400  0.829000  0.582400  1.0  0.695
  C  C102  1  0.457700  0.679200  0.572000  1.0  0.7154
  C  C103  1  0.699000  0.826800  0.371000  1.0  0.1482
  C  C104  1  0.652000  0.759500  0.408200  1.0  -0.1092
  C  C105  1  0.546500  0.687500  0.381880  1.0  -0.1089
  C  C106  1  0.479300  0.689300  0.317400  1.0  -0.0566
  C  C107  1  0.522600  0.759300  0.286250  1.0  0.2271
  C  C108  1  0.466100  0.768500  0.221390  1.0  0.1639
  C  C109  1  0.360300  0.693200  0.179300  1.0  -0.0181
  C  C110  1  0.307000  0.710000  0.118500  1.0  -0.1465
  C  C111  1  0.356700  0.800500  0.104900  1.0  -0.005
  C  C112  1  0.462400  0.868500  0.144000  1.0  0.1475
  C  C113  1  0.495000  0.607700  0.414750  1.0  0.71
  C  C114  1  0.194600  0.631400  0.075100  1.0  0.7067
  C  C115  1  0.716800  0.108000  0.197100  1.0  0.1603
  C  C116  1  0.762200  0.152400  0.157160  1.0  -0.0503
  C  C117  1  0.812500  0.089800  0.111100  1.0  -0.0934
  C  C118  1  0.817300  0.980500  0.109600  1.0  -0.1043
  C  C119  1  0.773300  0.934900  0.154400  1.0  0.1718
  C  C120  1  0.770600  0.817900  0.156200  1.0  0.1398
  C  C121  1  0.816400  0.739600  0.115000  1.0  -0.0701
  C  C122  1  0.821600  0.635300  0.125500  1.0  -0.1057
  C  C123  1  0.793800  0.610300  0.177200  1.0  -0.1504
  C  C124  1  0.751900  0.693400  0.215250  1.0  0.1803
  C  C125  1  0.866800  0.142900  0.068200  1.0  0.6858
  C  C126  1  0.878300  0.560500  0.084400  1.0  0.7018
  C  C127  1  0.952200  0.936700  0.308300  1.0  0.1732
  C  C128  1  0.065600  0.992800  0.346900  1.0  -0.1145
  C  C129  1  0.070900  0.096900  0.381900  1.0  -0.0881
  C  C130  1  0.956200  0.145500  0.386220  1.0  -0.1047
  C  C131  1  0.847000  0.082000  0.348300  1.0  0.1956
  C  C132  1  0.724200  0.114500  0.350230  1.0  0.1603
  C  C133  1  0.701700  0.202100  0.389100  1.0  0.0049
  C  C134  1  0.577500  0.224800  0.385920  1.0  -0.11
  C  C135  1  0.482600  0.153300  0.339000  1.0  0.0059
  C  C136  1  0.504500  0.062500  0.299300  1.0  0.1534
  C  C137  1  0.192600  0.171000  0.417600  1.0  0.6965
  C  C138  1  0.542300  0.320800  0.428000  1.0  0.7155
  N  N139  1  0.367100  0.173400  0.690370  1.0  -0.2386
  N  N140  1  0.484300  0.147200  0.797440  1.0  -0.2832
  N  N141  1  0.278200  0.007500  0.802800  1.0  -0.2955
  N  N142  1  0.264300  0.207000  0.790080  1.0  -0.3174
  N  N143  1  0.155400  0.020900  0.689600  1.0  -0.2929
  N  N144  1  0.376300  0.958400  0.694690  1.0  -0.2953
  N  N145  1  0.632900  0.826600  0.309630  1.0  -0.2373
  N  N146  1  0.515700  0.852800  0.202560  1.0  -0.284
  N  N147  1  0.721800  0.992500  0.197200  1.0  -0.2951
  N  N148  1  0.735700  0.793000  0.209920  1.0  -0.3189
  N  N149  1  0.844600  0.979100  0.310400  1.0  -0.2926
  N  N150  1  0.623700  0.041600  0.305310  1.0  -0.2963
  N  N151  1  0.861500  0.036100  0.799180  1.0  0.8412
  N  N152  1  0.123800  0.604700  0.709200  1.0  0.8325
  N  N153  1  0.212100  0.849300  0.461430  1.0  0.8464
  N  N154  1  0.138500  0.963900  0.200820  1.0  0.8421
  N  N155  1  0.876200  0.395300  0.290800  1.0  0.8328
  N  N156  1  0.787900  0.150700  0.538570  1.0  0.8466
  O  O157  1  0.429700  0.410100  0.538090  1.0  -0.7286
  O  O158  1  0.619600  0.432100  0.600600  1.0  -0.5933
  O  O159  1  0.839300  0.451100  0.908620  1.0  -0.6445
  O  O160  1  0.855600  0.340600  0.971460  1.0  -0.6422
  O  O161  1  0.091600  0.755100  0.918240  1.0  -0.6978
  O  O162  1  0.128600  0.923600  0.983590  1.0  -0.6062
  O  O163  1  0.095300  0.415700  0.963020  1.0  -0.7005
  O  O164  1  0.091100  0.527100  0.896370  1.0  -0.6553
  O  O165  1  0.713400  0.874000  0.571270  1.0  -0.5425
  O  O166  1  0.804900  0.726500  0.561290  1.0  -0.6073
  O  O167  1  0.363600  0.623300  0.529250  1.0  -0.7554
  O  O168  1  0.555700  0.646700  0.586810  1.0  -0.6083
  O  O169  1  0.201800  0.366500  0.337570  1.0  -0.6862
  O  O170  1  0.131800  0.539900  0.414570  1.0  -0.707
  O  O171  1  0.173300  0.454100  0.526370  1.0  -0.6885
  O  O172  1  0.880500  0.628100  0.837160  1.0  -0.6931
  O  O173  1  0.754200  0.677600  0.930560  1.0  -0.6405
  O  O174  1  0.979400  0.810200  0.025770  1.0  -0.6603
  O  O175  1  0.570300  0.589900  0.461910  1.0  -0.7275
  O  O176  1  0.380400  0.567900  0.399400  1.0  -0.5926
  O  O177  1  0.160700  0.548900  0.091380  1.0  -0.6433
  O  O178  1  0.144400  0.659400  0.028540  1.0  -0.6444
  O  O179  1  0.908400  0.244900  0.081760  1.0  -0.699
  O  O180  1  0.871400  0.076400  0.016410  1.0  -0.6062
  O  O181  1  0.904700  0.584300  0.036980  1.0  -0.7008
  O  O182  1  0.908900  0.472900  0.103630  1.0  -0.6554
  O  O183  1  0.286600  0.126000  0.428730  1.0  -0.5408
  O  O184  1  0.195100  0.273500  0.438710  1.0  -0.6076
  O  O185  1  0.636400  0.376700  0.470750  1.0  -0.7538
  O  O186  1  0.444300  0.353300  0.413190  1.0  -0.6082
  O  O187  1  0.798200  0.633500  0.662430  1.0  -0.685
  O  O188  1  0.868200  0.460100  0.585430  1.0  -0.7093
  O  O189  1  0.826700  0.545900  0.473630  1.0  -0.683
  O  O190  1  0.119500  0.371900  0.162840  1.0  -0.6901
  O  O191  1  0.245800  0.322400  0.069440  1.0  -0.6362
  O  O192  1  0.020600  0.189800  0.974230  1.0  -0.6615
  O  O193  1  0.902200  0.948300  0.797170  1.0  -0.4198
  O  O194  1  0.909400  0.117200  0.844200  1.0  -0.5709
  O  O195  1  0.775200  0.045900  0.757920  1.0  -0.4938
  O  O196  1  0.038100  0.623500  0.734970  1.0  -0.5418
  O  O197  1  0.212000  0.571300  0.738530  1.0  -0.4005
  O  O198  1  0.125600  0.628800  0.658530  1.0  -0.4128
  O  O199  1  0.317200  0.896700  0.477210  1.0  -0.3577
  O  O200  1  0.189200  0.748100  0.437720  1.0  -0.6345
  O  O201  1  0.123900  0.898500  0.468390  1.0  -0.4528
  O  O202  1  0.097800  0.051700  0.202830  1.0  -0.4203
  O  O203  1  0.090600  0.882800  0.155800  1.0  -0.5701
  O  O204  1  0.224800  0.954100  0.242080  1.0  -0.4927
  O  O205  1  0.961900  0.376500  0.265030  1.0  -0.5445
  O  O206  1  0.788000  0.428700  0.261470  1.0  -0.4013
  O  O207  1  0.874400  0.371200  0.341470  1.0  -0.4117
  O  O208  1  0.682800  0.103300  0.522790  1.0  -0.3574
  O  O209  1  0.810800  0.251900  0.562280  1.0  -0.6379
  O  O210  1  0.876100  0.101500  0.531610  1.0  -0.4538
