# generated using pymatgen
data_Cu2(CN)3
_symmetry_space_group_name_H-M   'P 1'
_cell_length_a   8.58200000
_cell_length_b   11.74500000
_cell_length_c   12.97900000
_cell_angle_alpha   90.00000000
_cell_angle_beta   90.00000000
_cell_angle_gamma   101.10000000
_symmetry_Int_Tables_number   1
_chemical_formula_structural   Cu2(CN)3
_chemical_formula_sum   'Cu8 C12 N12'
_cell_volume   1283.75253995
_cell_formula_units_Z   4
loop_
 _symmetry_equiv_pos_site_id
 _symmetry_equiv_pos_as_xyz
  1  'x, y, z'
loop_
 _atom_site_type_symbol
 _atom_site_label
 _atom_site_symmetry_multiplicity
 _atom_site_fract_x
 _atom_site_fract_y
 _atom_site_fract_z
 _atom_site_occupancy
 _atom_site_charge
  Cu  Cu1  1  0.955890  0.646210  0.801310  1.0  0.4827
  Cu  Cu2  1  0.051930  0.901190  0.489730  1.0  0.5359
  Cu  Cu3  1  0.544110  0.853790  0.301310  1.0  0.4826
  Cu  Cu4  1  0.448070  0.598810  0.989730  1.0  0.5354
  Cu  Cu5  1  0.044110  0.353790  0.198690  1.0  0.483
  Cu  Cu6  1  0.948070  0.098810  0.510270  1.0  0.5351
  Cu  Cu7  1  0.455890  0.146210  0.698690  1.0  0.4831
  Cu  Cu8  1  0.551930  0.401190  0.010270  1.0  0.5356
  C  C9  1  0.638400  0.578500  0.914100  1.0  -0.0867
  C  C10  1  0.981500  0.734000  0.677000  1.0  -0.05
  C  C11  1  0.133800  0.616400  0.873700  1.0  -0.0517
  C  C12  1  0.861600  0.921500  0.414100  1.0  -0.0871
  C  C13  1  0.518500  0.766000  0.177000  1.0  -0.0507
  C  C14  1  0.366200  0.883600  0.373700  1.0  -0.0532
  C  C15  1  0.361600  0.421500  0.085900  1.0  -0.0909
  C  C16  1  0.018500  0.266000  0.323000  1.0  -0.0504
  C  C17  1  0.866200  0.383600  0.126300  1.0  -0.0533
  C  C18  1  0.138400  0.078500  0.585900  1.0  -0.0889
  C  C19  1  0.481500  0.234000  0.823000  1.0  -0.0497
  C  C20  1  0.633800  0.116400  0.626300  1.0  -0.0521
  N  N21  1  0.751200  0.597000  0.867000  1.0  -0.2582
  N  N22  1  0.007200  0.793000  0.607800  1.0  -0.2758
  N  N23  1  0.251000  0.608000  0.915400  1.0  -0.2955
  N  N24  1  0.748800  0.903000  0.367000  1.0  -0.2578
  N  N25  1  0.492800  0.707000  0.107800  1.0  -0.276
  N  N26  1  0.249000  0.892000  0.415400  1.0  -0.2931
  N  N27  1  0.248800  0.403000  0.133000  1.0  -0.2564
  N  N28  1  0.992800  0.207000  0.392200  1.0  -0.2766
  N  N29  1  0.749000  0.392000  0.084600  1.0  -0.2916
  N  N30  1  0.251200  0.097000  0.633000  1.0  -0.2566
  N  N31  1  0.507200  0.293000  0.892200  1.0  -0.2764
  N  N32  1  0.751000  0.108000  0.584600  1.0  -0.2946
