# generated using pymatgen
data_Co3Mo4(PO7)4
_symmetry_space_group_name_H-M   'P 1'
_cell_length_a   17.11000000
_cell_length_b   17.11000000
_cell_length_c   10.74000000
_cell_angle_alpha   90.00000000
_cell_angle_beta   90.00000000
_cell_angle_gamma   90.00000000
_symmetry_Int_Tables_number   1
_chemical_formula_structural   Co3Mo4(PO7)4
_chemical_formula_sum   'Co12 Mo16 P16 O112'
_cell_volume   3144.15755400
_cell_formula_units_Z   4
loop_
 _symmetry_equiv_pos_site_id
 _symmetry_equiv_pos_as_xyz
  1  'x, y, z'
loop_
 _atom_site_type_symbol
 _atom_site_label
 _atom_site_symmetry_multiplicity
 _atom_site_fract_x
 _atom_site_fract_y
 _atom_site_fract_z
 _atom_site_occupancy
 _atom_site_charge
  Co  Co1  1  0.750000  0.750000  0.250000  1.0  1.1485
  Co  Co2  1  0.750000  0.250000  0.750000  1.0  1.1485
  Co  Co3  1  0.000000  0.000000  0.500000  1.0  1.1478
  Co  Co4  1  0.500000  0.500000  0.000000  1.0  1.1478
  Co  Co5  1  0.500000  0.000000  0.000000  1.0  1.1478
  Co  Co6  1  0.000000  0.500000  0.500000  1.0  1.1478
  Co  Co7  1  0.250000  0.250000  0.750000  1.0  1.1485
  Co  Co8  1  0.250000  0.750000  0.250000  1.0  1.1485
  Co  Co9  1  0.500000  0.750000  0.625000  1.0  0.9791
  Co  Co10  1  0.000000  0.250000  0.125000  1.0  0.9791
  Co  Co11  1  0.000000  0.750000  0.875000  1.0  0.9791
  Co  Co12  1  0.500000  0.250000  0.375000  1.0  0.9791
  Mo  Mo13  1  0.660720  0.940740  0.192360  1.0  2.2153
  Mo  Mo14  1  0.160720  0.440740  0.692360  1.0  2.2153
  Mo  Mo15  1  0.839280  0.059260  0.692360  1.0  2.2131
  Mo  Mo16  1  0.339280  0.559260  0.192360  1.0  2.2131
  Mo  Mo17  1  0.809260  0.910720  0.442360  1.0  2.2155
  Mo  Mo18  1  0.309260  0.410720  0.942360  1.0  2.2155
  Mo  Mo19  1  0.690740  0.089280  0.942360  1.0  2.2162
  Mo  Mo20  1  0.190740  0.589280  0.442360  1.0  2.2162
  Mo  Mo21  1  0.339280  0.059260  0.807640  1.0  2.2133
  Mo  Mo22  1  0.839280  0.559260  0.307640  1.0  2.2133
  Mo  Mo23  1  0.160720  0.940740  0.307640  1.0  2.2154
  Mo  Mo24  1  0.660720  0.440740  0.807640  1.0  2.2154
  Mo  Mo25  1  0.190740  0.089280  0.557640  1.0  2.2163
  Mo  Mo26  1  0.690740  0.589280  0.057640  1.0  2.2163
  Mo  Mo27  1  0.309260  0.910720  0.057640  1.0  2.2156
  Mo  Mo28  1  0.809260  0.410720  0.557640  1.0  2.2156
  P  P29  1  0.635820  0.832240  0.446870  1.0  1.8209
  P  P30  1  0.135820  0.332240  0.946870  1.0  1.8209
  P  P31  1  0.864180  0.167760  0.946870  1.0  1.8242
  P  P32  1  0.364180  0.667760  0.446870  1.0  1.8242
  P  P33  1  0.917760  0.885820  0.696870  1.0  1.825
  P  P34  1  0.417760  0.385820  0.196870  1.0  1.825
  P  P35  1  0.582240  0.114180  0.196870  1.0  1.8253
  P  P36  1  0.082240  0.614180  0.696870  1.0  1.8253
  P  P37  1  0.364180  0.167760  0.553130  1.0  1.8244
  P  P38  1  0.864180  0.667760  0.053130  1.0  1.8244
  P  P39  1  0.135820  0.832240  0.053130  1.0  1.8212
  P  P40  1  0.635820  0.332240  0.553130  1.0  1.8212
  P  P41  1  0.082240  0.114180  0.303130  1.0  1.8256
  P  P42  1  0.582240  0.614180  0.803130  1.0  1.8256
  P  P43  1  0.417760  0.885820  0.803130  1.0  1.825
  P  P44  1  0.917760  0.385820  0.303130  1.0  1.825
  O  O45  1  0.573200  0.929900  0.109300  1.0  -0.6855
  O  O46  1  0.750200  0.964800  0.334600  1.0  -0.7097
  O  O47  1  0.706600  0.850400  0.168200  1.0  -0.6942
  O  O48  1  0.608000  0.894200  0.352000  1.0  -0.6959
  O  O49  1  0.567900  0.819200  0.534400  1.0  -0.7283
  O  O50  1  0.661100  0.757100  0.381500  1.0  -0.6682
  O  O51  1  0.704600  0.866700  0.522900  1.0  -0.6767
  O  O52  1  0.073200  0.429900  0.609300  1.0  -0.6855
  O  O53  1  0.250200  0.464800  0.834600  1.0  -0.7097
  O  O54  1  0.206600  0.350400  0.668200  1.0  -0.6942
  O  O55  1  0.108000  0.394200  0.852000  1.0  -0.6959
  O  O56  1  0.067900  0.319200  0.034400  1.0  -0.7283
  O  O57  1  0.161100  0.257100  0.881500  1.0  -0.6682
  O  O58  1  0.204600  0.366700  0.022900  1.0  -0.6767
  O  O59  1  0.926800  0.070100  0.609300  1.0  -0.6846
  O  O60  1  0.749800  0.035200  0.834600  1.0  -0.7089
  O  O61  1  0.793400  0.149600  0.668200  1.0  -0.6938
  O  O62  1  0.892000  0.105800  0.852000  1.0  -0.6975
  O  O63  1  0.932100  0.180800  0.034400  1.0  -0.7291
  O  O64  1  0.838900  0.242900  0.881500  1.0  -0.6671
  O  O65  1  0.795400  0.133300  0.022900  1.0  -0.6772
  O  O66  1  0.426800  0.570100  0.109300  1.0  -0.6846
  O  O67  1  0.249800  0.535200  0.334600  1.0  -0.7089
  O  O68  1  0.293400  0.649600  0.168200  1.0  -0.6938
  O  O69  1  0.392000  0.605800  0.352000  1.0  -0.6975
  O  O70  1  0.432100  0.680800  0.534400  1.0  -0.7291
  O  O71  1  0.338900  0.742900  0.381500  1.0  -0.6671
  O  O72  1  0.295400  0.633300  0.522900  1.0  -0.6772
  O  O73  1  0.820100  0.823200  0.359300  1.0  -0.6806
  O  O74  1  0.785200  0.000200  0.584600  1.0  -0.7064
  O  O75  1  0.899600  0.956600  0.418200  1.0  -0.6919
  O  O76  1  0.855800  0.858000  0.602000  1.0  -0.6987
  O  O77  1  0.930800  0.817900  0.784400  1.0  -0.7294
  O  O78  1  0.992900  0.911100  0.631500  1.0  -0.6682
  O  O79  1  0.883300  0.954600  0.772900  1.0  -0.6775
  O  O80  1  0.320100  0.323200  0.859300  1.0  -0.6806
  O  O81  1  0.285200  0.500200  0.084600  1.0  -0.7064
  O  O82  1  0.399600  0.456600  0.918200  1.0  -0.6919
  O  O83  1  0.355800  0.358000  0.102000  1.0  -0.6987
  O  O84  1  0.430800  0.317900  0.284400  1.0  -0.7294
  O  O85  1  0.492900  0.411100  0.131500  1.0  -0.6682
  O  O86  1  0.383300  0.454600  0.272900  1.0  -0.6775
  O  O87  1  0.679900  0.176800  0.859300  1.0  -0.6846
  O  O88  1  0.714800  0.999800  0.084600  1.0  -0.7059
  O  O89  1  0.600400  0.043400  0.918200  1.0  -0.6934
  O  O90  1  0.644200  0.142000  0.102000  1.0  -0.698
  O  O91  1  0.569200  0.182100  0.284400  1.0  -0.7316
  O  O92  1  0.507100  0.088900  0.131500  1.0  -0.6674
  O  O93  1  0.616700  0.045400  0.272900  1.0  -0.6782
  O  O94  1  0.179900  0.676800  0.359300  1.0  -0.6846
  O  O95  1  0.214800  0.499800  0.584600  1.0  -0.7059
  O  O96  1  0.100400  0.543400  0.418200  1.0  -0.6934
  O  O97  1  0.144200  0.642000  0.602000  1.0  -0.698
  O  O98  1  0.069200  0.682100  0.784400  1.0  -0.7316
  O  O99  1  0.007100  0.588900  0.631500  1.0  -0.6674
  O  O100  1  0.116700  0.545400  0.772900  1.0  -0.6782
  O  O101  1  0.426800  0.070100  0.890700  1.0  -0.6849
  O  O102  1  0.249800  0.035200  0.665400  1.0  -0.7093
  O  O103  1  0.293400  0.149600  0.831800  1.0  -0.6916
  O  O104  1  0.392000  0.105800  0.648000  1.0  -0.6978
  O  O105  1  0.432100  0.180800  0.465600  1.0  -0.7297
  O  O106  1  0.338900  0.242900  0.618500  1.0  -0.6673
  O  O107  1  0.295400  0.133300  0.477100  1.0  -0.6792
  O  O108  1  0.926800  0.570100  0.390700  1.0  -0.6849
  O  O109  1  0.749800  0.535200  0.165400  1.0  -0.7093
  O  O110  1  0.793400  0.649600  0.331800  1.0  -0.6916
  O  O111  1  0.892000  0.605800  0.148000  1.0  -0.6978
  O  O112  1  0.932100  0.680800  0.965600  1.0  -0.7297
  O  O113  1  0.838900  0.742900  0.118500  1.0  -0.6673
  O  O114  1  0.795400  0.633300  0.977100  1.0  -0.6792
  O  O115  1  0.073200  0.929900  0.390700  1.0  -0.6859
  O  O116  1  0.250200  0.964800  0.165400  1.0  -0.71
  O  O117  1  0.206600  0.850400  0.331800  1.0  -0.692
  O  O118  1  0.108000  0.894200  0.148000  1.0  -0.6962
  O  O119  1  0.067900  0.819200  0.965600  1.0  -0.73
  O  O120  1  0.161100  0.757100  0.118500  1.0  -0.6692
  O  O121  1  0.204600  0.866700  0.977100  1.0  -0.6774
  O  O122  1  0.573200  0.429900  0.890700  1.0  -0.6859
  O  O123  1  0.750200  0.464800  0.665400  1.0  -0.71
  O  O124  1  0.706600  0.350400  0.831800  1.0  -0.692
  O  O125  1  0.608000  0.394200  0.648000  1.0  -0.6962
  O  O126  1  0.567900  0.319200  0.465600  1.0  -0.73
  O  O127  1  0.661100  0.257100  0.618500  1.0  -0.6692
  O  O128  1  0.704600  0.366700  0.477100  1.0  -0.6774
  O  O129  1  0.179900  0.176800  0.640700  1.0  -0.6847
  O  O130  1  0.214800  0.999800  0.415400  1.0  -0.7063
  O  O131  1  0.100400  0.043400  0.581800  1.0  -0.6913
  O  O132  1  0.144200  0.142000  0.398000  1.0  -0.6978
  O  O133  1  0.069200  0.182100  0.215600  1.0  -0.7316
  O  O134  1  0.007100  0.088900  0.368500  1.0  -0.6679
  O  O135  1  0.116700  0.045400  0.227100  1.0  -0.6794
  O  O136  1  0.679900  0.676800  0.140700  1.0  -0.6847
  O  O137  1  0.714800  0.499800  0.915400  1.0  -0.7063
  O  O138  1  0.600400  0.543400  0.081800  1.0  -0.6913
  O  O139  1  0.644200  0.642000  0.898000  1.0  -0.6978
  O  O140  1  0.569200  0.682100  0.715600  1.0  -0.7316
  O  O141  1  0.507100  0.588900  0.868500  1.0  -0.6679
  O  O142  1  0.616700  0.545400  0.727100  1.0  -0.6794
  O  O143  1  0.320100  0.823200  0.140700  1.0  -0.6809
  O  O144  1  0.285200  0.000200  0.915400  1.0  -0.7068
  O  O145  1  0.399600  0.956600  0.081800  1.0  -0.6895
  O  O146  1  0.355800  0.858000  0.898000  1.0  -0.6989
  O  O147  1  0.430800  0.817900  0.715600  1.0  -0.7311
  O  O148  1  0.492900  0.911100  0.868500  1.0  -0.6689
  O  O149  1  0.383300  0.954600  0.727100  1.0  -0.679
  O  O150  1  0.820100  0.323200  0.640700  1.0  -0.6809
  O  O151  1  0.785200  0.500200  0.415400  1.0  -0.7068
  O  O152  1  0.899600  0.456600  0.581800  1.0  -0.6895
  O  O153  1  0.855800  0.358000  0.398000  1.0  -0.6989
  O  O154  1  0.930800  0.317900  0.215600  1.0  -0.7311
  O  O155  1  0.992900  0.411100  0.368500  1.0  -0.6689
  O  O156  1  0.883300  0.454600  0.227100  1.0  -0.679
