# generated using pymatgen
data_Tb5H64C16S12(NO6)8
_symmetry_space_group_name_H-M   'P 1'
_cell_length_a   10.15140000
_cell_length_b   18.90940000
_cell_length_c   21.10200000
_cell_angle_alpha   115.32400000
_cell_angle_beta   101.69400000
_cell_angle_gamma   94.84540000
_symmetry_Int_Tables_number   1
_chemical_formula_structural   Tb5H64C16S12(NO6)8
_chemical_formula_sum   'Tb10 H128 C32 S24 N16 O96'
_cell_volume   3517.74800323
_cell_formula_units_Z   2
loop_
 _symmetry_equiv_pos_site_id
 _symmetry_equiv_pos_as_xyz
  1  'x, y, z'
loop_
 _atom_site_type_symbol
 _atom_site_label
 _atom_site_symmetry_multiplicity
 _atom_site_fract_x
 _atom_site_fract_y
 _atom_site_fract_z
 _atom_site_occupancy
 _atom_site_charge
  Tb  Tb1  1  0.056760  0.063230  0.614360  1.0  2.2842
  Tb  Tb2  1  0.126450  0.109490  0.938740  1.0  2.297
  Tb  Tb3  1  0.057600  0.551130  0.614360  1.0  2.2855
  Tb  Tb4  1  0.312290  0.829250  0.938740  1.0  2.2953
  Tb  Tb5  1  0.943240  0.936770  0.385640  1.0  2.2842
  Tb  Tb6  1  0.873550  0.890510  0.061260  1.0  2.2958
  Tb  Tb7  1  0.942400  0.448870  0.385640  1.0  2.2841
  Tb  Tb8  1  0.687710  0.170750  0.061260  1.0  2.2972
  Tb  Tb9  1  0.030990  0.280990  0.561980  1.0  2.2864
  Tb  Tb10  1  0.969010  0.719010  0.438020  1.0  2.2865
  H  H11  1  0.027900  0.394900  0.177200  1.0  0.1625
  H  H12  1  0.023800  0.329300  0.108000  1.0  0.1897
  H  H13  1  0.063800  0.441100  0.105600  1.0  0.1326
  H  H14  1  0.196800  0.466500  0.169200  1.0  0.1232
  H  H15  1  0.185900  0.395900  0.092800  1.0  0.1261
  H  H16  1  0.109900  0.302700  0.196600  1.0  0.1203
  H  H17  1  0.217000  0.304500  0.153000  1.0  0.1368
  H  H18  1  0.227200  0.377700  0.227800  1.0  0.1063
  H  H19  1  0.576200  0.443900  0.403600  1.0  0.1983
  H  H20  1  0.463700  0.415800  0.425200  1.0  0.2035
  H  H21  1  0.523100  0.309200  0.341800  1.0  0.1377
  H  H22  1  0.373100  0.315200  0.310600  1.0  0.1373
  H  H23  1  0.494400  0.345500  0.287200  1.0  0.1376
  H  H24  1  0.422300  0.524000  0.412200  1.0  0.1391
  H  H25  1  0.432700  0.480800  0.331800  1.0  0.1407
  H  H26  1  0.310600  0.449700  0.354200  1.0  0.1336
  H  H27  1  0.769400  0.943000  0.900400  1.0  0.2
  H  H28  1  0.734400  0.034300  0.860000  1.0  0.1313
  H  H29  1  0.759000  0.957100  0.798400  1.0  0.1386
  H  H30  1  0.609600  0.972700  0.797600  1.0  0.1317
  H  H31  1  0.631000  0.957400  0.900400  1.0  0.2215
  H  H32  1  0.625600  0.825700  0.860000  1.0  0.1311
  H  H33  1  0.539400  0.841300  0.798400  1.0  0.1383
  H  H34  1  0.688000  0.824900  0.797600  1.0  0.131
  H  H35  1  0.873400  0.074800  0.224800  1.0  0.1843
  H  H36  1  0.692800  0.107200  0.264200  1.0  0.1198
  H  H37  1  0.808800  0.106600  0.325400  1.0  0.1257
  H  H38  1  0.784700  0.187700  0.326000  1.0  0.1244
  H  H39  1  0.851400  0.150000  0.224800  1.0  0.1801
  H  H40  1  0.071400  0.157000  0.264200  1.0  0.1209
  H  H41  1  0.016600  0.218800  0.325400  1.0  0.127
  H  H42  1  0.041300  0.138300  0.326000  1.0  0.1256
  H  H43  1  0.951900  0.253500  0.839400  1.0  0.1886
  H  H44  1  0.043700  0.257200  0.796400  1.0  0.1636
  H  H45  1  0.837000  0.256900  0.744800  1.0  0.1337
  H  H46  1  0.839600  0.335800  0.813400  1.0  0.1206
  H  H47  1  0.936700  0.335600  0.764400  1.0  0.1303
  H  H48  1  0.154300  0.324100  0.914400  1.0  0.1355
  H  H49  1  0.148300  0.382300  0.879200  1.0  0.1462
  H  H50  1  0.046600  0.380100  0.925400  1.0  0.129
  H  H51  1  0.649300  0.782300  0.177200  1.0  0.1509
  H  H52  1  0.584200  0.778700  0.108000  1.0  0.1906
  H  H53  1  0.541800  0.664500  0.105600  1.0  0.1356
  H  H54  1  0.472400  0.702700  0.169200  1.0  0.1198
  H  H55  1  0.406900  0.696900  0.092800  1.0  0.1248
  H  H56  1  0.586700  0.893900  0.196600  1.0  0.122
  H  H57  1  0.436000  0.848500  0.153000  1.0  0.1352
  H  H58  1  0.500600  0.850100  0.227800  1.0  0.1089
  H  H59  1  0.327400  0.959700  0.403600  1.0  0.2154
  H  H60  1  0.461500  0.009400  0.425200  1.0  0.2025
  H  H61  1  0.318700  0.032600  0.341800  1.0  0.1385
  H  H62  1  0.437500  0.995400  0.310600  1.0  0.1366
  H  H63  1  0.292800  0.941700  0.287200  1.0  0.1364
  H  H64  1  0.489900  0.888200  0.412200  1.0  0.1372
  H  H65  1  0.399100  0.851000  0.331800  1.0  0.1444
  H  H66  1  0.543600  0.904500  0.354200  1.0  0.1348
  H  H67  1  0.387500  0.585900  0.839400  1.0  0.1927
  H  H68  1  0.252700  0.539200  0.796400  1.0  0.1574
  H  H69  1  0.407800  0.487900  0.744800  1.0  0.1308
  H  H70  1  0.473800  0.477600  0.813400  1.0  0.1225
  H  H71  1  0.327700  0.428800  0.764400  1.0  0.1321
  H  H72  1  0.260100  0.590300  0.914400  1.0  0.1404
  H  H73  1  0.230900  0.496900  0.879200  1.0  0.1472
  H  H74  1  0.378800  0.545300  0.925400  1.0  0.1262
  H  H75  1  0.972100  0.605100  0.822800  1.0  0.161
  H  H76  1  0.976200  0.670700  0.892000  1.0  0.1915
  H  H77  1  0.936200  0.558900  0.894400  1.0  0.132
  H  H78  1  0.803200  0.533500  0.830800  1.0  0.124
  H  H79  1  0.814100  0.604100  0.907200  1.0  0.1268
  H  H80  1  0.890100  0.697300  0.803400  1.0  0.1209
  H  H81  1  0.783000  0.695500  0.847000  1.0  0.1378
  H  H82  1  0.772800  0.622300  0.772200  1.0  0.1067
  H  H83  1  0.423800  0.556100  0.596400  1.0  0.2059
  H  H84  1  0.536300  0.584200  0.574800  1.0  0.2052
  H  H85  1  0.476900  0.690800  0.658200  1.0  0.1367
  H  H86  1  0.626900  0.684800  0.689400  1.0  0.1381
  H  H87  1  0.505600  0.654500  0.712800  1.0  0.1371
  H  H88  1  0.577700  0.476000  0.587800  1.0  0.1406
  H  H89  1  0.567300  0.519200  0.668200  1.0  0.1411
  H  H90  1  0.689400  0.550300  0.645800  1.0  0.1361
  H  H91  1  0.230600  0.057000  0.099600  1.0  0.2099
  H  H92  1  0.265600  0.965700  0.140000  1.0  0.1319
  H  H93  1  0.241000  0.042900  0.201600  1.0  0.14
  H  H94  1  0.390400  0.027300  0.202400  1.0  0.1347
  H  H95  1  0.369000  0.042600  0.099600  1.0  0.2221
  H  H96  1  0.374400  0.174300  0.140000  1.0  0.1307
  H  H97  1  0.460600  0.158700  0.201600  1.0  0.1409
  H  H98  1  0.312000  0.175100  0.202400  1.0  0.1302
  H  H99  1  0.126600  0.925200  0.775200  1.0  0.1839
  H  H100  1  0.307200  0.892800  0.735800  1.0  0.1229
  H  H101  1  0.191200  0.893400  0.674600  1.0  0.1252
  H  H102  1  0.215300  0.812300  0.674000  1.0  0.1267
  H  H103  1  0.148600  0.850000  0.775200  1.0  0.1817
  H  H104  1  0.928600  0.843000  0.735800  1.0  0.1207
  H  H105  1  0.983400  0.781200  0.674600  1.0  0.1285
  H  H106  1  0.958700  0.861700  0.674000  1.0  0.1245
  H  H107  1  0.048100  0.746500  0.160600  1.0  0.1898
  H  H108  1  0.956300  0.742800  0.203600  1.0  0.163
  H  H109  1  0.163000  0.743100  0.255200  1.0  0.1343
  H  H110  1  0.160400  0.664200  0.186600  1.0  0.1209
  H  H111  1  0.063300  0.664400  0.235600  1.0  0.1295
  H  H112  1  0.845700  0.675900  0.085600  1.0  0.1347
  H  H113  1  0.851700  0.617700  0.120800  1.0  0.1478
  H  H114  1  0.953400  0.619900  0.074600  1.0  0.129
  H  H115  1  0.350700  0.217700  0.822800  1.0  0.1525
  H  H116  1  0.415800  0.221300  0.892000  1.0  0.1912
  H  H117  1  0.458200  0.335500  0.894400  1.0  0.1353
  H  H118  1  0.527600  0.297300  0.830800  1.0  0.1214
  H  H119  1  0.593100  0.303100  0.907200  1.0  0.1274
  H  H120  1  0.413300  0.106100  0.803400  1.0  0.1216
  H  H121  1  0.564000  0.151500  0.847000  1.0  0.1361
  H  H122  1  0.499400  0.149900  0.772200  1.0  0.1078
  H  H123  1  0.672600  0.040300  0.596400  1.0  0.2155
  H  H124  1  0.538500  0.990600  0.574800  1.0  0.2036
  H  H125  1  0.681300  0.967400  0.658200  1.0  0.1368
  H  H126  1  0.562500  0.004600  0.689400  1.0  0.1355
  H  H127  1  0.707200  0.058300  0.712800  1.0  0.1358
  H  H128  1  0.510100  0.111800  0.587800  1.0  0.1385
  H  H129  1  0.600900  0.149000  0.668200  1.0  0.143
  H  H130  1  0.456400  0.095500  0.645800  1.0  0.1334
  H  H131  1  0.612500  0.414100  0.160600  1.0  0.1904
  H  H132  1  0.747300  0.460800  0.203600  1.0  0.1495
  H  H133  1  0.592200  0.512100  0.255200  1.0  0.1307
  H  H134  1  0.526200  0.522400  0.186600  1.0  0.123
  H  H135  1  0.672300  0.571200  0.235600  1.0  0.1313
  H  H136  1  0.739900  0.409700  0.085600  1.0  0.1379
  H  H137  1  0.769100  0.503100  0.120800  1.0  0.1473
  H  H138  1  0.621200  0.454700  0.074600  1.0  0.1259
  C  C139  1  0.135800  0.422200  0.127400  1.0  -0.1558
  C  C140  1  0.165400  0.336000  0.184200  1.0  -0.1679
  C  C141  1  0.467700  0.340700  0.326600  1.0  -0.1466
  C  C142  1  0.406200  0.473300  0.370000  1.0  -0.1505
  C  C143  1  0.698300  0.978700  0.828000  1.0  -0.1518
  C  C144  1  0.629700  0.849300  0.828000  1.0  -0.152
  C  C145  1  0.783300  0.132500  0.295600  1.0  -0.1387
  C  C146  1  0.012300  0.163100  0.295600  1.0  -0.1319
  C  C147  1  0.894200  0.305000  0.783800  1.0  -0.1486
  C  C148  1  0.094800  0.348600  0.892000  1.0  -0.1437
  C  C149  1  0.491600  0.705200  0.127400  1.0  -0.1548
  C  C150  1  0.518800  0.848200  0.184200  1.0  -0.1672
  C  C151  1  0.358900  0.985900  0.326600  1.0  -0.1494
  C  C152  1  0.463800  0.896700  0.370000  1.0  -0.1508
  C  C153  1  0.389600  0.478800  0.783800  1.0  -0.1503
  C  C154  1  0.297200  0.543400  0.892000  1.0  -0.1437
  C  C155  1  0.864200  0.577800  0.872600  1.0  -0.1573
  C  C156  1  0.834600  0.664000  0.815800  1.0  -0.1694
  C  C157  1  0.532300  0.659300  0.673400  1.0  -0.1486
  C  C158  1  0.593800  0.526700  0.630000  1.0  -0.1504
  C  C159  1  0.301700  0.021300  0.172000  1.0  -0.1529
  C  C160  1  0.370300  0.150700  0.172000  1.0  -0.1518
  C  C161  1  0.216700  0.867500  0.704400  1.0  -0.1363
  C  C162  1  0.987700  0.836900  0.704400  1.0  -0.1351
  C  C163  1  0.105800  0.695000  0.216200  1.0  -0.1437
  C  C164  1  0.905200  0.651400  0.108000  1.0  -0.1448
  C  C165  1  0.508400  0.294800  0.872600  1.0  -0.1528
  C  C166  1  0.481200  0.151800  0.815800  1.0  -0.1666
  C  C167  1  0.641100  0.014100  0.673400  1.0  -0.151
  C  C168  1  0.536200  0.103300  0.630000  1.0  -0.1504
  C  C169  1  0.610400  0.521200  0.216200  1.0  -0.1531
  C  C170  1  0.702800  0.456600  0.108000  1.0  -0.1455
  S  S171  1  0.161840  0.101950  0.466200  1.0  1.6675
  S  S172  1  0.386550  0.023830  0.929180  1.0  1.6538
  S  S173  1  0.766030  0.091560  0.496480  1.0  1.6259
  S  S174  1  0.076170  0.090620  0.776180  1.0  1.6786
  S  S175  1  0.212500  0.246990  0.686580  1.0  1.6602
  S  S176  1  0.407110  0.273520  0.046720  1.0  0.7116
  S  S177  1  0.804360  0.364250  0.466200  1.0  1.6691
  S  S178  1  0.042630  0.905350  0.929180  1.0  1.653
  S  S179  1  0.230450  0.404920  0.496480  1.0  1.6273
  S  S180  1  0.200010  0.685560  0.776180  1.0  1.6779
  S  S181  1  0.974080  0.439590  0.686580  1.0  1.6615
  S  S182  1  0.139610  0.773200  0.046720  1.0  0.7099
  S  S183  1  0.838160  0.898050  0.533800  1.0  1.669
  S  S184  1  0.613450  0.976170  0.070820  1.0  1.6544
  S  S185  1  0.233970  0.908440  0.503520  1.0  1.6265
  S  S186  1  0.923830  0.909380  0.223820  1.0  1.6785
  S  S187  1  0.787500  0.753010  0.313420  1.0  1.6592
  S  S188  1  0.592890  0.726480  0.953280  1.0  0.7105
  S  S189  1  0.195640  0.635750  0.533800  1.0  1.6686
  S  S190  1  0.957370  0.094650  0.070820  1.0  1.6542
  S  S191  1  0.769550  0.595080  0.503520  1.0  1.6251
  S  S192  1  0.799990  0.314440  0.223820  1.0  1.6779
  S  S193  1  0.025920  0.560410  0.313420  1.0  1.6625
  S  S194  1  0.860390  0.226800  0.953280  1.0  0.7111
  N  N195  1  0.080500  0.369800  0.148200  1.0  -0.0329
  N  N196  1  0.486910  0.420910  0.388220  1.0  -0.0282
  N  N197  1  0.685830  0.935830  0.871660  1.0  -0.0405
  N  N198  1  0.876700  0.126700  0.253400  1.0  -0.0309
  N  N199  1  0.994900  0.286000  0.825800  1.0  -0.0374
  N  N200  1  0.567700  0.778400  0.148200  1.0  -0.0321
  N  N201  1  0.401310  0.967310  0.388220  1.0  -0.0275
  N  N202  1  0.330900  0.539800  0.825800  1.0  -0.033
  N  N203  1  0.919500  0.630200  0.851800  1.0  -0.0326
  N  N204  1  0.513090  0.579090  0.611780  1.0  -0.0292
  N  N205  1  0.314170  0.064170  0.128340  1.0  -0.0408
  N  N206  1  0.123300  0.873300  0.746600  1.0  -0.0308
  N  N207  1  0.005100  0.714000  0.174200  1.0  -0.0322
  N  N208  1  0.432300  0.221600  0.851800  1.0  -0.0324
  N  N209  1  0.598690  0.032690  0.611780  1.0  -0.0277
  N  N210  1  0.669100  0.460200  0.174200  1.0  -0.0353
  O  O211  1  0.823230  0.078230  0.559980  1.0  -0.7386
  O  O212  1  0.082300  0.070300  0.504320  1.0  -0.9093
  O  O213  1  0.785700  0.027900  0.430000  1.0  -0.77
  O  O214  1  0.296150  0.033550  0.870300  1.0  -0.7754
  O  O215  1  0.134400  0.181900  0.479720  1.0  -0.7875
  O  O216  1  0.060960  0.216760  0.650220  1.0  -0.9317
  O  O217  1  0.836150  0.169950  0.508900  1.0  -0.7792
  O  O218  1  0.618360  0.091660  0.488920  1.0  -0.6417
  O  O219  1  0.157370  0.160170  0.845340  1.0  -0.7937
  O  O220  1  0.530720  0.061020  0.943240  1.0  -0.7582
  O  O221  1  0.105710  0.046510  0.388040  1.0  -0.763
  O  O222  1  0.272790  0.175090  0.673780  1.0  -0.7786
  O  O223  1  0.976740  0.118240  0.734680  1.0  -0.7623
  O  O224  1  0.008110  0.035310  0.797420  1.0  -0.76
  O  O225  1  0.307450  0.105650  0.490700  1.0  -0.6253
  O  O226  1  0.337020  0.064720  0.995040  1.0  -0.8228
  O  O227  1  0.379400  0.938200  0.907700  1.0  -0.7654
  O  O228  1  0.166210  0.052910  0.729620  1.0  -0.7698
  O  O229  1  0.259620  0.290220  0.649040  1.0  -0.7745
  O  O230  1  0.235320  0.297920  0.763640  1.0  -0.6307
  O  O231  1  0.359000  0.216600  0.969200  1.0  -0.6612
  O  O232  1  0.403500  0.332700  0.012600  1.0  -0.7261
  O  O233  1  0.275200  0.235200  0.051000  1.0  -0.7693
  O  O234  1  0.433500  0.341000  0.117600  1.0  -0.537
  O  O235  1  0.236750  0.481750  0.559980  1.0  -0.7382
  O  O236  1  0.922020  0.434020  0.504320  1.0  -0.907
  O  O237  1  0.144300  0.402100  0.430000  1.0  -0.7711
  O  O238  1  0.074150  0.836750  0.870300  1.0  -0.7755
  O  O239  1  0.845320  0.297820  0.479720  1.0  -0.789
  O  O240  1  0.089260  0.433460  0.650220  1.0  -0.9355
  O  O241  1  0.172750  0.338950  0.508900  1.0  -0.7797
  O  O242  1  0.370560  0.397260  0.488920  1.0  -0.6435
  O  O243  1  0.187970  0.685170  0.845340  1.0  -0.7949
  O  O244  1  0.912520  0.882220  0.943240  1.0  -0.7595
  O  O245  1  0.782330  0.341530  0.388040  1.0  -0.7657
  O  O246  1  0.900990  0.498690  0.673780  1.0  -0.7784
  O  O247  1  0.257940  0.616440  0.734680  1.0  -0.7632
  O  O248  1  0.289310  0.762110  0.797420  1.0  -0.7571
  O  O249  1  0.683250  0.385050  0.490700  1.0  -0.6257
  O  O250  1  0.158020  0.930320  0.995040  1.0  -0.8229
  O  O251  1  0.028300  0.969500  0.907700  1.0  -0.7683
  O  O252  1  0.063410  0.676710  0.729620  1.0  -0.7674
  O  O253  1  0.889420  0.358820  0.649040  1.0  -0.768
  O  O254  1  0.028320  0.465720  0.763640  1.0  -0.634
  O  O255  1  0.110200  0.752600  0.969200  1.0  -0.6603
  O  O256  1  0.109100  0.679900  0.012600  1.0  -0.7257
  O  O257  1  0.275800  0.815800  0.051000  1.0  -0.7723
  O  O258  1  0.184100  0.776600  0.117600  1.0  -0.5386
  O  O259  1  0.176770  0.921770  0.440020  1.0  -0.7387
  O  O260  1  0.917700  0.929700  0.495680  1.0  -0.9084
  O  O261  1  0.214300  0.972100  0.570000  1.0  -0.7704
  O  O262  1  0.703850  0.966450  0.129700  1.0  -0.7762
  O  O263  1  0.865600  0.818100  0.520280  1.0  -0.7892
  O  O264  1  0.939040  0.783240  0.349780  1.0  -0.9349
  O  O265  1  0.163850  0.830050  0.491100  1.0  -0.7794
  O  O266  1  0.381640  0.908340  0.511080  1.0  -0.6424
  O  O267  1  0.842630  0.839830  0.154660  1.0  -0.7944
  O  O268  1  0.469280  0.938980  0.056760  1.0  -0.7569
  O  O269  1  0.894290  0.953490  0.611960  1.0  -0.7625
  O  O270  1  0.727210  0.824910  0.326220  1.0  -0.7789
  O  O271  1  0.023260  0.881760  0.265320  1.0  -0.7624
  O  O272  1  0.991890  0.964690  0.202580  1.0  -0.7604
  O  O273  1  0.692550  0.894350  0.509300  1.0  -0.6281
  O  O274  1  0.662980  0.935280  0.004960  1.0  -0.8227
  O  O275  1  0.620600  0.061800  0.092300  1.0  -0.7661
  O  O276  1  0.833790  0.947090  0.270380  1.0  -0.7672
  O  O277  1  0.740380  0.709780  0.350960  1.0  -0.774
  O  O278  1  0.764680  0.702080  0.236360  1.0  -0.6326
  O  O279  1  0.641000  0.783400  0.030800  1.0  -0.6624
  O  O280  1  0.596500  0.667300  0.987400  1.0  -0.7268
  O  O281  1  0.724800  0.764800  0.949000  1.0  -0.7704
  O  O282  1  0.566500  0.659000  0.882400  1.0  -0.5372
  O  O283  1  0.763250  0.518250  0.440020  1.0  -0.7377
  O  O284  1  0.077980  0.565980  0.495680  1.0  -0.9066
  O  O285  1  0.855700  0.597900  0.570000  1.0  -0.7713
  O  O286  1  0.925850  0.163250  0.129700  1.0  -0.775
  O  O287  1  0.154680  0.702180  0.520280  1.0  -0.7876
  O  O288  1  0.910740  0.566540  0.349780  1.0  -0.9358
  O  O289  1  0.827250  0.661050  0.491100  1.0  -0.7797
  O  O290  1  0.629440  0.602740  0.511080  1.0  -0.642
  O  O291  1  0.812030  0.314830  0.154660  1.0  -0.796
  O  O292  1  0.087480  0.117780  0.056760  1.0  -0.7613
  O  O293  1  0.217670  0.658470  0.611960  1.0  -0.7651
  O  O294  1  0.099010  0.501310  0.326220  1.0  -0.7789
  O  O295  1  0.742060  0.383560  0.265320  1.0  -0.7623
  O  O296  1  0.710690  0.237890  0.202580  1.0  -0.7586
  O  O297  1  0.316750  0.614950  0.509300  1.0  -0.6253
  O  O298  1  0.841980  0.069680  0.004960  1.0  -0.8227
  O  O299  1  0.971700  0.030500  0.092300  1.0  -0.7679
  O  O300  1  0.936590  0.323290  0.270380  1.0  -0.7676
  O  O301  1  0.110580  0.641180  0.350960  1.0  -0.7695
  O  O302  1  0.971680  0.534280  0.236360  1.0  -0.633
  O  O303  1  0.889800  0.247400  0.030800  1.0  -0.6638
  O  O304  1  0.890900  0.320100  0.987400  1.0  -0.7254
  O  O305  1  0.724200  0.184200  0.949000  1.0  -0.7706
  O  O306  1  0.815900  0.223400  0.882400  1.0  -0.5378
