# generated using pymatgen
data_CoH7C13(NO3)2
_symmetry_space_group_name_H-M   'P 1'
_cell_length_a   21.35000000
_cell_length_b   8.58100000
_cell_length_c   20.54000000
_cell_angle_alpha   90.00000000
_cell_angle_beta   118.10700000
_cell_angle_gamma   90.00000000
_symmetry_Int_Tables_number   1
_chemical_formula_structural   CoH7C13(NO3)2
_chemical_formula_sum   'Co8 H56 C104 N16 O48'
_cell_volume   3319.24213340
_cell_formula_units_Z   8
loop_
 _symmetry_equiv_pos_site_id
 _symmetry_equiv_pos_as_xyz
  1  'x, y, z'
loop_
 _atom_site_type_symbol
 _atom_site_label
 _atom_site_symmetry_multiplicity
 _atom_site_fract_x
 _atom_site_fract_y
 _atom_site_fract_z
 _atom_site_occupancy
 _atom_site_charge
  Co  Co1  1  0.500000  0.000000  0.500000  1.0  1.0433
  Co  Co2  1  0.000000  0.500000  0.500000  1.0  1.0433
  Co  Co3  1  0.500000  0.000000  0.000000  1.0  1.0433
  Co  Co4  1  0.000000  0.500000  0.000000  1.0  1.0433
  Co  Co5  1  0.250000  0.750000  0.500000  1.0  0.8787
  Co  Co6  1  0.750000  0.750000  0.000000  1.0  0.8787
  Co  Co7  1  0.750000  0.250000  0.500000  1.0  0.8787
  Co  Co8  1  0.250000  0.250000  0.000000  1.0  0.8787
  H  H9  1  0.249100  0.864300  0.029900  1.0  0.114
  H  H10  1  0.160900  0.813900  0.194500  1.0  0.1134
  H  H11  1  0.214900  0.628300  0.325100  1.0  0.1152
  H  H12  1  0.312200  0.731400  0.137700  1.0  0.1331
  H  H13  1  0.096400  0.950200  0.085200  1.0  0.1278
  H  H14  1  0.268700  0.574600  0.245400  1.0  0.113
  H  H15  1  0.335800  0.670000  0.257400  1.0  0.1307
  H  H16  1  0.749100  0.364300  0.029900  1.0  0.114
  H  H17  1  0.660900  0.313900  0.194500  1.0  0.1134
  H  H18  1  0.714900  0.128300  0.325100  1.0  0.1152
  H  H19  1  0.812200  0.231400  0.137700  1.0  0.1331
  H  H20  1  0.596400  0.450200  0.085200  1.0  0.1278
  H  H21  1  0.768700  0.074600  0.245400  1.0  0.113
  H  H22  1  0.835800  0.170000  0.257400  1.0  0.1307
  H  H23  1  0.750900  0.864300  0.470100  1.0  0.1137
  H  H24  1  0.839100  0.813900  0.305500  1.0  0.1131
  H  H25  1  0.785100  0.628300  0.174900  1.0  0.1158
  H  H26  1  0.687800  0.731400  0.362300  1.0  0.1333
  H  H27  1  0.903600  0.950200  0.414800  1.0  0.1278
  H  H28  1  0.731300  0.574600  0.254600  1.0  0.1129
  H  H29  1  0.664200  0.670000  0.242600  1.0  0.1309
  H  H30  1  0.250900  0.364300  0.470100  1.0  0.1137
  H  H31  1  0.339100  0.313900  0.305500  1.0  0.1131
  H  H32  1  0.285100  0.128300  0.174900  1.0  0.1158
  H  H33  1  0.187800  0.231400  0.362300  1.0  0.1333
  H  H34  1  0.403600  0.450200  0.414800  1.0  0.1278
  H  H35  1  0.231300  0.074600  0.254600  1.0  0.1129
  H  H36  1  0.164200  0.170000  0.242600  1.0  0.1309
  H  H37  1  0.750900  0.135700  0.970100  1.0  0.1138
  H  H38  1  0.839100  0.186100  0.805500  1.0  0.1131
  H  H39  1  0.785100  0.371700  0.674900  1.0  0.1156
  H  H40  1  0.687800  0.268600  0.862300  1.0  0.1333
  H  H41  1  0.903600  0.049800  0.914800  1.0  0.1279
  H  H42  1  0.731300  0.425400  0.754600  1.0  0.1132
  H  H43  1  0.664200  0.330000  0.742600  1.0  0.1314
  H  H44  1  0.250900  0.635700  0.970100  1.0  0.1138
  H  H45  1  0.339100  0.686100  0.805500  1.0  0.1131
  H  H46  1  0.285100  0.871700  0.674900  1.0  0.1156
  H  H47  1  0.187800  0.768600  0.862300  1.0  0.1333
  H  H48  1  0.403600  0.549800  0.914800  1.0  0.1279
  H  H49  1  0.231300  0.925400  0.754600  1.0  0.1132
  H  H50  1  0.164200  0.830000  0.742600  1.0  0.1314
  H  H51  1  0.249100  0.135700  0.529900  1.0  0.114
  H  H52  1  0.160900  0.186100  0.694500  1.0  0.1133
  H  H53  1  0.214900  0.371700  0.825100  1.0  0.1154
  H  H54  1  0.312200  0.268600  0.637700  1.0  0.1334
  H  H55  1  0.096400  0.049800  0.585200  1.0  0.128
  H  H56  1  0.268700  0.425400  0.745400  1.0  0.1136
  H  H57  1  0.335800  0.330000  0.757400  1.0  0.131
  H  H58  1  0.749100  0.635700  0.529900  1.0  0.114
  H  H59  1  0.660900  0.686100  0.694500  1.0  0.1133
  H  H60  1  0.714900  0.871700  0.825100  1.0  0.1154
  H  H61  1  0.812200  0.768600  0.637700  1.0  0.1334
  H  H62  1  0.596400  0.549800  0.585200  1.0  0.128
  H  H63  1  0.768700  0.925400  0.745400  1.0  0.1136
  H  H64  1  0.835800  0.830000  0.757400  1.0  0.131
  C  C65  1  0.243800  0.765200  0.178800  1.0  0.1096
  C  C66  1  0.324600  0.864400  0.423100  1.0  0.0184
  C  C67  1  0.360500  0.937900  0.497800  1.0  0.6786
  C  C68  1  0.231400  0.856000  0.063300  1.0  -0.088
  C  C69  1  0.337700  0.856100  0.362900  1.0  -0.0527
  C  C70  1  0.179400  0.826300  0.161800  1.0  -0.0805
  C  C71  1  0.129400  0.020900  0.979500  1.0  0.7631
  C  C72  1  0.250800  0.702200  0.346500  1.0  0.1714
  C  C73  1  0.167000  0.923900  0.047200  1.0  -0.1037
  C  C74  1  0.385800  0.947100  0.343300  1.0  0.7209
  C  C75  1  0.269200  0.777400  0.127700  1.0  -0.1355
  C  C76  1  0.140300  0.907500  0.095900  1.0  -0.0443
  C  C77  1  0.287600  0.679200  0.250000  1.0  -0.0626
  C  C78  1  0.743800  0.265200  0.178800  1.0  0.1096
  C  C79  1  0.824600  0.364400  0.423100  1.0  0.0184
  C  C80  1  0.860500  0.437900  0.497800  1.0  0.6786
  C  C81  1  0.731400  0.356000  0.063300  1.0  -0.088
  C  C82  1  0.837700  0.356100  0.362900  1.0  -0.0527
  C  C83  1  0.679400  0.326300  0.161800  1.0  -0.0805
  C  C84  1  0.629400  0.520900  0.979500  1.0  0.7631
  C  C85  1  0.750800  0.202200  0.346500  1.0  0.1714
  C  C86  1  0.667000  0.423900  0.047200  1.0  -0.1037
  C  C87  1  0.885800  0.447100  0.343300  1.0  0.7209
  C  C88  1  0.769200  0.277400  0.127700  1.0  -0.1355
  C  C89  1  0.640300  0.407500  0.095900  1.0  -0.0443
  C  C90  1  0.787600  0.179200  0.250000  1.0  -0.0626
  C  C91  1  0.756200  0.765200  0.321200  1.0  0.1089
  C  C92  1  0.675400  0.864400  0.076900  1.0  0.0183
  C  C93  1  0.639500  0.937900  0.002200  1.0  0.6767
  C  C94  1  0.768600  0.856000  0.436700  1.0  -0.0869
  C  C95  1  0.662300  0.856100  0.137100  1.0  -0.0511
  C  C96  1  0.820600  0.826300  0.338200  1.0  -0.0799
  C  C97  1  0.870600  0.020900  0.520500  1.0  0.7621
  C  C98  1  0.749200  0.702200  0.153500  1.0  0.1719
  C  C99  1  0.833000  0.923900  0.452800  1.0  -0.1058
  C  C100  1  0.614200  0.947100  0.156700  1.0  0.7183
  C  C101  1  0.730800  0.777400  0.372300  1.0  -0.1347
  C  C102  1  0.859700  0.907500  0.404100  1.0  -0.0441
  C  C103  1  0.712400  0.679200  0.250000  1.0  -0.0609
  C  C104  1  0.256200  0.265200  0.321200  1.0  0.1089
  C  C105  1  0.175400  0.364400  0.076900  1.0  0.0183
  C  C106  1  0.139500  0.437900  0.002200  1.0  0.6767
  C  C107  1  0.268600  0.356000  0.436700  1.0  -0.0869
  C  C108  1  0.162300  0.356100  0.137100  1.0  -0.0511
  C  C109  1  0.320600  0.326300  0.338200  1.0  -0.0799
  C  C110  1  0.370600  0.520900  0.520500  1.0  0.7621
  C  C111  1  0.249200  0.202200  0.153500  1.0  0.1719
  C  C112  1  0.333000  0.423900  0.452800  1.0  -0.1058
  C  C113  1  0.114200  0.447100  0.156700  1.0  0.7183
  C  C114  1  0.230800  0.277400  0.372300  1.0  -0.1347
  C  C115  1  0.359700  0.407500  0.404100  1.0  -0.0441
  C  C116  1  0.212400  0.179200  0.250000  1.0  -0.0609
  C  C117  1  0.756200  0.234800  0.821200  1.0  0.1083
  C  C118  1  0.675400  0.135600  0.576900  1.0  0.0178
  C  C119  1  0.639500  0.062100  0.502200  1.0  0.6762
  C  C120  1  0.768600  0.144000  0.936700  1.0  -0.0867
  C  C121  1  0.662300  0.143900  0.637100  1.0  -0.0516
  C  C122  1  0.820600  0.173700  0.838200  1.0  -0.0795
  C  C123  1  0.870600  0.979100  0.020500  1.0  0.7615
  C  C124  1  0.749200  0.297800  0.653500  1.0  0.1714
  C  C125  1  0.833000  0.076100  0.952800  1.0  -0.1055
  C  C126  1  0.614200  0.052900  0.656700  1.0  0.7182
  C  C127  1  0.730800  0.222600  0.872300  1.0  -0.1357
  C  C128  1  0.859700  0.092500  0.904100  1.0  -0.0441
  C  C129  1  0.712400  0.320800  0.750000  1.0  -0.0595
  C  C130  1  0.256200  0.734800  0.821200  1.0  0.1083
  C  C131  1  0.175400  0.635600  0.576900  1.0  0.0178
  C  C132  1  0.139500  0.562100  0.502200  1.0  0.6762
  C  C133  1  0.268600  0.644000  0.936700  1.0  -0.0867
  C  C134  1  0.162300  0.643900  0.637100  1.0  -0.0516
  C  C135  1  0.320600  0.673700  0.838200  1.0  -0.0795
  C  C136  1  0.370600  0.479100  0.020500  1.0  0.7615
  C  C137  1  0.249200  0.797800  0.653500  1.0  0.1714
  C  C138  1  0.333000  0.576100  0.952800  1.0  -0.1055
  C  C139  1  0.114200  0.552900  0.656700  1.0  0.7182
  C  C140  1  0.230800  0.722600  0.872300  1.0  -0.1357
  C  C141  1  0.359700  0.592500  0.904100  1.0  -0.0441
  C  C142  1  0.212400  0.820800  0.750000  1.0  -0.0595
  C  C143  1  0.243800  0.234800  0.678800  1.0  0.1091
  C  C144  1  0.324600  0.135600  0.923100  1.0  0.0189
  C  C145  1  0.360500  0.062100  0.997800  1.0  0.6786
  C  C146  1  0.231400  0.144000  0.563300  1.0  -0.088
  C  C147  1  0.337700  0.143900  0.862900  1.0  -0.0525
  C  C148  1  0.179400  0.173700  0.661800  1.0  -0.0804
  C  C149  1  0.129400  0.979100  0.479500  1.0  0.7634
  C  C150  1  0.250800  0.297800  0.846500  1.0  0.1714
  C  C151  1  0.167000  0.076100  0.547200  1.0  -0.1036
  C  C152  1  0.385800  0.052900  0.843300  1.0  0.7207
  C  C153  1  0.269200  0.222600  0.627700  1.0  -0.1355
  C  C154  1  0.140300  0.092500  0.595900  1.0  -0.044
  C  C155  1  0.287600  0.320800  0.750000  1.0  -0.0616
  C  C156  1  0.743800  0.734800  0.678800  1.0  0.1091
  C  C157  1  0.824600  0.635600  0.923100  1.0  0.0189
  C  C158  1  0.860500  0.562100  0.997800  1.0  0.6786
  C  C159  1  0.731400  0.644000  0.563300  1.0  -0.088
  C  C160  1  0.837700  0.643900  0.862900  1.0  -0.0525
  C  C161  1  0.679400  0.673700  0.661800  1.0  -0.0804
  C  C162  1  0.629400  0.479100  0.479500  1.0  0.7634
  C  C163  1  0.750800  0.797800  0.846500  1.0  0.1714
  C  C164  1  0.667000  0.576100  0.547200  1.0  -0.1036
  C  C165  1  0.885800  0.552900  0.843300  1.0  0.7207
  C  C166  1  0.769200  0.722600  0.627700  1.0  -0.1355
  C  C167  1  0.640300  0.592500  0.595900  1.0  -0.044
  C  C168  1  0.787600  0.820800  0.750000  1.0  -0.0616
  N  N169  1  0.289800  0.752600  0.315600  1.0  0.0605
  N  N170  1  0.268900  0.768700  0.410200  1.0  -0.3624
  N  N171  1  0.789800  0.252600  0.315600  1.0  0.0605
  N  N172  1  0.768900  0.268700  0.410200  1.0  -0.3624
  N  N173  1  0.710200  0.752600  0.184400  1.0  0.0602
  N  N174  1  0.731100  0.768700  0.089800  1.0  -0.3635
  N  N175  1  0.210200  0.252600  0.184400  1.0  0.0602
  N  N176  1  0.231100  0.268700  0.089800  1.0  -0.3635
  N  N177  1  0.710200  0.247400  0.684400  1.0  0.0605
  N  N178  1  0.731100  0.231300  0.589800  1.0  -0.3634
  N  N179  1  0.210200  0.747400  0.684400  1.0  0.0605
  N  N180  1  0.231100  0.731300  0.589800  1.0  -0.3634
  N  N181  1  0.289800  0.247400  0.815600  1.0  0.0608
  N  N182  1  0.268900  0.231300  0.910200  1.0  -0.3622
  N  N183  1  0.789800  0.747400  0.815600  1.0  0.0608
  N  N184  1  0.768900  0.731300  0.910200  1.0  -0.3622
  O  O185  1  0.165000  0.077700  0.950300  1.0  -0.6209
  O  O186  1  0.434200  0.029000  0.391000  1.0  -0.6216
  O  O187  1  0.063900  0.039700  0.954500  1.0  -0.5582
  O  O188  1  0.371200  0.948800  0.277700  1.0  -0.4669
  O  O189  1  0.414000  0.020700  0.516700  1.0  -0.5902
  O  O190  1  0.331900  0.915300  0.537800  1.0  -0.5391
  O  O191  1  0.665000  0.577700  0.950300  1.0  -0.6209
  O  O192  1  0.934200  0.529000  0.391000  1.0  -0.6216
  O  O193  1  0.563900  0.539700  0.954500  1.0  -0.5582
  O  O194  1  0.871200  0.448800  0.277700  1.0  -0.4669
  O  O195  1  0.914000  0.520700  0.516700  1.0  -0.5902
  O  O196  1  0.831900  0.415300  0.537800  1.0  -0.5391
  O  O197  1  0.835000  0.077700  0.549700  1.0  -0.6263
  O  O198  1  0.565800  0.029000  0.109000  1.0  -0.6232
  O  O199  1  0.936100  0.039700  0.545500  1.0  -0.5568
  O  O200  1  0.628800  0.948800  0.222300  1.0  -0.4707
  O  O201  1  0.586000  0.020700  0.983300  1.0  -0.5872
  O  O202  1  0.668100  0.915300  0.962200  1.0  -0.539
  O  O203  1  0.335000  0.577700  0.549700  1.0  -0.6263
  O  O204  1  0.065800  0.529000  0.109000  1.0  -0.6232
  O  O205  1  0.436100  0.539700  0.545500  1.0  -0.5568
  O  O206  1  0.128800  0.448800  0.222300  1.0  -0.4707
  O  O207  1  0.086000  0.520700  0.983300  1.0  -0.5872
  O  O208  1  0.168100  0.415300  0.962200  1.0  -0.539
  O  O209  1  0.835000  0.922300  0.049700  1.0  -0.6257
  O  O210  1  0.565800  0.971000  0.609000  1.0  -0.6223
  O  O211  1  0.936100  0.960300  0.045500  1.0  -0.5567
  O  O212  1  0.628800  0.051200  0.722300  1.0  -0.4709
  O  O213  1  0.586000  0.979300  0.483300  1.0  -0.5881
  O  O214  1  0.668100  0.084700  0.462200  1.0  -0.5389
  O  O215  1  0.335000  0.422300  0.049700  1.0  -0.6257
  O  O216  1  0.065800  0.471000  0.609000  1.0  -0.6223
  O  O217  1  0.436100  0.460300  0.045500  1.0  -0.5567
  O  O218  1  0.128800  0.551200  0.722300  1.0  -0.4709
  O  O219  1  0.086000  0.479300  0.483300  1.0  -0.5881
  O  O220  1  0.168100  0.584700  0.462200  1.0  -0.5389
  O  O221  1  0.165000  0.922300  0.450300  1.0  -0.6217
  O  O222  1  0.434200  0.971000  0.891000  1.0  -0.6218
  O  O223  1  0.063900  0.960300  0.454500  1.0  -0.5584
  O  O224  1  0.371200  0.051200  0.777700  1.0  -0.4672
  O  O225  1  0.414000  0.979300  0.016700  1.0  -0.5897
  O  O226  1  0.331900  0.084700  0.037800  1.0  -0.5391
  O  O227  1  0.665000  0.422300  0.450300  1.0  -0.6217
  O  O228  1  0.934200  0.471000  0.891000  1.0  -0.6218
  O  O229  1  0.563900  0.460300  0.454500  1.0  -0.5584
  O  O230  1  0.871200  0.551200  0.777700  1.0  -0.4672
  O  O231  1  0.914000  0.479300  0.016700  1.0  -0.5897
  O  O232  1  0.831900  0.584700  0.037800  1.0  -0.5391
