# generated using pymatgen
data_ZnH24C24SN4O7
_symmetry_space_group_name_H-M   'P 1'
_cell_length_a   9.85610000
_cell_length_b   11.95380000
_cell_length_c   22.84630000
_cell_angle_alpha   90.00000000
_cell_angle_beta   95.50600000
_cell_angle_gamma   90.00000000
_symmetry_Int_Tables_number   1
_chemical_formula_structural   ZnH24C24SN4O7
_chemical_formula_sum   'Zn4 H96 C96 S4 N16 O28'
_cell_volume   2679.28281210
_cell_formula_units_Z   4
loop_
 _symmetry_equiv_pos_site_id
 _symmetry_equiv_pos_as_xyz
  1  'x, y, z'
loop_
 _atom_site_type_symbol
 _atom_site_label
 _atom_site_symmetry_multiplicity
 _atom_site_fract_x
 _atom_site_fract_y
 _atom_site_fract_z
 _atom_site_occupancy
 _atom_site_charge
  Zn  Zn1  1  0.734650  0.219900  0.963340  1.0  0.912
  Zn  Zn2  1  0.234650  0.280100  0.463350  1.0  0.9127
  Zn  Zn3  1  0.765350  0.719900  0.536660  1.0  0.9126
  Zn  Zn4  1  0.265350  0.780100  0.036660  1.0  0.9124
  H  H5  1  0.406000  0.548000  0.742600  1.0  0.2645
  H  H6  1  0.576600  0.988700  0.785500  1.0  0.1239
  H  H7  1  0.591300  0.143200  0.846500  1.0  0.0862
  H  H8  1  0.870800  0.997000  0.955300  1.0  0.0841
  H  H9  1  0.862800  0.838000  0.897100  1.0  0.1181
  H  H10  1  0.749900  0.728400  0.819100  1.0  0.0851
  H  H11  1  0.776800  0.806500  0.764600  1.0  0.1074
  H  H12  1  0.648000  0.728000  0.689600  1.0  0.0978
  H  H13  1  0.636000  0.621900  0.731600  1.0  0.0662
  H  H14  1  0.407500  0.735800  0.672500  1.0  0.122
  H  H15  1  0.463400  0.617100  0.652400  1.0  0.1073
  H  H16  1  0.544500  0.644700  0.825400  1.0  0.0748
  H  H17  1  0.488400  0.764500  0.843300  1.0  0.0966
  H  H18  1  0.307100  0.751800  0.768400  1.0  0.0881
  H  H19  1  0.304800  0.644200  0.810200  1.0  0.1092
  H  H20  1  0.186500  0.527900  0.731700  1.0  0.1212
  H  H21  1  0.175000  0.640200  0.693500  1.0  0.116
  H  H22  1  0.114300  0.609100  0.594900  1.0  0.124
  H  H23  1  0.121600  0.504800  0.509500  1.0  0.0734
  H  H24  1  0.357400  0.376600  0.680400  1.0  0.128
  H  H25  1  0.431800  0.483400  0.080300  1.0  0.1046
  H  H26  1  0.284400  0.234900  0.971100  1.0  0.0813
  H  H27  1  0.024800  0.429800  0.053100  1.0  0.1153
  H  H28  1  0.354800  0.278500  0.593200  1.0  0.0907
  H  H29  1  0.906000  0.952000  0.242600  1.0  0.2676
  H  H30  1  0.076600  0.511300  0.285500  1.0  0.1237
  H  H31  1  0.091300  0.356800  0.346500  1.0  0.086
  H  H32  1  0.370800  0.503000  0.455300  1.0  0.0838
  H  H33  1  0.362800  0.662000  0.397100  1.0  0.1184
  H  H34  1  0.249900  0.771600  0.319100  1.0  0.0847
  H  H35  1  0.276800  0.693500  0.264600  1.0  0.1075
  H  H36  1  0.148000  0.772000  0.189600  1.0  0.0975
  H  H37  1  0.136000  0.878100  0.231600  1.0  0.0661
  H  H38  1  0.907500  0.764200  0.172500  1.0  0.1236
  H  H39  1  0.963400  0.882900  0.152400  1.0  0.1074
  H  H40  1  0.044500  0.855300  0.325400  1.0  0.0741
  H  H41  1  0.988400  0.735500  0.343300  1.0  0.0973
  H  H42  1  0.807100  0.748200  0.268400  1.0  0.0879
  H  H43  1  0.804800  0.855800  0.310200  1.0  0.1065
  H  H44  1  0.686500  0.972100  0.231700  1.0  0.1208
  H  H45  1  0.675000  0.859800  0.193500  1.0  0.1153
  H  H46  1  0.614300  0.890900  0.094900  1.0  0.1237
  H  H47  1  0.621600  0.995200  0.009500  1.0  0.0733
  H  H48  1  0.857400  0.123400  0.180400  1.0  0.1279
  H  H49  1  0.931800  0.016600  0.580300  1.0  0.1045
  H  H50  1  0.784400  0.265100  0.471100  1.0  0.0807
  H  H51  1  0.524800  0.070200  0.553100  1.0  0.1152
  H  H52  1  0.854800  0.221500  0.093200  1.0  0.0913
  H  H53  1  0.094000  0.048000  0.757400  1.0  0.2698
  H  H54  1  0.923400  0.488700  0.714500  1.0  0.1235
  H  H55  1  0.908700  0.643200  0.653500  1.0  0.0857
  H  H56  1  0.629200  0.497000  0.544700  1.0  0.0841
  H  H57  1  0.637200  0.338000  0.602900  1.0  0.1183
  H  H58  1  0.750100  0.228400  0.680900  1.0  0.0842
  H  H59  1  0.723200  0.306500  0.735400  1.0  0.1084
  H  H60  1  0.852000  0.228000  0.810400  1.0  0.0982
  H  H61  1  0.864000  0.121900  0.768400  1.0  0.0663
  H  H62  1  0.092500  0.235800  0.827500  1.0  0.1135
  H  H63  1  0.036600  0.117100  0.847600  1.0  0.1064
  H  H64  1  0.955500  0.144700  0.674600  1.0  0.0747
  H  H65  1  0.011600  0.264500  0.656700  1.0  0.0975
  H  H66  1  0.192900  0.251800  0.731600  1.0  0.0877
  H  H67  1  0.195200  0.144200  0.689800  1.0  0.1141
  H  H68  1  0.313500  0.027900  0.768300  1.0  0.1203
  H  H69  1  0.325000  0.140200  0.806500  1.0  0.1164
  H  H70  1  0.385700  0.109100  0.905100  1.0  0.1237
  H  H71  1  0.378400  0.004800  0.990500  1.0  0.0737
  H  H72  1  0.142600  0.876600  0.819600  1.0  0.1274
  H  H73  1  0.068200  0.983400  0.419700  1.0  0.105
  H  H74  1  0.215600  0.734900  0.528900  1.0  0.082
  H  H75  1  0.475200  0.929800  0.446900  1.0  0.1152
  H  H76  1  0.145200  0.778500  0.906800  1.0  0.0902
  H  H77  1  0.594000  0.452000  0.257400  1.0  0.2705
  H  H78  1  0.423400  0.011300  0.214500  1.0  0.1236
  H  H79  1  0.408700  0.856800  0.153500  1.0  0.086
  H  H80  1  0.129200  0.003000  0.044700  1.0  0.0839
  H  H81  1  0.137200  0.162000  0.102900  1.0  0.1187
  H  H82  1  0.250100  0.271600  0.180900  1.0  0.0851
  H  H83  1  0.223200  0.193500  0.235400  1.0  0.1084
  H  H84  1  0.352000  0.272000  0.310400  1.0  0.0983
  H  H85  1  0.364000  0.378100  0.268400  1.0  0.0665
  H  H86  1  0.592500  0.264200  0.327500  1.0  0.1257
  H  H87  1  0.536600  0.382900  0.347600  1.0  0.106
  H  H88  1  0.455500  0.355300  0.174600  1.0  0.0763
  H  H89  1  0.511600  0.235500  0.156700  1.0  0.0975
  H  H90  1  0.692900  0.248200  0.231600  1.0  0.0884
  H  H91  1  0.695200  0.355800  0.189800  1.0  0.1144
  H  H92  1  0.813500  0.472100  0.268300  1.0  0.1204
  H  H93  1  0.825000  0.359800  0.306500  1.0  0.1163
  H  H94  1  0.885700  0.390900  0.405100  1.0  0.1231
  H  H95  1  0.878400  0.495200  0.490500  1.0  0.0738
  H  H96  1  0.642600  0.623400  0.319600  1.0  0.1275
  H  H97  1  0.568200  0.516600  0.919700  1.0  0.1044
  H  H98  1  0.715600  0.765100  0.028900  1.0  0.0814
  H  H99  1  0.975200  0.570200  0.946900  1.0  0.1153
  H  H100  1  0.645200  0.721500  0.406800  1.0  0.0908
  C  C101  1  0.637400  0.987900  0.820400  1.0  -0.2075
  C  C102  1  0.646700  0.080000  0.857110  1.0  0.1647
  C  C103  1  0.809500  0.995000  0.920590  1.0  0.1772
  C  C104  1  0.805300  0.899800  0.885910  1.0  -0.2297
  C  C105  1  0.716900  0.894600  0.834630  1.0  0.1411
  C  C106  1  0.714800  0.793600  0.795550  1.0  -0.0216
  C  C107  1  0.590800  0.692200  0.717610  1.0  -0.0036
  C  C108  1  0.453300  0.665900  0.686770  1.0  -0.118
  C  C109  1  0.497600  0.713300  0.809850  1.0  -0.0107
  C  C110  1  0.357000  0.682900  0.781280  1.0  -0.1197
  C  C111  1  0.231200  0.572600  0.702570  1.0  -0.1182
  C  C112  1  0.235900  0.504800  0.647280  1.0  0.1051
  C  C113  1  0.165200  0.541500  0.595650  1.0  -0.2049
  C  C114  1  0.169700  0.478200  0.544790  1.0  0.1888
  C  C115  1  0.307700  0.404700  0.645860  1.0  -0.2362
  C  C116  1  0.224800  0.468300  0.072580  1.0  -0.2288
  C  C117  1  0.357200  0.442400  0.061690  1.0  -0.0013
  C  C118  1  0.379600  0.355300  0.022940  1.0  -0.1422
  C  C119  1  0.523900  0.325800  0.012260  1.0  0.6539
  C  C120  1  0.269200  0.295000  0.996840  1.0  -0.0183
  C  C121  1  0.137400  0.321700  0.008020  1.0  -0.1394
  C  C122  1  0.016900  0.253200  0.982500  1.0  0.6595
  C  C123  1  0.115000  0.410000  0.045820  1.0  -0.0048
  C  C124  1  0.305700  0.346800  0.593590  1.0  0.1866
  C  C125  1  0.137400  0.512100  0.320400  1.0  -0.2076
  C  C126  1  0.146700  0.420000  0.357110  1.0  0.1642
  C  C127  1  0.309500  0.505000  0.420590  1.0  0.1769
  C  C128  1  0.305300  0.600200  0.385910  1.0  -0.2295
  C  C129  1  0.216900  0.605400  0.334630  1.0  0.141
  C  C130  1  0.214800  0.706400  0.295550  1.0  -0.0205
  C  C131  1  0.090800  0.807800  0.217610  1.0  -0.004
  C  C132  1  0.953300  0.834100  0.186770  1.0  -0.1176
  C  C133  1  0.997600  0.786700  0.309850  1.0  -0.0108
  C  C134  1  0.857000  0.817100  0.281280  1.0  -0.1194
  C  C135  1  0.731200  0.927400  0.202570  1.0  -0.1188
  C  C136  1  0.735900  0.995200  0.147280  1.0  0.1048
  C  C137  1  0.665200  0.958500  0.095650  1.0  -0.2044
  C  C138  1  0.669700  0.021800  0.044790  1.0  0.1886
  C  C139  1  0.807700  0.095300  0.145860  1.0  -0.2363
  C  C140  1  0.724800  0.031700  0.572580  1.0  -0.2282
  C  C141  1  0.857200  0.057600  0.561690  1.0  -0.0011
  C  C142  1  0.879600  0.144700  0.522940  1.0  -0.1422
  C  C143  1  0.023900  0.174200  0.512260  1.0  0.6539
  C  C144  1  0.769200  0.205000  0.496840  1.0  -0.0186
  C  C145  1  0.637400  0.178300  0.508020  1.0  -0.1395
  C  C146  1  0.516900  0.246800  0.482500  1.0  0.6601
  C  C147  1  0.615000  0.090000  0.545820  1.0  -0.0041
  C  C148  1  0.805700  0.153200  0.093590  1.0  0.1865
  C  C149  1  0.862600  0.487900  0.679600  1.0  -0.2091
  C  C150  1  0.853300  0.580000  0.642890  1.0  0.1645
  C  C151  1  0.690500  0.495000  0.579410  1.0  0.1776
  C  C152  1  0.694700  0.399800  0.614090  1.0  -0.2289
  C  C153  1  0.783100  0.394600  0.665370  1.0  0.1401
  C  C154  1  0.785200  0.293600  0.704450  1.0  -0.0227
  C  C155  1  0.909200  0.192200  0.782390  1.0  -0.0052
  C  C156  1  0.046700  0.165900  0.813230  1.0  -0.1182
  C  C157  1  0.002400  0.213300  0.690150  1.0  -0.0074
  C  C158  1  0.143000  0.182900  0.718720  1.0  -0.1186
  C  C159  1  0.268800  0.072600  0.797430  1.0  -0.1118
  C  C160  1  0.264100  0.004800  0.852720  1.0  0.1054
  C  C161  1  0.334800  0.041500  0.904350  1.0  -0.2073
  C  C162  1  0.330300  0.978200  0.955210  1.0  0.1883
  C  C163  1  0.192300  0.904700  0.854140  1.0  -0.2343
  C  C164  1  0.275200  0.968300  0.427420  1.0  -0.2282
  C  C165  1  0.142800  0.942400  0.438310  1.0  -0.0022
  C  C166  1  0.120400  0.855300  0.477060  1.0  -0.1413
  C  C167  1  0.976100  0.825800  0.487740  1.0  0.6533
  C  C168  1  0.230800  0.795000  0.503160  1.0  -0.0183
  C  C169  1  0.362600  0.821700  0.491980  1.0  -0.1388
  C  C170  1  0.483100  0.753200  0.517500  1.0  0.6596
  C  C171  1  0.385000  0.910000  0.454180  1.0  -0.004
  C  C172  1  0.194300  0.846800  0.906410  1.0  0.1866
  C  C173  1  0.362600  0.012100  0.179600  1.0  -0.2093
  C  C174  1  0.353300  0.920000  0.142890  1.0  0.164
  C  C175  1  0.190500  0.005000  0.079410  1.0  0.1773
  C  C176  1  0.194700  0.100200  0.114090  1.0  -0.2285
  C  C177  1  0.283100  0.105400  0.165370  1.0  0.1402
  C  C178  1  0.285200  0.206400  0.204450  1.0  -0.0209
  C  C179  1  0.409200  0.307800  0.282390  1.0  -0.0045
  C  C180  1  0.546700  0.334100  0.313230  1.0  -0.1182
  C  C181  1  0.502400  0.286700  0.190150  1.0  -0.0083
  C  C182  1  0.643000  0.317100  0.218720  1.0  -0.1187
  C  C183  1  0.768800  0.427400  0.297430  1.0  -0.1127
  C  C184  1  0.764100  0.495200  0.352720  1.0  0.1051
  C  C185  1  0.834800  0.458500  0.404350  1.0  -0.2067
  C  C186  1  0.830300  0.521800  0.455210  1.0  0.1883
  C  C187  1  0.692300  0.595300  0.354140  1.0  -0.2349
  C  C188  1  0.775200  0.531700  0.927420  1.0  -0.2276
  C  C189  1  0.642800  0.557600  0.938310  1.0  -0.0021
  C  C190  1  0.620400  0.644700  0.977060  1.0  -0.1415
  C  C191  1  0.476100  0.674200  0.987740  1.0  0.6535
  C  C192  1  0.730800  0.705000  0.003160  1.0  -0.018
  C  C193  1  0.862600  0.678300  0.991980  1.0  -0.1389
  C  C194  1  0.983100  0.746800  0.017500  1.0  0.6601
  C  C195  1  0.885000  0.590000  0.954180  1.0  -0.0036
  C  C196  1  0.694300  0.653200  0.406410  1.0  0.1864
  S  S197  1  0.194250  0.569610  0.126730  1.0  1.3583
  S  S198  1  0.694250  0.930390  0.626730  1.0  1.3584
  S  S199  1  0.305750  0.069610  0.373270  1.0  1.3585
  S  S200  1  0.805750  0.430390  0.873270  1.0  1.3584
  N  N201  1  0.730100  0.084600  0.907000  1.0  -0.3372
  N  N202  1  0.579200  0.767100  0.767700  1.0  -0.304
  N  N203  1  0.369400  0.607800  0.729070  1.0  0.0868
  N  N204  1  0.237400  0.382600  0.542930  1.0  -0.3201
  N  N205  1  0.230100  0.415400  0.407000  1.0  -0.337
  N  N206  1  0.079200  0.732900  0.267700  1.0  -0.3047
  N  N207  1  0.869400  0.892200  0.229070  1.0  0.0861
  N  N208  1  0.737400  0.117400  0.042930  1.0  -0.3188
  N  N209  1  0.769900  0.584600  0.593000  1.0  -0.3369
  N  N210  1  0.920800  0.267100  0.732300  1.0  -0.3045
  N  N211  1  0.130600  0.107800  0.770930  1.0  0.0859
  N  N212  1  0.262600  0.882600  0.957070  1.0  -0.3185
  N  N213  1  0.269900  0.915400  0.093000  1.0  -0.337
  N  N214  1  0.420800  0.232900  0.232300  1.0  -0.3052
  N  N215  1  0.630600  0.392200  0.270930  1.0  0.0853
  N  N216  1  0.762600  0.617400  0.457070  1.0  -0.3186
  O  O217  1  0.901400  0.293280  0.993190  1.0  -0.5991
  O  O218  1  0.036500  0.165950  0.956030  1.0  -0.5936
  O  O219  1  0.538400  0.261130  0.967910  1.0  -0.623
  O  O220  1  0.620200  0.362810  0.044920  1.0  -0.578
  O  O221  1  0.278900  0.667210  0.116180  1.0  -0.7012
  O  O222  1  0.049500  0.591980  0.120910  1.0  -0.6513
  O  O223  1  0.240700  0.516650  0.182810  1.0  -0.7142
  O  O224  1  0.401400  0.206720  0.493190  1.0  -0.5989
  O  O225  1  0.536500  0.334050  0.456030  1.0  -0.595
  O  O226  1  0.038400  0.238870  0.467910  1.0  -0.6228
  O  O227  1  0.120200  0.137190  0.544920  1.0  -0.5777
  O  O228  1  0.778900  0.832790  0.616180  1.0  -0.7019
  O  O229  1  0.549500  0.908020  0.620910  1.0  -0.6518
  O  O230  1  0.740700  0.983350  0.682810  1.0  -0.7143
  O  O231  1  0.598600  0.793280  0.506810  1.0  -0.599
  O  O232  1  0.463500  0.665950  0.543970  1.0  -0.5943
  O  O233  1  0.961600  0.761130  0.532090  1.0  -0.6234
  O  O234  1  0.879800  0.862810  0.455080  1.0  -0.5786
  O  O235  1  0.221100  0.167210  0.383820  1.0  -0.701
  O  O236  1  0.450500  0.091980  0.379090  1.0  -0.6526
  O  O237  1  0.259300  0.016650  0.317190  1.0  -0.7139
  O  O238  1  0.098600  0.706720  0.006810  1.0  -0.599
  O  O239  1  0.963500  0.834050  0.043970  1.0  -0.5956
  O  O240  1  0.461600  0.738870  0.032090  1.0  -0.623
  O  O241  1  0.379800  0.637190  0.955080  1.0  -0.5788
  O  O242  1  0.721100  0.332790  0.883820  1.0  -0.7016
  O  O243  1  0.950500  0.408020  0.879090  1.0  -0.6522
  O  O244  1  0.759300  0.483350  0.817190  1.0  -0.7136
