# generated using pymatgen
data_Cu2P2H7C7NO7
_symmetry_space_group_name_H-M   'P 1'
_cell_length_a   10.74100000
_cell_length_b   11.10900000
_cell_length_c   11.93300000
_cell_angle_alpha   77.67800000
_cell_angle_beta   84.65000000
_cell_angle_gamma   75.99000000
_symmetry_Int_Tables_number   1
_chemical_formula_structural   Cu2P2H7C7NO7
_chemical_formula_sum   'Cu8 P8 H28 C28 N4 O28'
_cell_volume   1348.38781784
_cell_formula_units_Z   4
loop_
 _symmetry_equiv_pos_site_id
 _symmetry_equiv_pos_as_xyz
  1  'x, y, z'
loop_
 _atom_site_type_symbol
 _atom_site_label
 _atom_site_symmetry_multiplicity
 _atom_site_fract_x
 _atom_site_fract_y
 _atom_site_fract_z
 _atom_site_occupancy
 _atom_site_charge
  Cu  Cu1  1  0.546150  0.006920  0.802340  1.0  1.069
  Cu  Cu2  1  0.478070  0.756650  0.934130  1.0  1.1351
  Cu  Cu3  1  0.490410  0.582510  0.668540  1.0  0.9965
  Cu  Cu4  1  0.030200  0.215680  0.065980  1.0  0.5023
  Cu  Cu5  1  0.453850  0.993080  0.197660  1.0  1.0707
  Cu  Cu6  1  0.521930  0.243350  0.065870  1.0  1.1376
  Cu  Cu7  1  0.509590  0.417490  0.331460  1.0  0.9961
  Cu  Cu8  1  0.969800  0.784320  0.934020  1.0  0.5206
  P  P9  1  0.424000  0.870200  0.663900  1.0  1.425
  P  P10  1  0.246900  0.725100  0.808500  1.0  1.4262
  P  P11  1  0.487600  0.303000  0.803800  1.0  1.4965
  P  P12  1  0.312800  0.151800  0.943900  1.0  1.479
  P  P13  1  0.576000  0.129800  0.336100  1.0  1.4247
  P  P14  1  0.753100  0.274900  0.191500  1.0  1.4265
  P  P15  1  0.512400  0.697000  0.196200  1.0  1.4967
  P  P16  1  0.687200  0.848200  0.056100  1.0  1.4815
  H  H17  1  0.132500  0.970300  0.792700  1.0  0.3972
  H  H18  1  0.197700  0.380700  0.923700  1.0  0.3716
  H  H19  1  0.086400  0.896100  0.621000  1.0  0.108
  H  H20  1  0.200600  0.799600  0.574900  1.0  0.1409
  H  H21  1  0.316200  0.867200  0.404500  1.0  0.0893
  H  H22  1  0.253100  0.216900  0.240400  1.0  0.0809
  H  H23  1  0.115700  0.281300  0.382100  1.0  0.121
  H  H24  1  0.078900  0.132900  0.547500  1.0  0.1223
  H  H25  1  0.163800  0.267100  0.748900  1.0  0.1278
  H  H26  1  0.295500  0.193800  0.703100  1.0  0.1383
  H  H27  1  0.082500  0.499600  0.655300  1.0  0.136
  H  H28  1  0.088000  0.645000  0.485000  1.0  0.1025
  H  H29  1  0.259400  0.616900  0.355700  1.0  0.1056
  H  H30  1  0.408400  0.288700  0.545200  1.0  0.0887
  H  H31  1  0.867500  0.029700  0.207300  1.0  0.3848
  H  H32  1  0.802300  0.619300  0.076300  1.0  0.3667
  H  H33  1  0.913600  0.103900  0.379000  1.0  0.1076
  H  H34  1  0.799400  0.200400  0.425100  1.0  0.1369
  H  H35  1  0.683800  0.132800  0.595500  1.0  0.0897
  H  H36  1  0.746900  0.783100  0.759600  1.0  0.0818
  H  H37  1  0.884300  0.718700  0.617900  1.0  0.121
  H  H38  1  0.921100  0.867100  0.452500  1.0  0.1237
  H  H39  1  0.836200  0.732900  0.251100  1.0  0.1259
  H  H40  1  0.704500  0.806200  0.296900  1.0  0.1341
  H  H41  1  0.917500  0.500400  0.344700  1.0  0.1368
  H  H42  1  0.912000  0.355000  0.515000  1.0  0.1004
  H  H43  1  0.740600  0.383100  0.644300  1.0  0.1068
  H  H44  1  0.591600  0.711300  0.454800  1.0  0.0887
  C  C45  1  0.254800  0.873700  0.703700  1.0  -0.3793
  C  C46  1  0.176900  0.881300  0.597600  1.0  -0.1918
  C  C47  1  0.194500  0.982200  0.493000  1.0  0.017
  C  C48  1  0.275100  0.951800  0.401300  1.0  0.1544
  C  C49  1  0.238000  0.156800  0.304300  1.0  0.1733
  C  C50  1  0.156500  0.196200  0.388800  1.0  -0.1493
  C  C51  1  0.133700  0.107500  0.487500  1.0  -0.0151
  C  C52  1  0.318200  0.291100  0.827400  1.0  -0.392
  C  C53  1  0.251100  0.273300  0.724400  1.0  -0.1348
  C  C54  1  0.247000  0.377700  0.619600  1.0  0.0541
  C  C55  1  0.149700  0.485800  0.601000  1.0  -0.0218
  C  C56  1  0.154400  0.573200  0.500100  1.0  -0.1359
  C  C57  1  0.256200  0.555400  0.421700  1.0  0.1499
  C  C58  1  0.344600  0.363000  0.534700  1.0  0.1312
  C  C59  1  0.745200  0.126300  0.296300  1.0  -0.3787
  C  C60  1  0.823100  0.118700  0.402400  1.0  -0.2148
  C  C61  1  0.805500  0.017800  0.507000  1.0  0.017
  C  C62  1  0.724900  0.048200  0.598700  1.0  0.1556
  C  C63  1  0.762000  0.843200  0.695700  1.0  0.176
  C  C64  1  0.843500  0.803800  0.611200  1.0  -0.1495
  C  C65  1  0.866300  0.892500  0.512500  1.0  -0.0152
  C  C66  1  0.681800  0.708900  0.172600  1.0  -0.3922
  C  C67  1  0.748900  0.726700  0.275600  1.0  -0.1388
  C  C68  1  0.753000  0.622300  0.380400  1.0  0.0545
  C  C69  1  0.850300  0.514200  0.399000  1.0  -0.0215
  C  C70  1  0.845600  0.426800  0.499900  1.0  -0.1374
  C  C71  1  0.743800  0.444600  0.578300  1.0  0.1489
  C  C72  1  0.655400  0.637000  0.465300  1.0  0.1312
  N  N73  1  0.298200  0.036200  0.307500  1.0  -0.3457
  N  N74  1  0.351900  0.449300  0.439200  1.0  -0.3439
  N  N75  1  0.701800  0.963800  0.692500  1.0  -0.3413
  N  N76  1  0.648100  0.550700  0.560800  1.0  -0.3427
  O  O77  1  0.489100  0.854600  0.777700  1.0  -0.8245
  O  O78  1  0.472700  0.760100  0.605900  1.0  -0.7621
  O  O79  1  0.437000  0.997000  0.590700  1.0  -0.6269
  O  O80  1  0.319400  0.615400  0.752500  1.0  -0.7805
  O  O81  1  0.306500  0.734000  0.916800  1.0  -0.7553
  O  O82  1  0.107000  0.721100  0.829700  1.0  -0.7769
  O  O83  1  0.198700  0.981400  0.756200  1.0  -0.4478
  O  O84  1  0.499200  0.405000  0.700200  1.0  -0.7718
  O  O85  1  0.568800  0.174500  0.785900  1.0  -0.8274
  O  O86  1  0.522100  0.337900  0.912300  1.0  -0.7738
  O  O87  1  0.380000  0.037300  0.891900  1.0  -0.7919
  O  O88  1  0.173200  0.149200  0.973300  1.0  -0.7642
  O  O89  1  0.380100  0.165100  0.046300  1.0  -0.8845
  O  O90  1  0.244900  0.402300  0.868900  1.0  -0.438
  O  O91  1  0.510900  0.145400  0.222300  1.0  -0.8229
  O  O92  1  0.527300  0.239900  0.394100  1.0  -0.7628
  O  O93  1  0.563000  0.003000  0.409300  1.0  -0.6272
  O  O94  1  0.680600  0.384600  0.247500  1.0  -0.7781
  O  O95  1  0.693500  0.266000  0.083200  1.0  -0.7553
  O  O96  1  0.893000  0.278900  0.170300  1.0  -0.7581
  O  O97  1  0.801300  0.018600  0.243800  1.0  -0.4464
  O  O98  1  0.500800  0.595000  0.299800  1.0  -0.7709
  O  O99  1  0.431200  0.825500  0.214100  1.0  -0.827
  O  O100  1  0.477900  0.662100  0.087700  1.0  -0.7746
  O  O101  1  0.620000  0.962700  0.108100  1.0  -0.791
  O  O102  1  0.826800  0.850800  0.026700  1.0  -0.7779
  O  O103  1  0.619900  0.834900  0.953700  1.0  -0.8841
  O  O104  1  0.755100  0.597700  0.131100  1.0  -0.4386
