# generated using pymatgen
data_NaYbH16(C14O5)2
_symmetry_space_group_name_H-M   'P 1'
_cell_length_a   7.17820000
_cell_length_b   15.44410000
_cell_length_c   15.44410000
_cell_angle_alpha   119.44800000
_cell_angle_beta   90.00000000
_cell_angle_gamma   90.00000000
_symmetry_Int_Tables_number   1
_chemical_formula_structural   NaYbH16(C14O5)2
_chemical_formula_sum   'Na2 Yb2 H32 C56 O20'
_cell_volume   1490.94047731
_cell_formula_units_Z   2
loop_
 _symmetry_equiv_pos_site_id
 _symmetry_equiv_pos_as_xyz
  1  'x, y, z'
loop_
 _atom_site_type_symbol
 _atom_site_label
 _atom_site_symmetry_multiplicity
 _atom_site_fract_x
 _atom_site_fract_y
 _atom_site_fract_z
 _atom_site_occupancy
 _atom_site_charge
  Na  Na1  1  0.774800  0.679500  0.679500  1.0  1.5339
  Na  Na2  1  0.274800  0.320500  0.320500  1.0  1.5261
  Yb  Yb3  1  0.768600  0.366400  0.366400  1.0  1.0447
  Yb  Yb4  1  0.268600  0.633600  0.633600  1.0  1.0172
  H  H5  1  0.813800  0.310700  0.024300  1.0  0.1006
  H  H6  1  0.291700  0.305300  0.110700  1.0  0.0993
  H  H7  1  0.704100  0.301300  0.880300  1.0  0.1298
  H  H8  1  0.168800  0.299200  0.966400  1.0  0.1449
  H  H9  1  0.457300  0.194300  0.635100  1.0  0.1465
  H  H10  1  0.424500  0.472700  0.890900  1.0  0.1399
  H  H11  1  0.538200  0.276300  0.549300  1.0  0.096
  H  H12  1  0.517600  0.542300  0.791700  1.0  0.0969
  H  H13  1  0.313800  0.689300  0.975700  1.0  0.1004
  H  H14  1  0.791700  0.694700  0.889300  1.0  0.0982
  H  H15  1  0.204100  0.698700  0.119700  1.0  0.1303
  H  H16  1  0.668800  0.700800  0.033600  1.0  0.1447
  H  H17  1  0.957300  0.805700  0.364900  1.0  0.1417
  H  H18  1  0.924500  0.527300  0.109100  1.0  0.14
  H  H19  1  0.038200  0.723700  0.450700  1.0  0.0958
  H  H20  1  0.017600  0.457700  0.208300  1.0  0.0971
  H  H21  1  0.313800  0.975700  0.689300  1.0  0.101
  H  H22  1  0.791700  0.889300  0.694700  1.0  0.0996
  H  H23  1  0.204100  0.119700  0.698700  1.0  0.1296
  H  H24  1  0.668800  0.033600  0.700800  1.0  0.1462
  H  H25  1  0.957300  0.364900  0.805700  1.0  0.1418
  H  H26  1  0.924500  0.109100  0.527300  1.0  0.1412
  H  H27  1  0.038200  0.450700  0.723700  1.0  0.0959
  H  H28  1  0.017600  0.208300  0.457700  1.0  0.0977
  H  H29  1  0.813800  0.024300  0.310700  1.0  0.1006
  H  H30  1  0.291700  0.110700  0.305300  1.0  0.0992
  H  H31  1  0.704100  0.880300  0.301300  1.0  0.1298
  H  H32  1  0.168800  0.966400  0.299200  1.0  0.1462
  H  H33  1  0.457300  0.635100  0.194300  1.0  0.1429
  H  H34  1  0.424500  0.890900  0.472700  1.0  0.1401
  H  H35  1  0.538200  0.549300  0.276300  1.0  0.0962
  H  H36  1  0.517600  0.791700  0.542300  1.0  0.0968
  C  C37  1  0.633900  0.318700  0.176700  1.0  0.608
  C  C38  1  0.566300  0.313200  0.087400  1.0  -0.1498
  C  C39  1  0.685900  0.309100  0.014100  1.0  0.0123
  C  C40  1  0.374000  0.306400  0.064800  1.0  0.0076
  C  C41  1  0.621000  0.303000  0.927400  1.0  -0.2385
  C  C42  1  0.296000  0.301300  0.978100  1.0  -0.2235
  C  C43  1  0.432000  0.299500  0.911700  1.0  0.2848
  C  C44  1  0.446000  0.325200  0.768800  1.0  0.251
  C  C45  1  0.470900  0.262900  0.666500  1.0  -0.2002
  C  C46  1  0.452000  0.434300  0.823500  1.0  -0.2067
  C  C47  1  0.517000  0.312700  0.617500  1.0  0.0282
  C  C48  1  0.504000  0.473700  0.763300  1.0  0.022
  C  C49  1  0.535000  0.415800  0.664800  1.0  -0.183
  C  C50  1  0.590700  0.463900  0.600900  1.0  0.6917
  C  C51  1  0.133900  0.681300  0.823300  1.0  0.6061
  C  C52  1  0.066300  0.686800  0.912600  1.0  -0.1502
  C  C53  1  0.185900  0.690900  0.985900  1.0  0.0116
  C  C54  1  0.874000  0.693600  0.935200  1.0  0.0016
  C  C55  1  0.121000  0.697000  0.072600  1.0  -0.2402
  C  C56  1  0.796000  0.698700  0.021900  1.0  -0.2225
  C  C57  1  0.932000  0.700500  0.088300  1.0  0.2834
  C  C58  1  0.946000  0.674800  0.231200  1.0  0.2485
  C  C59  1  0.970900  0.737100  0.333500  1.0  -0.2008
  C  C60  1  0.952000  0.565700  0.176500  1.0  -0.2059
  C  C61  1  0.017000  0.687300  0.382500  1.0  0.0282
  C  C62  1  0.004000  0.526300  0.236700  1.0  0.0229
  C  C63  1  0.035000  0.584200  0.335200  1.0  -0.1831
  C  C64  1  0.090700  0.536100  0.399100  1.0  0.6922
  C  C65  1  0.133900  0.823300  0.681300  1.0  0.6077
  C  C66  1  0.066300  0.912600  0.686800  1.0  -0.1492
  C  C67  1  0.185900  0.985900  0.690900  1.0  0.0139
  C  C68  1  0.874000  0.935200  0.693600  1.0  0.0068
  C  C69  1  0.121000  0.072600  0.697000  1.0  -0.2391
  C  C70  1  0.796000  0.021900  0.698700  1.0  -0.2244
  C  C71  1  0.932000  0.088300  0.700500  1.0  0.2837
  C  C72  1  0.946000  0.231200  0.674800  1.0  0.2501
  C  C73  1  0.970900  0.333500  0.737100  1.0  -0.1981
  C  C74  1  0.952000  0.176500  0.565700  1.0  -0.2111
  C  C75  1  0.017000  0.382500  0.687300  1.0  0.0253
  C  C76  1  0.004000  0.236700  0.526300  1.0  0.0231
  C  C77  1  0.035000  0.335200  0.584200  1.0  -0.183
  C  C78  1  0.090700  0.399100  0.536100  1.0  0.6921
  C  C79  1  0.633900  0.176700  0.318700  1.0  0.6102
  C  C80  1  0.566300  0.087400  0.313200  1.0  -0.1493
  C  C81  1  0.685900  0.014100  0.309100  1.0  0.0121
  C  C82  1  0.374000  0.064800  0.306400  1.0  0.0081
  C  C83  1  0.621000  0.927400  0.303000  1.0  -0.24
  C  C84  1  0.296000  0.978100  0.301300  1.0  -0.2222
  C  C85  1  0.432000  0.911700  0.299500  1.0  0.2827
  C  C86  1  0.446000  0.768800  0.325200  1.0  0.2481
  C  C87  1  0.470900  0.666500  0.262900  1.0  -0.1982
  C  C88  1  0.452000  0.823500  0.434300  1.0  -0.2114
  C  C89  1  0.517000  0.617500  0.312700  1.0  0.0235
  C  C90  1  0.504000  0.763300  0.473700  1.0  0.0227
  C  C91  1  0.535000  0.664800  0.415800  1.0  -0.1837
  C  C92  1  0.590700  0.600900  0.463900  1.0  0.6907
  O  O93  1  0.775000  0.312000  0.191400  1.0  -0.6139
  O  O94  1  0.529200  0.334100  0.247700  1.0  -0.7585
  O  O95  1  0.351800  0.279300  0.818500  1.0  -0.2728
  O  O96  1  0.668600  0.413500  0.520900  1.0  -0.6286
  O  O97  1  0.546200  0.560600  0.640600  1.0  -0.6525
  O  O98  1  0.275000  0.688000  0.808600  1.0  -0.6146
  O  O99  1  0.029200  0.665900  0.752300  1.0  -0.7584
  O  O100  1  0.851800  0.720700  0.181500  1.0  -0.2722
  O  O101  1  0.168600  0.586500  0.479100  1.0  -0.628
  O  O102  1  0.046200  0.439400  0.359400  1.0  -0.6528
  O  O103  1  0.275000  0.808600  0.688000  1.0  -0.6144
  O  O104  1  0.029200  0.752300  0.665900  1.0  -0.7575
  O  O105  1  0.851800  0.181500  0.720700  1.0  -0.2732
  O  O106  1  0.168600  0.479100  0.586500  1.0  -0.6286
  O  O107  1  0.046200  0.359400  0.439400  1.0  -0.6586
  O  O108  1  0.775000  0.191400  0.312000  1.0  -0.6141
  O  O109  1  0.529200  0.247700  0.334100  1.0  -0.7573
  O  O110  1  0.351800  0.818500  0.279300  1.0  -0.2728
  O  O111  1  0.668600  0.520900  0.413500  1.0  -0.6286
  O  O112  1  0.546200  0.640600  0.560600  1.0  -0.658
