# generated using pymatgen
data_Cr2CoH32C36N4O3
_symmetry_space_group_name_H-M   'P 1'
_cell_length_a   24.32260000
_cell_length_b   18.46170000
_cell_length_c   8.87680000
_cell_angle_alpha   90.00000000
_cell_angle_beta   108.49300000
_cell_angle_gamma   90.00000000
_symmetry_Int_Tables_number   1
_chemical_formula_structural   Cr2CoH32C36N4O3
_chemical_formula_sum   'Cr8 Co4 H128 C144 N16 O12'
_cell_volume   3780.17978821
_cell_formula_units_Z   4
loop_
 _symmetry_equiv_pos_site_id
 _symmetry_equiv_pos_as_xyz
  1  'x, y, z'
loop_
 _atom_site_type_symbol
 _atom_site_label
 _atom_site_symmetry_multiplicity
 _atom_site_fract_x
 _atom_site_fract_y
 _atom_site_fract_z
 _atom_site_occupancy
 _atom_site_charge
  Cr  Cr1  1  0.556560  0.794040  0.416600  1.0  0.8377
  Cr  Cr2  1  0.056560  0.294040  0.416600  1.0  0.8377
  Cr  Cr3  1  0.443440  0.794040  0.083400  1.0  0.8311
  Cr  Cr4  1  0.943440  0.294040  0.083400  1.0  0.8311
  Cr  Cr5  1  0.443440  0.205960  0.583400  1.0  0.8304
  Cr  Cr6  1  0.943440  0.705960  0.583400  1.0  0.8304
  Cr  Cr7  1  0.556560  0.205960  0.916600  1.0  0.8366
  Cr  Cr8  1  0.056560  0.705960  0.916600  1.0  0.8366
  Co  Co9  1  0.500000  0.783120  0.750000  1.0  0.7119
  Co  Co10  1  0.000000  0.283120  0.750000  1.0  0.7119
  Co  Co11  1  0.500000  0.216880  0.250000  1.0  0.7121
  Co  Co12  1  0.000000  0.716880  0.250000  1.0  0.7121
  H  H13  1  0.427510  0.652450  0.807590  1.0  0.0824
  H  H14  1  0.438280  0.737760  0.412420  1.0  0.0854
  H  H15  1  0.350400  0.580500  0.667180  1.0  0.1215
  H  H16  1  0.364400  0.664600  0.261900  1.0  0.1039
  H  H17  1  0.326750  0.478250  0.457810  1.0  0.1139
  H  H18  1  0.171350  0.582780  0.072260  1.0  0.1098
  H  H19  1  0.253250  0.713400  0.308790  1.0  0.1218
  H  H20  1  0.203530  0.699590  0.143170  1.0  0.1131
  H  H21  1  0.269960  0.703470  0.149550  1.0  0.107
  H  H22  1  0.215040  0.360440  0.337430  1.0  0.1105
  H  H23  1  0.283710  0.365270  0.420750  1.0  0.1196
  H  H24  1  0.257720  0.349660  0.234180  1.0  0.1058
  H  H25  1  0.088280  0.491840  0.137310  1.0  0.1271
  H  H26  1  0.202050  0.383060  0.971330  1.0  0.0914
  H  H27  1  0.013950  0.420490  0.967620  1.0  0.0727
  H  H28  1  0.127000  0.318710  0.806620  1.0  0.0832
  H  H29  1  0.927510  0.152450  0.807590  1.0  0.0824
  H  H30  1  0.938280  0.237760  0.412420  1.0  0.0854
  H  H31  1  0.850400  0.080500  0.667180  1.0  0.1215
  H  H32  1  0.864400  0.164600  0.261900  1.0  0.1039
  H  H33  1  0.826750  0.978250  0.457810  1.0  0.1139
  H  H34  1  0.671350  0.082780  0.072260  1.0  0.1098
  H  H35  1  0.753250  0.213400  0.308790  1.0  0.1218
  H  H36  1  0.703530  0.199590  0.143170  1.0  0.1131
  H  H37  1  0.769960  0.203470  0.149550  1.0  0.107
  H  H38  1  0.715040  0.860440  0.337430  1.0  0.1105
  H  H39  1  0.783710  0.865270  0.420750  1.0  0.1196
  H  H40  1  0.757720  0.849660  0.234180  1.0  0.1058
  H  H41  1  0.588280  0.991840  0.137310  1.0  0.1271
  H  H42  1  0.702050  0.883060  0.971330  1.0  0.0914
  H  H43  1  0.513950  0.920490  0.967620  1.0  0.0727
  H  H44  1  0.627000  0.818710  0.806620  1.0  0.0832
  H  H45  1  0.572490  0.652450  0.692410  1.0  0.0827
  H  H46  1  0.561720  0.737760  0.087580  1.0  0.0857
  H  H47  1  0.649600  0.580500  0.832820  1.0  0.1214
  H  H48  1  0.635600  0.664600  0.238100  1.0  0.1039
  H  H49  1  0.673250  0.478250  0.042190  1.0  0.1126
  H  H50  1  0.828650  0.582780  0.427740  1.0  0.1102
  H  H51  1  0.746750  0.713400  0.191210  1.0  0.1221
  H  H52  1  0.796470  0.699590  0.356830  1.0  0.1127
  H  H53  1  0.730040  0.703470  0.350450  1.0  0.1074
  H  H54  1  0.784960  0.360440  0.162570  1.0  0.1117
  H  H55  1  0.716290  0.365270  0.079250  1.0  0.1167
  H  H56  1  0.742280  0.349660  0.265820  1.0  0.1065
  H  H57  1  0.911720  0.491840  0.362690  1.0  0.1266
  H  H58  1  0.797950  0.383060  0.528670  1.0  0.0914
  H  H59  1  0.986050  0.420490  0.532380  1.0  0.0726
  H  H60  1  0.873000  0.318710  0.693380  1.0  0.0836
  H  H61  1  0.072490  0.152450  0.692410  1.0  0.0827
  H  H62  1  0.061720  0.237760  0.087580  1.0  0.0857
  H  H63  1  0.149600  0.080500  0.832820  1.0  0.1214
  H  H64  1  0.135600  0.164600  0.238100  1.0  0.1039
  H  H65  1  0.173250  0.978250  0.042190  1.0  0.1126
  H  H66  1  0.328650  0.082780  0.427740  1.0  0.1102
  H  H67  1  0.246750  0.213400  0.191210  1.0  0.1221
  H  H68  1  0.296470  0.199590  0.356830  1.0  0.1127
  H  H69  1  0.230040  0.203470  0.350450  1.0  0.1074
  H  H70  1  0.284960  0.860440  0.162570  1.0  0.1117
  H  H71  1  0.216290  0.865270  0.079250  1.0  0.1167
  H  H72  1  0.242280  0.849660  0.265820  1.0  0.1065
  H  H73  1  0.411720  0.991840  0.362690  1.0  0.1266
  H  H74  1  0.297950  0.883060  0.528670  1.0  0.0914
  H  H75  1  0.486050  0.920490  0.532380  1.0  0.0726
  H  H76  1  0.373000  0.818710  0.693380  1.0  0.0836
  H  H77  1  0.572490  0.347550  0.192410  1.0  0.0829
  H  H78  1  0.561720  0.262240  0.587580  1.0  0.086
  H  H79  1  0.649600  0.419500  0.332820  1.0  0.1216
  H  H80  1  0.635600  0.335400  0.738100  1.0  0.1039
  H  H81  1  0.673250  0.521750  0.542190  1.0  0.113
  H  H82  1  0.828650  0.417220  0.927740  1.0  0.1106
  H  H83  1  0.746750  0.286600  0.691210  1.0  0.1222
  H  H84  1  0.796470  0.300410  0.856830  1.0  0.1133
  H  H85  1  0.730040  0.296530  0.850450  1.0  0.1072
  H  H86  1  0.784960  0.639560  0.662570  1.0  0.1119
  H  H87  1  0.716290  0.634730  0.579250  1.0  0.1164
  H  H88  1  0.742280  0.650340  0.765820  1.0  0.106
  H  H89  1  0.911720  0.508160  0.862690  1.0  0.1268
  H  H90  1  0.797950  0.616940  0.028670  1.0  0.0916
  H  H91  1  0.986050  0.579510  0.032380  1.0  0.0726
  H  H92  1  0.873000  0.681290  0.193380  1.0  0.0831
  H  H93  1  0.072490  0.847550  0.192410  1.0  0.0829
  H  H94  1  0.061720  0.762240  0.587580  1.0  0.086
  H  H95  1  0.149600  0.919500  0.332820  1.0  0.1216
  H  H96  1  0.135600  0.835400  0.738100  1.0  0.1039
  H  H97  1  0.173250  0.021750  0.542190  1.0  0.113
  H  H98  1  0.328650  0.917220  0.927740  1.0  0.1106
  H  H99  1  0.246750  0.786600  0.691210  1.0  0.1222
  H  H100  1  0.296470  0.800410  0.856830  1.0  0.1133
  H  H101  1  0.230040  0.796530  0.850450  1.0  0.1072
  H  H102  1  0.284960  0.139560  0.662570  1.0  0.1119
  H  H103  1  0.216290  0.134730  0.579250  1.0  0.1164
  H  H104  1  0.242280  0.150340  0.765820  1.0  0.106
  H  H105  1  0.411720  0.008160  0.862690  1.0  0.1268
  H  H106  1  0.297950  0.116940  0.028670  1.0  0.0916
  H  H107  1  0.486050  0.079510  0.032380  1.0  0.0726
  H  H108  1  0.373000  0.181290  0.193380  1.0  0.0831
  H  H109  1  0.427510  0.347550  0.307590  1.0  0.0826
  H  H110  1  0.438280  0.262240  0.912420  1.0  0.0857
  H  H111  1  0.350400  0.419500  0.167180  1.0  0.1212
  H  H112  1  0.364400  0.335400  0.761900  1.0  0.1039
  H  H113  1  0.326750  0.521750  0.957810  1.0  0.1137
  H  H114  1  0.171350  0.417220  0.572260  1.0  0.1096
  H  H115  1  0.253250  0.286600  0.808790  1.0  0.1221
  H  H116  1  0.203530  0.300410  0.643170  1.0  0.1133
  H  H117  1  0.269960  0.296530  0.649550  1.0  0.1071
  H  H118  1  0.215040  0.639560  0.837430  1.0  0.1101
  H  H119  1  0.283710  0.634730  0.920750  1.0  0.1191
  H  H120  1  0.257720  0.650340  0.734180  1.0  0.1057
  H  H121  1  0.088280  0.508160  0.637310  1.0  0.1275
  H  H122  1  0.202050  0.616940  0.471330  1.0  0.0914
  H  H123  1  0.013950  0.579510  0.467620  1.0  0.0729
  H  H124  1  0.127000  0.681290  0.306620  1.0  0.0833
  H  H125  1  0.927510  0.847550  0.307590  1.0  0.0826
  H  H126  1  0.938280  0.762240  0.912420  1.0  0.0857
  H  H127  1  0.850400  0.919500  0.167180  1.0  0.1212
  H  H128  1  0.864400  0.835400  0.761900  1.0  0.1039
  H  H129  1  0.826750  0.021750  0.957810  1.0  0.1137
  H  H130  1  0.671350  0.917220  0.572260  1.0  0.1096
  H  H131  1  0.753250  0.786600  0.808790  1.0  0.1221
  H  H132  1  0.703530  0.800410  0.643170  1.0  0.1133
  H  H133  1  0.769960  0.796530  0.649550  1.0  0.1071
  H  H134  1  0.715040  0.139560  0.837430  1.0  0.1101
  H  H135  1  0.783710  0.134730  0.920750  1.0  0.1191
  H  H136  1  0.757720  0.150340  0.734180  1.0  0.1057
  H  H137  1  0.588280  0.008160  0.637310  1.0  0.1275
  H  H138  1  0.702050  0.116940  0.471330  1.0  0.0914
  H  H139  1  0.513950  0.079510  0.467620  1.0  0.0729
  H  H140  1  0.627000  0.181290  0.306620  1.0  0.0833
  C  C141  1  0.413700  0.656000  0.695000  1.0  0.1689
  C  C142  1  0.420200  0.705100  0.464900  1.0  0.1598
  C  C143  1  0.367700  0.612900  0.612300  1.0  -0.2037
  C  C144  1  0.375400  0.662500  0.374500  1.0  -0.1866
  C  C145  1  0.346700  0.617500  0.445000  1.0  0.0819
  C  C146  1  0.295900  0.574200  0.350000  1.0  -0.0304
  C  C147  1  0.295100  0.499400  0.377600  1.0  -0.116
  C  C148  1  0.249300  0.606000  0.235800  1.0  0.0089
  C  C149  1  0.249700  0.454900  0.291600  1.0  0.0728
  C  C150  1  0.203600  0.561500  0.150000  1.0  -0.1361
  C  C151  1  0.243500  0.688000  0.206700  1.0  -0.357
  C  C152  1  0.203600  0.487500  0.174200  1.0  -0.0192
  C  C153  1  0.251700  0.375800  0.323700  1.0  -0.4053
  C  C154  1  0.154700  0.444000  0.074400  1.0  0.0587
  C  C155  1  0.097100  0.455800  0.072000  1.0  -0.1936
  C  C156  1  0.163800  0.391900  0.973400  1.0  -0.2253
  C  C157  1  0.052700  0.412500  0.969500  1.0  0.1724
  C  C158  1  0.118900  0.353000  0.876600  1.0  0.1559
  C  C159  1  0.913700  0.156000  0.695000  1.0  0.1689
  C  C160  1  0.920200  0.205100  0.464900  1.0  0.1598
  C  C161  1  0.867700  0.112900  0.612300  1.0  -0.2037
  C  C162  1  0.875400  0.162500  0.374500  1.0  -0.1866
  C  C163  1  0.846700  0.117500  0.445000  1.0  0.0819
  C  C164  1  0.795900  0.074200  0.350000  1.0  -0.0304
  C  C165  1  0.795100  0.999400  0.377600  1.0  -0.116
  C  C166  1  0.749300  0.106000  0.235800  1.0  0.0089
  C  C167  1  0.749700  0.954900  0.291600  1.0  0.0728
  C  C168  1  0.703600  0.061500  0.150000  1.0  -0.1361
  C  C169  1  0.743500  0.188000  0.206700  1.0  -0.357
  C  C170  1  0.703600  0.987500  0.174200  1.0  -0.0192
  C  C171  1  0.751700  0.875800  0.323700  1.0  -0.4053
  C  C172  1  0.654700  0.944000  0.074400  1.0  0.0587
  C  C173  1  0.597100  0.955800  0.072000  1.0  -0.1936
  C  C174  1  0.663800  0.891900  0.973400  1.0  -0.2253
  C  C175  1  0.552700  0.912500  0.969500  1.0  0.1724
  C  C176  1  0.618900  0.853000  0.876600  1.0  0.1559
  C  C177  1  0.586300  0.656000  0.805000  1.0  0.1679
  C  C178  1  0.579800  0.705100  0.035100  1.0  0.1598
  C  C179  1  0.632300  0.612900  0.887700  1.0  -0.2048
  C  C180  1  0.624600  0.662500  0.125500  1.0  -0.1891
  C  C181  1  0.653300  0.617500  0.055000  1.0  0.0826
  C  C182  1  0.704100  0.574200  0.150000  1.0  -0.0313
  C  C183  1  0.704900  0.499400  0.122400  1.0  -0.1164
  C  C184  1  0.750700  0.606000  0.264200  1.0  0.0085
  C  C185  1  0.750300  0.454900  0.208400  1.0  0.0729
  C  C186  1  0.796400  0.561500  0.350000  1.0  -0.136
  C  C187  1  0.756500  0.688000  0.293300  1.0  -0.3568
  C  C188  1  0.796400  0.487500  0.325800  1.0  -0.0184
  C  C189  1  0.748300  0.375800  0.176300  1.0  -0.405
  C  C190  1  0.845300  0.444000  0.425600  1.0  0.0598
  C  C191  1  0.902900  0.455800  0.428000  1.0  -0.1934
  C  C192  1  0.836200  0.391900  0.526600  1.0  -0.2241
  C  C193  1  0.947300  0.412500  0.530500  1.0  0.1728
  C  C194  1  0.881100  0.353000  0.623400  1.0  0.1558
  C  C195  1  0.086300  0.156000  0.805000  1.0  0.1679
  C  C196  1  0.079800  0.205100  0.035100  1.0  0.1598
  C  C197  1  0.132300  0.112900  0.887700  1.0  -0.2048
  C  C198  1  0.124600  0.162500  0.125500  1.0  -0.1891
  C  C199  1  0.153300  0.117500  0.055000  1.0  0.0826
  C  C200  1  0.204100  0.074200  0.150000  1.0  -0.0313
  C  C201  1  0.204900  0.999400  0.122400  1.0  -0.1164
  C  C202  1  0.250700  0.106000  0.264200  1.0  0.0085
  C  C203  1  0.250300  0.954900  0.208400  1.0  0.0729
  C  C204  1  0.296400  0.061500  0.350000  1.0  -0.136
  C  C205  1  0.256500  0.188000  0.293300  1.0  -0.3568
  C  C206  1  0.296400  0.987500  0.325800  1.0  -0.0184
  C  C207  1  0.248300  0.875800  0.176300  1.0  -0.405
  C  C208  1  0.345300  0.944000  0.425600  1.0  0.0598
  C  C209  1  0.402900  0.955800  0.428000  1.0  -0.1934
  C  C210  1  0.336200  0.891900  0.526600  1.0  -0.2241
  C  C211  1  0.447300  0.912500  0.530500  1.0  0.1728
  C  C212  1  0.381100  0.853000  0.623400  1.0  0.1558
  C  C213  1  0.586300  0.344000  0.305000  1.0  0.1692
  C  C214  1  0.579800  0.294900  0.535100  1.0  0.1596
  C  C215  1  0.632300  0.387100  0.387700  1.0  -0.2034
  C  C216  1  0.624600  0.337500  0.625500  1.0  -0.1895
  C  C217  1  0.653300  0.382500  0.555000  1.0  0.0827
  C  C218  1  0.704100  0.425800  0.650000  1.0  -0.0304
  C  C219  1  0.704900  0.500600  0.622400  1.0  -0.1166
  C  C220  1  0.750700  0.394000  0.764200  1.0  0.0085
  C  C221  1  0.750300  0.545100  0.708400  1.0  0.0729
  C  C222  1  0.796400  0.438500  0.850000  1.0  -0.1354
  C  C223  1  0.756500  0.312000  0.793300  1.0  -0.3578
  C  C224  1  0.796400  0.512500  0.825800  1.0  -0.0185
  C  C225  1  0.748300  0.624200  0.676300  1.0  -0.4045
  C  C226  1  0.845300  0.556000  0.925600  1.0  0.0597
  C  C227  1  0.902900  0.544200  0.928000  1.0  -0.1935
  C  C228  1  0.836200  0.608100  0.026600  1.0  -0.2244
  C  C229  1  0.947300  0.587500  0.030500  1.0  0.1726
  C  C230  1  0.881100  0.647000  0.123400  1.0  0.1553
  C  C231  1  0.086300  0.844000  0.305000  1.0  0.1692
  C  C232  1  0.079800  0.794900  0.535100  1.0  0.1596
  C  C233  1  0.132300  0.887100  0.387700  1.0  -0.2034
  C  C234  1  0.124600  0.837500  0.625500  1.0  -0.1895
  C  C235  1  0.153300  0.882500  0.555000  1.0  0.0827
  C  C236  1  0.204100  0.925800  0.650000  1.0  -0.0304
  C  C237  1  0.204900  0.000600  0.622400  1.0  -0.1166
  C  C238  1  0.250700  0.894000  0.764200  1.0  0.0085
  C  C239  1  0.250300  0.045100  0.708400  1.0  0.0729
  C  C240  1  0.296400  0.938500  0.850000  1.0  -0.1354
  C  C241  1  0.256500  0.812000  0.793300  1.0  -0.3578
  C  C242  1  0.296400  0.012500  0.825800  1.0  -0.0185
  C  C243  1  0.248300  0.124200  0.676300  1.0  -0.4045
  C  C244  1  0.345300  0.056000  0.925600  1.0  0.0597
  C  C245  1  0.402900  0.044200  0.928000  1.0  -0.1935
  C  C246  1  0.336200  0.108100  0.026600  1.0  -0.2244
  C  C247  1  0.447300  0.087500  0.030500  1.0  0.1726
  C  C248  1  0.381100  0.147000  0.123400  1.0  0.1553
  C  C249  1  0.413700  0.344000  0.195000  1.0  0.1691
  C  C250  1  0.420200  0.294900  0.964900  1.0  0.1593
  C  C251  1  0.367700  0.387100  0.112300  1.0  -0.2036
  C  C252  1  0.375400  0.337500  0.874500  1.0  -0.187
  C  C253  1  0.346700  0.382500  0.945000  1.0  0.0826
  C  C254  1  0.295900  0.425800  0.850000  1.0  -0.0299
  C  C255  1  0.295100  0.500600  0.877600  1.0  -0.1166
  C  C256  1  0.249300  0.394000  0.735800  1.0  0.0091
  C  C257  1  0.249700  0.545100  0.791600  1.0  0.0728
  C  C258  1  0.203600  0.438500  0.650000  1.0  -0.1358
  C  C259  1  0.243500  0.312000  0.706700  1.0  -0.3581
  C  C260  1  0.203600  0.512500  0.674200  1.0  -0.0193
  C  C261  1  0.251700  0.624200  0.823700  1.0  -0.405
  C  C262  1  0.154700  0.556000  0.574400  1.0  0.0584
  C  C263  1  0.097100  0.544200  0.572000  1.0  -0.1934
  C  C264  1  0.163800  0.608100  0.473400  1.0  -0.2253
  C  C265  1  0.052700  0.587500  0.469500  1.0  0.1727
  C  C266  1  0.118900  0.647000  0.376600  1.0  0.1557
  C  C267  1  0.913700  0.844000  0.195000  1.0  0.1691
  C  C268  1  0.920200  0.794900  0.964900  1.0  0.1593
  C  C269  1  0.867700  0.887100  0.112300  1.0  -0.2036
  C  C270  1  0.875400  0.837500  0.874500  1.0  -0.187
  C  C271  1  0.846700  0.882500  0.945000  1.0  0.0826
  C  C272  1  0.795900  0.925800  0.850000  1.0  -0.0299
  C  C273  1  0.795100  0.000600  0.877600  1.0  -0.1166
  C  C274  1  0.749300  0.894000  0.735800  1.0  0.0091
  C  C275  1  0.749700  0.045100  0.791600  1.0  0.0728
  C  C276  1  0.703600  0.938500  0.650000  1.0  -0.1358
  C  C277  1  0.743500  0.812000  0.706700  1.0  -0.3581
  C  C278  1  0.703600  0.012500  0.674200  1.0  -0.0193
  C  C279  1  0.751700  0.124200  0.823700  1.0  -0.405
  C  C280  1  0.654700  0.056000  0.574400  1.0  0.0584
  C  C281  1  0.597100  0.044200  0.572000  1.0  -0.1934
  C  C282  1  0.663800  0.108100  0.473400  1.0  -0.2253
  C  C283  1  0.552700  0.087500  0.469500  1.0  0.1727
  C  C284  1  0.618900  0.147000  0.376600  1.0  0.1557
  N  N285  1  0.439400  0.702200  0.624400  1.0  -0.3146
  N  N286  1  0.562600  0.860700  0.874700  1.0  -0.3381
  N  N287  1  0.939400  0.202200  0.624400  1.0  -0.3146
  N  N288  1  0.062600  0.360700  0.874700  1.0  -0.3381
  N  N289  1  0.560600  0.702200  0.875600  1.0  -0.3164
  N  N290  1  0.437400  0.860700  0.625300  1.0  -0.3369
  N  N291  1  0.060600  0.202200  0.875600  1.0  -0.3164
  N  N292  1  0.937400  0.360700  0.625300  1.0  -0.3369
  N  N293  1  0.560600  0.297800  0.375600  1.0  -0.3165
  N  N294  1  0.437400  0.139300  0.125300  1.0  -0.3369
  N  N295  1  0.060600  0.797800  0.375600  1.0  -0.3165
  N  N296  1  0.937400  0.639300  0.125300  1.0  -0.3369
  N  N297  1  0.439400  0.297800  0.124400  1.0  -0.3147
  N  N298  1  0.562600  0.139300  0.374700  1.0  -0.3384
  N  N299  1  0.939400  0.797800  0.124400  1.0  -0.3147
  N  N300  1  0.062600  0.639300  0.374700  1.0  -0.3384
  O  O301  1  0.463900  0.783500  0.929100  1.0  -0.7795
  O  O302  1  0.963900  0.283500  0.929100  1.0  -0.7795
  O  O303  1  0.536100  0.783500  0.570900  1.0  -0.7786
  O  O304  1  0.036100  0.283500  0.570900  1.0  -0.7786
  O  O305  1  0.500000  0.762500  0.250000  1.0  -0.8643
  O  O306  1  0.000000  0.262500  0.250000  1.0  -0.8643
  O  O307  1  0.536100  0.216500  0.070900  1.0  -0.7786
  O  O308  1  0.036100  0.716500  0.070900  1.0  -0.7786
  O  O309  1  0.463900  0.216500  0.429100  1.0  -0.7793
  O  O310  1  0.963900  0.716500  0.429100  1.0  -0.7793
  O  O311  1  0.500000  0.237500  0.750000  1.0  -0.8651
  O  O312  1  0.000000  0.737500  0.750000  1.0  -0.8651
