# generated using pymatgen
data_Cr2CoH40C40N4O3
_symmetry_space_group_name_H-M   'P 1'
_cell_length_a   9.10910000
_cell_length_b   15.23240000
_cell_length_c   15.58700000
_cell_angle_alpha   102.77100000
_cell_angle_beta   95.33500000
_cell_angle_gamma   104.33000000
_symmetry_Int_Tables_number   1
_chemical_formula_structural   Cr2CoH40C40N4O3
_chemical_formula_sum   'Cr4 Co2 H80 C80 N8 O6'
_cell_volume   2018.50298436
_cell_formula_units_Z   2
loop_
 _symmetry_equiv_pos_site_id
 _symmetry_equiv_pos_as_xyz
  1  'x, y, z'
loop_
 _atom_site_type_symbol
 _atom_site_label
 _atom_site_symmetry_multiplicity
 _atom_site_fract_x
 _atom_site_fract_y
 _atom_site_fract_z
 _atom_site_occupancy
 _atom_site_charge
  Cr  Cr1  1  0.174410  0.348020  0.304950  1.0  0.7843
  Cr  Cr2  1  0.859970  0.176280  0.282510  1.0  0.7882
  Cr  Cr3  1  0.825590  0.651980  0.695050  1.0  0.7816
  Cr  Cr4  1  0.140030  0.823720  0.717490  1.0  0.7895
  Co  Co5  1  0.508050  0.253740  0.283670  1.0  0.8499
  Co  Co6  1  0.491950  0.746260  0.716330  1.0  0.8492
  H  H7  1  0.483700  0.435400  0.235700  1.0  0.0733
  H  H8  1  0.630900  0.579800  0.229800  1.0  0.1006
  H  H9  1  0.994700  0.528200  0.356900  1.0  0.1266
  H  H10  1  0.831700  0.386700  0.364200  1.0  0.0734
  H  H11  1  0.868700  0.663800  0.448900  1.0  0.1096
  H  H12  1  0.916900  0.774800  0.490000  1.0  0.1115
  H  H13  1  0.043000  0.718200  0.491900  1.0  0.1276
  H  H14  1  0.219900  0.949700  0.438600  1.0  0.1232
  H  H15  1  0.163000  0.875800  0.495500  1.0  0.1055
  H  H16  1  0.050300  0.931900  0.463500  1.0  0.0977
  H  H17  1  0.972800  0.761800  0.069300  1.0  0.1101
  H  H18  1  0.143900  0.753200  0.087600  1.0  0.112
  H  H19  1  0.110100  0.852900  0.117500  1.0  0.1119
  H  H20  1  0.898800  0.541200  0.135500  1.0  0.1177
  H  H21  1  0.954700  0.613000  0.076400  1.0  0.1009
  H  H22  1  0.785900  0.596600  0.102300  1.0  0.1186
  H  H23  1  0.042000  0.006500  0.310900  1.0  0.0938
  H  H24  1  0.197100  0.152100  0.315200  1.0  0.0791
  H  H25  1  0.380600  0.896400  0.233800  1.0  0.0933
  H  H26  1  0.520400  0.043200  0.232000  1.0  0.0664
  H  H27  1  0.470100  0.383700  0.456300  1.0  0.0787
  H  H28  1  0.456400  0.387500  0.603700  1.0  0.1124
  H  H29  1  0.606600  0.157700  0.569500  1.0  0.1108
  H  H30  1  0.610800  0.157700  0.423000  1.0  0.0846
  H  H31  1  0.313600  0.060600  0.628300  1.0  0.114
  H  H32  1  0.290900  0.141400  0.582400  1.0  0.1034
  H  H33  1  0.180500  0.109600  0.650500  1.0  0.0921
  H  H34  1  0.167500  0.117700  0.818400  1.0  0.1158
  H  H35  1  0.301500  0.096000  0.877100  1.0  0.1102
  H  H36  1  0.259000  0.047600  0.772500  1.0  0.113
  H  H37  1  0.695500  0.468300  0.754600  1.0  0.1183
  H  H38  1  0.755600  0.391600  0.690600  1.0  0.1109
  H  H39  1  0.822800  0.426000  0.794700  1.0  0.1015
  H  H40  1  0.795200  0.412400  0.932100  1.0  0.1127
  H  H41  1  0.657900  0.396000  0.988900  1.0  0.1047
  H  H42  1  0.668700  0.468400  0.927900  1.0  0.1176
  H  H43  1  0.294700  0.299600  0.989400  1.0  0.0966
  H  H44  1  0.295200  0.287700  0.133000  1.0  0.0917
  H  H45  1  0.647700  0.184900  0.973800  1.0  0.1192
  H  H46  1  0.643000  0.179400  0.121000  1.0  0.0828
  H  H47  1  0.516300  0.564600  0.764300  1.0  0.0736
  H  H48  1  0.369100  0.420200  0.770200  1.0  0.1012
  H  H49  1  0.005300  0.471800  0.643100  1.0  0.1259
  H  H50  1  0.168300  0.613300  0.635800  1.0  0.0731
  H  H51  1  0.131300  0.336200  0.551100  1.0  0.1094
  H  H52  1  0.083100  0.225200  0.510000  1.0  0.112
  H  H53  1  0.957000  0.281800  0.508100  1.0  0.1256
  H  H54  1  0.780100  0.050300  0.561400  1.0  0.1234
  H  H55  1  0.837000  0.124200  0.504500  1.0  0.1059
  H  H56  1  0.949700  0.068100  0.536500  1.0  0.0991
  H  H57  1  0.027200  0.238200  0.930700  1.0  0.1099
  H  H58  1  0.856100  0.246800  0.912400  1.0  0.1125
  H  H59  1  0.889900  0.147100  0.882500  1.0  0.112
  H  H60  1  0.101200  0.458800  0.864500  1.0  0.1199
  H  H61  1  0.045300  0.387000  0.923600  1.0  0.0988
  H  H62  1  0.214100  0.403400  0.897700  1.0  0.1201
  H  H63  1  0.958000  0.993500  0.689100  1.0  0.0939
  H  H64  1  0.802900  0.847900  0.684800  1.0  0.079
  H  H65  1  0.619400  0.103600  0.766200  1.0  0.0927
  H  H66  1  0.479600  0.956800  0.768000  1.0  0.067
  H  H67  1  0.529900  0.616300  0.543700  1.0  0.0786
  H  H68  1  0.543600  0.612500  0.396300  1.0  0.1124
  H  H69  1  0.393400  0.842300  0.430500  1.0  0.1114
  H  H70  1  0.389200  0.842300  0.577000  1.0  0.0842
  H  H71  1  0.686400  0.939400  0.371700  1.0  0.1136
  H  H72  1  0.709100  0.858600  0.417600  1.0  0.1039
  H  H73  1  0.819500  0.890400  0.349500  1.0  0.0938
  H  H74  1  0.832500  0.882300  0.181600  1.0  0.1179
  H  H75  1  0.698500  0.904000  0.122900  1.0  0.1103
  H  H76  1  0.741000  0.952400  0.227500  1.0  0.1123
  H  H77  1  0.304500  0.531700  0.245400  1.0  0.119
  H  H78  1  0.244400  0.608400  0.309400  1.0  0.1116
  H  H79  1  0.177200  0.574000  0.205300  1.0  0.1019
  H  H80  1  0.204800  0.587600  0.067900  1.0  0.1118
  H  H81  1  0.342100  0.604000  0.011100  1.0  0.1054
  H  H82  1  0.331300  0.531600  0.072100  1.0  0.1169
  H  H83  1  0.705300  0.700400  0.010600  1.0  0.0971
  H  H84  1  0.704800  0.712300  0.867000  1.0  0.0925
  H  H85  1  0.352300  0.815100  0.026200  1.0  0.1197
  H  H86  1  0.357000  0.820600  0.879000  1.0  0.0824
  C  C87  1  0.589100  0.454400  0.260800  1.0  0.1602
  C  C88  1  0.676400  0.541100  0.257400  1.0  -0.2391
  C  C89  1  0.830400  0.572100  0.294100  1.0  0.0813
  C  C90  1  0.889200  0.511600  0.332400  1.0  -0.2153
  C  C91  1  0.790900  0.425600  0.334400  1.0  0.1715
  C  C92  1  0.927200  0.665300  0.290600  1.0  -0.1215
  C  C93  1  0.984200  0.737100  0.368100  1.0  0.045
  C  C94  1  0.072400  0.825400  0.362200  1.0  0.0333
  C  C95  1  0.098900  0.839300  0.279500  1.0  -0.1346
  C  C96  1  0.041600  0.767400  0.201700  1.0  0.0414
  C  C97  1  0.953700  0.679300  0.206800  1.0  0.0504
  C  C98  1  0.950200  0.722200  0.457500  1.0  -0.3612
  C  C99  1  0.131700  0.902500  0.447500  1.0  -0.3587
  C  C100  1  0.069600  0.785500  0.110800  1.0  -0.3367
  C  C101  1  0.892900  0.600600  0.122800  1.0  -0.3604
  C  C102  1  0.192900  0.932800  0.275100  1.0  0.1
  C  C103  1  0.142200  0.012000  0.296200  1.0  -0.1937
  C  C104  1  0.234000  0.099000  0.296400  1.0  0.164
  C  C105  1  0.338600  0.947700  0.250300  1.0  -0.2239
  C  C106  1  0.421700  0.035900  0.249300  1.0  0.1762
  C  C107  1  0.496100  0.335700  0.479200  1.0  0.1668
  C  C108  1  0.486900  0.338300  0.567600  1.0  -0.2237
  C  C109  1  0.521600  0.270200  0.603600  1.0  0.0909
  C  C110  1  0.573800  0.204100  0.547200  1.0  -0.1936
  C  C111  1  0.578200  0.205300  0.460000  1.0  0.1568
  C  C112  1  0.505900  0.266000  0.696700  1.0  -0.081
  C  C113  1  0.394100  0.191900  0.712800  1.0  0.0606
  C  C114  1  0.383000  0.186000  0.800600  1.0  0.0278
  C  C115  1  0.479900  0.254500  0.871300  1.0  -0.0749
  C  C116  1  0.589600  0.330400  0.855000  1.0  0.0262
  C  C117  1  0.605700  0.334600  0.767900  1.0  0.0214
  C  C118  1  0.285300  0.119600  0.636900  1.0  -0.3706
  C  C119  1  0.267600  0.104600  0.818700  1.0  -0.3665
  C  C120  1  0.731000  0.412000  0.750400  1.0  -0.3806
  C  C121  1  0.686500  0.408800  0.932900  1.0  -0.3805
  C  C122  1  0.473900  0.246300  0.964500  1.0  0.082
  C  C123  1  0.369100  0.275000  0.015100  1.0  -0.2078
  C  C124  1  0.370600  0.268700  0.101000  1.0  0.1654
  C  C125  1  0.575800  0.208500  0.005600  1.0  -0.2286
  C  C126  1  0.572100  0.205300  0.093800  1.0  0.1645
  C  C127  1  0.410900  0.545600  0.739200  1.0  0.1582
  C  C128  1  0.323600  0.458900  0.742600  1.0  -0.2384
  C  C129  1  0.169600  0.427900  0.705900  1.0  0.0814
  C  C130  1  0.110800  0.488400  0.667600  1.0  -0.2129
  C  C131  1  0.209100  0.574400  0.665600  1.0  0.1715
  C  C132  1  0.072800  0.334700  0.709400  1.0  -0.1217
  C  C133  1  0.015800  0.262900  0.631900  1.0  0.0431
  C  C134  1  0.927600  0.174600  0.637800  1.0  0.0325
  C  C135  1  0.901100  0.160700  0.720500  1.0  -0.1352
  C  C136  1  0.958400  0.232600  0.798300  1.0  0.0426
  C  C137  1  0.046300  0.320700  0.793200  1.0  0.0504
  C  C138  1  0.049800  0.277800  0.542500  1.0  -0.3641
  C  C139  1  0.868300  0.097500  0.552500  1.0  -0.3576
  C  C140  1  0.930400  0.214500  0.889200  1.0  -0.3347
  C  C141  1  0.107100  0.399400  0.877200  1.0  -0.3598
  C  C142  1  0.807100  0.067200  0.724900  1.0  0.1002
  C  C143  1  0.857800  0.988000  0.703800  1.0  -0.192
  C  C144  1  0.766000  0.901000  0.703600  1.0  0.165
  C  C145  1  0.661400  0.052300  0.749700  1.0  -0.2236
  C  C146  1  0.578300  0.964100  0.750700  1.0  0.1777
  C  C147  1  0.503900  0.664300  0.520800  1.0  0.1672
  C  C148  1  0.513100  0.661700  0.432400  1.0  -0.2225
  C  C149  1  0.478400  0.729800  0.396400  1.0  0.0908
  C  C150  1  0.426200  0.795900  0.452800  1.0  -0.1942
  C  C151  1  0.421800  0.794700  0.540000  1.0  0.1578
  C  C152  1  0.494100  0.734000  0.303300  1.0  -0.0819
  C  C153  1  0.605900  0.808100  0.287200  1.0  0.0611
  C  C154  1  0.617000  0.814000  0.199400  1.0  0.0282
  C  C155  1  0.520100  0.745500  0.128700  1.0  -0.0739
  C  C156  1  0.410400  0.669600  0.145000  1.0  0.026
  C  C157  1  0.394300  0.665400  0.232100  1.0  0.0212
  C  C158  1  0.714700  0.880400  0.363100  1.0  -0.3697
  C  C159  1  0.732400  0.895400  0.181300  1.0  -0.3651
  C  C160  1  0.269000  0.588000  0.249600  1.0  -0.3798
  C  C161  1  0.313500  0.591200  0.067100  1.0  -0.3815
  C  C162  1  0.526100  0.753700  0.035500  1.0  0.0842
  C  C163  1  0.630900  0.725000  0.984900  1.0  -0.2076
  C  C164  1  0.629400  0.731300  0.899000  1.0  0.1652
  C  C165  1  0.424200  0.791500  0.994400  1.0  -0.2287
  C  C166  1  0.427900  0.794700  0.906200  1.0  0.1656
  N  N167  1  0.645000  0.395200  0.297600  1.0  -0.3261
  N  N168  1  0.539300  0.269700  0.424100  1.0  -0.3091
  N  N169  1  0.371700  0.111800  0.271300  1.0  -0.3327
  N  N170  1  0.474100  0.236800  0.141900  1.0  -0.3314
  N  N171  1  0.355000  0.604800  0.702400  1.0  -0.3274
  N  N172  1  0.460700  0.730300  0.575900  1.0  -0.3081
  N  N173  1  0.628300  0.888200  0.728700  1.0  -0.3322
  N  N174  1  0.525900  0.763200  0.858100  1.0  -0.3308
  O  O175  1  0.314600  0.299100  0.291500  1.0  -0.7152
  O  O176  1  0.019900  0.270700  0.336700  1.0  -0.7854
  O  O177  1  0.706900  0.213600  0.278200  1.0  -0.71
  O  O178  1  0.685400  0.700900  0.708500  1.0  -0.7137
  O  O179  1  0.980100  0.729300  0.663300  1.0  -0.7828
  O  O180  1  0.293100  0.786400  0.721800  1.0  -0.7116
