# generated using pymatgen
data_CdH4C8N8Cl
_symmetry_space_group_name_H-M   'P 1'
_cell_length_a   7.61110000
_cell_length_b   14.23910000
_cell_length_c   14.23910000
_cell_angle_alpha   61.55780000
_cell_angle_beta   74.49860000
_cell_angle_gamma   74.49860000
_symmetry_Int_Tables_number   1
_chemical_formula_structural   CdH4C8N8Cl
_chemical_formula_sum   'Cd2 H8 C16 N16 Cl2'
_cell_volume   1289.57896236
_cell_formula_units_Z   2
loop_
 _symmetry_equiv_pos_site_id
 _symmetry_equiv_pos_as_xyz
  1  'x, y, z'
loop_
 _atom_site_type_symbol
 _atom_site_label
 _atom_site_symmetry_multiplicity
 _atom_site_fract_x
 _atom_site_fract_y
 _atom_site_fract_z
 _atom_site_occupancy
 _atom_site_charge
  Cd  Cd1  1  0.500000  0.000000  0.000000  1.0  0.6423
  Cd  Cd2  1  0.000000  0.000000  0.000000  1.0  0.6423
  H  H3  1  0.307100  0.416500  0.998100  1.0  0.122
  H  H4  1  0.192900  0.001900  0.583500  1.0  0.1216
  H  H5  1  0.221700  0.583500  0.001900  1.0  0.1224
  H  H6  1  0.278300  0.998100  0.416500  1.0  0.1218
  H  H7  1  0.692900  0.583500  0.001900  1.0  0.1216
  H  H8  1  0.807100  0.998100  0.416500  1.0  0.1219
  H  H9  1  0.778300  0.416500  0.998100  1.0  0.1219
  H  H10  1  0.721700  0.001900  0.583500  1.0  0.1225
  C  C11  1  0.181300  0.450400  0.998800  1.0  -0.0709
  C  C12  1  0.318700  0.001200  0.549600  1.0  -0.0695
  C  C13  1  0.130500  0.549600  0.001200  1.0  -0.0728
  C  C14  1  0.369500  0.998800  0.450400  1.0  -0.0711
  C  C15  1  0.818700  0.549600  0.001200  1.0  -0.0727
  C  C16  1  0.681300  0.998800  0.450400  1.0  -0.0729
  C  C17  1  0.869500  0.450400  0.998800  1.0  -0.07
  C  C18  1  0.630500  0.001200  0.549600  1.0  -0.0691
  C  C19  1  0.106200  0.290400  0.997200  1.0  0.349
  C  C20  1  0.051600  0.399700  0.997100  1.0  -0.0038
  C  C21  1  0.393800  0.002800  0.709600  1.0  0.3499
  C  C22  1  0.448400  0.002900  0.600300  1.0  -0.0025
  C  C23  1  0.893800  0.709600  0.002800  1.0  0.3481
  C  C24  1  0.948400  0.600300  0.002900  1.0  -0.0036
  C  C25  1  0.606200  0.997200  0.290400  1.0  0.3504
  C  C26  1  0.551600  0.997100  0.399700  1.0  -0.0007
  N  N27  1  0.265730  0.145970  0.995970  1.0  0.0169
  N  N28  1  0.278050  0.236650  0.998050  1.0  -0.308
  N  N29  1  0.234270  0.004030  0.854030  1.0  0.0153
  N  N30  1  0.221950  0.001950  0.763350  1.0  -0.3078
  N  N31  1  0.907670  0.854030  0.004030  1.0  0.0172
  N  N32  1  0.012750  0.763350  0.001950  1.0  -0.307
  N  N33  1  0.592330  0.995970  0.145970  1.0  0.0184
  N  N34  1  0.487250  0.998050  0.236650  1.0  -0.3059
  N  N35  1  0.734270  0.854030  0.004030  1.0  0.0169
  N  N36  1  0.721950  0.763350  0.001950  1.0  -0.3078
  N  N37  1  0.765730  0.995970  0.145970  1.0  0.0163
  N  N38  1  0.778050  0.998050  0.236650  1.0  -0.3081
  N  N39  1  0.092330  0.145970  0.995970  1.0  0.0174
  N  N40  1  0.987250  0.236650  0.998050  1.0  -0.3072
  N  N41  1  0.407670  0.004030  0.854030  1.0  0.0192
  N  N42  1  0.512750  0.001950  0.763350  1.0  -0.3062
  Cl  Cl43  1  0.250000  0.876550  0.123450  1.0  -0.3784
  Cl  Cl44  1  0.750000  0.123450  0.876550  1.0  -0.3791
