# generated using pymatgen
data_CoH(C2N3)3
_symmetry_space_group_name_H-M   'P 1'
_cell_length_a   6.94000000
_cell_length_b   12.69810000
_cell_length_c   12.69810000
_cell_angle_alpha   97.43290000
_cell_angle_beta   96.30230000
_cell_angle_gamma   83.69770000
_symmetry_Int_Tables_number   1
_chemical_formula_structural   CoH(C2N3)3
_chemical_formula_sum   'Co4 H4 C24 N36'
_cell_volume   1097.71115477
_cell_formula_units_Z   4
loop_
 _symmetry_equiv_pos_site_id
 _symmetry_equiv_pos_as_xyz
  1  'x, y, z'
loop_
 _atom_site_type_symbol
 _atom_site_label
 _atom_site_symmetry_multiplicity
 _atom_site_fract_x
 _atom_site_fract_y
 _atom_site_fract_z
 _atom_site_occupancy
 _atom_site_charge
  Co  Co1  1  0.908700  0.320460  0.053320  1.0  1.0534
  Co  Co2  1  0.591300  0.053320  0.320460  1.0  1.0542
  Co  Co3  1  0.091300  0.679540  0.946680  1.0  1.0576
  Co  Co4  1  0.408700  0.946680  0.679540  1.0  1.0543
  H  H5  1  0.430100  0.423000  0.548400  1.0  0.2994
  H  H6  1  0.069900  0.548400  0.423000  1.0  0.2997
  H  H7  1  0.569900  0.577000  0.451600  1.0  0.2985
  H  H8  1  0.930100  0.451600  0.577000  1.0  0.3003
  C  C9  1  0.443800  0.536300  0.665700  1.0  0.6729
  C  C10  1  0.364100  0.359700  0.669100  1.0  0.6743
  C  C11  1  0.331200  0.486300  0.811900  1.0  0.7419
  C  C12  1  0.518400  0.701600  0.649800  1.0  0.6463
  C  C13  1  0.314100  0.184000  0.653200  1.0  0.6514
  C  C14  1  0.201700  0.447800  0.960000  1.0  0.6396
  C  C15  1  0.056200  0.665700  0.536300  1.0  0.6772
  C  C16  1  0.135900  0.669100  0.359700  1.0  0.6778
  C  C17  1  0.168800  0.811900  0.486300  1.0  0.7417
  C  C18  1  0.981600  0.649800  0.701600  1.0  0.6452
  C  C19  1  0.185900  0.653200  0.184000  1.0  0.6534
  C  C20  1  0.298300  0.960000  0.447800  1.0  0.6408
  C  C21  1  0.556200  0.463700  0.334300  1.0  0.6733
  C  C22  1  0.635900  0.640300  0.330900  1.0  0.6753
  C  C23  1  0.668800  0.513700  0.188100  1.0  0.745
  C  C24  1  0.481600  0.298400  0.350200  1.0  0.6464
  C  C25  1  0.685900  0.816000  0.346800  1.0  0.6527
  C  C26  1  0.798300  0.552200  0.040000  1.0  0.6398
  C  C27  1  0.943800  0.334300  0.463700  1.0  0.6781
  C  C28  1  0.864100  0.330900  0.640300  1.0  0.6768
  C  C29  1  0.831200  0.188100  0.513700  1.0  0.7399
  C  C30  1  0.018400  0.350200  0.298400  1.0  0.6458
  C  C31  1  0.814100  0.346800  0.816000  1.0  0.6513
  C  C32  1  0.701700  0.040000  0.552200  1.0  0.6391
  N  N33  1  0.415500  0.437100  0.615300  1.0  -0.4646
  N  N34  1  0.324400  0.382500  0.770500  1.0  -0.626
  N  N35  1  0.398100  0.562500  0.765900  1.0  -0.6457
  N  N36  1  0.509300  0.601800  0.608000  1.0  -0.5967
  N  N37  1  0.528500  0.790500  0.678500  1.0  -0.6377
  N  N38  1  0.350800  0.266300  0.609500  1.0  -0.5608
  N  N39  1  0.285400  0.103800  0.681400  1.0  -0.6434
  N  N40  1  0.259400  0.520100  0.907700  1.0  -0.6053
  N  N41  1  0.144900  0.393000  0.012200  1.0  -0.6028
  N  N42  1  0.084500  0.615300  0.437100  1.0  -0.4639
  N  N43  1  0.175600  0.770500  0.382500  1.0  -0.6339
  N  N44  1  0.101900  0.765900  0.562500  1.0  -0.6499
  N  N45  1  0.990700  0.608000  0.601800  1.0  -0.5921
  N  N46  1  0.971500  0.678500  0.790500  1.0  -0.6436
  N  N47  1  0.149200  0.609500  0.266300  1.0  -0.5549
  N  N48  1  0.214600  0.681400  0.103800  1.0  -0.647
  N  N49  1  0.240600  0.907700  0.520100  1.0  -0.6047
  N  N50  1  0.355100  0.012200  0.393000  1.0  -0.5992
  N  N51  1  0.584500  0.562900  0.384700  1.0  -0.4649
  N  N52  1  0.675600  0.617500  0.229500  1.0  -0.6272
  N  N53  1  0.601900  0.437500  0.234100  1.0  -0.6465
  N  N54  1  0.490700  0.398200  0.392000  1.0  -0.5881
  N  N55  1  0.471500  0.209500  0.321500  1.0  -0.6387
  N  N56  1  0.649200  0.733700  0.390500  1.0  -0.562
  N  N57  1  0.714600  0.896200  0.318600  1.0  -0.643
  N  N58  1  0.740600  0.479900  0.092300  1.0  -0.6085
  N  N59  1  0.855100  0.607000  0.987800  1.0  -0.6012
  N  N60  1  0.915500  0.384700  0.562900  1.0  -0.46
  N  N61  1  0.824400  0.229500  0.617500  1.0  -0.6333
  N  N62  1  0.898100  0.234100  0.437500  1.0  -0.6553
  N  N63  1  0.009300  0.392000  0.398200  1.0  -0.5878
  N  N64  1  0.028500  0.321500  0.209500  1.0  -0.6437
  N  N65  1  0.850800  0.390500  0.733700  1.0  -0.5561
  N  N66  1  0.785400  0.318600  0.896200  1.0  -0.6459
  N  N67  1  0.759400  0.092300  0.479900  1.0  -0.6073
  N  N68  1  0.644900  0.987800  0.607000  1.0  -0.6016
