# generated using pymatgen
data_NiH(C2N3)3
_symmetry_space_group_name_H-M   'P 1'
_cell_length_a   6.94600000
_cell_length_b   12.62620000
_cell_length_c   12.62620000
_cell_angle_alpha   97.39810000
_cell_angle_beta   96.10620000
_cell_angle_gamma   83.89380000
_symmetry_Int_Tables_number   1
_chemical_formula_structural   NiH(C2N3)3
_chemical_formula_sum   'Ni4 H4 C24 N36'
_cell_volume   1087.05615559
_cell_formula_units_Z   4
loop_
 _symmetry_equiv_pos_site_id
 _symmetry_equiv_pos_as_xyz
  1  'x, y, z'
loop_
 _atom_site_type_symbol
 _atom_site_label
 _atom_site_symmetry_multiplicity
 _atom_site_fract_x
 _atom_site_fract_y
 _atom_site_fract_z
 _atom_site_occupancy
 _atom_site_charge
  Ni  Ni1  1  0.906060  0.321010  0.052950  1.0  0.9741
  Ni  Ni2  1  0.593940  0.052950  0.321010  1.0  0.9716
  Ni  Ni3  1  0.093940  0.678990  0.947050  1.0  0.9764
  Ni  Ni4  1  0.406060  0.947050  0.678990  1.0  0.9722
  H  H5  1  0.434500  0.422900  0.548700  1.0  0.2995
  H  H6  1  0.065500  0.548700  0.422900  1.0  0.2995
  H  H7  1  0.565500  0.577100  0.451300  1.0  0.2994
  H  H8  1  0.934500  0.451300  0.577100  1.0  0.2994
  C  C9  1  0.442500  0.536900  0.666900  1.0  0.6553
  C  C10  1  0.362400  0.360600  0.669800  1.0  0.6936
  C  C11  1  0.326300  0.485900  0.813500  1.0  0.7868
  C  C12  1  0.518600  0.703300  0.650500  1.0  0.636
  C  C13  1  0.314000  0.182200  0.653200  1.0  0.6431
  C  C14  1  0.197600  0.447300  0.959900  1.0  0.6248
  C  C15  1  0.057500  0.666900  0.536900  1.0  0.6599
  C  C16  1  0.137600  0.669800  0.360600  1.0  0.6934
  C  C17  1  0.173700  0.813500  0.485900  1.0  0.789
  C  C18  1  0.981400  0.650500  0.703300  1.0  0.637
  C  C19  1  0.186000  0.653200  0.182200  1.0  0.6462
  C  C20  1  0.302400  0.959900  0.447300  1.0  0.6245
  C  C21  1  0.557500  0.463100  0.333100  1.0  0.6555
  C  C22  1  0.637600  0.639400  0.330200  1.0  0.6925
  C  C23  1  0.673700  0.514100  0.186500  1.0  0.7885
  C  C24  1  0.481400  0.296700  0.349500  1.0  0.6359
  C  C25  1  0.686000  0.817800  0.346800  1.0  0.6455
  C  C26  1  0.802400  0.552700  0.040100  1.0  0.6252
  C  C27  1  0.942500  0.333100  0.463100  1.0  0.6604
  C  C28  1  0.862400  0.330200  0.639400  1.0  0.6949
  C  C29  1  0.826300  0.186500  0.514100  1.0  0.7884
  C  C30  1  0.018600  0.349500  0.296700  1.0  0.6369
  C  C31  1  0.814000  0.346800  0.817800  1.0  0.6442
  C  C32  1  0.697600  0.040100  0.552700  1.0  0.6222
  N  N33  1  0.416700  0.437400  0.615600  1.0  -0.4576
  N  N34  1  0.398000  0.560200  0.769200  1.0  -0.6192
  N  N35  1  0.312200  0.388500  0.764900  1.0  -0.6567
  N  N36  1  0.510200  0.603300  0.608500  1.0  -0.5864
  N  N37  1  0.528700  0.793800  0.678200  1.0  -0.6217
  N  N38  1  0.349800  0.266000  0.609000  1.0  -0.5773
  N  N39  1  0.283900  0.101700  0.679300  1.0  -0.6346
  N  N40  1  0.256200  0.521200  0.908600  1.0  -0.5865
  N  N41  1  0.137600  0.393500  0.012300  1.0  -0.5666
  N  N42  1  0.083300  0.615600  0.437400  1.0  -0.4583
  N  N43  1  0.102000  0.769200  0.560200  1.0  -0.6308
  N  N44  1  0.187800  0.764900  0.388500  1.0  -0.6582
  N  N45  1  0.989800  0.608500  0.603300  1.0  -0.5835
  N  N46  1  0.971300  0.678200  0.793800  1.0  -0.6287
  N  N47  1  0.150200  0.609000  0.266000  1.0  -0.5731
  N  N48  1  0.216100  0.679300  0.101700  1.0  -0.64
  N  N49  1  0.243800  0.908600  0.521200  1.0  -0.5888
  N  N50  1  0.362400  0.012300  0.393500  1.0  -0.5632
  N  N51  1  0.583300  0.562600  0.384400  1.0  -0.4586
  N  N52  1  0.602000  0.439800  0.230800  1.0  -0.6267
  N  N53  1  0.687800  0.611500  0.235100  1.0  -0.654
  N  N54  1  0.489800  0.396700  0.391500  1.0  -0.5824
  N  N55  1  0.471300  0.206200  0.321800  1.0  -0.6216
  N  N56  1  0.650200  0.734000  0.391000  1.0  -0.5792
  N  N57  1  0.716100  0.898300  0.320700  1.0  -0.636
  N  N58  1  0.743800  0.478800  0.091400  1.0  -0.5853
  N  N59  1  0.862400  0.606500  0.987700  1.0  -0.5691
  N  N60  1  0.916700  0.384400  0.562600  1.0  -0.4577
  N  N61  1  0.898000  0.230800  0.439800  1.0  -0.6355
  N  N62  1  0.812200  0.235100  0.611500  1.0  -0.6602
  N  N63  1  0.010200  0.391500  0.396700  1.0  -0.5831
  N  N64  1  0.028700  0.321800  0.206200  1.0  -0.6237
  N  N65  1  0.849800  0.391000  0.734000  1.0  -0.5766
  N  N66  1  0.783900  0.320700  0.898300  1.0  -0.638
  N  N67  1  0.756200  0.091400  0.478800  1.0  -0.5894
  N  N68  1  0.637600  0.987700  0.606500  1.0  -0.5635
