# generated using pymatgen
data_CdH(C2N3)3
_symmetry_space_group_name_H-M   'P 1'
_cell_length_a   7.07300000
_cell_length_b   12.99930000
_cell_length_c   12.99930000
_cell_angle_alpha   97.77580000
_cell_angle_beta   95.59860000
_cell_angle_gamma   84.40140000
_symmetry_Int_Tables_number   1
_chemical_formula_structural   CdH(C2N3)3
_chemical_formula_sum   'Cd4 H4 C24 N36'
_cell_volume   1174.24865136
_cell_formula_units_Z   4
loop_
 _symmetry_equiv_pos_site_id
 _symmetry_equiv_pos_as_xyz
  1  'x, y, z'
loop_
 _atom_site_type_symbol
 _atom_site_label
 _atom_site_symmetry_multiplicity
 _atom_site_fract_x
 _atom_site_fract_y
 _atom_site_fract_z
 _atom_site_occupancy
 _atom_site_charge
  Cd  Cd1  1  0.905250  0.322580  0.052420  1.0  1.1339
  Cd  Cd2  1  0.594750  0.052420  0.322580  1.0  1.1324
  Cd  Cd3  1  0.094750  0.677420  0.947580  1.0  1.1337
  Cd  Cd4  1  0.405250  0.947580  0.677420  1.0  1.1265
  H  H5  1  0.435700  0.423900  0.547700  1.0  0.2952
  H  H6  1  0.064300  0.547700  0.423900  1.0  0.2965
  H  H7  1  0.564300  0.576100  0.452300  1.0  0.2928
  H  H8  1  0.935700  0.452300  0.576100  1.0  0.2972
  C  C9  1  0.439500  0.534200  0.663000  1.0  0.6742
  C  C10  1  0.363600  0.360900  0.664500  1.0  0.6766
  C  C11  1  0.334800  0.482900  0.806100  1.0  0.7328
  C  C12  1  0.518700  0.696100  0.649700  1.0  0.6519
  C  C13  1  0.310300  0.190300  0.648900  1.0  0.6515
  C  C14  1  0.219000  0.444200  0.954000  1.0  0.636
  C  C15  1  0.060500  0.663000  0.534200  1.0  0.6791
  C  C16  1  0.136400  0.664500  0.360900  1.0  0.6764
  C  C17  1  0.165200  0.806100  0.482900  1.0  0.741
  C  C18  1  0.981300  0.649700  0.696100  1.0  0.6526
  C  C19  1  0.189700  0.648900  0.190300  1.0  0.6542
  C  C20  1  0.281000  0.954000  0.444200  1.0  0.6355
  C  C21  1  0.560500  0.465800  0.337000  1.0  0.6882
  C  C22  1  0.636400  0.639100  0.335500  1.0  0.6708
  C  C23  1  0.665200  0.517100  0.193900  1.0  0.7365
  C  C24  1  0.481300  0.303900  0.350300  1.0  0.6534
  C  C25  1  0.689700  0.809700  0.351100  1.0  0.6533
  C  C26  1  0.781000  0.555800  0.046000  1.0  0.6356
  C  C27  1  0.939500  0.337000  0.465800  1.0  0.6845
  C  C28  1  0.863600  0.335500  0.639100  1.0  0.6745
  C  C29  1  0.834800  0.193900  0.517100  1.0  0.7265
  C  C30  1  0.018700  0.350300  0.303900  1.0  0.6501
  C  C31  1  0.810300  0.351100  0.809700  1.0  0.6523
  C  C32  1  0.719000  0.046000  0.555800  1.0  0.6353
  N  N33  1  0.416800  0.437600  0.612600  1.0  -0.477
  N  N34  1  0.324900  0.382500  0.763300  1.0  -0.6453
  N  N35  1  0.396900  0.559600  0.761000  1.0  -0.6137
  N  N36  1  0.504200  0.599900  0.606500  1.0  -0.5936
  N  N37  1  0.534800  0.782300  0.680900  1.0  -0.6286
  N  N38  1  0.351200  0.269400  0.606000  1.0  -0.5768
  N  N39  1  0.274200  0.114600  0.677800  1.0  -0.647
  N  N40  1  0.274200  0.514300  0.902100  1.0  -0.6408
  N  N41  1  0.165900  0.391800  0.008000  1.0  -0.6125
  N  N42  1  0.083200  0.612600  0.437600  1.0  -0.4758
  N  N43  1  0.175100  0.763300  0.382500  1.0  -0.6546
  N  N44  1  0.103100  0.761000  0.559600  1.0  -0.6188
  N  N45  1  0.995800  0.606500  0.599900  1.0  -0.603
  N  N46  1  0.965200  0.680900  0.782300  1.0  -0.6303
  N  N47  1  0.148800  0.606000  0.269400  1.0  -0.5712
  N  N48  1  0.225800  0.677800  0.114600  1.0  -0.6501
  N  N49  1  0.225800  0.902100  0.514300  1.0  -0.6429
  N  N50  1  0.334100  0.008000  0.391800  1.0  -0.6123
  N  N51  1  0.583200  0.562400  0.387400  1.0  -0.4806
  N  N52  1  0.675100  0.617500  0.236700  1.0  -0.6462
  N  N53  1  0.603100  0.440400  0.239000  1.0  -0.6359
  N  N54  1  0.495800  0.400100  0.393500  1.0  -0.6041
  N  N55  1  0.465200  0.217700  0.319100  1.0  -0.6291
  N  N56  1  0.648800  0.730600  0.394000  1.0  -0.5781
  N  N57  1  0.725800  0.885400  0.322200  1.0  -0.6502
  N  N58  1  0.725800  0.485700  0.097900  1.0  -0.6377
  N  N59  1  0.834100  0.608200  0.992000  1.0  -0.6144
  N  N60  1  0.916800  0.387400  0.562400  1.0  -0.4713
  N  N61  1  0.824900  0.236700  0.617500  1.0  -0.6532
  N  N62  1  0.896900  0.239000  0.440400  1.0  -0.6462
  N  N63  1  0.004200  0.393500  0.400100  1.0  -0.5905
  N  N64  1  0.034800  0.319100  0.217700  1.0  -0.6281
  N  N65  1  0.851200  0.394000  0.730600  1.0  -0.5748
  N  N66  1  0.774200  0.322200  0.885400  1.0  -0.6467
  N  N67  1  0.774200  0.097900  0.485700  1.0  -0.6414
  N  N68  1  0.665900  0.992000  0.608200  1.0  -0.6082
