# generated using pymatgen
data_CuH(C2N3)3
_symmetry_space_group_name_H-M   'P 1'
_cell_length_a   6.94200000
_cell_length_b   12.58400000
_cell_length_c   12.58400000
_cell_angle_alpha   95.35280000
_cell_angle_beta   96.71520000
_cell_angle_gamma   83.28480000
_symmetry_Int_Tables_number   1
_chemical_formula_structural   CuH(C2N3)3
_chemical_formula_sum   'Cu4 H4 C24 N36'
_cell_volume   1080.74502259
_cell_formula_units_Z   4
loop_
 _symmetry_equiv_pos_site_id
 _symmetry_equiv_pos_as_xyz
  1  'x, y, z'
loop_
 _atom_site_type_symbol
 _atom_site_label
 _atom_site_symmetry_multiplicity
 _atom_site_fract_x
 _atom_site_fract_y
 _atom_site_fract_z
 _atom_site_occupancy
 _atom_site_charge
  Cu  Cu1  1  0.933010  0.313350  0.057830  1.0  0.935
  Cu  Cu2  1  0.433010  0.942170  0.686650  1.0  0.9277
  Cu  Cu3  1  0.566990  0.057830  0.313350  1.0  0.9294
  Cu  Cu4  1  0.066990  0.686650  0.942170  1.0  0.9317
  H  H5  1  0.435700  0.422640  0.549360  1.0  0.2983
  H  H6  1  0.935700  0.450640  0.577360  1.0  0.2991
  H  H7  1  0.064300  0.549360  0.422640  1.0  0.2985
  H  H8  1  0.564300  0.577360  0.450640  1.0  0.298
  C  C9  1  0.447700  0.532500  0.667900  1.0  0.6561
  C  C10  1  0.376600  0.353800  0.672000  1.0  0.6603
  C  C11  1  0.350100  0.474000  0.817200  1.0  0.7317
  C  C12  1  0.517000  0.700600  0.649800  1.0  0.6349
  C  C13  1  0.338000  0.175100  0.655900  1.0  0.6505
  C  C14  1  0.221000  0.436100  0.966900  1.0  0.622
  C  C15  1  0.947700  0.332100  0.467500  1.0  0.6594
  C  C16  1  0.876600  0.328000  0.646200  1.0  0.6624
  C  C17  1  0.850100  0.182800  0.526000  1.0  0.7278
  C  C18  1  0.017000  0.350200  0.299400  1.0  0.6385
  C  C19  1  0.838000  0.344100  0.824900  1.0  0.6512
  C  C20  1  0.721000  0.033100  0.563900  1.0  0.6226
  C  C21  1  0.052300  0.667900  0.532500  1.0  0.6582
  C  C22  1  0.123400  0.672000  0.353800  1.0  0.6636
  C  C23  1  0.149900  0.817200  0.474000  1.0  0.7314
  C  C24  1  0.983000  0.649800  0.700600  1.0  0.6376
  C  C25  1  0.162000  0.655900  0.175100  1.0  0.6512
  C  C26  1  0.279000  0.966900  0.436100  1.0  0.6225
  C  C27  1  0.552300  0.467500  0.332100  1.0  0.6558
  C  C28  1  0.623400  0.646200  0.328000  1.0  0.6611
  C  C29  1  0.649900  0.526000  0.182800  1.0  0.7343
  C  C30  1  0.483000  0.299400  0.350200  1.0  0.6371
  C  C31  1  0.662000  0.824900  0.344100  1.0  0.6508
  C  C32  1  0.779000  0.563900  0.033100  1.0  0.6228
  N  N33  1  0.422600  0.434260  0.616740  1.0  -0.4712
  N  N34  1  0.344000  0.371600  0.774400  1.0  -0.6231
  N  N35  1  0.409600  0.555000  0.768600  1.0  -0.6067
  N  N36  1  0.507800  0.602100  0.607900  1.0  -0.5908
  N  N37  1  0.529300  0.789900  0.677900  1.0  -0.6122
  N  N38  1  0.362300  0.261100  0.612100  1.0  -0.5503
  N  N39  1  0.317000  0.092900  0.684900  1.0  -0.5867
  N  N40  1  0.291200  0.505200  0.914600  1.0  -0.5712
  N  N41  1  0.152800  0.385300  0.021300  1.0  -0.5685
  N  N42  1  0.922600  0.383260  0.565740  1.0  -0.4698
  N  N43  1  0.844000  0.225600  0.628400  1.0  -0.6277
  N  N44  1  0.909600  0.231400  0.445000  1.0  -0.6194
  N  N45  1  0.007800  0.392100  0.397900  1.0  -0.5862
  N  N46  1  0.029300  0.322100  0.210100  1.0  -0.6127
  N  N47  1  0.862300  0.387900  0.738900  1.0  -0.5466
  N  N48  1  0.817000  0.315100  0.907100  1.0  -0.5958
  N  N49  1  0.791200  0.085400  0.494800  1.0  -0.5729
  N  N50  1  0.652800  0.978700  0.614700  1.0  -0.5604
  N  N51  1  0.077400  0.616740  0.434260  1.0  -0.472
  N  N52  1  0.156000  0.774400  0.371600  1.0  -0.6286
  N  N53  1  0.090400  0.768600  0.555000  1.0  -0.6147
  N  N54  1  0.992200  0.607900  0.602100  1.0  -0.5839
  N  N55  1  0.970700  0.677900  0.789900  1.0  -0.6189
  N  N56  1  0.137700  0.612100  0.261100  1.0  -0.5453
  N  N57  1  0.183000  0.684900  0.092900  1.0  -0.5985
  N  N58  1  0.208800  0.914600  0.505200  1.0  -0.5727
  N  N59  1  0.347200  0.021300  0.385300  1.0  -0.5671
  N  N60  1  0.577400  0.565740  0.383260  1.0  -0.4729
  N  N61  1  0.656000  0.628400  0.225600  1.0  -0.6241
  N  N62  1  0.590400  0.445000  0.231400  1.0  -0.6109
  N  N63  1  0.492200  0.397900  0.392100  1.0  -0.586
  N  N64  1  0.470700  0.210100  0.322100  1.0  -0.611
  N  N65  1  0.637700  0.738900  0.387900  1.0  -0.5503
  N  N66  1  0.683000  0.907100  0.315100  1.0  -0.5855
  N  N67  1  0.708800  0.494800  0.085400  1.0  -0.5719
  N  N68  1  0.847200  0.614700  0.978700  1.0  -0.575
