# generated using pymatgen
data_AgH11C13N5O3
_symmetry_space_group_name_H-M   'P 1'
_cell_length_a   20.78390000
_cell_length_b   20.78390000
_cell_length_c   20.78390000
_cell_angle_alpha   109.04500000
_cell_angle_beta   109.04500000
_cell_angle_gamma   110.32700000
_symmetry_Int_Tables_number   1
_chemical_formula_structural   AgH11C13N5O3
_chemical_formula_sum   'Ag16 H176 C208 N80 O48'
_cell_volume   6910.13922922
_cell_formula_units_Z   16
loop_
 _symmetry_equiv_pos_site_id
 _symmetry_equiv_pos_as_xyz
  1  'x, y, z'
loop_
 _atom_site_type_symbol
 _atom_site_label
 _atom_site_symmetry_multiplicity
 _atom_site_fract_x
 _atom_site_fract_y
 _atom_site_fract_z
 _atom_site_occupancy
 _atom_site_charge
  Ag  Ag1  1  0.250000  0.578510  0.328510  1.0  0.3777
  Ag  Ag2  1  0.750000  0.921490  0.171490  1.0  0.3784
  Ag  Ag3  1  0.921490  0.250000  0.171490  1.0  0.3777
  Ag  Ag4  1  0.578510  0.750000  0.328510  1.0  0.3776
  Ag  Ag5  1  0.005190  0.755190  0.250000  1.0  0.3594
  Ag  Ag6  1  0.755190  0.005190  0.750000  1.0  0.3594
  Ag  Ag7  1  0.494810  0.744810  0.750000  1.0  0.3606
  Ag  Ag8  1  0.744810  0.494810  0.250000  1.0  0.3606
  Ag  Ag9  1  0.750000  0.421490  0.671490  1.0  0.3784
  Ag  Ag10  1  0.250000  0.078510  0.828510  1.0  0.3777
  Ag  Ag11  1  0.078510  0.750000  0.828510  1.0  0.3776
  Ag  Ag12  1  0.421490  0.250000  0.671490  1.0  0.3777
  Ag  Ag13  1  0.994810  0.244810  0.750000  1.0  0.3606
  Ag  Ag14  1  0.244810  0.994810  0.250000  1.0  0.3606
  Ag  Ag15  1  0.505190  0.255190  0.250000  1.0  0.3594
  Ag  Ag16  1  0.255190  0.505190  0.750000  1.0  0.3594
  H  H17  1  0.254300  0.752000  0.395100  1.0  0.1025
  H  H18  1  0.176400  0.805000  0.369600  1.0  0.1226
  H  H19  1  0.003500  0.595500  0.201800  1.0  0.1046
  H  H20  1  0.983800  0.406800  0.106000  1.0  0.1402
  H  H21  1  0.988600  0.479500  0.095700  1.0  0.1446
  H  H22  1  0.954100  0.458000  0.147300  1.0  0.1388
  H  H23  1  0.054800  0.295000  0.056200  1.0  0.1365
  H  H24  1  0.024100  0.170100  0.975400  1.0  0.1135
  H  H25  1  0.038900  0.088500  0.025800  1.0  0.1179
  H  H26  1  0.069000  0.125400  0.154000  1.0  0.1147
  H  H27  1  0.101100  0.251900  0.238200  1.0  0.1354
  H  H28  1  0.856900  0.859200  0.104900  1.0  0.1029
  H  H29  1  0.935400  0.806800  0.130400  1.0  0.123
  H  H30  1  0.893700  0.801700  0.298200  1.0  0.1049
  H  H31  1  0.800800  0.877800  0.394000  1.0  0.1361
  H  H32  1  0.883800  0.892900  0.404300  1.0  0.1418
  H  H33  1  0.810700  0.806800  0.352700  1.0  0.1415
  H  H34  1  0.738800  0.998600  0.443800  1.0  0.1365
  H  H35  1  0.694700  0.048700  0.524600  1.0  0.1124
  H  H36  1  0.562700  0.013100  0.474200  1.0  0.1172
  H  H37  1  0.471400  0.915000  0.346000  1.0  0.1176
  H  H38  1  0.513700  0.862900  0.261800  1.0  0.1349
  H  H39  1  0.859200  0.254300  0.002300  1.0  0.1019
  H  H40  1  0.806800  0.176400  0.871400  1.0  0.1225
  H  H41  1  0.801700  0.003500  0.908000  1.0  0.1049
  H  H42  1  0.877800  0.983800  0.077000  1.0  0.1388
  H  H43  1  0.892900  0.988600  0.009100  1.0  0.1418
  H  H44  1  0.806800  0.954100  0.996100  1.0  0.1388
  H  H45  1  0.998600  0.054800  0.259800  1.0  0.1367
  H  H46  1  0.048700  0.024100  0.354000  1.0  0.1131
  H  H47  1  0.013100  0.038900  0.450400  1.0  0.117
  H  H48  1  0.915000  0.069000  0.443600  1.0  0.1158
  H  H49  1  0.862900  0.101100  0.349200  1.0  0.137
  H  H50  1  0.752000  0.856900  0.497700  1.0  0.0997
  H  H51  1  0.805000  0.935400  0.628600  1.0  0.1222
  H  H52  1  0.595500  0.893700  0.592000  1.0  0.1045
  H  H53  1  0.406800  0.800800  0.423000  1.0  0.1376
  H  H54  1  0.479500  0.883800  0.490900  1.0  0.1429
  H  H55  1  0.458000  0.810700  0.503900  1.0  0.1389
  H  H56  1  0.295000  0.738800  0.240200  1.0  0.1381
  H  H57  1  0.170100  0.694700  0.146000  1.0  0.1129
  H  H58  1  0.088500  0.562700  0.049600  1.0  0.1172
  H  H59  1  0.125400  0.471400  0.056400  1.0  0.116
  H  H60  1  0.251900  0.513700  0.150800  1.0  0.1349
  H  H61  1  0.643100  0.748000  0.002300  1.0  0.1021
  H  H62  1  0.564600  0.695000  0.871400  1.0  0.1232
  H  H63  1  0.606300  0.904500  0.908000  1.0  0.1051
  H  H64  1  0.699200  0.093200  0.077000  1.0  0.1411
  H  H65  1  0.616200  0.020500  0.009100  1.0  0.1409
  H  H66  1  0.689300  0.042000  0.996100  1.0  0.1396
  H  H67  1  0.761200  0.205000  0.259800  1.0  0.1368
  H  H68  1  0.805300  0.329900  0.354000  1.0  0.1134
  H  H69  1  0.937300  0.411500  0.450400  1.0  0.1183
  H  H70  1  0.028600  0.374600  0.443600  1.0  0.1161
  H  H71  1  0.986300  0.248100  0.349200  1.0  0.1366
  H  H72  1  0.245700  0.640800  0.497700  1.0  0.1023
  H  H73  1  0.323600  0.693200  0.628600  1.0  0.1229
  H  H74  1  0.496500  0.698300  0.592000  1.0  0.1061
  H  H75  1  0.516200  0.622200  0.423000  1.0  0.14
  H  H76  1  0.511400  0.607100  0.490900  1.0  0.1427
  H  H77  1  0.545900  0.693200  0.503900  1.0  0.1391
  H  H78  1  0.445200  0.501400  0.240200  1.0  0.1359
  H  H79  1  0.475900  0.451300  0.146000  1.0  0.1129
  H  H80  1  0.461100  0.486900  0.049600  1.0  0.1176
  H  H81  1  0.431000  0.585000  0.056400  1.0  0.1142
  H  H82  1  0.398900  0.637100  0.150800  1.0  0.135
  H  H83  1  0.748000  0.245700  0.104900  1.0  0.1019
  H  H84  1  0.695000  0.323600  0.130400  1.0  0.1222
  H  H85  1  0.904500  0.496500  0.298200  1.0  0.1045
  H  H86  1  0.093200  0.516200  0.394000  1.0  0.1376
  H  H87  1  0.020500  0.511400  0.404300  1.0  0.1435
  H  H88  1  0.042000  0.545900  0.352700  1.0  0.1389
  H  H89  1  0.205000  0.445200  0.443800  1.0  0.136
  H  H90  1  0.329900  0.475900  0.524600  1.0  0.1131
  H  H91  1  0.411500  0.461100  0.474200  1.0  0.1182
  H  H92  1  0.374600  0.431000  0.346000  1.0  0.1149
  H  H93  1  0.248100  0.398900  0.261800  1.0  0.1355
  H  H94  1  0.640800  0.643100  0.395100  1.0  0.1014
  H  H95  1  0.693200  0.564600  0.369600  1.0  0.1237
  H  H96  1  0.698300  0.606300  0.201800  1.0  0.1064
  H  H97  1  0.622200  0.699200  0.106000  1.0  0.1377
  H  H98  1  0.607100  0.616200  0.095700  1.0  0.1444
  H  H99  1  0.693200  0.689300  0.147300  1.0  0.1381
  H  H100  1  0.501400  0.761200  0.056200  1.0  0.1367
  H  H101  1  0.451300  0.805300  0.975400  1.0  0.1129
  H  H102  1  0.486900  0.937300  0.025800  1.0  0.1173
  H  H103  1  0.585000  0.028600  0.154000  1.0  0.1173
  H  H104  1  0.637100  0.986300  0.238200  1.0  0.135
  H  H105  1  0.745700  0.248000  0.604900  1.0  0.1025
  H  H106  1  0.823600  0.195000  0.630400  1.0  0.1231
  H  H107  1  0.996500  0.404500  0.798200  1.0  0.1057
  H  H108  1  0.016200  0.593200  0.894000  1.0  0.1405
  H  H109  1  0.011400  0.520500  0.904300  1.0  0.1442
  H  H110  1  0.045900  0.542000  0.852700  1.0  0.1386
  H  H111  1  0.945200  0.705000  0.943800  1.0  0.1368
  H  H112  1  0.975900  0.829900  0.024600  1.0  0.1132
  H  H113  1  0.961100  0.911500  0.974200  1.0  0.1156
  H  H114  1  0.931000  0.874600  0.846000  1.0  0.114
  H  H115  1  0.898900  0.748100  0.761800  1.0  0.1361
  H  H116  1  0.143100  0.140800  0.895100  1.0  0.1019
  H  H117  1  0.064600  0.193200  0.869600  1.0  0.1231
  H  H118  1  0.106300  0.198300  0.701800  1.0  0.1048
  H  H119  1  0.199200  0.122200  0.606000  1.0  0.137
  H  H120  1  0.116200  0.107100  0.595700  1.0  0.1433
  H  H121  1  0.189300  0.193200  0.647300  1.0  0.1409
  H  H122  1  0.261200  0.001400  0.556200  1.0  0.1365
  H  H123  1  0.305300  0.951300  0.475400  1.0  0.1123
  H  H124  1  0.437300  0.986900  0.525800  1.0  0.1149
  H  H125  1  0.528600  0.085000  0.654000  1.0  0.1175
  H  H126  1  0.486300  0.137100  0.738200  1.0  0.1353
  H  H127  1  0.140800  0.745700  0.997700  1.0  0.1023
  H  H128  1  0.193200  0.823600  0.128600  1.0  0.1246
  H  H129  1  0.198300  0.996500  0.092000  1.0  0.105
  H  H130  1  0.122200  0.016200  0.923000  1.0  0.1389
  H  H131  1  0.107100  0.011400  0.990900  1.0  0.1415
  H  H132  1  0.193200  0.045900  0.003900  1.0  0.1389
  H  H133  1  0.001400  0.945200  0.740200  1.0  0.1369
  H  H134  1  0.951300  0.975900  0.646000  1.0  0.1132
  H  H135  1  0.986900  0.961100  0.549600  1.0  0.1149
  H  H136  1  0.085000  0.931000  0.556400  1.0  0.1154
  H  H137  1  0.137100  0.898900  0.650800  1.0  0.1372
  H  H138  1  0.248000  0.143100  0.502300  1.0  0.1004
  H  H139  1  0.195000  0.064600  0.371400  1.0  0.1217
  H  H140  1  0.404500  0.106300  0.408000  1.0  0.1046
  H  H141  1  0.593200  0.199200  0.577000  1.0  0.1381
  H  H142  1  0.520500  0.116200  0.509100  1.0  0.1443
  H  H143  1  0.542000  0.189300  0.496100  1.0  0.1391
  H  H144  1  0.705000  0.261200  0.759800  1.0  0.138
  H  H145  1  0.829900  0.305300  0.854000  1.0  0.1123
  H  H146  1  0.911500  0.437300  0.950400  1.0  0.1159
  H  H147  1  0.874600  0.528600  0.943600  1.0  0.116
  H  H148  1  0.748100  0.486300  0.849200  1.0  0.1358
  H  H149  1  0.356900  0.252000  0.997700  1.0  0.1023
  H  H150  1  0.435400  0.305000  0.128600  1.0  0.1229
  H  H151  1  0.393700  0.095500  0.092000  1.0  0.1054
  H  H152  1  0.300800  0.906800  0.923000  1.0  0.1416
  H  H153  1  0.383800  0.979500  0.990900  1.0  0.1421
  H  H154  1  0.310700  0.958000  0.003900  1.0  0.139
  H  H155  1  0.238800  0.795000  0.740200  1.0  0.137
  H  H156  1  0.194700  0.670100  0.646000  1.0  0.113
  H  H157  1  0.062700  0.588500  0.549600  1.0  0.1152
  H  H158  1  0.971400  0.625400  0.556400  1.0  0.1153
  H  H159  1  0.013700  0.751900  0.650800  1.0  0.1346
  H  H160  1  0.754300  0.359200  0.502300  1.0  0.1037
  H  H161  1  0.676400  0.306800  0.371400  1.0  0.1225
  H  H162  1  0.503500  0.301700  0.408000  1.0  0.1059
  H  H163  1  0.483800  0.377800  0.577000  1.0  0.14
  H  H164  1  0.488600  0.392900  0.509100  1.0  0.1427
  H  H165  1  0.454100  0.306800  0.496100  1.0  0.1407
  H  H166  1  0.554800  0.498600  0.759800  1.0  0.137
  H  H167  1  0.524100  0.548700  0.854000  1.0  0.1121
  H  H168  1  0.538900  0.513100  0.950400  1.0  0.115
  H  H169  1  0.569000  0.415000  0.943600  1.0  0.1152
  H  H170  1  0.601100  0.362900  0.849200  1.0  0.1352
  H  H171  1  0.252000  0.754300  0.895100  1.0  0.1017
  H  H172  1  0.305000  0.676400  0.869600  1.0  0.1224
  H  H173  1  0.095500  0.503500  0.701800  1.0  0.1048
  H  H174  1  0.906800  0.483800  0.606000  1.0  0.1376
  H  H175  1  0.979500  0.488600  0.595700  1.0  0.1434
  H  H176  1  0.958000  0.454100  0.647300  1.0  0.1394
  H  H177  1  0.795000  0.554800  0.556200  1.0  0.1354
  H  H178  1  0.670100  0.524100  0.475400  1.0  0.1131
  H  H179  1  0.588500  0.538900  0.525800  1.0  0.1157
  H  H180  1  0.625400  0.569000  0.654000  1.0  0.1157
  H  H181  1  0.751900  0.601100  0.738200  1.0  0.1346
  H  H182  1  0.359200  0.356900  0.604900  1.0  0.1017
  H  H183  1  0.306800  0.435400  0.630400  1.0  0.1219
  H  H184  1  0.301700  0.393700  0.798200  1.0  0.1054
  H  H185  1  0.377800  0.300800  0.894000  1.0  0.1367
  H  H186  1  0.392900  0.383800  0.904300  1.0  0.1426
  H  H187  1  0.306800  0.310700  0.852700  1.0  0.1382
  H  H188  1  0.498600  0.238800  0.943800  1.0  0.1368
  H  H189  1  0.548700  0.194700  0.024600  1.0  0.1124
  H  H190  1  0.513100  0.062700  0.974200  1.0  0.1147
  H  H191  1  0.415000  0.971400  0.846000  1.0  0.1176
  H  H192  1  0.362900  0.013700  0.761800  1.0  0.1352
  C  C193  1  0.202500  0.719100  0.353800  1.0  0.1921
  C  C194  1  0.156000  0.751100  0.339300  1.0  0.1759
  C  C195  1  0.056400  0.629000  0.240800  1.0  0.1673
  C  C196  1  0.103700  0.597800  0.253100  1.0  0.2047
  C  C197  1  0.076000  0.513100  0.203900  1.0  0.2076
  C  C198  1  0.992900  0.459400  0.131500  1.0  -0.3509
  C  C199  1  0.104700  0.366500  0.207000  1.0  0.1331
  C  C200  1  0.083800  0.287200  0.157000  1.0  -0.0447
  C  C201  1  0.058900  0.261600  0.076100  1.0  -0.119
  C  C202  1  0.041000  0.187500  0.028300  1.0  -0.0949
  C  C203  1  0.047900  0.137600  0.058300  1.0  -0.1014
  C  C204  1  0.068000  0.160300  0.135500  1.0  -0.0744
  C  C205  1  0.086800  0.235900  0.185900  1.0  -0.0755
  C  C206  1  0.865300  0.848700  0.146200  1.0  0.1916
  C  C207  1  0.911800  0.816700  0.160700  1.0  0.1776
  C  C208  1  0.888200  0.815600  0.259200  1.0  0.1646
  C  C209  1  0.844700  0.850600  0.246900  1.0  0.203
  C  C210  1  0.809200  0.872100  0.296100  1.0  0.208
  C  C211  1  0.827900  0.861400  0.368500  1.0  -0.3521
  C  C212  1  0.659500  0.897700  0.293000  1.0  0.1298
  C  C213  1  0.630200  0.926800  0.343000  1.0  -0.0455
  C  C214  1  0.685500  0.982800  0.423900  1.0  -0.1245
  C  C215  1  0.659200  0.012700  0.471700  1.0  -0.0933
  C  C216  1  0.579300  0.989600  0.441700  1.0  -0.0997
  C  C217  1  0.524800  0.932500  0.364500  1.0  -0.0784
  C  C218  1  0.550000  0.900900  0.314100  1.0  -0.0758
  C  C219  1  0.848700  0.202500  0.983400  1.0  0.1943
  C  C220  1  0.816700  0.156000  0.904900  1.0  0.1819
  C  C221  1  0.815600  0.056400  0.927400  1.0  0.1621
  C  C222  1  0.850600  0.103700  0.005900  1.0  0.2054
  C  C223  1  0.872100  0.076000  0.062900  1.0  0.2042
  C  C224  1  0.861400  0.992900  0.033500  1.0  -0.3486
  C  C225  1  0.897700  0.104700  0.238200  1.0  0.1332
  C  C226  1  0.926800  0.083800  0.296600  1.0  -0.0441
  C  C227  1  0.982800  0.058900  0.297300  1.0  -0.1209
  C  C228  1  0.012700  0.041000  0.353500  1.0  -0.0989
  C  C229  1  0.989600  0.047900  0.410300  1.0  -0.0997
  C  C230  1  0.932500  0.068000  0.407700  1.0  -0.0717
  C  C231  1  0.900900  0.086800  0.350900  1.0  -0.075
  C  C232  1  0.719100  0.865300  0.516600  1.0  0.1969
  C  C233  1  0.751100  0.911800  0.595100  1.0  0.1805
  C  C234  1  0.629000  0.888200  0.572600  1.0  0.1685
  C  C235  1  0.597800  0.844700  0.494100  1.0  0.2066
  C  C236  1  0.513100  0.809200  0.437100  1.0  0.2097
  C  C237  1  0.459400  0.827900  0.466500  1.0  -0.3512
  C  C238  1  0.366500  0.659500  0.261800  1.0  0.1335
  C  C239  1  0.287200  0.630200  0.203400  1.0  -0.0429
  C  C240  1  0.261600  0.685500  0.202700  1.0  -0.1194
  C  C241  1  0.187500  0.659200  0.146500  1.0  -0.0957
  C  C242  1  0.137600  0.579300  0.089700  1.0  -0.1019
  C  C243  1  0.160300  0.524800  0.092300  1.0  -0.0724
  C  C244  1  0.235900  0.550000  0.149100  1.0  -0.0798
  C  C245  1  0.634700  0.780900  0.983400  1.0  0.1958
  C  C246  1  0.588200  0.748900  0.904900  1.0  0.1774
  C  C247  1  0.611800  0.871000  0.927400  1.0  0.1692
  C  C248  1  0.655300  0.902200  0.005900  1.0  0.2045
  C  C249  1  0.690800  0.986900  0.062900  1.0  0.2067
  C  C250  1  0.672100  0.040600  0.033500  1.0  -0.3503
  C  C251  1  0.840500  0.133500  0.238200  1.0  0.1305
  C  C252  1  0.869800  0.212800  0.296600  1.0  -0.0433
  C  C253  1  0.814500  0.238400  0.297300  1.0  -0.1198
  C  C254  1  0.840800  0.312500  0.353500  1.0  -0.1014
  C  C255  1  0.920700  0.362400  0.410300  1.0  -0.0988
  C  C256  1  0.975200  0.339700  0.407700  1.0  -0.0734
  C  C257  1  0.950000  0.264100  0.350900  1.0  -0.079
  C  C258  1  0.297500  0.651300  0.516600  1.0  0.1916
  C  C259  1  0.344000  0.683300  0.595100  1.0  0.1786
  C  C260  1  0.443600  0.684400  0.572600  1.0  0.1631
  C  C261  1  0.396300  0.649400  0.494100  1.0  0.2064
  C  C262  1  0.424000  0.627900  0.437100  1.0  0.206
  C  C263  1  0.507100  0.638600  0.466500  1.0  -0.3524
  C  C264  1  0.395300  0.602300  0.261800  1.0  0.1321
  C  C265  1  0.416200  0.573200  0.203400  1.0  -0.0469
  C  C266  1  0.441100  0.517200  0.202700  1.0  -0.1201
  C  C267  1  0.459000  0.487300  0.146500  1.0  -0.0972
  C  C268  1  0.452100  0.510400  0.089700  1.0  -0.1008
  C  C269  1  0.432000  0.567500  0.092300  1.0  -0.0736
  C  C270  1  0.413200  0.599100  0.149100  1.0  -0.0777
  C  C271  1  0.780900  0.297500  0.146200  1.0  0.1926
  C  C272  1  0.748900  0.344000  0.160700  1.0  0.1795
  C  C273  1  0.871000  0.443600  0.259200  1.0  0.1646
  C  C274  1  0.902200  0.396300  0.246900  1.0  0.205
  C  C275  1  0.986900  0.424000  0.296100  1.0  0.2037
  C  C276  1  0.040600  0.507100  0.368500  1.0  -0.3479
  C  C277  1  0.133500  0.395300  0.293000  1.0  0.1313
  C  C278  1  0.212800  0.416200  0.343000  1.0  -0.0455
  C  C279  1  0.238400  0.441100  0.423900  1.0  -0.1177
  C  C280  1  0.312500  0.459000  0.471700  1.0  -0.0933
  C  C281  1  0.362400  0.452100  0.441700  1.0  -0.1012
  C  C282  1  0.339700  0.432000  0.364500  1.0  -0.073
  C  C283  1  0.264100  0.413200  0.314100  1.0  -0.0767
  C  C284  1  0.651300  0.634700  0.353800  1.0  0.1921
  C  C285  1  0.683300  0.588200  0.339300  1.0  0.1809
  C  C286  1  0.684400  0.611800  0.240800  1.0  0.167
  C  C287  1  0.649400  0.655300  0.253100  1.0  0.2041
  C  C288  1  0.627900  0.690800  0.203900  1.0  0.2058
  C  C289  1  0.638600  0.672100  0.131500  1.0  -0.35
  C  C290  1  0.602300  0.840500  0.207000  1.0  0.132
  C  C291  1  0.573200  0.869800  0.157000  1.0  -0.0452
  C  C292  1  0.517200  0.814500  0.076100  1.0  -0.1215
  C  C293  1  0.487300  0.840800  0.028300  1.0  -0.0971
  C  C294  1  0.510400  0.920700  0.058300  1.0  -0.1028
  C  C295  1  0.567500  0.975200  0.135500  1.0  -0.0748
  C  C296  1  0.599100  0.950000  0.185900  1.0  -0.0793
  C  C297  1  0.797500  0.280900  0.646200  1.0  0.1917
  C  C298  1  0.844000  0.248900  0.660700  1.0  0.1759
  C  C299  1  0.943600  0.371000  0.759200  1.0  0.1675
  C  C300  1  0.896300  0.402200  0.746900  1.0  0.2026
  C  C301  1  0.924000  0.486900  0.796100  1.0  0.2083
  C  C302  1  0.007100  0.540600  0.868500  1.0  -0.3514
  C  C303  1  0.895300  0.633500  0.793000  1.0  0.1319
  C  C304  1  0.916200  0.712800  0.843000  1.0  -0.0455
  C  C305  1  0.941100  0.738400  0.923900  1.0  -0.1182
  C  C306  1  0.959000  0.812500  0.971700  1.0  -0.0952
  C  C307  1  0.952100  0.862400  0.941700  1.0  -0.1003
  C  C308  1  0.932000  0.839700  0.864500  1.0  -0.0741
  C  C309  1  0.913200  0.764100  0.814100  1.0  -0.073
  C  C310  1  0.134700  0.151300  0.853800  1.0  0.1928
  C  C311  1  0.088200  0.183300  0.839300  1.0  0.178
  C  C312  1  0.111800  0.184400  0.740800  1.0  0.1631
  C  C313  1  0.155300  0.149400  0.753100  1.0  0.2043
  C  C314  1  0.190800  0.127900  0.703900  1.0  0.2055
  C  C315  1  0.172100  0.138600  0.631500  1.0  -0.3505
  C  C316  1  0.340500  0.102300  0.707000  1.0  0.1293
  C  C317  1  0.369800  0.073200  0.657000  1.0  -0.0452
  C  C318  1  0.314500  0.017200  0.576100  1.0  -0.1238
  C  C319  1  0.340800  0.987300  0.528300  1.0  -0.0955
  C  C320  1  0.420700  0.010400  0.558300  1.0  -0.1008
  C  C321  1  0.475200  0.067500  0.635500  1.0  -0.0786
  C  C322  1  0.450000  0.099100  0.685900  1.0  -0.0743
  C  C323  1  0.151300  0.797500  0.016600  1.0  0.1958
  C  C324  1  0.183300  0.844000  0.095100  1.0  0.1814
  C  C325  1  0.184400  0.943600  0.072600  1.0  0.1623
  C  C326  1  0.149400  0.896300  0.994100  1.0  0.2072
  C  C327  1  0.127900  0.924000  0.937100  1.0  0.205
  C  C328  1  0.138600  0.007100  0.966500  1.0  -0.3489
  C  C329  1  0.102300  0.895300  0.761800  1.0  0.1312
  C  C330  1  0.073200  0.916200  0.703400  1.0  -0.0463
  C  C331  1  0.017200  0.941100  0.702700  1.0  -0.1191
  C  C332  1  0.987300  0.959000  0.646500  1.0  -0.0983
  C  C333  1  0.010400  0.952100  0.589700  1.0  -0.1013
  C  C334  1  0.067500  0.932000  0.592300  1.0  -0.0723
  C  C335  1  0.099100  0.913200  0.649100  1.0  -0.0765
  C  C336  1  0.280900  0.134700  0.483400  1.0  0.196
  C  C337  1  0.248900  0.088200  0.404900  1.0  0.1805
  C  C338  1  0.371000  0.111800  0.427400  1.0  0.169
  C  C339  1  0.402200  0.155300  0.505900  1.0  0.2055
  C  C340  1  0.486900  0.190800  0.562900  1.0  0.2066
  C  C341  1  0.540600  0.172100  0.533500  1.0  -0.3499
  C  C342  1  0.633500  0.340500  0.738200  1.0  0.1334
  C  C343  1  0.712800  0.369800  0.796600  1.0  -0.0432
  C  C344  1  0.738400  0.314500  0.797300  1.0  -0.1207
  C  C345  1  0.812500  0.340800  0.853500  1.0  -0.096
  C  C346  1  0.862400  0.420700  0.910300  1.0  -0.1015
  C  C347  1  0.839700  0.475200  0.907700  1.0  -0.0716
  C  C348  1  0.764100  0.450000  0.850900  1.0  -0.0813
  C  C349  1  0.365300  0.219100  0.016600  1.0  0.1947
  C  C350  1  0.411800  0.251100  0.095100  1.0  0.1774
  C  C351  1  0.388200  0.129000  0.072600  1.0  0.1688
  C  C352  1  0.344700  0.097800  0.994100  1.0  0.2071
  C  C353  1  0.309200  0.013100  0.937100  1.0  0.2097
  C  C354  1  0.327900  0.959400  0.966500  1.0  -0.3503
  C  C355  1  0.159500  0.866500  0.761800  1.0  0.1314
  C  C356  1  0.130200  0.787200  0.703400  1.0  -0.043
  C  C357  1  0.185500  0.761600  0.702700  1.0  -0.1207
  C  C358  1  0.159200  0.687500  0.646500  1.0  -0.0993
  C  C359  1  0.079300  0.637600  0.589700  1.0  -0.1007
  C  C360  1  0.024800  0.660300  0.592300  1.0  -0.0746
  C  C361  1  0.050000  0.735900  0.649100  1.0  -0.0771
  C  C362  1  0.702500  0.348700  0.483400  1.0  0.193
  C  C363  1  0.656000  0.316700  0.404900  1.0  0.1788
  C  C364  1  0.556400  0.315600  0.427400  1.0  0.163
  C  C365  1  0.603700  0.350600  0.505900  1.0  0.2038
  C  C366  1  0.576000  0.372100  0.562900  1.0  0.2061
  C  C367  1  0.492900  0.361400  0.533500  1.0  -0.3517
  C  C368  1  0.604700  0.397700  0.738200  1.0  0.133
  C  C369  1  0.583800  0.426800  0.796600  1.0  -0.0444
  C  C370  1  0.558900  0.482800  0.797300  1.0  -0.1206
  C  C371  1  0.541000  0.512700  0.853500  1.0  -0.0946
  C  C372  1  0.547900  0.489600  0.910300  1.0  -0.0987
  C  C373  1  0.568000  0.432500  0.907700  1.0  -0.0737
  C  C374  1  0.586800  0.400900  0.850900  1.0  -0.0762
  C  C375  1  0.219100  0.702500  0.853800  1.0  0.1926
  C  C376  1  0.251100  0.656000  0.839300  1.0  0.1809
  C  C377  1  0.129000  0.556400  0.740800  1.0  0.165
  C  C378  1  0.097800  0.603700  0.753100  1.0  0.2049
  C  C379  1  0.013100  0.576000  0.703900  1.0  0.2057
  C  C380  1  0.959400  0.492900  0.631500  1.0  -0.3498
  C  C381  1  0.866500  0.604700  0.707000  1.0  0.1322
  C  C382  1  0.787200  0.583800  0.657000  1.0  -0.0455
  C  C383  1  0.761600  0.558900  0.576100  1.0  -0.119
  C  C384  1  0.687500  0.541000  0.528300  1.0  -0.0935
  C  C385  1  0.637600  0.547900  0.558300  1.0  -0.1043
  C  C386  1  0.660300  0.568000  0.635500  1.0  -0.0723
  C  C387  1  0.735900  0.586800  0.685900  1.0  -0.0779
  C  C388  1  0.348700  0.365300  0.646200  1.0  0.1922
  C  C389  1  0.316700  0.411800  0.660700  1.0  0.1806
  C  C390  1  0.315600  0.388200  0.759200  1.0  0.1689
  C  C391  1  0.350600  0.344700  0.746900  1.0  0.2041
  C  C392  1  0.372100  0.309200  0.796100  1.0  0.2074
  C  C393  1  0.361400  0.327900  0.868500  1.0  -0.353
  C  C394  1  0.397700  0.159500  0.793000  1.0  0.1325
  C  C395  1  0.426800  0.130200  0.843000  1.0  -0.0447
  C  C396  1  0.482800  0.185500  0.923900  1.0  -0.1201
  C  C397  1  0.512700  0.159200  0.971700  1.0  -0.0953
  C  C398  1  0.489600  0.079300  0.941700  1.0  -0.1018
  C  C399  1  0.432500  0.024800  0.864500  1.0  -0.0757
  C  C400  1  0.400900  0.050000  0.814100  1.0  -0.0766
  N  N401  1  0.177300  0.643100  0.311800  1.0  -0.3106
  N  N402  1  0.082900  0.706200  0.282700  1.0  -0.3069
  N  N403  1  0.121900  0.487900  0.228400  1.0  -0.2651
  N  N404  1  0.096900  0.408800  0.175700  1.0  -0.2578
  N  N405  1  0.831300  0.865500  0.188200  1.0  -0.3114
  N  N406  1  0.923500  0.800200  0.217300  1.0  -0.3089
  N  N407  1  0.759500  0.893500  0.271600  1.0  -0.2651
  N  N408  1  0.733100  0.921200  0.324300  1.0  -0.26
  N  N409  1  0.865500  0.177300  0.034200  1.0  -0.3139
  N  N410  1  0.800200  0.082900  0.876700  1.0  -0.3122
  N  N411  1  0.893500  0.121900  0.134000  1.0  -0.2638
  N  N412  1  0.921200  0.096900  0.188100  1.0  -0.2584
  N  N413  1  0.643100  0.831300  0.465800  1.0  -0.3157
  N  N414  1  0.706200  0.923500  0.623300  1.0  -0.3165
  N  N415  1  0.487900  0.759500  0.366000  1.0  -0.2644
  N  N416  1  0.408800  0.733100  0.311900  1.0  -0.2571
  N  N417  1  0.668700  0.856900  0.034200  1.0  -0.3118
  N  N418  1  0.576500  0.793800  0.876700  1.0  -0.3175
  N  N419  1  0.740500  0.012100  0.134000  1.0  -0.2627
  N  N420  1  0.766900  0.091200  0.188100  1.0  -0.2566
  N  N421  1  0.322700  0.634500  0.465800  1.0  -0.3153
  N  N422  1  0.417100  0.699800  0.623300  1.0  -0.3115
  N  N423  1  0.378100  0.606500  0.366000  1.0  -0.2651
  N  N424  1  0.403100  0.578800  0.311900  1.0  -0.2595
  N  N425  1  0.856900  0.322700  0.188200  1.0  -0.3138
  N  N426  1  0.793800  0.417100  0.217300  1.0  -0.3044
  N  N427  1  0.012100  0.378100  0.271600  1.0  -0.2625
  N  N428  1  0.091200  0.403100  0.324300  1.0  -0.2559
  N  N429  1  0.634500  0.668700  0.311800  1.0  -0.3141
  N  N430  1  0.699800  0.576500  0.282700  1.0  -0.3065
  N  N431  1  0.606500  0.740500  0.228400  1.0  -0.266
  N  N432  1  0.578800  0.766900  0.175700  1.0  -0.2571
  N  N433  1  0.822700  0.356900  0.688200  1.0  -0.3106
  N  N434  1  0.917100  0.293800  0.717300  1.0  -0.3092
  N  N435  1  0.878100  0.512100  0.771600  1.0  -0.2666
  N  N436  1  0.903100  0.591200  0.824300  1.0  -0.2576
  N  N437  1  0.168700  0.134500  0.811800  1.0  -0.3109
  N  N438  1  0.076500  0.199800  0.782700  1.0  -0.3051
  N  N439  1  0.240500  0.106500  0.728400  1.0  -0.263
  N  N440  1  0.266900  0.078800  0.675700  1.0  -0.2605
  N  N441  1  0.134500  0.822700  0.965800  1.0  -0.3161
  N  N442  1  0.199800  0.917100  0.123300  1.0  -0.3101
  N  N443  1  0.106500  0.878100  0.866000  1.0  -0.2628
  N  N444  1  0.078800  0.903100  0.811900  1.0  -0.2568
  N  N445  1  0.356900  0.168700  0.534200  1.0  -0.3148
  N  N446  1  0.293800  0.076500  0.376700  1.0  -0.3178
  N  N447  1  0.512100  0.240500  0.634000  1.0  -0.2638
  N  N448  1  0.591200  0.266900  0.688100  1.0  -0.2559
  N  N449  1  0.331300  0.143100  0.965800  1.0  -0.3145
  N  N450  1  0.423500  0.206200  0.123300  1.0  -0.3168
  N  N451  1  0.259500  0.987900  0.866000  1.0  -0.2631
  N  N452  1  0.233100  0.908800  0.811900  1.0  -0.2559
  N  N453  1  0.677300  0.365500  0.534200  1.0  -0.3113
  N  N454  1  0.582900  0.300200  0.376700  1.0  -0.3137
  N  N455  1  0.621900  0.393500  0.634000  1.0  -0.2634
  N  N456  1  0.596900  0.421200  0.688100  1.0  -0.2603
  N  N457  1  0.143100  0.677300  0.811800  1.0  -0.3139
  N  N458  1  0.206200  0.582900  0.782700  1.0  -0.3072
  N  N459  1  0.987900  0.621900  0.728400  1.0  -0.2641
  N  N460  1  0.908800  0.596900  0.675700  1.0  -0.2568
  N  N461  1  0.365500  0.331300  0.688200  1.0  -0.3142
  N  N462  1  0.300200  0.423500  0.717300  1.0  -0.3062
  N  N463  1  0.393500  0.259500  0.771600  1.0  -0.2661
  N  N464  1  0.421200  0.233100  0.824300  1.0  -0.2562
  N  N465  1  0.811060  0.491400  0.413460  1.0  0.6371
  N  N466  1  0.577940  0.397600  0.086540  1.0  0.6403
  N  N467  1  0.397600  0.811060  0.819660  1.0  0.6377
  N  N468  1  0.491400  0.577940  0.680340  1.0  0.6387
  N  N469  1  0.922060  0.008600  0.819660  1.0  0.6385
  N  N470  1  0.688940  0.102400  0.680340  1.0  0.6388
  N  N471  1  0.008600  0.688940  0.086540  1.0  0.6382
  N  N472  1  0.102400  0.922060  0.413460  1.0  0.6389
  N  N473  1  0.188940  0.508600  0.586540  1.0  0.639
  N  N474  1  0.422060  0.602400  0.913460  1.0  0.6396
  N  N475  1  0.602400  0.188940  0.180340  1.0  0.6373
  N  N476  1  0.508600  0.422060  0.319660  1.0  0.6358
  N  N477  1  0.077940  0.991400  0.180340  1.0  0.6388
  N  N478  1  0.311060  0.897600  0.319660  1.0  0.6393
  N  N479  1  0.991400  0.311060  0.913460  1.0  0.6367
  N  N480  1  0.897600  0.077940  0.586540  1.0  0.6393
  O  O481  1  0.745800  0.482900  0.384100  1.0  -0.5391
  O  O482  1  0.862800  0.534300  0.407300  1.0  -0.489
  O  O483  1  0.827500  0.470100  0.461000  1.0  -0.4211
  O  O484  1  0.598800  0.361700  0.115900  1.0  -0.5361
  O  O485  1  0.627000  0.455500  0.092700  1.0  -0.4887
  O  O486  1  0.509100  0.366500  0.039000  1.0  -0.4238
  O  O487  1  0.361700  0.745800  0.762900  1.0  -0.5372
  O  O488  1  0.455500  0.862800  0.828500  1.0  -0.4916
  O  O489  1  0.366500  0.827500  0.857400  1.0  -0.4216
  O  O490  1  0.482900  0.598800  0.737100  1.0  -0.5355
  O  O491  1  0.534300  0.627000  0.671500  1.0  -0.4874
  O  O492  1  0.470100  0.509100  0.642600  1.0  -0.4201
  O  O493  1  0.901200  0.017100  0.762900  1.0  -0.5379
  O  O494  1  0.873000  0.965700  0.828500  1.0  -0.4888
  O  O495  1  0.990900  0.029900  0.857400  1.0  -0.4239
  O  O496  1  0.754200  0.138300  0.737100  1.0  -0.5359
  O  O497  1  0.637200  0.044500  0.671500  1.0  -0.489
  O  O498  1  0.672500  0.133500  0.642600  1.0  -0.4216
  O  O499  1  0.017100  0.754200  0.115900  1.0  -0.5393
  O  O500  1  0.965700  0.637200  0.092700  1.0  -0.4874
  O  O501  1  0.029900  0.672500  0.039000  1.0  -0.4229
  O  O502  1  0.138300  0.901200  0.384100  1.0  -0.5373
  O  O503  1  0.044500  0.873000  0.407300  1.0  -0.4883
  O  O504  1  0.133500  0.990900  0.461000  1.0  -0.4198
  O  O505  1  0.254200  0.517100  0.615900  1.0  -0.538
  O  O506  1  0.137200  0.465700  0.592700  1.0  -0.4897
  O  O507  1  0.172500  0.529900  0.539000  1.0  -0.4227
  O  O508  1  0.401200  0.638300  0.884100  1.0  -0.5378
  O  O509  1  0.373000  0.544500  0.907300  1.0  -0.4877
  O  O510  1  0.490900  0.633500  0.961000  1.0  -0.4242
  O  O511  1  0.638300  0.254200  0.237100  1.0  -0.5376
  O  O512  1  0.544500  0.137200  0.171500  1.0  -0.4886
  O  O513  1  0.633500  0.172500  0.142600  1.0  -0.4214
  O  O514  1  0.517100  0.401200  0.262900  1.0  -0.5367
  O  O515  1  0.465700  0.373000  0.328500  1.0  -0.4876
  O  O516  1  0.529900  0.490900  0.357400  1.0  -0.4202
  O  O517  1  0.098800  0.982900  0.237100  1.0  -0.5344
  O  O518  1  0.127000  0.034300  0.171500  1.0  -0.4884
  O  O519  1  0.009100  0.970100  0.142600  1.0  -0.4247
  O  O520  1  0.245800  0.861700  0.262900  1.0  -0.5373
  O  O521  1  0.362800  0.955500  0.328500  1.0  -0.4908
  O  O522  1  0.327500  0.866500  0.357400  1.0  -0.4218
  O  O523  1  0.982900  0.245800  0.884100  1.0  -0.5374
  O  O524  1  0.034300  0.362800  0.907300  1.0  -0.4888
  O  O525  1  0.970100  0.327500  0.961000  1.0  -0.4209
  O  O526  1  0.861700  0.098800  0.615900  1.0  -0.5367
  O  O527  1  0.955500  0.127000  0.592700  1.0  -0.4877
  O  O528  1  0.866500  0.009100  0.539000  1.0  -0.4197
