# generated using pymatgen
data_TbHC22(Cl2O)6
_symmetry_space_group_name_H-M   'P 1'
_cell_length_a   15.18800000
_cell_length_b   25.73000000
_cell_length_c   26.94000000
_cell_angle_alpha   90.00000000
_cell_angle_beta   90.00000000
_cell_angle_gamma   90.00000000
_symmetry_Int_Tables_number   1
_chemical_formula_structural   TbHC22(Cl2O)6
_chemical_formula_sum   'Tb8 H8 C176 Cl96 O48'
_cell_volume   10527.80824560
_cell_formula_units_Z   8
loop_
 _symmetry_equiv_pos_site_id
 _symmetry_equiv_pos_as_xyz
  1  'x, y, z'
loop_
 _atom_site_type_symbol
 _atom_site_label
 _atom_site_symmetry_multiplicity
 _atom_site_fract_x
 _atom_site_fract_y
 _atom_site_fract_z
 _atom_site_occupancy
 _atom_site_charge
  Tb  Tb1  1  0.350100  0.397140  0.816340  1.0  2.1443
  Tb  Tb2  1  0.350100  0.102860  0.183660  1.0  2.1438
  Tb  Tb3  1  0.149900  0.102860  0.316340  1.0  2.1427
  Tb  Tb4  1  0.149900  0.397140  0.683660  1.0  2.1418
  Tb  Tb5  1  0.649900  0.602860  0.183660  1.0  2.1419
  Tb  Tb6  1  0.649900  0.897140  0.816340  1.0  2.1427
  Tb  Tb7  1  0.850100  0.897140  0.683660  1.0  2.1439
  Tb  Tb8  1  0.850100  0.602860  0.316340  1.0  2.1441
  H  H9  1  0.543300  0.636300  0.589800  1.0  0.2079
  H  H10  1  0.543300  0.863700  0.410200  1.0  0.2069
  H  H11  1  0.956700  0.863700  0.089800  1.0  0.2078
  H  H12  1  0.956700  0.636300  0.910200  1.0  0.207
  H  H13  1  0.456700  0.363700  0.410200  1.0  0.2077
  H  H14  1  0.456700  0.136300  0.589800  1.0  0.2082
  H  H15  1  0.043300  0.136300  0.910200  1.0  0.2066
  H  H16  1  0.043300  0.363700  0.089800  1.0  0.2073
  C  C17  1  0.588800  0.622300  0.611800  1.0  -0.0324
  C  C18  1  0.650400  0.609000  0.571200  1.0  0.0602
  C  C19  1  0.743500  0.616200  0.570400  1.0  0.1796
  C  C20  1  0.795600  0.603300  0.528800  1.0  0.0497
  C  C21  1  0.760800  0.582100  0.486000  1.0  -0.0624
  C  C22  1  0.667900  0.575200  0.484600  1.0  0.0793
  C  C23  1  0.610200  0.586700  0.526700  1.0  -0.0375
  C  C24  1  0.815900  0.568200  0.440200  1.0  0.7186
  C  C25  1  0.526200  0.580300  0.636700  1.0  -0.045
  C  C26  1  0.557200  0.528600  0.648400  1.0  -0.0404
  C  C27  1  0.496900  0.492800  0.669300  1.0  0.1036
  C  C28  1  0.408100  0.504000  0.680100  1.0  -0.0806
  C  C29  1  0.377900  0.555200  0.670700  1.0  0.0196
  C  C30  1  0.439600  0.591900  0.648500  1.0  0.1042
  C  C31  1  0.344600  0.464700  0.703400  1.0  0.7012
  C  C32  1  0.597700  0.672200  0.642700  1.0  0.0108
  C  C33  1  0.596100  0.718500  0.614500  1.0  0.0415
  C  C34  1  0.604900  0.766900  0.637700  1.0  0.0296
  C  C35  1  0.631100  0.770200  0.688800  1.0  -0.0697
  C  C36  1  0.622100  0.724300  0.716600  1.0  0.073
  C  C37  1  0.614100  0.675600  0.694200  1.0  0.0235
  C  C38  1  0.651900  0.821100  0.714000  1.0  0.612
  C  C39  1  0.588800  0.877700  0.388200  1.0  -0.0299
  C  C40  1  0.650400  0.891000  0.428800  1.0  0.0598
  C  C41  1  0.743500  0.883800  0.429600  1.0  0.1799
  C  C42  1  0.795600  0.896700  0.471200  1.0  0.0512
  C  C43  1  0.760800  0.917900  0.514000  1.0  -0.0628
  C  C44  1  0.667900  0.924800  0.515400  1.0  0.0779
  C  C45  1  0.610200  0.913300  0.473300  1.0  -0.0386
  C  C46  1  0.815900  0.931800  0.559800  1.0  0.7181
  C  C47  1  0.526200  0.919700  0.363300  1.0  -0.0453
  C  C48  1  0.557200  0.971400  0.351600  1.0  -0.0419
  C  C49  1  0.496900  0.007200  0.330700  1.0  0.103
  C  C50  1  0.408100  0.996000  0.319900  1.0  -0.081
  C  C51  1  0.377900  0.944800  0.329300  1.0  0.0188
  C  C52  1  0.439600  0.908100  0.351500  1.0  0.1047
  C  C53  1  0.344600  0.035300  0.296600  1.0  0.7011
  C  C54  1  0.597700  0.827800  0.357300  1.0  0.0106
  C  C55  1  0.596100  0.781500  0.385500  1.0  0.0426
  C  C56  1  0.604900  0.733100  0.362300  1.0  0.0289
  C  C57  1  0.631100  0.729800  0.311200  1.0  -0.0699
  C  C58  1  0.622100  0.775700  0.283400  1.0  0.0685
  C  C59  1  0.614100  0.824400  0.305800  1.0  0.0243
  C  C60  1  0.651900  0.678900  0.286000  1.0  0.612
  C  C61  1  0.911200  0.877700  0.111800  1.0  -0.0325
  C  C62  1  0.849600  0.891000  0.071200  1.0  0.0592
  C  C63  1  0.756500  0.883800  0.070400  1.0  0.1785
  C  C64  1  0.704400  0.896700  0.028800  1.0  0.0516
  C  C65  1  0.739200  0.917900  0.986000  1.0  -0.063
  C  C66  1  0.832100  0.924800  0.984600  1.0  0.0811
  C  C67  1  0.889800  0.913300  0.026700  1.0  -0.0345
  C  C68  1  0.684100  0.931800  0.940200  1.0  0.7187
  C  C69  1  0.973800  0.919700  0.136700  1.0  -0.0445
  C  C70  1  0.942800  0.971400  0.148400  1.0  -0.0418
  C  C71  1  0.003100  0.007200  0.169300  1.0  0.1042
  C  C72  1  0.091900  0.996000  0.180100  1.0  -0.0805
  C  C73  1  0.122100  0.944800  0.170700  1.0  0.0194
  C  C74  1  0.060400  0.908100  0.148500  1.0  0.1054
  C  C75  1  0.155400  0.035300  0.203400  1.0  0.701
  C  C76  1  0.902300  0.827800  0.142700  1.0  0.0114
  C  C77  1  0.903900  0.781500  0.114500  1.0  0.043
  C  C78  1  0.895100  0.733100  0.137700  1.0  0.0305
  C  C79  1  0.868900  0.729800  0.188800  1.0  -0.0697
  C  C80  1  0.877900  0.775700  0.216600  1.0  0.0729
  C  C81  1  0.885900  0.824400  0.194200  1.0  0.0241
  C  C82  1  0.848100  0.678900  0.214000  1.0  0.6114
  C  C83  1  0.911200  0.622300  0.888200  1.0  -0.0307
  C  C84  1  0.849600  0.609000  0.928800  1.0  0.0589
  C  C85  1  0.756500  0.616200  0.929600  1.0  0.1782
  C  C86  1  0.704400  0.603300  0.971200  1.0  0.0526
  C  C87  1  0.739200  0.582100  0.014000  1.0  -0.0625
  C  C88  1  0.832100  0.575200  0.015400  1.0  0.0804
  C  C89  1  0.889800  0.586700  0.973300  1.0  -0.0362
  C  C90  1  0.684100  0.568200  0.059800  1.0  0.7188
  C  C91  1  0.973800  0.580300  0.863300  1.0  -0.0452
  C  C92  1  0.942800  0.528600  0.851600  1.0  -0.0421
  C  C93  1  0.003100  0.492800  0.830700  1.0  0.1019
  C  C94  1  0.091900  0.504000  0.819900  1.0  -0.0814
  C  C95  1  0.122100  0.555200  0.829300  1.0  0.0182
  C  C96  1  0.060400  0.591900  0.851500  1.0  0.1046
  C  C97  1  0.155400  0.464700  0.796600  1.0  0.7009
  C  C98  1  0.902300  0.672200  0.857300  1.0  0.0111
  C  C99  1  0.903900  0.718500  0.885500  1.0  0.0437
  C  C100  1  0.895100  0.766900  0.862300  1.0  0.0287
  C  C101  1  0.868900  0.770200  0.811200  1.0  -0.0697
  C  C102  1  0.877900  0.724300  0.783400  1.0  0.067
  C  C103  1  0.885900  0.675600  0.805800  1.0  0.0245
  C  C104  1  0.848100  0.821100  0.786000  1.0  0.6114
  C  C105  1  0.411200  0.377700  0.388200  1.0  -0.03
  C  C106  1  0.349600  0.391000  0.428800  1.0  0.059
  C  C107  1  0.256500  0.383800  0.429600  1.0  0.1771
  C  C108  1  0.204400  0.396700  0.471200  1.0  0.0521
  C  C109  1  0.239200  0.417900  0.514000  1.0  -0.063
  C  C110  1  0.332100  0.424800  0.515400  1.0  0.0799
  C  C111  1  0.389800  0.413300  0.473300  1.0  -0.0359
  C  C112  1  0.184100  0.431800  0.559800  1.0  0.718
  C  C113  1  0.473800  0.419700  0.363300  1.0  -0.0447
  C  C114  1  0.442800  0.471400  0.351600  1.0  -0.0417
  C  C115  1  0.503100  0.507200  0.330700  1.0  0.1036
  C  C116  1  0.591900  0.496000  0.319900  1.0  -0.0811
  C  C117  1  0.622100  0.444800  0.329300  1.0  0.0192
  C  C118  1  0.560400  0.408100  0.351500  1.0  0.1053
  C  C119  1  0.655400  0.535300  0.296600  1.0  0.701
  C  C120  1  0.402300  0.327800  0.357300  1.0  0.0108
  C  C121  1  0.403900  0.281500  0.385500  1.0  0.0436
  C  C122  1  0.395100  0.233100  0.362300  1.0  0.0297
  C  C123  1  0.368900  0.229800  0.311200  1.0  -0.0697
  C  C124  1  0.377900  0.275700  0.283400  1.0  0.0671
  C  C125  1  0.385900  0.324400  0.305800  1.0  0.0245
  C  C126  1  0.348100  0.178900  0.286000  1.0  0.6113
  C  C127  1  0.411200  0.122300  0.611800  1.0  -0.0332
  C  C128  1  0.349600  0.109000  0.571200  1.0  0.0589
  C  C129  1  0.256500  0.116200  0.570400  1.0  0.1787
  C  C130  1  0.204400  0.103300  0.528800  1.0  0.0521
  C  C131  1  0.239200  0.082100  0.486000  1.0  -0.0625
  C  C132  1  0.332100  0.075200  0.484600  1.0  0.0812
  C  C133  1  0.389800  0.086700  0.526700  1.0  -0.035
  C  C134  1  0.184100  0.068200  0.440200  1.0  0.719
  C  C135  1  0.473800  0.080300  0.636700  1.0  -0.0446
  C  C136  1  0.442800  0.028600  0.648400  1.0  -0.0425
  C  C137  1  0.503100  0.992800  0.669300  1.0  0.1028
  C  C138  1  0.591900  0.004000  0.680100  1.0  -0.0807
  C  C139  1  0.622100  0.055200  0.670700  1.0  0.0187
  C  C140  1  0.560400  0.091900  0.648500  1.0  0.1046
  C  C141  1  0.655400  0.964700  0.703400  1.0  0.701
  C  C142  1  0.402300  0.172200  0.642700  1.0  0.0115
  C  C143  1  0.403900  0.218500  0.614500  1.0  0.0419
  C  C144  1  0.395100  0.266900  0.637700  1.0  0.0293
  C  C145  1  0.368900  0.270200  0.688800  1.0  -0.0697
  C  C146  1  0.377900  0.224300  0.716600  1.0  0.0728
  C  C147  1  0.385900  0.175600  0.694200  1.0  0.0242
  C  C148  1  0.348100  0.321100  0.714000  1.0  0.6116
  C  C149  1  0.088800  0.122300  0.888200  1.0  -0.0303
  C  C150  1  0.150400  0.109000  0.928800  1.0  0.0601
  C  C151  1  0.243500  0.116200  0.929600  1.0  0.1802
  C  C152  1  0.295600  0.103300  0.971200  1.0  0.0507
  C  C153  1  0.260800  0.082100  0.014000  1.0  -0.0624
  C  C154  1  0.167900  0.075200  0.015400  1.0  0.0779
  C  C155  1  0.110200  0.086700  0.973300  1.0  -0.0399
  C  C156  1  0.315900  0.068200  0.059800  1.0  0.7193
  C  C157  1  0.026200  0.080300  0.863300  1.0  -0.0456
  C  C158  1  0.057200  0.028600  0.851600  1.0  -0.0402
  C  C159  1  0.996900  0.992800  0.830700  1.0  0.1026
  C  C160  1  0.908100  0.004000  0.819900  1.0  -0.0814
  C  C161  1  0.877900  0.055200  0.829300  1.0  0.0193
  C  C162  1  0.939600  0.091900  0.851500  1.0  0.1043
  C  C163  1  0.844600  0.964700  0.796600  1.0  0.7011
  C  C164  1  0.097700  0.172200  0.857300  1.0  0.0106
  C  C165  1  0.096100  0.218500  0.885500  1.0  0.0432
  C  C166  1  0.104900  0.266900  0.862300  1.0  0.0286
  C  C167  1  0.131100  0.270200  0.811200  1.0  -0.0697
  C  C168  1  0.122100  0.224300  0.783400  1.0  0.0684
  C  C169  1  0.114100  0.175600  0.805800  1.0  0.0244
  C  C170  1  0.151900  0.321100  0.786000  1.0  0.6123
  C  C171  1  0.088800  0.377700  0.111800  1.0  -0.032
  C  C172  1  0.150400  0.391000  0.071200  1.0  0.0602
  C  C173  1  0.243500  0.383800  0.070400  1.0  0.18
  C  C174  1  0.295600  0.396700  0.028800  1.0  0.0502
  C  C175  1  0.260800  0.417900  0.986000  1.0  -0.0627
  C  C176  1  0.167900  0.424800  0.984600  1.0  0.0798
  C  C177  1  0.110200  0.413300  0.026700  1.0  -0.0364
  C  C178  1  0.315900  0.431800  0.940200  1.0  0.7178
  C  C179  1  0.026200  0.419700  0.136700  1.0  -0.0451
  C  C180  1  0.057200  0.471400  0.148400  1.0  -0.0419
  C  C181  1  0.996900  0.507200  0.169300  1.0  0.1036
  C  C182  1  0.908100  0.496000  0.180100  1.0  -0.0803
  C  C183  1  0.877900  0.444800  0.170700  1.0  0.0189
  C  C184  1  0.939600  0.408100  0.148500  1.0  0.1045
  C  C185  1  0.844600  0.535300  0.203400  1.0  0.7012
  C  C186  1  0.097700  0.327800  0.142700  1.0  0.0112
  C  C187  1  0.096100  0.281500  0.114500  1.0  0.0418
  C  C188  1  0.104900  0.233100  0.137700  1.0  0.0299
  C  C189  1  0.131100  0.229800  0.188800  1.0  -0.0698
  C  C190  1  0.122100  0.275700  0.216600  1.0  0.0733
  C  C191  1  0.114100  0.324400  0.194200  1.0  0.0234
  C  C192  1  0.151900  0.178900  0.214000  1.0  0.6118
  Cl  Cl193  1  0.797000  0.638580  0.624180  1.0  -0.0668
  Cl  Cl194  1  0.914800  0.614300  0.529120  1.0  -0.1754
  Cl  Cl195  1  0.615500  0.545460  0.432910  1.0  -0.0679
  Cl  Cl196  1  0.494200  0.578260  0.521920  1.0  -0.1325
  Cl  Cl197  1  0.667900  0.511700  0.636000  1.0  -0.097
  Cl  Cl198  1  0.533300  0.429920  0.678100  1.0  -0.0498
  Cl  Cl199  1  0.266400  0.570990  0.682940  1.0  -0.0827
  Cl  Cl200  1  0.393300  0.652490  0.635160  1.0  -0.0868
  Cl  Cl201  1  0.571100  0.717730  0.551610  1.0  -0.1045
  Cl  Cl202  1  0.602100  0.822760  0.603340  1.0  -0.062
  Cl  Cl203  1  0.645200  0.726010  0.781600  1.0  -0.0994
  Cl  Cl204  1  0.623700  0.620590  0.731060  1.0  -0.0502
  Cl  Cl205  1  0.797000  0.861420  0.375820  1.0  -0.065
  Cl  Cl206  1  0.914800  0.885700  0.470880  1.0  -0.1772
  Cl  Cl207  1  0.615500  0.954540  0.567090  1.0  -0.0674
  Cl  Cl208  1  0.494200  0.921740  0.478080  1.0  -0.1308
  Cl  Cl209  1  0.667900  0.988300  0.364000  1.0  -0.0951
  Cl  Cl210  1  0.533300  0.070080  0.321900  1.0  -0.048
  Cl  Cl211  1  0.266400  0.929010  0.317060  1.0  -0.0832
  Cl  Cl212  1  0.393300  0.847510  0.364840  1.0  -0.0877
  Cl  Cl213  1  0.571100  0.782270  0.448390  1.0  -0.1054
  Cl  Cl214  1  0.602100  0.677240  0.396660  1.0  -0.0635
  Cl  Cl215  1  0.645200  0.773990  0.218400  1.0  -0.1007
  Cl  Cl216  1  0.623700  0.879410  0.268940  1.0  -0.053
  Cl  Cl217  1  0.703000  0.861420  0.124180  1.0  -0.068
  Cl  Cl218  1  0.585200  0.885700  0.029120  1.0  -0.1768
  Cl  Cl219  1  0.884500  0.954540  0.932910  1.0  -0.0671
  Cl  Cl220  1  0.005800  0.921740  0.021920  1.0  -0.1321
  Cl  Cl221  1  0.832100  0.988300  0.136000  1.0  -0.0949
  Cl  Cl222  1  0.966700  0.070080  0.178100  1.0  -0.0491
  Cl  Cl223  1  0.233600  0.929010  0.182940  1.0  -0.0859
  Cl  Cl224  1  0.106700  0.847510  0.135160  1.0  -0.0884
  Cl  Cl225  1  0.928900  0.782270  0.051610  1.0  -0.1033
  Cl  Cl226  1  0.897900  0.677240  0.103340  1.0  -0.0619
  Cl  Cl227  1  0.854800  0.773990  0.281600  1.0  -0.098
  Cl  Cl228  1  0.876300  0.879410  0.231060  1.0  -0.0506
  Cl  Cl229  1  0.703000  0.638580  0.875820  1.0  -0.0661
  Cl  Cl230  1  0.585200  0.614300  0.970880  1.0  -0.1753
  Cl  Cl231  1  0.884500  0.545460  0.067090  1.0  -0.0694
  Cl  Cl232  1  0.005800  0.578260  0.978080  1.0  -0.1318
  Cl  Cl233  1  0.832100  0.511700  0.864000  1.0  -0.0961
  Cl  Cl234  1  0.966700  0.429920  0.821900  1.0  -0.0502
  Cl  Cl235  1  0.233600  0.570990  0.817060  1.0  -0.084
  Cl  Cl236  1  0.106700  0.652490  0.864840  1.0  -0.0873
  Cl  Cl237  1  0.928900  0.717730  0.948390  1.0  -0.1029
  Cl  Cl238  1  0.897900  0.822760  0.896660  1.0  -0.0618
  Cl  Cl239  1  0.854800  0.726010  0.718400  1.0  -0.0978
  Cl  Cl240  1  0.876300  0.620590  0.768940  1.0  -0.0522
  Cl  Cl241  1  0.203000  0.361420  0.375820  1.0  -0.0662
  Cl  Cl242  1  0.085200  0.385700  0.470880  1.0  -0.1767
  Cl  Cl243  1  0.384500  0.454540  0.567090  1.0  -0.0674
  Cl  Cl244  1  0.505800  0.421740  0.478080  1.0  -0.1313
  Cl  Cl245  1  0.332100  0.488300  0.364000  1.0  -0.0944
  Cl  Cl246  1  0.466700  0.570080  0.321900  1.0  -0.0492
  Cl  Cl247  1  0.733600  0.429010  0.317060  1.0  -0.0861
  Cl  Cl248  1  0.606700  0.347510  0.364840  1.0  -0.0886
  Cl  Cl249  1  0.428900  0.282270  0.448390  1.0  -0.1039
  Cl  Cl250  1  0.397900  0.177240  0.396660  1.0  -0.0621
  Cl  Cl251  1  0.354800  0.273990  0.218400  1.0  -0.0973
  Cl  Cl252  1  0.376300  0.379410  0.268940  1.0  -0.0528
  Cl  Cl253  1  0.203000  0.138580  0.624180  1.0  -0.0679
  Cl  Cl254  1  0.085200  0.114300  0.529120  1.0  -0.1752
  Cl  Cl255  1  0.384500  0.045460  0.432910  1.0  -0.0693
  Cl  Cl256  1  0.505800  0.078260  0.521920  1.0  -0.1328
  Cl  Cl257  1  0.332100  0.011700  0.636000  1.0  -0.0961
  Cl  Cl258  1  0.466700  0.929920  0.678100  1.0  -0.0501
  Cl  Cl259  1  0.733600  0.070990  0.682940  1.0  -0.0838
  Cl  Cl260  1  0.606700  0.152490  0.635160  1.0  -0.0872
  Cl  Cl261  1  0.428900  0.217730  0.551610  1.0  -0.1038
  Cl  Cl262  1  0.397900  0.322760  0.603340  1.0  -0.0617
  Cl  Cl263  1  0.354800  0.226010  0.781600  1.0  -0.0984
  Cl  Cl264  1  0.376300  0.120590  0.731060  1.0  -0.0508
  Cl  Cl265  1  0.297000  0.138580  0.875820  1.0  -0.0652
  Cl  Cl266  1  0.414800  0.114300  0.970880  1.0  -0.1756
  Cl  Cl267  1  0.115500  0.045460  0.067090  1.0  -0.0681
  Cl  Cl268  1  0.994200  0.078260  0.978080  1.0  -0.1309
  Cl  Cl269  1  0.167900  0.011700  0.864000  1.0  -0.0973
  Cl  Cl270  1  0.033300  0.929920  0.821900  1.0  -0.0503
  Cl  Cl271  1  0.766400  0.070990  0.817060  1.0  -0.0828
  Cl  Cl272  1  0.893300  0.152490  0.864840  1.0  -0.0869
  Cl  Cl273  1  0.071100  0.217730  0.948390  1.0  -0.1051
  Cl  Cl274  1  0.102100  0.322760  0.896660  1.0  -0.0621
  Cl  Cl275  1  0.145200  0.226010  0.718400  1.0  -0.1004
  Cl  Cl276  1  0.123700  0.120590  0.768940  1.0  -0.0523
  Cl  Cl277  1  0.297000  0.361420  0.124180  1.0  -0.0669
  Cl  Cl278  1  0.414800  0.385700  0.029120  1.0  -0.1771
  Cl  Cl279  1  0.115500  0.454540  0.932910  1.0  -0.0674
  Cl  Cl280  1  0.994200  0.421740  0.021920  1.0  -0.132
  Cl  Cl281  1  0.167900  0.488300  0.136000  1.0  -0.0953
  Cl  Cl282  1  0.033300  0.570080  0.178100  1.0  -0.0479
  Cl  Cl283  1  0.766400  0.429010  0.182940  1.0  -0.0831
  Cl  Cl284  1  0.893300  0.347510  0.135160  1.0  -0.0876
  Cl  Cl285  1  0.071100  0.282270  0.051610  1.0  -0.1035
  Cl  Cl286  1  0.102100  0.177240  0.103340  1.0  -0.0631
  Cl  Cl287  1  0.145200  0.273990  0.281600  1.0  -0.0996
  Cl  Cl288  1  0.123700  0.379410  0.231060  1.0  -0.0502
  O  O289  1  0.857700  0.525800  0.442300  1.0  -0.4692
  O  O290  1  0.363400  0.450400  0.746800  1.0  -0.6837
  O  O291  1  0.605500  0.838200  0.749100  1.0  -0.5038
  O  O292  1  0.818500  0.599500  0.404300  1.0  -0.6816
  O  O293  1  0.725900  0.841100  0.694100  1.0  -0.7077
  O  O294  1  0.279900  0.450500  0.676900  1.0  -0.6644
  O  O295  1  0.857700  0.974200  0.557700  1.0  -0.4694
  O  O296  1  0.363400  0.049600  0.253200  1.0  -0.6827
  O  O297  1  0.605500  0.661800  0.250900  1.0  -0.5055
  O  O298  1  0.818500  0.900500  0.595700  1.0  -0.6836
  O  O299  1  0.725900  0.658900  0.305900  1.0  -0.7079
  O  O300  1  0.279900  0.049500  0.323100  1.0  -0.6626
  O  O301  1  0.642300  0.974200  0.942300  1.0  -0.4691
  O  O302  1  0.136600  0.049600  0.246800  1.0  -0.6828
  O  O303  1  0.894500  0.661800  0.249100  1.0  -0.5038
  O  O304  1  0.681500  0.900500  0.904300  1.0  -0.682
  O  O305  1  0.774100  0.658900  0.194100  1.0  -0.7096
  O  O306  1  0.220100  0.049500  0.176900  1.0  -0.6664
  O  O307  1  0.642300  0.525800  0.057700  1.0  -0.4687
  O  O308  1  0.136600  0.450400  0.753200  1.0  -0.6833
  O  O309  1  0.894500  0.838200  0.750900  1.0  -0.5033
  O  O310  1  0.681500  0.599500  0.095700  1.0  -0.6813
  O  O311  1  0.774100  0.841100  0.805900  1.0  -0.7097
  O  O312  1  0.220100  0.450500  0.823100  1.0  -0.6664
  O  O313  1  0.142300  0.474200  0.557700  1.0  -0.4686
  O  O314  1  0.636600  0.549600  0.253200  1.0  -0.6831
  O  O315  1  0.394500  0.161800  0.250900  1.0  -0.5035
  O  O316  1  0.181500  0.400500  0.595700  1.0  -0.6814
  O  O317  1  0.274100  0.158900  0.305900  1.0  -0.7093
  O  O318  1  0.720100  0.549500  0.323100  1.0  -0.6658
  O  O319  1  0.142300  0.025800  0.442300  1.0  -0.4692
  O  O320  1  0.636600  0.950400  0.746800  1.0  -0.6827
  O  O321  1  0.394500  0.338200  0.749100  1.0  -0.5039
  O  O322  1  0.181500  0.099500  0.404300  1.0  -0.6808
  O  O323  1  0.274100  0.341100  0.694100  1.0  -0.7098
  O  O324  1  0.720100  0.950500  0.676900  1.0  -0.6664
  O  O325  1  0.357700  0.025800  0.057700  1.0  -0.4687
  O  O326  1  0.863400  0.950400  0.753200  1.0  -0.683
  O  O327  1  0.105500  0.338200  0.750900  1.0  -0.5052
  O  O328  1  0.318500  0.099500  0.095700  1.0  -0.6837
  O  O329  1  0.225900  0.341100  0.805900  1.0  -0.708
  O  O330  1  0.779900  0.950500  0.823100  1.0  -0.6636
  O  O331  1  0.357700  0.474200  0.942300  1.0  -0.4697
  O  O332  1  0.863400  0.549600  0.246800  1.0  -0.6834
  O  O333  1  0.105500  0.161800  0.249100  1.0  -0.5033
  O  O334  1  0.318500  0.400500  0.904300  1.0  -0.6823
  O  O335  1  0.225900  0.158900  0.194100  1.0  -0.7077
  O  O336  1  0.779900  0.549500  0.176900  1.0  -0.6641
