# generated using pymatgen
data_TbC22(Cl2O)6
_symmetry_space_group_name_H-M   'P 1'
_cell_length_a   25.06920000
_cell_length_b   26.56220000
_cell_length_c   15.24430000
_cell_angle_alpha   90.00000000
_cell_angle_beta   90.00000000
_cell_angle_gamma   90.00000000
_symmetry_Int_Tables_number   1
_chemical_formula_structural   TbC22(Cl2O)6
_chemical_formula_sum   'Tb8 C176 Cl96 O48'
_cell_volume   10151.07424897
_cell_formula_units_Z   8
loop_
 _symmetry_equiv_pos_site_id
 _symmetry_equiv_pos_as_xyz
  1  'x, y, z'
loop_
 _atom_site_type_symbol
 _atom_site_label
 _atom_site_symmetry_multiplicity
 _atom_site_fract_x
 _atom_site_fract_y
 _atom_site_fract_z
 _atom_site_occupancy
 _atom_site_charge
  Tb  Tb1  1  0.899500  0.683390  0.654820  1.0  2.0703
  Tb  Tb2  1  0.600500  0.316610  0.654820  1.0  2.0685
  Tb  Tb3  1  0.600500  0.183390  0.845180  1.0  2.0495
  Tb  Tb4  1  0.899500  0.816610  0.845180  1.0  2.0494
  Tb  Tb5  1  0.100500  0.316610  0.345180  1.0  2.0496
  Tb  Tb6  1  0.399500  0.683390  0.345180  1.0  2.0493
  Tb  Tb7  1  0.399500  0.816610  0.154820  1.0  2.0687
  Tb  Tb8  1  0.100500  0.183390  0.154820  1.0  2.0702
  C  C9  1  0.968010  0.796860  0.657900  1.0  0.689
  C  C10  1  0.062200  0.060300  0.191500  1.0  0.6989
  C  C11  1  0.321520  0.786790  0.340800  1.0  0.6793
  C  C12  1  0.006190  0.820350  0.591500  1.0  -0.1065
  C  C13  1  0.059400  0.829510  0.614100  1.0  0.0091
  C  C14  1  0.093790  0.851230  0.554100  1.0  0.1662
  C  C15  1  0.077720  0.864310  0.469100  1.0  0.0178
  C  C16  1  0.023950  0.856300  0.449100  1.0  0.0813
  C  C17  1  0.989610  0.834150  0.509300  1.0  0.0863
  C  C18  1  0.116000  0.884100  0.403400  1.0  -0.0349
  C  C19  1  0.078000  0.014480  0.246500  1.0  -0.1249
  C  C20  1  0.070000  0.014590  0.337000  1.0  0.1008
  C  C21  1  0.083300  0.973150  0.387700  1.0  0.0804
  C  C22  1  0.103150  0.929280  0.349600  1.0  -0.0066
  C  C23  1  0.110200  0.929450  0.259200  1.0  0.1326
  C  C24  1  0.098300  0.971900  0.209100  1.0  0.0401
  C  C25  1  0.168100  0.858900  0.392600  1.0  -0.0746
  C  C26  1  0.216010  0.886090  0.393900  1.0  0.1776
  C  C27  1  0.265360  0.862830  0.380200  1.0  0.0209
  C  C28  1  0.268700  0.811390  0.365200  1.0  -0.1719
  C  C29  1  0.221230  0.783990  0.369400  1.0  0.0681
  C  C30  1  0.172140  0.807130  0.380800  1.0  0.0471
  C  C31  1  0.531990  0.203140  0.657900  1.0  0.6879
  C  C32  1  0.437800  0.939700  0.191500  1.0  0.698
  C  C33  1  0.178480  0.213210  0.340800  1.0  0.6791
  C  C34  1  0.493810  0.179650  0.591500  1.0  -0.108
  C  C35  1  0.440600  0.170490  0.614100  1.0  0.0078
  C  C36  1  0.406210  0.148770  0.554100  1.0  0.1693
  C  C37  1  0.422280  0.135690  0.469100  1.0  0.0172
  C  C38  1  0.476050  0.143700  0.449100  1.0  0.0829
  C  C39  1  0.510390  0.165850  0.509300  1.0  0.0844
  C  C40  1  0.384000  0.115900  0.403400  1.0  -0.0349
  C  C41  1  0.422000  0.985520  0.246500  1.0  -0.1246
  C  C42  1  0.430000  0.985410  0.337000  1.0  0.1013
  C  C43  1  0.416700  0.026850  0.387700  1.0  0.0796
  C  C44  1  0.396850  0.070720  0.349600  1.0  -0.0058
  C  C45  1  0.389800  0.070550  0.259200  1.0  0.133
  C  C46  1  0.401700  0.028100  0.209100  1.0  0.0404
  C  C47  1  0.331900  0.141100  0.392600  1.0  -0.0759
  C  C48  1  0.283990  0.113910  0.393900  1.0  0.1785
  C  C49  1  0.234640  0.137170  0.380200  1.0  0.0216
  C  C50  1  0.231300  0.188610  0.365200  1.0  -0.1713
  C  C51  1  0.278770  0.216010  0.369400  1.0  0.0674
  C  C52  1  0.327860  0.192870  0.380800  1.0  0.047
  C  C53  1  0.531990  0.296860  0.842100  1.0  0.6883
  C  C54  1  0.437800  0.560300  0.308500  1.0  0.6975
  C  C55  1  0.178480  0.286790  0.159200  1.0  0.6798
  C  C56  1  0.493810  0.320350  0.908500  1.0  -0.1068
  C  C57  1  0.440600  0.329510  0.885900  1.0  0.008
  C  C58  1  0.406210  0.351230  0.945900  1.0  0.1666
  C  C59  1  0.422280  0.364310  0.030900  1.0  0.0175
  C  C60  1  0.476050  0.356300  0.050900  1.0  0.084
  C  C61  1  0.510390  0.334150  0.990700  1.0  0.0838
  C  C62  1  0.384000  0.384100  0.096600  1.0  -0.0351
  C  C63  1  0.422000  0.514480  0.253500  1.0  -0.1252
  C  C64  1  0.430000  0.514590  0.163000  1.0  0.1031
  C  C65  1  0.416700  0.473150  0.112300  1.0  0.0783
  C  C66  1  0.396850  0.429280  0.150400  1.0  -0.0063
  C  C67  1  0.389800  0.429450  0.240800  1.0  0.1303
  C  C68  1  0.401700  0.471900  0.290900  1.0  0.0442
  C  C69  1  0.331900  0.358900  0.107400  1.0  -0.0758
  C  C70  1  0.283990  0.386090  0.106100  1.0  0.1789
  C  C71  1  0.234640  0.362830  0.119800  1.0  0.0211
  C  C72  1  0.231300  0.311390  0.134800  1.0  -0.171
  C  C73  1  0.278770  0.283990  0.130600  1.0  0.0683
  C  C74  1  0.327860  0.307130  0.119200  1.0  0.0499
  C  C75  1  0.968010  0.703140  0.842100  1.0  0.6886
  C  C76  1  0.062200  0.439700  0.308500  1.0  0.6964
  C  C77  1  0.321520  0.713210  0.159200  1.0  0.6799
  C  C78  1  0.006190  0.679650  0.908500  1.0  -0.1062
  C  C79  1  0.059400  0.670490  0.885900  1.0  0.0082
  C  C80  1  0.093790  0.648770  0.945900  1.0  0.1659
  C  C81  1  0.077720  0.635690  0.030900  1.0  0.0172
  C  C82  1  0.023950  0.643700  0.050900  1.0  0.0825
  C  C83  1  0.989610  0.665850  0.990700  1.0  0.0872
  C  C84  1  0.116000  0.615900  0.096600  1.0  -0.0351
  C  C85  1  0.078000  0.485520  0.253500  1.0  -0.126
  C  C86  1  0.070000  0.485410  0.163000  1.0  0.1022
  C  C87  1  0.083300  0.526850  0.112300  1.0  0.0784
  C  C88  1  0.103150  0.570720  0.150400  1.0  -0.0063
  C  C89  1  0.110200  0.570550  0.240800  1.0  0.1311
  C  C90  1  0.098300  0.528100  0.290900  1.0  0.0446
  C  C91  1  0.168100  0.641100  0.107400  1.0  -0.0744
  C  C92  1  0.216010  0.613910  0.106100  1.0  0.1789
  C  C93  1  0.265360  0.637170  0.119800  1.0  0.0206
  C  C94  1  0.268700  0.688610  0.134800  1.0  -0.1712
  C  C95  1  0.221230  0.716010  0.130600  1.0  0.0677
  C  C96  1  0.172140  0.692870  0.119200  1.0  0.046
  C  C97  1  0.031990  0.203140  0.342100  1.0  0.6881
  C  C98  1  0.937800  0.939700  0.808500  1.0  0.6975
  C  C99  1  0.678480  0.213210  0.659200  1.0  0.6799
  C  C100  1  0.993810  0.179650  0.408500  1.0  -0.1074
  C  C101  1  0.940600  0.170490  0.385900  1.0  0.0084
  C  C102  1  0.906210  0.148770  0.445900  1.0  0.1668
  C  C103  1  0.922280  0.135690  0.530900  1.0  0.0172
  C  C104  1  0.976050  0.143700  0.550900  1.0  0.0838
  C  C105  1  0.010390  0.165850  0.490700  1.0  0.0841
  C  C106  1  0.884000  0.115900  0.596600  1.0  -0.0351
  C  C107  1  0.922000  0.985520  0.753500  1.0  -0.1253
  C  C108  1  0.930000  0.985410  0.663000  1.0  0.1036
  C  C109  1  0.916700  0.026850  0.612300  1.0  0.0784
  C  C110  1  0.896850  0.070720  0.650400  1.0  -0.006
  C  C111  1  0.889800  0.070550  0.740800  1.0  0.131
  C  C112  1  0.901700  0.028100  0.790900  1.0  0.0444
  C  C113  1  0.831900  0.141100  0.607400  1.0  -0.0756
  C  C114  1  0.783990  0.113910  0.606100  1.0  0.1786
  C  C115  1  0.734640  0.137170  0.619800  1.0  0.0201
  C  C116  1  0.731300  0.188610  0.634800  1.0  -0.1708
  C  C117  1  0.778770  0.216010  0.630600  1.0  0.068
  C  C118  1  0.827860  0.192870  0.619200  1.0  0.0471
  C  C119  1  0.468010  0.796860  0.342100  1.0  0.6889
  C  C120  1  0.562200  0.060300  0.808500  1.0  0.6959
  C  C121  1  0.821520  0.786790  0.659200  1.0  0.6799
  C  C122  1  0.506190  0.820350  0.408500  1.0  -0.1059
  C  C123  1  0.559400  0.829510  0.385900  1.0  0.0086
  C  C124  1  0.593790  0.851230  0.445900  1.0  0.1658
  C  C125  1  0.577720  0.864310  0.530900  1.0  0.0176
  C  C126  1  0.523950  0.856300  0.550900  1.0  0.0826
  C  C127  1  0.489610  0.834150  0.490700  1.0  0.0864
  C  C128  1  0.616000  0.884100  0.596600  1.0  -0.0351
  C  C129  1  0.578000  0.014480  0.753500  1.0  -0.1258
  C  C130  1  0.570000  0.014590  0.663000  1.0  0.1029
  C  C131  1  0.583300  0.973150  0.612300  1.0  0.0786
  C  C132  1  0.603150  0.929280  0.650400  1.0  -0.0065
  C  C133  1  0.610200  0.929450  0.740800  1.0  0.1304
  C  C134  1  0.598300  0.971900  0.790900  1.0  0.0445
  C  C135  1  0.668100  0.858900  0.607400  1.0  -0.0744
  C  C136  1  0.716010  0.886090  0.606100  1.0  0.1779
  C  C137  1  0.765360  0.862830  0.619800  1.0  0.0196
  C  C138  1  0.768700  0.811390  0.634800  1.0  -0.1713
  C  C139  1  0.721230  0.783990  0.630600  1.0  0.0683
  C  C140  1  0.672140  0.807130  0.619200  1.0  0.0473
  C  C141  1  0.468010  0.703140  0.157900  1.0  0.6885
  C  C142  1  0.562200  0.439700  0.691500  1.0  0.699
  C  C143  1  0.821520  0.713210  0.840800  1.0  0.6793
  C  C144  1  0.506190  0.679650  0.091500  1.0  -0.1068
  C  C145  1  0.559400  0.670490  0.114100  1.0  0.0087
  C  C146  1  0.593790  0.648770  0.054100  1.0  0.1666
  C  C147  1  0.577720  0.635690  0.969100  1.0  0.0172
  C  C148  1  0.523950  0.643700  0.949100  1.0  0.0812
  C  C149  1  0.489610  0.665850  0.009300  1.0  0.0869
  C  C150  1  0.616000  0.615900  0.903400  1.0  -0.0349
  C  C151  1  0.578000  0.485520  0.746500  1.0  -0.1254
  C  C152  1  0.570000  0.485410  0.837000  1.0  0.1006
  C  C153  1  0.583300  0.526850  0.887700  1.0  0.08
  C  C154  1  0.603150  0.570720  0.849600  1.0  -0.0062
  C  C155  1  0.610200  0.570550  0.759200  1.0  0.1332
  C  C156  1  0.598300  0.528100  0.709100  1.0  0.0403
  C  C157  1  0.668100  0.641100  0.892600  1.0  -0.0745
  C  C158  1  0.716010  0.613910  0.893900  1.0  0.1788
  C  C159  1  0.765360  0.637170  0.880200  1.0  0.0217
  C  C160  1  0.768700  0.688610  0.865200  1.0  -0.1719
  C  C161  1  0.721230  0.716010  0.869400  1.0  0.0672
  C  C162  1  0.672140  0.692870  0.880800  1.0  0.0459
  C  C163  1  0.031990  0.296860  0.157900  1.0  0.6883
  C  C164  1  0.937800  0.560300  0.691500  1.0  0.6981
  C  C165  1  0.678480  0.286790  0.840800  1.0  0.679
  C  C166  1  0.993810  0.320350  0.091500  1.0  -0.1074
  C  C167  1  0.940600  0.329510  0.114100  1.0  0.0078
  C  C168  1  0.906210  0.351230  0.054100  1.0  0.1683
  C  C169  1  0.922280  0.364310  0.969100  1.0  0.0177
  C  C170  1  0.976050  0.356300  0.949100  1.0  0.0829
  C  C171  1  0.010390  0.334150  0.009300  1.0  0.0842
  C  C172  1  0.884000  0.384100  0.903400  1.0  -0.0349
  C  C173  1  0.922000  0.514480  0.746500  1.0  -0.1243
  C  C174  1  0.930000  0.514590  0.837000  1.0  0.1008
  C  C175  1  0.916700  0.473150  0.887700  1.0  0.0798
  C  C176  1  0.896850  0.429280  0.849600  1.0  -0.0062
  C  C177  1  0.889800  0.429450  0.759200  1.0  0.1322
  C  C178  1  0.901700  0.471900  0.709100  1.0  0.04
  C  C179  1  0.831900  0.358900  0.892600  1.0  -0.076
  C  C180  1  0.783990  0.386090  0.893900  1.0  0.1789
  C  C181  1  0.734640  0.362830  0.880200  1.0  0.023
  C  C182  1  0.731300  0.311390  0.865200  1.0  -0.1714
  C  C183  1  0.778770  0.283990  0.869400  1.0  0.068
  C  C184  1  0.827860  0.307130  0.880800  1.0  0.0495
  Cl  Cl185  1  0.081070  0.813070  0.716900  1.0  -0.0646
  Cl  Cl186  1  0.158350  0.864550  0.588660  1.0  -0.0829
  Cl  Cl187  1  0.999570  0.871620  0.346490  1.0  -0.0713
  Cl  Cl188  1  0.923150  0.824580  0.481540  1.0  -0.0719
  Cl  Cl189  1  0.042940  0.067350  0.384870  1.0  -0.0428
  Cl  Cl190  1  0.077090  0.977990  0.500050  1.0  -0.0741
  Cl  Cl191  1  0.129710  0.874700  0.205940  1.0  -0.0694
  Cl  Cl192  1  0.108560  0.971180  0.097020  1.0  -0.0877
  Cl  Cl193  1  0.215160  0.949440  0.417290  1.0  -0.0684
  Cl  Cl194  1  0.323240  0.897740  0.384580  1.0  -0.0672
  Cl  Cl195  1  0.223410  0.719510  0.351710  1.0  -0.075
  Cl  Cl196  1  0.115060  0.770770  0.372980  1.0  -0.0763
  Cl  Cl197  1  0.418930  0.186930  0.716900  1.0  -0.0633
  Cl  Cl198  1  0.341650  0.135450  0.588660  1.0  -0.0823
  Cl  Cl199  1  0.500430  0.128380  0.346490  1.0  -0.0714
  Cl  Cl200  1  0.576850  0.175420  0.481540  1.0  -0.0709
  Cl  Cl201  1  0.457060  0.932650  0.384870  1.0  -0.0444
  Cl  Cl202  1  0.422910  0.022010  0.500050  1.0  -0.0744
  Cl  Cl203  1  0.370290  0.125300  0.205940  1.0  -0.0694
  Cl  Cl204  1  0.391440  0.028820  0.097020  1.0  -0.0872
  Cl  Cl205  1  0.284840  0.050560  0.417290  1.0  -0.0686
  Cl  Cl206  1  0.176760  0.102260  0.384580  1.0  -0.0667
  Cl  Cl207  1  0.276590  0.280490  0.351710  1.0  -0.0742
  Cl  Cl208  1  0.384940  0.229230  0.372980  1.0  -0.0761
  Cl  Cl209  1  0.418930  0.313070  0.783100  1.0  -0.0647
  Cl  Cl210  1  0.341650  0.364550  0.911340  1.0  -0.0833
  Cl  Cl211  1  0.500430  0.371620  0.153510  1.0  -0.0724
  Cl  Cl212  1  0.576850  0.324580  0.018460  1.0  -0.0724
  Cl  Cl213  1  0.457060  0.567350  0.115130  1.0  -0.0429
  Cl  Cl214  1  0.422910  0.477990  0.999950  1.0  -0.0767
  Cl  Cl215  1  0.370290  0.374700  0.294060  1.0  -0.0687
  Cl  Cl216  1  0.391440  0.471180  0.402980  1.0  -0.0908
  Cl  Cl217  1  0.284840  0.449440  0.082710  1.0  -0.0693
  Cl  Cl218  1  0.176760  0.397740  0.115420  1.0  -0.0679
  Cl  Cl219  1  0.276590  0.219510  0.148290  1.0  -0.0739
  Cl  Cl220  1  0.384940  0.270770  0.127020  1.0  -0.0763
  Cl  Cl221  1  0.081070  0.686930  0.783100  1.0  -0.0651
  Cl  Cl222  1  0.158350  0.635450  0.911340  1.0  -0.0829
  Cl  Cl223  1  0.999570  0.628380  0.153510  1.0  -0.071
  Cl  Cl224  1  0.923150  0.675420  0.018460  1.0  -0.0728
  Cl  Cl225  1  0.042940  0.432650  0.115130  1.0  -0.043
  Cl  Cl226  1  0.077090  0.522010  0.999950  1.0  -0.0757
  Cl  Cl227  1  0.129710  0.625300  0.294060  1.0  -0.0677
  Cl  Cl228  1  0.108560  0.528820  0.402980  1.0  -0.09
  Cl  Cl229  1  0.215160  0.550560  0.082710  1.0  -0.068
  Cl  Cl230  1  0.323240  0.602260  0.115420  1.0  -0.0669
  Cl  Cl231  1  0.223410  0.780490  0.148290  1.0  -0.0742
  Cl  Cl232  1  0.115060  0.729230  0.127020  1.0  -0.0769
  Cl  Cl233  1  0.918930  0.186930  0.283100  1.0  -0.0642
  Cl  Cl234  1  0.841650  0.135450  0.411340  1.0  -0.0828
  Cl  Cl235  1  0.000430  0.128380  0.653510  1.0  -0.0719
  Cl  Cl236  1  0.076850  0.175420  0.518460  1.0  -0.0724
  Cl  Cl237  1  0.957060  0.932650  0.615130  1.0  -0.0439
  Cl  Cl238  1  0.922910  0.022010  0.499950  1.0  -0.0761
  Cl  Cl239  1  0.870290  0.125300  0.794060  1.0  -0.0679
  Cl  Cl240  1  0.891440  0.028820  0.902980  1.0  -0.0882
  Cl  Cl241  1  0.784840  0.050560  0.582710  1.0  -0.0688
  Cl  Cl242  1  0.676760  0.102260  0.615420  1.0  -0.0669
  Cl  Cl243  1  0.776590  0.280490  0.648290  1.0  -0.0747
  Cl  Cl244  1  0.884940  0.229230  0.627020  1.0  -0.0763
  Cl  Cl245  1  0.581070  0.813070  0.283100  1.0  -0.0657
  Cl  Cl246  1  0.658350  0.864550  0.411340  1.0  -0.0834
  Cl  Cl247  1  0.499570  0.871620  0.653510  1.0  -0.0715
  Cl  Cl248  1  0.423150  0.824580  0.518460  1.0  -0.0729
  Cl  Cl249  1  0.542940  0.067350  0.615130  1.0  -0.0424
  Cl  Cl250  1  0.577090  0.977990  0.499950  1.0  -0.076
  Cl  Cl251  1  0.629710  0.874700  0.794060  1.0  -0.0683
  Cl  Cl252  1  0.608560  0.971180  0.902980  1.0  -0.0877
  Cl  Cl253  1  0.715160  0.949440  0.582710  1.0  -0.0687
  Cl  Cl254  1  0.823240  0.897740  0.615420  1.0  -0.068
  Cl  Cl255  1  0.723410  0.719510  0.648290  1.0  -0.0733
  Cl  Cl256  1  0.615060  0.770770  0.627020  1.0  -0.0769
  Cl  Cl257  1  0.581070  0.686930  0.216900  1.0  -0.0642
  Cl  Cl258  1  0.658350  0.635450  0.088660  1.0  -0.0831
  Cl  Cl259  1  0.499570  0.628380  0.846490  1.0  -0.0711
  Cl  Cl260  1  0.423150  0.675420  0.981540  1.0  -0.0714
  Cl  Cl261  1  0.542940  0.432650  0.884870  1.0  -0.0437
  Cl  Cl262  1  0.577090  0.522010  0.000050  1.0  -0.0745
  Cl  Cl263  1  0.629710  0.625300  0.705940  1.0  -0.0697
  Cl  Cl264  1  0.608560  0.528820  0.597020  1.0  -0.0905
  Cl  Cl265  1  0.715160  0.550560  0.917290  1.0  -0.068
  Cl  Cl266  1  0.823240  0.602260  0.884580  1.0  -0.0667
  Cl  Cl267  1  0.723410  0.780490  0.851710  1.0  -0.0735
  Cl  Cl268  1  0.615060  0.729230  0.872980  1.0  -0.0766
  Cl  Cl269  1  0.918930  0.313070  0.216900  1.0  -0.0635
  Cl  Cl270  1  0.841650  0.364550  0.088660  1.0  -0.0822
  Cl  Cl271  1  0.000430  0.371620  0.846490  1.0  -0.0718
  Cl  Cl272  1  0.076850  0.324580  0.981540  1.0  -0.0715
  Cl  Cl273  1  0.957060  0.567350  0.884870  1.0  -0.0436
  Cl  Cl274  1  0.922910  0.477990  0.000050  1.0  -0.0748
  Cl  Cl275  1  0.870290  0.374700  0.705940  1.0  -0.0693
  Cl  Cl276  1  0.891440  0.471180  0.597020  1.0  -0.0897
  Cl  Cl277  1  0.784840  0.449440  0.917290  1.0  -0.0691
  Cl  Cl278  1  0.676760  0.397740  0.884580  1.0  -0.0671
  Cl  Cl279  1  0.776590  0.219510  0.851710  1.0  -0.0756
  Cl  Cl280  1  0.884940  0.270770  0.872980  1.0  -0.0757
  O  O281  1  0.953270  0.753030  0.642000  1.0  -0.6736
  O  O282  1  0.955100  0.823550  0.720900  1.0  -0.6515
  O  O283  1  0.018100  0.059400  0.157100  1.0  -0.4909
  O  O284  1  0.095730  0.095270  0.187800  1.0  -0.6883
  O  O285  1  0.342420  0.804600  0.272700  1.0  -0.7345
  O  O286  1  0.338240  0.751090  0.386400  1.0  -0.5417
  O  O287  1  0.546730  0.246970  0.642000  1.0  -0.6743
  O  O288  1  0.544900  0.176450  0.720900  1.0  -0.6497
  O  O289  1  0.481900  0.940600  0.157100  1.0  -0.4909
  O  O290  1  0.404270  0.904730  0.187800  1.0  -0.6882
  O  O291  1  0.157580  0.195400  0.272700  1.0  -0.7363
  O  O292  1  0.161760  0.248910  0.386400  1.0  -0.5413
  O  O293  1  0.546730  0.253030  0.858000  1.0  -0.6735
  O  O294  1  0.544900  0.323550  0.779100  1.0  -0.6524
  O  O295  1  0.481900  0.559400  0.342900  1.0  -0.492
  O  O296  1  0.404270  0.595270  0.312200  1.0  -0.6878
  O  O297  1  0.157580  0.304600  0.227300  1.0  -0.7349
  O  O298  1  0.161760  0.251090  0.113600  1.0  -0.5435
  O  O299  1  0.953270  0.746970  0.858000  1.0  -0.6732
  O  O300  1  0.955100  0.676450  0.779100  1.0  -0.6521
  O  O301  1  0.018100  0.440600  0.342900  1.0  -0.4917
  O  O302  1  0.095730  0.404730  0.312200  1.0  -0.689
  O  O303  1  0.342420  0.695400  0.227300  1.0  -0.7352
  O  O304  1  0.338240  0.748910  0.113600  1.0  -0.5427
  O  O305  1  0.046730  0.246970  0.358000  1.0  -0.6747
  O  O306  1  0.044900  0.176450  0.279100  1.0  -0.6516
  O  O307  1  0.981900  0.940600  0.842900  1.0  -0.4923
  O  O308  1  0.904270  0.904730  0.812200  1.0  -0.6888
  O  O309  1  0.657580  0.195400  0.727300  1.0  -0.7352
  O  O310  1  0.661760  0.248910  0.613600  1.0  -0.543
  O  O311  1  0.453270  0.753030  0.358000  1.0  -0.6733
  O  O312  1  0.455100  0.823550  0.279100  1.0  -0.6527
  O  O313  1  0.518100  0.059400  0.842900  1.0  -0.4914
  O  O314  1  0.595730  0.095270  0.812200  1.0  -0.6888
  O  O315  1  0.842420  0.804600  0.727300  1.0  -0.7349
  O  O316  1  0.838240  0.751090  0.613600  1.0  -0.543
  O  O317  1  0.453270  0.746970  0.142000  1.0  -0.6728
  O  O318  1  0.455100  0.676450  0.220900  1.0  -0.6503
  O  O319  1  0.518100  0.440600  0.657100  1.0  -0.491
  O  O320  1  0.595730  0.404730  0.687800  1.0  -0.6886
  O  O321  1  0.842420  0.695400  0.772700  1.0  -0.7364
  O  O322  1  0.838240  0.748910  0.886400  1.0  -0.541
  O  O323  1  0.046730  0.253030  0.142000  1.0  -0.674
  O  O324  1  0.044900  0.323550  0.220900  1.0  -0.6512
  O  O325  1  0.981900  0.559400  0.657100  1.0  -0.4908
  O  O326  1  0.904270  0.595270  0.687800  1.0  -0.6874
  O  O327  1  0.657580  0.304600  0.772700  1.0  -0.7343
  O  O328  1  0.661760  0.251090  0.886400  1.0  -0.5423
