# generated using pymatgen
data_EuC22(Cl2O)6
_symmetry_space_group_name_H-M   'P 1'
_cell_length_a   25.12800000
_cell_length_b   26.70400000
_cell_length_c   14.85000000
_cell_angle_alpha   90.00000000
_cell_angle_beta   90.00000000
_cell_angle_gamma   90.00000000
_symmetry_Int_Tables_number   1
_chemical_formula_structural   EuC22(Cl2O)6
_chemical_formula_sum   'Eu8 C176 Cl96 O48'
_cell_volume   9964.61896320
_cell_formula_units_Z   8
loop_
 _symmetry_equiv_pos_site_id
 _symmetry_equiv_pos_as_xyz
  1  'x, y, z'
loop_
 _atom_site_type_symbol
 _atom_site_label
 _atom_site_symmetry_multiplicity
 _atom_site_fract_x
 _atom_site_fract_y
 _atom_site_fract_z
 _atom_site_occupancy
 _atom_site_charge
  Eu  Eu1  1  0.899330  0.684220  0.649560  1.0  2.0424
  Eu  Eu2  1  0.600670  0.315780  0.649560  1.0  2.041
  Eu  Eu3  1  0.600670  0.184220  0.850440  1.0  2.0224
  Eu  Eu4  1  0.899330  0.815780  0.850440  1.0  2.0227
  Eu  Eu5  1  0.100670  0.315780  0.350440  1.0  2.0228
  Eu  Eu6  1  0.399330  0.684220  0.350440  1.0  2.0225
  Eu  Eu7  1  0.399330  0.815780  0.149560  1.0  2.0411
  Eu  Eu8  1  0.100670  0.184220  0.149560  1.0  2.0421
  C  C9  1  0.968200  0.796900  0.656000  1.0  0.6872
  C  C10  1  0.062300  0.061300  0.183200  1.0  0.698
  C  C11  1  0.321100  0.788000  0.342000  1.0  0.6878
  C  C12  1  0.007300  0.821300  0.590000  1.0  -0.1374
  C  C13  1  0.059300  0.830500  0.613100  1.0  0.0621
  C  C14  1  0.094200  0.852500  0.552200  1.0  0.1668
  C  C15  1  0.078100  0.866400  0.466700  1.0  0.0441
  C  C16  1  0.024700  0.858400  0.444900  1.0  0.0143
  C  C17  1  0.990700  0.836000  0.504800  1.0  0.0838
  C  C18  1  0.117100  0.885800  0.401300  1.0  -0.029
  C  C19  1  0.077900  0.015800  0.239700  1.0  -0.1319
  C  C20  1  0.069800  0.014900  0.331300  1.0  0.0929
  C  C21  1  0.084300  0.974200  0.385900  1.0  0.0153
  C  C22  1  0.104000  0.930700  0.345000  1.0  -0.0014
  C  C23  1  0.111700  0.931400  0.252200  1.0  0.137
  C  C24  1  0.100000  0.972900  0.202300  1.0  0.0412
  C  C25  1  0.168700  0.860500  0.389900  1.0  -0.0219
  C  C26  1  0.216900  0.886800  0.391000  1.0  0.1706
  C  C27  1  0.265700  0.863700  0.379000  1.0  0.0246
  C  C28  1  0.269300  0.812500  0.367000  1.0  -0.1207
  C  C29  1  0.221800  0.785200  0.370200  1.0  0.0336
  C  C30  1  0.172700  0.808100  0.379400  1.0  0.0112
  C  C31  1  0.531800  0.203100  0.656000  1.0  0.6848
  C  C32  1  0.437700  0.938700  0.183200  1.0  0.6976
  C  C33  1  0.178900  0.212000  0.342000  1.0  0.688
  C  C34  1  0.492700  0.178700  0.590000  1.0  -0.1386
  C  C35  1  0.440700  0.169500  0.613100  1.0  0.0617
  C  C36  1  0.405800  0.147500  0.552200  1.0  0.1702
  C  C37  1  0.421900  0.133600  0.466700  1.0  0.0448
  C  C38  1  0.475300  0.141600  0.444900  1.0  0.0158
  C  C39  1  0.509300  0.164000  0.504800  1.0  0.0819
  C  C40  1  0.382900  0.114200  0.401300  1.0  -0.029
  C  C41  1  0.422100  0.984200  0.239700  1.0  -0.1324
  C  C42  1  0.430200  0.985100  0.331300  1.0  0.0949
  C  C43  1  0.415700  0.025800  0.385900  1.0  0.0159
  C  C44  1  0.396000  0.069300  0.345000  1.0  -0.0013
  C  C45  1  0.388300  0.068600  0.252200  1.0  0.1368
  C  C46  1  0.400000  0.027100  0.202300  1.0  0.0406
  C  C47  1  0.331300  0.139500  0.389900  1.0  -0.023
  C  C48  1  0.283100  0.113200  0.391000  1.0  0.1733
  C  C49  1  0.234300  0.136300  0.379000  1.0  0.0232
  C  C50  1  0.230700  0.187500  0.367000  1.0  -0.1216
  C  C51  1  0.278200  0.214800  0.370200  1.0  0.0335
  C  C52  1  0.327300  0.191900  0.379400  1.0  0.01
  C  C53  1  0.531800  0.296900  0.844000  1.0  0.6859
  C  C54  1  0.437700  0.561300  0.316800  1.0  0.6971
  C  C55  1  0.178900  0.288000  0.158000  1.0  0.6885
  C  C56  1  0.492700  0.321300  0.910000  1.0  -0.138
  C  C57  1  0.440700  0.330500  0.886900  1.0  0.0587
  C  C58  1  0.405800  0.352500  0.947800  1.0  0.1691
  C  C59  1  0.421900  0.366400  0.033300  1.0  0.0444
  C  C60  1  0.475300  0.358400  0.055100  1.0  0.0178
  C  C61  1  0.509300  0.336000  0.995200  1.0  0.0824
  C  C62  1  0.382900  0.385800  0.098700  1.0  -0.0291
  C  C63  1  0.422100  0.515800  0.260300  1.0  -0.1315
  C  C64  1  0.430200  0.514900  0.168700  1.0  0.097
  C  C65  1  0.415700  0.474200  0.114100  1.0  0.0147
  C  C66  1  0.396000  0.430700  0.155000  1.0  -0.0009
  C  C67  1  0.388300  0.431400  0.247800  1.0  0.1349
  C  C68  1  0.400000  0.472900  0.297700  1.0  0.0454
  C  C69  1  0.331300  0.360500  0.110100  1.0  -0.0227
  C  C70  1  0.283100  0.386800  0.109000  1.0  0.172
  C  C71  1  0.234300  0.363700  0.121000  1.0  0.0237
  C  C72  1  0.230700  0.312500  0.133000  1.0  -0.1215
  C  C73  1  0.278200  0.285200  0.129800  1.0  0.0339
  C  C74  1  0.327300  0.308100  0.120600  1.0  0.0128
  C  C75  1  0.968200  0.703100  0.844000  1.0  0.6867
  C  C76  1  0.062300  0.438700  0.316800  1.0  0.6961
  C  C77  1  0.321100  0.712000  0.158000  1.0  0.6881
  C  C78  1  0.007300  0.678700  0.910000  1.0  -0.137
  C  C79  1  0.059300  0.669500  0.886900  1.0  0.0596
  C  C80  1  0.094200  0.647500  0.947800  1.0  0.1682
  C  C81  1  0.078100  0.633600  0.033300  1.0  0.0441
  C  C82  1  0.024700  0.641600  0.055100  1.0  0.0175
  C  C83  1  0.990700  0.664000  0.995200  1.0  0.0851
  C  C84  1  0.117100  0.614200  0.098700  1.0  -0.0292
  C  C85  1  0.077900  0.484200  0.260300  1.0  -0.1323
  C  C86  1  0.069800  0.485100  0.168700  1.0  0.095
  C  C87  1  0.084300  0.525800  0.114100  1.0  0.0149
  C  C88  1  0.104000  0.569300  0.155000  1.0  -0.0014
  C  C89  1  0.111700  0.568600  0.247800  1.0  0.1354
  C  C90  1  0.100000  0.527100  0.297700  1.0  0.0468
  C  C91  1  0.168700  0.639500  0.110100  1.0  -0.0218
  C  C92  1  0.216900  0.613200  0.109000  1.0  0.1738
  C  C93  1  0.265700  0.636300  0.121000  1.0  0.0256
  C  C94  1  0.269300  0.687500  0.133000  1.0  -0.1207
  C  C95  1  0.221800  0.714800  0.129800  1.0  0.0327
  C  C96  1  0.172700  0.691900  0.120600  1.0  0.01
  C  C97  1  0.031800  0.203100  0.344000  1.0  0.6852
  C  C98  1  0.937700  0.938700  0.816800  1.0  0.6973
  C  C99  1  0.678900  0.212000  0.658000  1.0  0.6886
  C  C100  1  0.992700  0.178700  0.410000  1.0  -0.1382
  C  C101  1  0.940700  0.169500  0.386900  1.0  0.0595
  C  C102  1  0.905800  0.147500  0.447800  1.0  0.1693
  C  C103  1  0.921900  0.133600  0.533300  1.0  0.0446
  C  C104  1  0.975300  0.141600  0.555100  1.0  0.0182
  C  C105  1  0.009300  0.164000  0.495200  1.0  0.0822
  C  C106  1  0.882900  0.114200  0.598700  1.0  -0.0291
  C  C107  1  0.922100  0.984200  0.760300  1.0  -0.1318
  C  C108  1  0.930200  0.985100  0.668700  1.0  0.0971
  C  C109  1  0.915700  0.025800  0.614100  1.0  0.0154
  C  C110  1  0.896000  0.069300  0.655000  1.0  -0.0011
  C  C111  1  0.888300  0.068600  0.747800  1.0  0.1349
  C  C112  1  0.900000  0.027100  0.797700  1.0  0.046
  C  C113  1  0.831300  0.139500  0.610100  1.0  -0.0227
  C  C114  1  0.783100  0.113200  0.609000  1.0  0.1733
  C  C115  1  0.734300  0.136300  0.621000  1.0  0.0225
  C  C116  1  0.730700  0.187500  0.633000  1.0  -0.1215
  C  C117  1  0.778200  0.214800  0.629800  1.0  0.0332
  C  C118  1  0.827300  0.191900  0.620600  1.0  0.0102
  C  C119  1  0.468200  0.796900  0.344000  1.0  0.6874
  C  C120  1  0.562300  0.061300  0.816800  1.0  0.6954
  C  C121  1  0.821100  0.788000  0.658000  1.0  0.6881
  C  C122  1  0.507300  0.821300  0.410000  1.0  -0.137
  C  C123  1  0.559300  0.830500  0.386900  1.0  0.0596
  C  C124  1  0.594200  0.852500  0.447800  1.0  0.1679
  C  C125  1  0.578100  0.866400  0.533300  1.0  0.0439
  C  C126  1  0.524700  0.858400  0.555100  1.0  0.0169
  C  C127  1  0.490700  0.836000  0.495200  1.0  0.0849
  C  C128  1  0.617100  0.885800  0.598700  1.0  -0.0292
  C  C129  1  0.577900  0.015800  0.760300  1.0  -0.1319
  C  C130  1  0.569800  0.014900  0.668700  1.0  0.096
  C  C131  1  0.584300  0.974200  0.614100  1.0  0.0142
  C  C132  1  0.604000  0.930700  0.655000  1.0  -0.0011
  C  C133  1  0.611700  0.931400  0.747800  1.0  0.1352
  C  C134  1  0.600000  0.972900  0.797700  1.0  0.0463
  C  C135  1  0.668700  0.860500  0.610100  1.0  -0.0217
  C  C136  1  0.716900  0.886800  0.609000  1.0  0.1708
  C  C137  1  0.765700  0.863700  0.621000  1.0  0.0247
  C  C138  1  0.769300  0.812500  0.633000  1.0  -0.1206
  C  C139  1  0.721800  0.785200  0.629800  1.0  0.0334
  C  C140  1  0.672700  0.808100  0.620600  1.0  0.0115
  C  C141  1  0.468200  0.703100  0.156000  1.0  0.6863
  C  C142  1  0.562300  0.438700  0.683200  1.0  0.6986
  C  C143  1  0.821100  0.712000  0.842000  1.0  0.6878
  C  C144  1  0.507300  0.678700  0.090000  1.0  -0.1374
  C  C145  1  0.559300  0.669500  0.113100  1.0  0.0623
  C  C146  1  0.594200  0.647500  0.052200  1.0  0.1674
  C  C147  1  0.578100  0.633600  0.966700  1.0  0.0442
  C  C148  1  0.524700  0.641600  0.944900  1.0  0.0142
  C  C149  1  0.490700  0.664000  0.004800  1.0  0.0843
  C  C150  1  0.617100  0.614200  0.901300  1.0  -0.0291
  C  C151  1  0.577900  0.484200  0.739700  1.0  -0.1328
  C  C152  1  0.569800  0.485100  0.831300  1.0  0.093
  C  C153  1  0.584300  0.525800  0.885900  1.0  0.0155
  C  C154  1  0.604000  0.569300  0.845000  1.0  -0.0017
  C  C155  1  0.611700  0.568600  0.752200  1.0  0.1371
  C  C156  1  0.600000  0.527100  0.702300  1.0  0.0413
  C  C157  1  0.668700  0.639500  0.889900  1.0  -0.022
  C  C158  1  0.716900  0.613200  0.891000  1.0  0.1734
  C  C159  1  0.765700  0.636300  0.879000  1.0  0.0259
  C  C160  1  0.769300  0.687500  0.867000  1.0  -0.121
  C  C161  1  0.721800  0.714800  0.870200  1.0  0.0331
  C  C162  1  0.672700  0.691900  0.879400  1.0  0.0099
  C  C163  1  0.031800  0.296900  0.156000  1.0  0.6857
  C  C164  1  0.937700  0.561300  0.683200  1.0  0.6972
  C  C165  1  0.678900  0.288000  0.842000  1.0  0.6879
  C  C166  1  0.992700  0.321300  0.090000  1.0  -0.1383
  C  C167  1  0.940700  0.330500  0.113100  1.0  0.0611
  C  C168  1  0.905800  0.352500  0.052200  1.0  0.1691
  C  C169  1  0.921900  0.366400  0.966700  1.0  0.0446
  C  C170  1  0.975300  0.358400  0.944900  1.0  0.0155
  C  C171  1  0.009300  0.336000  0.004800  1.0  0.0818
  C  C172  1  0.882900  0.385800  0.901300  1.0  -0.0289
  C  C173  1  0.922100  0.515800  0.739700  1.0  -0.1317
  C  C174  1  0.930200  0.514900  0.831300  1.0  0.0942
  C  C175  1  0.915700  0.474200  0.885900  1.0  0.0157
  C  C176  1  0.896000  0.430700  0.845000  1.0  -0.001
  C  C177  1  0.888300  0.431400  0.752200  1.0  0.1367
  C  C178  1  0.900000  0.472900  0.702300  1.0  0.0402
  C  C179  1  0.831300  0.360500  0.889900  1.0  -0.0229
  C  C180  1  0.783100  0.386800  0.891000  1.0  0.1721
  C  C181  1  0.734300  0.363700  0.879000  1.0  0.0246
  C  C182  1  0.730700  0.312500  0.867000  1.0  -0.1212
  C  C183  1  0.778200  0.285200  0.870200  1.0  0.0339
  C  C184  1  0.827300  0.308100  0.879400  1.0  0.0124
  Cl  Cl185  1  0.080500  0.813140  0.719350  1.0  -0.0634
  Cl  Cl186  1  0.158040  0.865650  0.590300  1.0  -0.0762
  Cl  Cl187  1  0.001290  0.873400  0.338870  1.0  -0.0645
  Cl  Cl188  1  0.924050  0.827280  0.476160  1.0  -0.0783
  Cl  Cl189  1  0.041730  0.067110  0.381100  1.0  -0.033
  Cl  Cl190  1  0.077660  0.978720  0.499880  1.0  -0.0794
  Cl  Cl191  1  0.132880  0.877400  0.197400  1.0  -0.0629
  Cl  Cl192  1  0.110710  0.973300  0.085580  1.0  -0.1097
  Cl  Cl193  1  0.216030  0.950340  0.414400  1.0  -0.053
  Cl  Cl194  1  0.323630  0.898150  0.384700  1.0  -0.053
  Cl  Cl195  1  0.223080  0.721000  0.355340  1.0  -0.0757
  Cl  Cl196  1  0.115600  0.772860  0.370910  1.0  -0.0712
  Cl  Cl197  1  0.419500  0.186860  0.719350  1.0  -0.0635
  Cl  Cl198  1  0.341960  0.134350  0.590300  1.0  -0.0756
  Cl  Cl199  1  0.498710  0.126600  0.338870  1.0  -0.0659
  Cl  Cl200  1  0.575950  0.172720  0.476160  1.0  -0.0781
  Cl  Cl201  1  0.458270  0.932890  0.381100  1.0  -0.0346
  Cl  Cl202  1  0.422340  0.021280  0.499880  1.0  -0.08
  Cl  Cl203  1  0.367120  0.122600  0.197400  1.0  -0.0629
  Cl  Cl204  1  0.389290  0.026700  0.085580  1.0  -0.1105
  Cl  Cl205  1  0.283970  0.049660  0.414400  1.0  -0.0539
  Cl  Cl206  1  0.176370  0.101850  0.384700  1.0  -0.0542
  Cl  Cl207  1  0.276920  0.279000  0.355340  1.0  -0.0748
  Cl  Cl208  1  0.384400  0.227140  0.370910  1.0  -0.0707
  Cl  Cl209  1  0.419500  0.313140  0.780650  1.0  -0.0626
  Cl  Cl210  1  0.341960  0.365650  0.909700  1.0  -0.0779
  Cl  Cl211  1  0.498710  0.373400  0.161130  1.0  -0.0667
  Cl  Cl212  1  0.575950  0.327280  0.023840  1.0  -0.0793
  Cl  Cl213  1  0.458270  0.567110  0.118900  1.0  -0.0337
  Cl  Cl214  1  0.422340  0.478720  0.000120  1.0  -0.0822
  Cl  Cl215  1  0.367120  0.377400  0.302600  1.0  -0.0622
  Cl  Cl216  1  0.389290  0.473300  0.414420  1.0  -0.1071
  Cl  Cl217  1  0.283970  0.450340  0.085600  1.0  -0.0533
  Cl  Cl218  1  0.176370  0.398150  0.115300  1.0  -0.0538
  Cl  Cl219  1  0.276920  0.221000  0.144660  1.0  -0.0756
  Cl  Cl220  1  0.384400  0.272860  0.129090  1.0  -0.0714
  Cl  Cl221  1  0.080500  0.686860  0.780650  1.0  -0.0619
  Cl  Cl222  1  0.158040  0.634350  0.909700  1.0  -0.0793
  Cl  Cl223  1  0.001290  0.626600  0.161130  1.0  -0.0641
  Cl  Cl224  1  0.924050  0.672720  0.023840  1.0  -0.0794
  Cl  Cl225  1  0.041730  0.432890  0.118900  1.0  -0.0331
  Cl  Cl226  1  0.077660  0.521280  0.000120  1.0  -0.0806
  Cl  Cl227  1  0.132880  0.622600  0.302600  1.0  -0.0611
  Cl  Cl228  1  0.110710  0.526700  0.414420  1.0  -0.1059
  Cl  Cl229  1  0.216030  0.549660  0.085600  1.0  -0.0536
  Cl  Cl230  1  0.323630  0.601850  0.115300  1.0  -0.0539
  Cl  Cl231  1  0.223080  0.779000  0.144660  1.0  -0.0763
  Cl  Cl232  1  0.115600  0.727140  0.129090  1.0  -0.0711
  Cl  Cl233  1  0.919500  0.186860  0.280650  1.0  -0.0622
  Cl  Cl234  1  0.841960  0.134350  0.409700  1.0  -0.0776
  Cl  Cl235  1  0.998710  0.126600  0.661130  1.0  -0.0662
  Cl  Cl236  1  0.075950  0.172720  0.523840  1.0  -0.0794
  Cl  Cl237  1  0.958270  0.932890  0.618900  1.0  -0.0341
  Cl  Cl238  1  0.922340  0.021280  0.500120  1.0  -0.0809
  Cl  Cl239  1  0.867120  0.122600  0.802600  1.0  -0.0615
  Cl  Cl240  1  0.889290  0.026700  0.914420  1.0  -0.1098
  Cl  Cl241  1  0.783970  0.049660  0.585600  1.0  -0.0539
  Cl  Cl242  1  0.676370  0.101850  0.615300  1.0  -0.054
  Cl  Cl243  1  0.776920  0.279000  0.644660  1.0  -0.0761
  Cl  Cl244  1  0.884400  0.227140  0.629090  1.0  -0.071
  Cl  Cl245  1  0.580500  0.813140  0.280650  1.0  -0.0623
  Cl  Cl246  1  0.658040  0.865650  0.409700  1.0  -0.0793
  Cl  Cl247  1  0.501290  0.873400  0.661130  1.0  -0.0642
  Cl  Cl248  1  0.424050  0.827280  0.523840  1.0  -0.0792
  Cl  Cl249  1  0.541730  0.067110  0.618900  1.0  -0.0327
  Cl  Cl250  1  0.577660  0.978720  0.500120  1.0  -0.0818
  Cl  Cl251  1  0.632880  0.877400  0.802600  1.0  -0.0618
  Cl  Cl252  1  0.610710  0.973300  0.914420  1.0  -0.1083
  Cl  Cl253  1  0.716030  0.950340  0.585600  1.0  -0.0531
  Cl  Cl254  1  0.823630  0.898150  0.615300  1.0  -0.0535
  Cl  Cl255  1  0.723080  0.721000  0.644660  1.0  -0.0756
  Cl  Cl256  1  0.615600  0.772860  0.629090  1.0  -0.0716
  Cl  Cl257  1  0.580500  0.686860  0.219350  1.0  -0.0633
  Cl  Cl258  1  0.658040  0.634350  0.090300  1.0  -0.0768
  Cl  Cl259  1  0.501290  0.626600  0.838870  1.0  -0.0647
  Cl  Cl260  1  0.424050  0.672720  0.976160  1.0  -0.0781
  Cl  Cl261  1  0.541730  0.432890  0.881100  1.0  -0.0335
  Cl  Cl262  1  0.577660  0.521280  0.999880  1.0  -0.0803
  Cl  Cl263  1  0.632880  0.622600  0.697400  1.0  -0.0632
  Cl  Cl264  1  0.610710  0.526700  0.585580  1.0  -0.1072
  Cl  Cl265  1  0.716030  0.549660  0.914400  1.0  -0.0536
  Cl  Cl266  1  0.823630  0.601850  0.884700  1.0  -0.054
  Cl  Cl267  1  0.723080  0.779000  0.855340  1.0  -0.0745
  Cl  Cl268  1  0.615600  0.727140  0.870910  1.0  -0.0708
  Cl  Cl269  1  0.919500  0.313140  0.219350  1.0  -0.0636
  Cl  Cl270  1  0.841960  0.365650  0.090300  1.0  -0.0754
  Cl  Cl271  1  0.998710  0.373400  0.838870  1.0  -0.066
  Cl  Cl272  1  0.075950  0.327280  0.976160  1.0  -0.0779
  Cl  Cl273  1  0.958270  0.567110  0.881100  1.0  -0.0338
  Cl  Cl274  1  0.922340  0.478720  0.999880  1.0  -0.0795
  Cl  Cl275  1  0.867120  0.377400  0.697400  1.0  -0.0626
  Cl  Cl276  1  0.889290  0.473300  0.585580  1.0  -0.1075
  Cl  Cl277  1  0.783970  0.450340  0.914400  1.0  -0.0533
  Cl  Cl278  1  0.676370  0.398150  0.884700  1.0  -0.0532
  Cl  Cl279  1  0.776920  0.221000  0.855340  1.0  -0.0761
  Cl  Cl280  1  0.884400  0.272860  0.870910  1.0  -0.0709
  O  O281  1  0.954100  0.754080  0.639300  1.0  -0.6582
  O  O282  1  0.954900  0.823420  0.722300  1.0  -0.6753
  O  O283  1  0.018100  0.060800  0.149100  1.0  -0.4749
  O  O284  1  0.095600  0.096040  0.180400  1.0  -0.6698
  O  O285  1  0.342000  0.804300  0.271900  1.0  -0.7123
  O  O286  1  0.337400  0.752500  0.391400  1.0  -0.5495
  O  O287  1  0.545900  0.245920  0.639300  1.0  -0.6591
  O  O288  1  0.545100  0.176580  0.722300  1.0  -0.6749
  O  O289  1  0.481900  0.939200  0.149100  1.0  -0.4748
  O  O290  1  0.404400  0.903960  0.180400  1.0  -0.6704
  O  O291  1  0.158000  0.195700  0.271900  1.0  -0.7135
  O  O292  1  0.162600  0.247500  0.391400  1.0  -0.5488
  O  O293  1  0.545900  0.254080  0.860700  1.0  -0.6585
  O  O294  1  0.545100  0.323420  0.777700  1.0  -0.6771
  O  O295  1  0.481900  0.560800  0.350900  1.0  -0.4762
  O  O296  1  0.404400  0.596040  0.319600  1.0  -0.67
  O  O297  1  0.158000  0.304300  0.228100  1.0  -0.712
  O  O298  1  0.162600  0.252500  0.108600  1.0  -0.5494
  O  O299  1  0.954100  0.745920  0.860700  1.0  -0.6579
  O  O300  1  0.954900  0.676580  0.777700  1.0  -0.6753
  O  O301  1  0.018100  0.439200  0.350900  1.0  -0.4753
  O  O302  1  0.095600  0.403960  0.319600  1.0  -0.6706
  O  O303  1  0.342000  0.695700  0.228100  1.0  -0.7122
  O  O304  1  0.337400  0.747500  0.108600  1.0  -0.5493
  O  O305  1  0.045900  0.245920  0.360700  1.0  -0.6596
  O  O306  1  0.045100  0.176580  0.277700  1.0  -0.676
  O  O307  1  0.981900  0.939200  0.850900  1.0  -0.4764
  O  O308  1  0.904400  0.903960  0.819600  1.0  -0.6706
  O  O309  1  0.658000  0.195700  0.728100  1.0  -0.7119
  O  O310  1  0.662600  0.247500  0.608600  1.0  -0.5491
  O  O311  1  0.454100  0.754080  0.360700  1.0  -0.6586
  O  O312  1  0.454900  0.823420  0.277700  1.0  -0.6758
  O  O313  1  0.518100  0.060800  0.850900  1.0  -0.4753
  O  O314  1  0.595600  0.096040  0.819600  1.0  -0.6705
  O  O315  1  0.842000  0.804300  0.728100  1.0  -0.7121
  O  O316  1  0.837400  0.752500  0.608600  1.0  -0.5494
  O  O317  1  0.454100  0.745920  0.139300  1.0  -0.6577
  O  O318  1  0.454900  0.676580  0.222300  1.0  -0.674
  O  O319  1  0.518100  0.439200  0.649100  1.0  -0.4749
  O  O320  1  0.595600  0.403960  0.680400  1.0  -0.6704
  O  O321  1  0.842000  0.695700  0.771900  1.0  -0.714
  O  O322  1  0.837400  0.747500  0.891400  1.0  -0.5482
  O  O323  1  0.045900  0.254080  0.139300  1.0  -0.6585
  O  O324  1  0.045100  0.323420  0.222300  1.0  -0.6752
  O  O325  1  0.981900  0.560800  0.649100  1.0  -0.4747
  O  O326  1  0.904400  0.596040  0.680400  1.0  -0.6697
  O  O327  1  0.658000  0.304300  0.771900  1.0  -0.7119
  O  O328  1  0.662600  0.252500  0.891400  1.0  -0.5499
