# generated using pymatgen
data_GdC22(Cl2O)6
_symmetry_space_group_name_H-M   'P 1'
_cell_length_a   25.36100000
_cell_length_b   26.61840000
_cell_length_c   14.53180000
_cell_angle_alpha   90.00000000
_cell_angle_beta   90.00000000
_cell_angle_gamma   90.00000000
_symmetry_Int_Tables_number   1
_chemical_formula_structural   GdC22(Cl2O)6
_chemical_formula_sum   'Gd8 C176 Cl96 O48'
_cell_volume   9809.97121671
_cell_formula_units_Z   8
loop_
 _symmetry_equiv_pos_site_id
 _symmetry_equiv_pos_as_xyz
  1  'x, y, z'
loop_
 _atom_site_type_symbol
 _atom_site_label
 _atom_site_symmetry_multiplicity
 _atom_site_fract_x
 _atom_site_fract_y
 _atom_site_fract_z
 _atom_site_occupancy
 _atom_site_charge
  Gd  Gd1  1  0.397780  0.815340  0.146840  1.0  2.0559
  Gd  Gd2  1  0.102220  0.184660  0.146840  1.0  2.0573
  Gd  Gd3  1  0.102220  0.315340  0.353160  1.0  2.0355
  Gd  Gd4  1  0.397780  0.684660  0.353160  1.0  2.0354
  Gd  Gd5  1  0.602220  0.184660  0.853160  1.0  2.0353
  Gd  Gd6  1  0.897780  0.815340  0.853160  1.0  2.0355
  Gd  Gd7  1  0.897780  0.684660  0.646840  1.0  2.0577
  Gd  Gd8  1  0.602220  0.315340  0.646840  1.0  2.0558
  C  C9  1  0.466200  0.702100  0.156500  1.0  0.6942
  C  C10  1  0.564900  0.439100  0.677100  1.0  0.6935
  C  C11  1  0.821000  0.712200  0.844500  1.0  0.6785
  C  C12  1  0.505300  0.678500  0.090800  1.0  -0.1086
  C  C13  1  0.557400  0.669100  0.117300  1.0  0.0282
  C  C14  1  0.592400  0.647100  0.056100  1.0  0.1628
  C  C15  1  0.578400  0.634300  0.966600  1.0  -0.0031
  C  C16  1  0.525800  0.642700  0.941500  1.0  0.0689
  C  C17  1  0.490600  0.664200  0.003700  1.0  0.0389
  C  C18  1  0.618200  0.614400  0.901200  1.0  -0.0386
  C  C19  1  0.579700  0.484500  0.736700  1.0  -0.1436
  C  C20  1  0.571300  0.484900  0.830600  1.0  0.1092
  C  C21  1  0.585000  0.525900  0.885600  1.0  0.0241
  C  C22  1  0.606300  0.569600  0.844700  1.0  0.0117
  C  C23  1  0.614400  0.568800  0.750300  1.0  0.1863
  C  C24  1  0.602000  0.527100  0.697100  1.0  0.0631
  C  C25  1  0.669100  0.639800  0.892200  1.0  -0.0126
  C  C26  1  0.717300  0.612800  0.895100  1.0  0.1242
  C  C27  1  0.765200  0.635800  0.883400  1.0  0.0583
  C  C28  1  0.768800  0.687400  0.869300  1.0  -0.1164
  C  C29  1  0.722300  0.714500  0.872200  1.0  0.0702
  C  C30  1  0.673400  0.691800  0.882000  1.0  0.0232
  C  C31  1  0.033800  0.297900  0.156500  1.0  0.6939
  C  C32  1  0.935100  0.560900  0.677100  1.0  0.692
  C  C33  1  0.679000  0.287800  0.844500  1.0  0.6785
  C  C34  1  0.994700  0.321500  0.090800  1.0  -0.1092
  C  C35  1  0.942600  0.330900  0.117300  1.0  0.0277
  C  C36  1  0.907600  0.352900  0.056100  1.0  0.1645
  C  C37  1  0.921600  0.365700  0.966600  1.0  -0.0027
  C  C38  1  0.974200  0.357300  0.941500  1.0  0.0701
  C  C39  1  0.009400  0.335800  0.003700  1.0  0.0373
  C  C40  1  0.881800  0.385600  0.901200  1.0  -0.0384
  C  C41  1  0.920300  0.515500  0.736700  1.0  -0.1425
  C  C42  1  0.928700  0.515100  0.830600  1.0  0.1098
  C  C43  1  0.915000  0.474100  0.885600  1.0  0.0237
  C  C44  1  0.893700  0.430400  0.844700  1.0  0.0115
  C  C45  1  0.885600  0.431200  0.750300  1.0  0.1856
  C  C46  1  0.898000  0.472900  0.697100  1.0  0.0638
  C  C47  1  0.830900  0.360200  0.892200  1.0  -0.0125
  C  C48  1  0.782700  0.387200  0.895100  1.0  0.1216
  C  C49  1  0.734800  0.364200  0.883400  1.0  0.0559
  C  C50  1  0.731200  0.312600  0.869300  1.0  -0.1167
  C  C51  1  0.777700  0.285500  0.872200  1.0  0.0718
  C  C52  1  0.826600  0.308200  0.882000  1.0  0.0286
  C  C53  1  0.033800  0.202100  0.343500  1.0  0.6931
  C  C54  1  0.935100  0.939100  0.822900  1.0  0.6914
  C  C55  1  0.679000  0.212200  0.655500  1.0  0.6794
  C  C56  1  0.994700  0.178500  0.409200  1.0  -0.1093
  C  C57  1  0.942600  0.169100  0.382700  1.0  0.0304
  C  C58  1  0.907600  0.147100  0.443900  1.0  0.1623
  C  C59  1  0.921600  0.134300  0.533400  1.0  -0.0031
  C  C60  1  0.974200  0.142700  0.558500  1.0  0.0685
  C  C61  1  0.009400  0.164200  0.496300  1.0  0.0358
  C  C62  1  0.881800  0.114400  0.598800  1.0  -0.0381
  C  C63  1  0.920300  0.984500  0.763300  1.0  -0.1446
  C  C64  1  0.928700  0.984900  0.669400  1.0  0.1106
  C  C65  1  0.915000  0.025900  0.614400  1.0  0.0235
  C  C66  1  0.893700  0.069600  0.655300  1.0  0.0118
  C  C67  1  0.885600  0.068800  0.749700  1.0  0.1841
  C  C68  1  0.898000  0.027100  0.802900  1.0  0.0649
  C  C69  1  0.830900  0.139800  0.607800  1.0  -0.0123
  C  C70  1  0.782700  0.112800  0.604900  1.0  0.123
  C  C71  1  0.734800  0.135800  0.616600  1.0  0.0545
  C  C72  1  0.731200  0.187400  0.630700  1.0  -0.1167
  C  C73  1  0.777700  0.214500  0.627800  1.0  0.0711
  C  C74  1  0.826600  0.191800  0.618000  1.0  0.0259
  C  C75  1  0.466200  0.797900  0.343500  1.0  0.6952
  C  C76  1  0.564900  0.060900  0.822900  1.0  0.6899
  C  C77  1  0.821000  0.787800  0.655500  1.0  0.6791
  C  C78  1  0.505300  0.821500  0.409200  1.0  -0.1078
  C  C79  1  0.557400  0.830900  0.382700  1.0  0.0306
  C  C80  1  0.592400  0.852900  0.443900  1.0  0.1612
  C  C81  1  0.578400  0.865700  0.533400  1.0  -0.003
  C  C82  1  0.525800  0.857300  0.558500  1.0  0.0677
  C  C83  1  0.490600  0.835800  0.496300  1.0  0.0381
  C  C84  1  0.618200  0.885600  0.598800  1.0  -0.0383
  C  C85  1  0.579700  0.015500  0.763300  1.0  -0.1441
  C  C86  1  0.571300  0.015100  0.669400  1.0  0.111
  C  C87  1  0.585000  0.974100  0.614400  1.0  0.0239
  C  C88  1  0.606300  0.930400  0.655300  1.0  0.0119
  C  C89  1  0.614400  0.931200  0.749700  1.0  0.1846
  C  C90  1  0.602000  0.972900  0.802900  1.0  0.0651
  C  C91  1  0.669100  0.860200  0.607800  1.0  -0.0124
  C  C92  1  0.717300  0.887200  0.604900  1.0  0.1216
  C  C93  1  0.765200  0.864200  0.616600  1.0  0.0572
  C  C94  1  0.768800  0.812600  0.630700  1.0  -0.1161
  C  C95  1  0.722300  0.785500  0.627800  1.0  0.0715
  C  C96  1  0.673400  0.808200  0.618000  1.0  0.0252
  C  C97  1  0.533800  0.297900  0.843500  1.0  0.6938
  C  C98  1  0.435100  0.560900  0.322900  1.0  0.6913
  C  C99  1  0.179000  0.287800  0.155500  1.0  0.6794
  C  C100  1  0.494700  0.321500  0.909200  1.0  -0.1087
  C  C101  1  0.442600  0.330900  0.882700  1.0  0.03
  C  C102  1  0.407600  0.352900  0.943900  1.0  0.1625
  C  C103  1  0.421600  0.365700  0.033400  1.0  -0.0029
  C  C104  1  0.474200  0.357300  0.058500  1.0  0.0683
  C  C105  1  0.509400  0.335800  0.996300  1.0  0.0362
  C  C106  1  0.381800  0.385600  0.098800  1.0  -0.0381
  C  C107  1  0.420300  0.515500  0.263300  1.0  -0.144
  C  C108  1  0.428700  0.515100  0.169400  1.0  0.1108
  C  C109  1  0.415000  0.474100  0.114400  1.0  0.0226
  C  C110  1  0.393700  0.430400  0.155300  1.0  0.0118
  C  C111  1  0.385600  0.431200  0.249700  1.0  0.1843
  C  C112  1  0.398000  0.472900  0.302900  1.0  0.0652
  C  C113  1  0.330900  0.360200  0.107800  1.0  -0.0122
  C  C114  1  0.282700  0.387200  0.104900  1.0  0.1216
  C  C115  1  0.234800  0.364200  0.116600  1.0  0.0552
  C  C116  1  0.231200  0.312600  0.130700  1.0  -0.1167
  C  C117  1  0.277700  0.285500  0.127800  1.0  0.0719
  C  C118  1  0.326600  0.308200  0.118000  1.0  0.0288
  C  C119  1  0.966200  0.702100  0.843500  1.0  0.6944
  C  C120  1  0.064900  0.439100  0.322900  1.0  0.6905
  C  C121  1  0.321000  0.712200  0.155500  1.0  0.679
  C  C122  1  0.005300  0.678500  0.909200  1.0  -0.1081
  C  C123  1  0.057400  0.669100  0.882700  1.0  0.0307
  C  C124  1  0.092400  0.647100  0.943900  1.0  0.161
  C  C125  1  0.078400  0.634300  0.033400  1.0  -0.0033
  C  C126  1  0.025800  0.642700  0.058500  1.0  0.068
  C  C127  1  0.990600  0.664200  0.996300  1.0  0.0383
  C  C128  1  0.118200  0.614400  0.098800  1.0  -0.0383
  C  C129  1  0.079700  0.484500  0.263300  1.0  -0.1448
  C  C130  1  0.071300  0.484900  0.169400  1.0  0.1093
  C  C131  1  0.085000  0.525900  0.114400  1.0  0.0246
  C  C132  1  0.106300  0.569600  0.155300  1.0  0.012
  C  C133  1  0.114400  0.568800  0.249700  1.0  0.1845
  C  C134  1  0.102000  0.527100  0.302900  1.0  0.0647
  C  C135  1  0.169100  0.639800  0.107800  1.0  -0.0124
  C  C136  1  0.217300  0.612800  0.104900  1.0  0.1241
  C  C137  1  0.265200  0.635800  0.116600  1.0  0.0577
  C  C138  1  0.268800  0.687400  0.130700  1.0  -0.1161
  C  C139  1  0.222300  0.714500  0.127800  1.0  0.0706
  C  C140  1  0.173400  0.691800  0.118000  1.0  0.0232
  C  C141  1  0.966200  0.797900  0.656500  1.0  0.6951
  C  C142  1  0.064900  0.060900  0.177100  1.0  0.6932
  C  C143  1  0.321000  0.787800  0.344500  1.0  0.6785
  C  C144  1  0.005300  0.821500  0.590800  1.0  -0.1083
  C  C145  1  0.057400  0.830900  0.617300  1.0  0.0288
  C  C146  1  0.092400  0.852900  0.556100  1.0  0.1624
  C  C147  1  0.078400  0.865700  0.466600  1.0  -0.0028
  C  C148  1  0.025800  0.857300  0.441500  1.0  0.0696
  C  C149  1  0.990600  0.835800  0.503700  1.0  0.0386
  C  C150  1  0.118200  0.885600  0.401200  1.0  -0.0386
  C  C151  1  0.079700  0.015500  0.236700  1.0  -0.1427
  C  C152  1  0.071300  0.015100  0.330600  1.0  0.1104
  C  C153  1  0.085000  0.974100  0.385600  1.0  0.0247
  C  C154  1  0.106300  0.930400  0.344700  1.0  0.0115
  C  C155  1  0.114400  0.931200  0.250300  1.0  0.1865
  C  C156  1  0.102000  0.972900  0.197100  1.0  0.0634
  C  C157  1  0.169100  0.860200  0.392200  1.0  -0.0126
  C  C158  1  0.217300  0.887200  0.395100  1.0  0.1217
  C  C159  1  0.265200  0.864200  0.383400  1.0  0.0574
  C  C160  1  0.268800  0.812600  0.369300  1.0  -0.1163
  C  C161  1  0.222300  0.785500  0.372200  1.0  0.0716
  C  C162  1  0.173400  0.808200  0.382000  1.0  0.0249
  C  C163  1  0.533800  0.202100  0.656500  1.0  0.6929
  C  C164  1  0.435100  0.939100  0.177100  1.0  0.692
  C  C165  1  0.179000  0.212200  0.344500  1.0  0.6787
  C  C166  1  0.494700  0.178500  0.590800  1.0  -0.1098
  C  C167  1  0.442600  0.169100  0.617300  1.0  0.0275
  C  C168  1  0.407600  0.147100  0.556100  1.0  0.165
  C  C169  1  0.421600  0.134300  0.466600  1.0  -0.0029
  C  C170  1  0.474200  0.142700  0.441500  1.0  0.0698
  C  C171  1  0.509400  0.164200  0.503700  1.0  0.0369
  C  C172  1  0.381800  0.114400  0.401200  1.0  -0.0384
  C  C173  1  0.420300  0.984500  0.236700  1.0  -0.1431
  C  C174  1  0.428700  0.984900  0.330600  1.0  0.11
  C  C175  1  0.415000  0.025900  0.385600  1.0  0.0231
  C  C176  1  0.393700  0.069600  0.344700  1.0  0.0115
  C  C177  1  0.385600  0.068800  0.250300  1.0  0.1857
  C  C178  1  0.398000  0.027100  0.197100  1.0  0.0638
  C  C179  1  0.330900  0.139800  0.392200  1.0  -0.0125
  C  C180  1  0.282700  0.112800  0.395100  1.0  0.1231
  C  C181  1  0.234800  0.135800  0.383400  1.0  0.0555
  C  C182  1  0.231200  0.187400  0.369300  1.0  -0.1169
  C  C183  1  0.277700  0.214500  0.372200  1.0  0.0706
  C  C184  1  0.326600  0.191800  0.382000  1.0  0.0261
  Cl  Cl185  1  0.576440  0.685030  0.226120  1.0  -0.0738
  Cl  Cl186  1  0.655310  0.633950  0.096950  1.0  -0.0801
  Cl  Cl187  1  0.504470  0.627980  0.832740  1.0  -0.0845
  Cl  Cl188  1  0.425580  0.672980  0.970680  1.0  -0.0634
  Cl  Cl189  1  0.542820  0.433030  0.879660  1.0  -0.0644
  Cl  Cl190  1  0.577690  0.521280  0.001580  1.0  -0.0792
  Cl  Cl191  1  0.636030  0.622560  0.694550  1.0  -0.0711
  Cl  Cl192  1  0.612860  0.526910  0.579720  1.0  -0.0874
  Cl  Cl193  1  0.715930  0.549720  0.918700  1.0  -0.0628
  Cl  Cl194  1  0.822700  0.601380  0.888730  1.0  -0.0654
  Cl  Cl195  1  0.724110  0.779200  0.856720  1.0  -0.0854
  Cl  Cl196  1  0.616970  0.727870  0.872150  1.0  -0.0647
  Cl  Cl197  1  0.923560  0.314970  0.226120  1.0  -0.0743
  Cl  Cl198  1  0.844690  0.366050  0.096950  1.0  -0.0789
  Cl  Cl199  1  0.995530  0.372020  0.832740  1.0  -0.0846
  Cl  Cl200  1  0.074420  0.327020  0.970680  1.0  -0.0621
  Cl  Cl201  1  0.957180  0.566970  0.879660  1.0  -0.0647
  Cl  Cl202  1  0.922310  0.478720  0.001580  1.0  -0.079
  Cl  Cl203  1  0.863970  0.377440  0.694550  1.0  -0.0711
  Cl  Cl204  1  0.887140  0.473090  0.579720  1.0  -0.0874
  Cl  Cl205  1  0.784070  0.450280  0.918700  1.0  -0.0635
  Cl  Cl206  1  0.677300  0.398620  0.888730  1.0  -0.0649
  Cl  Cl207  1  0.775890  0.220800  0.856720  1.0  -0.0849
  Cl  Cl208  1  0.883030  0.272130  0.872150  1.0  -0.0649
  Cl  Cl209  1  0.923560  0.185030  0.273880  1.0  -0.0735
  Cl  Cl210  1  0.844690  0.133950  0.403050  1.0  -0.0808
  Cl  Cl211  1  0.995530  0.127980  0.667260  1.0  -0.083
  Cl  Cl212  1  0.074420  0.172980  0.529320  1.0  -0.0624
  Cl  Cl213  1  0.957180  0.933030  0.620340  1.0  -0.0644
  Cl  Cl214  1  0.922310  0.021280  0.498420  1.0  -0.0797
  Cl  Cl215  1  0.863970  0.122560  0.805450  1.0  -0.0706
  Cl  Cl216  1  0.887140  0.026910  0.920280  1.0  -0.0887
  Cl  Cl217  1  0.784070  0.049720  0.581300  1.0  -0.0638
  Cl  Cl218  1  0.677300  0.101380  0.611270  1.0  -0.0654
  Cl  Cl219  1  0.775890  0.279200  0.643280  1.0  -0.087
  Cl  Cl220  1  0.883030  0.227870  0.627850  1.0  -0.0642
  Cl  Cl221  1  0.576440  0.814970  0.273880  1.0  -0.0735
  Cl  Cl222  1  0.655310  0.866050  0.403050  1.0  -0.0821
  Cl  Cl223  1  0.504470  0.872020  0.667260  1.0  -0.0813
  Cl  Cl224  1  0.425580  0.827020  0.529320  1.0  -0.0634
  Cl  Cl225  1  0.542820  0.066970  0.620340  1.0  -0.0638
  Cl  Cl226  1  0.577690  0.978720  0.498420  1.0  -0.081
  Cl  Cl227  1  0.636030  0.877440  0.805450  1.0  -0.0709
  Cl  Cl228  1  0.612860  0.973090  0.920280  1.0  -0.0877
  Cl  Cl229  1  0.715930  0.950280  0.581300  1.0  -0.0632
  Cl  Cl230  1  0.822700  0.898620  0.611270  1.0  -0.0654
  Cl  Cl231  1  0.724110  0.720800  0.643280  1.0  -0.0837
  Cl  Cl232  1  0.616970  0.772130  0.627850  1.0  -0.0657
  Cl  Cl233  1  0.423560  0.314970  0.773880  1.0  -0.0741
  Cl  Cl234  1  0.344690  0.366050  0.903050  1.0  -0.0808
  Cl  Cl235  1  0.495530  0.372020  0.167260  1.0  -0.0832
  Cl  Cl236  1  0.574420  0.327020  0.029320  1.0  -0.0627
  Cl  Cl237  1  0.457180  0.566970  0.120340  1.0  -0.0643
  Cl  Cl238  1  0.422310  0.478720  0.998420  1.0  -0.0816
  Cl  Cl239  1  0.363970  0.377440  0.305450  1.0  -0.0713
  Cl  Cl240  1  0.387140  0.473090  0.420280  1.0  -0.0884
  Cl  Cl241  1  0.284070  0.450280  0.081300  1.0  -0.0639
  Cl  Cl242  1  0.177300  0.398620  0.111270  1.0  -0.0657
  Cl  Cl243  1  0.275890  0.220800  0.143280  1.0  -0.084
  Cl  Cl244  1  0.383030  0.272130  0.127850  1.0  -0.0652
  Cl  Cl245  1  0.076440  0.685030  0.773880  1.0  -0.073
  Cl  Cl246  1  0.155310  0.633950  0.903050  1.0  -0.082
  Cl  Cl247  1  0.004470  0.627980  0.167260  1.0  -0.0814
  Cl  Cl248  1  0.925580  0.672980  0.029320  1.0  -0.0635
  Cl  Cl249  1  0.042820  0.433030  0.120340  1.0  -0.0643
  Cl  Cl250  1  0.077690  0.521280  0.998420  1.0  -0.0792
  Cl  Cl251  1  0.136030  0.622560  0.305450  1.0  -0.07
  Cl  Cl252  1  0.112860  0.526910  0.420280  1.0  -0.088
  Cl  Cl253  1  0.215930  0.549720  0.081300  1.0  -0.063
  Cl  Cl254  1  0.322700  0.601380  0.111270  1.0  -0.0654
  Cl  Cl255  1  0.224110  0.779200  0.143280  1.0  -0.0866
  Cl  Cl256  1  0.116970  0.727870  0.127850  1.0  -0.0647
  Cl  Cl257  1  0.076440  0.814970  0.726120  1.0  -0.074
  Cl  Cl258  1  0.155310  0.866050  0.596950  1.0  -0.0795
  Cl  Cl259  1  0.004470  0.872020  0.332740  1.0  -0.0841
  Cl  Cl260  1  0.925580  0.827020  0.470680  1.0  -0.0634
  Cl  Cl261  1  0.042820  0.066970  0.379660  1.0  -0.0644
  Cl  Cl262  1  0.077690  0.978720  0.501580  1.0  -0.0786
  Cl  Cl263  1  0.136030  0.877440  0.194550  1.0  -0.0717
  Cl  Cl264  1  0.112860  0.973090  0.079720  1.0  -0.0875
  Cl  Cl265  1  0.215930  0.950280  0.418700  1.0  -0.0627
  Cl  Cl266  1  0.322700  0.898620  0.388730  1.0  -0.0649
  Cl  Cl267  1  0.224110  0.720800  0.356720  1.0  -0.0847
  Cl  Cl268  1  0.116970  0.772130  0.372150  1.0  -0.0654
  Cl  Cl269  1  0.423560  0.185030  0.726120  1.0  -0.0742
  Cl  Cl270  1  0.344690  0.133950  0.596950  1.0  -0.0792
  Cl  Cl271  1  0.495530  0.127980  0.332740  1.0  -0.0847
  Cl  Cl272  1  0.574420  0.172980  0.470680  1.0  -0.0625
  Cl  Cl273  1  0.457180  0.933030  0.379660  1.0  -0.0652
  Cl  Cl274  1  0.422310  0.021280  0.501580  1.0  -0.0792
  Cl  Cl275  1  0.363970  0.122560  0.194550  1.0  -0.0708
  Cl  Cl276  1  0.387140  0.026910  0.079720  1.0  -0.0873
  Cl  Cl277  1  0.284070  0.049720  0.418700  1.0  -0.0636
  Cl  Cl278  1  0.177300  0.101380  0.388730  1.0  -0.0653
  Cl  Cl279  1  0.275890  0.279200  0.356720  1.0  -0.0857
  Cl  Cl280  1  0.383030  0.227870  0.372150  1.0  -0.0641
  O  O281  1  0.451780  0.745590  0.136700  1.0  -0.6857
  O  O282  1  0.452820  0.676710  0.223400  1.0  -0.6324
  O  O283  1  0.521900  0.440900  0.638600  1.0  -0.4736
  O  O284  1  0.597640  0.403590  0.676900  1.0  -0.6965
  O  O285  1  0.841240  0.695240  0.771800  1.0  -0.7236
  O  O286  1  0.837160  0.747190  0.894300  1.0  -0.5624
  O  O287  1  0.048220  0.254410  0.136700  1.0  -0.6849
  O  O288  1  0.047180  0.323290  0.223400  1.0  -0.634
  O  O289  1  0.978100  0.559100  0.638600  1.0  -0.4731
  O  O290  1  0.902360  0.596410  0.676900  1.0  -0.6957
  O  O291  1  0.658760  0.304760  0.771800  1.0  -0.7223
  O  O292  1  0.662840  0.252810  0.894300  1.0  -0.5628
  O  O293  1  0.048220  0.245590  0.363300  1.0  -0.6863
  O  O294  1  0.047180  0.176710  0.276600  1.0  -0.636
  O  O295  1  0.978100  0.940900  0.861400  1.0  -0.4753
  O  O296  1  0.902360  0.903590  0.823100  1.0  -0.6965
  O  O297  1  0.658760  0.195240  0.728200  1.0  -0.7224
  O  O298  1  0.662840  0.247190  0.605700  1.0  -0.5633
  O  O299  1  0.451780  0.754410  0.363300  1.0  -0.6852
  O  O300  1  0.452820  0.823290  0.276600  1.0  -0.6352
  O  O301  1  0.521900  0.059100  0.861400  1.0  -0.4737
  O  O302  1  0.597640  0.096410  0.823100  1.0  -0.695
  O  O303  1  0.841240  0.804760  0.728200  1.0  -0.7228
  O  O304  1  0.837160  0.752810  0.605700  1.0  -0.5628
  O  O305  1  0.548220  0.254410  0.863300  1.0  -0.6846
  O  O306  1  0.547180  0.323290  0.776600  1.0  -0.6364
  O  O307  1  0.478100  0.559100  0.361400  1.0  -0.4753
  O  O308  1  0.402360  0.596410  0.323100  1.0  -0.6953
  O  O309  1  0.158760  0.304760  0.228200  1.0  -0.7226
  O  O310  1  0.162840  0.252810  0.105700  1.0  -0.563
  O  O311  1  0.951780  0.745590  0.863300  1.0  -0.686
  O  O312  1  0.952820  0.676710  0.776600  1.0  -0.6351
  O  O313  1  0.021900  0.440900  0.361400  1.0  -0.4737
  O  O314  1  0.097640  0.403590  0.323100  1.0  -0.6959
  O  O315  1  0.341240  0.695240  0.228200  1.0  -0.7225
  O  O316  1  0.337160  0.747190  0.105700  1.0  -0.5635
  O  O317  1  0.951780  0.754410  0.636700  1.0  -0.6853
  O  O318  1  0.952820  0.823290  0.723400  1.0  -0.6334
  O  O319  1  0.021900  0.059100  0.138600  1.0  -0.4736
  O  O320  1  0.097640  0.096410  0.176900  1.0  -0.6956
  O  O321  1  0.341240  0.804760  0.271800  1.0  -0.7226
  O  O322  1  0.337160  0.752810  0.394300  1.0  -0.5619
  O  O323  1  0.548220  0.245590  0.636700  1.0  -0.686
  O  O324  1  0.547180  0.176710  0.723400  1.0  -0.6327
  O  O325  1  0.478100  0.940900  0.138600  1.0  -0.4731
  O  O326  1  0.402360  0.903590  0.176900  1.0  -0.6967
  O  O327  1  0.158760  0.195240  0.271800  1.0  -0.7234
  O  O328  1  0.162840  0.247190  0.394300  1.0  -0.5633
