# generated using pymatgen
data_TbC22(Cl2O)6
_symmetry_space_group_name_H-M   'P 1'
_cell_length_a   14.51700000
_cell_length_b   25.63000000
_cell_length_c   26.60000000
_cell_angle_alpha   90.00000000
_cell_angle_beta   90.00000000
_cell_angle_gamma   90.00000000
_symmetry_Int_Tables_number   1
_chemical_formula_structural   TbC22(Cl2O)6
_chemical_formula_sum   'Tb8 C176 Cl96 O48'
_cell_volume   9897.08088600
_cell_formula_units_Z   8
loop_
 _symmetry_equiv_pos_site_id
 _symmetry_equiv_pos_as_xyz
  1  'x, y, z'
loop_
 _atom_site_type_symbol
 _atom_site_label
 _atom_site_symmetry_multiplicity
 _atom_site_fract_x
 _atom_site_fract_y
 _atom_site_fract_z
 _atom_site_occupancy
 _atom_site_charge
  Tb  Tb1  1  0.851510  0.602750  0.184270  1.0  2.1461
  Tb  Tb2  1  0.851510  0.897250  0.815730  1.0  2.1456
  Tb  Tb3  1  0.648490  0.897250  0.684270  1.0  2.1438
  Tb  Tb4  1  0.648490  0.602750  0.315730  1.0  2.1444
  Tb  Tb5  1  0.148490  0.397250  0.815730  1.0  2.1445
  Tb  Tb6  1  0.148490  0.102750  0.184270  1.0  2.1437
  Tb  Tb7  1  0.351510  0.102750  0.315730  1.0  2.1456
  Tb  Tb8  1  0.351510  0.397250  0.684270  1.0  2.1463
  C  C9  1  0.096500  0.380000  0.384500  1.0  -0.0405
  C  C10  1  0.151700  0.391300  0.429900  1.0  -0.0065
  C  C11  1  0.111200  0.412400  0.472700  1.0  0.0531
  C  C12  1  0.165100  0.424700  0.514200  1.0  0.036
  C  C13  1  0.259600  0.416000  0.512900  1.0  -0.0905
  C  C14  1  0.300100  0.394900  0.470200  1.0  0.0092
  C  C15  1  0.246200  0.382600  0.428700  1.0  0.1089
  C  C16  1  0.032500  0.420300  0.362600  1.0  -0.0189
  C  C17  1  0.059500  0.472200  0.354400  1.0  0.0357
  C  C18  1  0.999500  0.508100  0.333200  1.0  0.1043
  C  C19  1  0.908400  0.495400  0.320800  1.0  -0.1244
  C  C20  1  0.879000  0.445100  0.330900  1.0  0.0343
  C  C21  1  0.940900  0.408300  0.351200  1.0  0.1672
  C  C22  1  0.102100  0.329000  0.358700  1.0  0.0437
  C  C23  1  0.100400  0.284500  0.387000  1.0  0.0558
  C  C24  1  0.111600  0.325300  0.307000  1.0  0.0333
  C  C25  1  0.111900  0.233900  0.364000  1.0  0.0407
  C  C26  1  0.124700  0.275800  0.283800  1.0  0.0678
  C  C27  1  0.845300  0.534400  0.297100  1.0  0.7369
  C  C28  1  0.156100  0.178300  0.286700  1.0  0.6667
  C  C29  1  0.322800  0.433200  0.559700  1.0  0.6688
  C  C30  1  0.131300  0.230000  0.311500  1.0  -0.1007
  C  C31  1  0.096500  0.120000  0.615500  1.0  -0.0407
  C  C32  1  0.151700  0.108700  0.570100  1.0  -0.0066
  C  C33  1  0.111200  0.087600  0.527300  1.0  0.0508
  C  C34  1  0.165100  0.075300  0.485800  1.0  0.0355
  C  C35  1  0.259600  0.084000  0.487100  1.0  -0.0901
  C  C36  1  0.300100  0.105100  0.529800  1.0  0.0086
  C  C37  1  0.246200  0.117400  0.571300  1.0  0.1092
  C  C38  1  0.032500  0.079700  0.637400  1.0  -0.0175
  C  C39  1  0.059500  0.027800  0.645600  1.0  0.0366
  C  C40  1  0.999500  0.991900  0.666800  1.0  0.1043
  C  C41  1  0.908400  0.004600  0.679200  1.0  -0.1241
  C  C42  1  0.879000  0.054900  0.669100  1.0  0.0348
  C  C43  1  0.940900  0.091700  0.648800  1.0  0.1669
  C  C44  1  0.102100  0.171000  0.641300  1.0  0.0433
  C  C45  1  0.100400  0.215500  0.613000  1.0  0.0565
  C  C46  1  0.111600  0.174700  0.693000  1.0  0.0337
  C  C47  1  0.111900  0.266100  0.636000  1.0  0.0469
  C  C48  1  0.124700  0.224200  0.716200  1.0  0.0697
  C  C49  1  0.845300  0.965600  0.702900  1.0  0.7367
  C  C50  1  0.156100  0.321700  0.713300  1.0  0.6668
  C  C51  1  0.322800  0.066800  0.440300  1.0  0.6694
  C  C52  1  0.131300  0.270000  0.688500  1.0  -0.1004
  C  C53  1  0.403500  0.120000  0.884500  1.0  -0.0406
  C  C54  1  0.348300  0.108700  0.929900  1.0  -0.006
  C  C55  1  0.388800  0.087600  0.972700  1.0  0.0532
  C  C56  1  0.334900  0.075300  0.014200  1.0  0.0363
  C  C57  1  0.240400  0.084000  0.012900  1.0  -0.0898
  C  C58  1  0.199900  0.105100  0.970200  1.0  0.01
  C  C59  1  0.253800  0.117400  0.928700  1.0  0.1073
  C  C60  1  0.467500  0.079700  0.862600  1.0  -0.0165
  C  C61  1  0.440500  0.027800  0.854400  1.0  0.0342
  C  C62  1  0.500500  0.991900  0.833200  1.0  0.104
  C  C63  1  0.591600  0.004600  0.820800  1.0  -0.1239
  C  C64  1  0.621000  0.054900  0.830900  1.0  0.0349
  C  C65  1  0.559100  0.091700  0.851200  1.0  0.1653
  C  C66  1  0.397900  0.171000  0.858700  1.0  0.0441
  C  C67  1  0.399600  0.215500  0.887000  1.0  0.0569
  C  C68  1  0.388400  0.174700  0.807000  1.0  0.0324
  C  C69  1  0.388100  0.266100  0.864000  1.0  0.0445
  C  C70  1  0.375300  0.224200  0.783800  1.0  0.0671
  C  C71  1  0.654700  0.965600  0.797100  1.0  0.7346
  C  C72  1  0.343900  0.321700  0.786700  1.0  0.6668
  C  C73  1  0.177200  0.066800  0.059700  1.0  0.6679
  C  C74  1  0.368700  0.270000  0.811500  1.0  -0.1002
  C  C75  1  0.403500  0.380000  0.115500  1.0  -0.0403
  C  C76  1  0.348300  0.391300  0.070100  1.0  -0.0066
  C  C77  1  0.388800  0.412400  0.027300  1.0  0.053
  C  C78  1  0.334900  0.424700  0.985800  1.0  0.0366
  C  C79  1  0.240400  0.416000  0.987100  1.0  -0.0908
  C  C80  1  0.199900  0.394900  0.029800  1.0  0.0089
  C  C81  1  0.253800  0.382600  0.071300  1.0  0.1077
  C  C82  1  0.467500  0.420300  0.137400  1.0  -0.0171
  C  C83  1  0.440500  0.472200  0.145600  1.0  0.0353
  C  C84  1  0.500500  0.508100  0.166800  1.0  0.1053
  C  C85  1  0.591600  0.495400  0.179200  1.0  -0.1239
  C  C86  1  0.621000  0.445100  0.169100  1.0  0.0367
  C  C87  1  0.559100  0.408300  0.148800  1.0  0.1673
  C  C88  1  0.397900  0.329000  0.141300  1.0  0.0435
  C  C89  1  0.399600  0.284500  0.113000  1.0  0.0569
  C  C90  1  0.388400  0.325300  0.193000  1.0  0.0345
  C  C91  1  0.388100  0.233900  0.136000  1.0  0.0444
  C  C92  1  0.375300  0.275800  0.216200  1.0  0.0702
  C  C93  1  0.654700  0.534400  0.202900  1.0  0.7355
  C  C94  1  0.343900  0.178300  0.213300  1.0  0.6667
  C  C95  1  0.177200  0.433200  0.940300  1.0  0.6681
  C  C96  1  0.368700  0.230000  0.188500  1.0  -0.1004
  C  C97  1  0.903500  0.620000  0.615500  1.0  -0.0406
  C  C98  1  0.848300  0.608700  0.570100  1.0  -0.0064
  C  C99  1  0.888800  0.587600  0.527300  1.0  0.0525
  C  C100  1  0.834900  0.575300  0.485800  1.0  0.0366
  C  C101  1  0.740400  0.584000  0.487100  1.0  -0.0906
  C  C102  1  0.699900  0.605100  0.529800  1.0  0.0098
  C  C103  1  0.753800  0.617400  0.571300  1.0  0.1082
  C  C104  1  0.967500  0.579700  0.637400  1.0  -0.0163
  C  C105  1  0.940500  0.527800  0.645600  1.0  0.0339
  C  C106  1  0.000500  0.491900  0.666800  1.0  0.1041
  C  C107  1  0.091600  0.504600  0.679200  1.0  -0.1237
  C  C108  1  0.121000  0.554900  0.669100  1.0  0.035
  C  C109  1  0.059100  0.591700  0.648800  1.0  0.165
  C  C110  1  0.897900  0.671000  0.641300  1.0  0.0435
  C  C111  1  0.899600  0.715500  0.613000  1.0  0.0576
  C  C112  1  0.888400  0.674700  0.693000  1.0  0.0337
  C  C113  1  0.888100  0.766100  0.636000  1.0  0.0472
  C  C114  1  0.875300  0.724200  0.716200  1.0  0.0703
  C  C115  1  0.154700  0.465600  0.702900  1.0  0.735
  C  C116  1  0.843900  0.821700  0.713300  1.0  0.6669
  C  C117  1  0.677200  0.566800  0.440300  1.0  0.6683
  C  C118  1  0.868700  0.770000  0.688500  1.0  -0.1003
  C  C119  1  0.903500  0.880000  0.384500  1.0  -0.0403
  C  C120  1  0.848300  0.891300  0.429900  1.0  -0.0062
  C  C121  1  0.888800  0.912400  0.472700  1.0  0.0534
  C  C122  1  0.834900  0.924700  0.514200  1.0  0.0361
  C  C123  1  0.740400  0.916000  0.512900  1.0  -0.0901
  C  C124  1  0.699900  0.894900  0.470200  1.0  0.009
  C  C125  1  0.753800  0.882600  0.428700  1.0  0.1062
  C  C126  1  0.967500  0.920300  0.362600  1.0  -0.0176
  C  C127  1  0.940500  0.972200  0.354400  1.0  0.0354
  C  C128  1  0.000500  0.008100  0.333200  1.0  0.1046
  C  C129  1  0.091600  0.995400  0.320800  1.0  -0.1239
  C  C130  1  0.121000  0.945100  0.330900  1.0  0.037
  C  C131  1  0.059100  0.908300  0.351200  1.0  0.1675
  C  C132  1  0.897900  0.829000  0.358700  1.0  0.0439
  C  C133  1  0.899600  0.784500  0.387000  1.0  0.056
  C  C134  1  0.888400  0.825300  0.307000  1.0  0.0331
  C  C135  1  0.888100  0.733900  0.364000  1.0  0.0419
  C  C136  1  0.875300  0.775800  0.283800  1.0  0.0676
  C  C137  1  0.154700  0.034400  0.297100  1.0  0.735
  C  C138  1  0.843900  0.678300  0.286700  1.0  0.6665
  C  C139  1  0.677200  0.933200  0.559700  1.0  0.6673
  C  C140  1  0.868700  0.730000  0.311500  1.0  -0.1004
  C  C141  1  0.596500  0.880000  0.115500  1.0  -0.0404
  C  C142  1  0.651700  0.891300  0.070100  1.0  -0.0068
  C  C143  1  0.611200  0.912400  0.027300  1.0  0.0522
  C  C144  1  0.665100  0.924700  0.985800  1.0  0.036
  C  C145  1  0.759600  0.916000  0.987100  1.0  -0.0903
  C  C146  1  0.800100  0.894900  0.029800  1.0  0.0087
  C  C147  1  0.746200  0.882600  0.071300  1.0  0.1094
  C  C148  1  0.532500  0.920300  0.137400  1.0  -0.0183
  C  C149  1  0.559500  0.972200  0.145600  1.0  0.0355
  C  C150  1  0.499500  0.008100  0.166800  1.0  0.1044
  C  C151  1  0.408400  0.995400  0.179200  1.0  -0.1243
  C  C152  1  0.379000  0.945100  0.169100  1.0  0.0343
  C  C153  1  0.440900  0.908300  0.148800  1.0  0.1671
  C  C154  1  0.602100  0.829000  0.141300  1.0  0.0432
  C  C155  1  0.600400  0.784500  0.113000  1.0  0.0561
  C  C156  1  0.611600  0.825300  0.193000  1.0  0.0347
  C  C157  1  0.611900  0.733900  0.136000  1.0  0.0432
  C  C158  1  0.624700  0.775800  0.216200  1.0  0.0698
  C  C159  1  0.345300  0.034400  0.202900  1.0  0.7372
  C  C160  1  0.656100  0.678300  0.213300  1.0  0.6668
  C  C161  1  0.822800  0.933200  0.940300  1.0  0.6688
  C  C162  1  0.631300  0.730000  0.188500  1.0  -0.1008
  C  C163  1  0.596500  0.620000  0.884500  1.0  -0.0407
  C  C164  1  0.651700  0.608700  0.929900  1.0  -0.0063
  C  C165  1  0.611200  0.587600  0.972700  1.0  0.0524
  C  C166  1  0.665100  0.575300  0.014200  1.0  0.0357
  C  C167  1  0.759600  0.584000  0.012900  1.0  -0.0903
  C  C168  1  0.800100  0.605100  0.970200  1.0  0.0089
  C  C169  1  0.746200  0.617400  0.928700  1.0  0.1089
  C  C170  1  0.532500  0.579700  0.862600  1.0  -0.0178
  C  C171  1  0.559500  0.527800  0.854400  1.0  0.0366
  C  C172  1  0.499500  0.491900  0.833200  1.0  0.1044
  C  C173  1  0.408400  0.504600  0.820800  1.0  -0.1243
  C  C174  1  0.379000  0.554900  0.830900  1.0  0.0344
  C  C175  1  0.440900  0.591700  0.851200  1.0  0.1671
  C  C176  1  0.602100  0.671000  0.858700  1.0  0.0438
  C  C177  1  0.600400  0.715500  0.887000  1.0  0.0561
  C  C178  1  0.611600  0.674700  0.807000  1.0  0.0323
  C  C179  1  0.611900  0.766100  0.864000  1.0  0.044
  C  C180  1  0.624700  0.724200  0.783800  1.0  0.0671
  C  C181  1  0.345300  0.465600  0.797100  1.0  0.7365
  C  C182  1  0.656100  0.821700  0.786700  1.0  0.6668
  C  C183  1  0.822800  0.566800  0.059700  1.0  0.6699
  C  C184  1  0.631300  0.770000  0.811500  1.0  -0.1003
  Cl  Cl185  1  0.996000  0.422220  0.477000  1.0  -0.0576
  Cl  Cl186  1  0.170600  0.490450  0.366200  1.0  -0.0854
  Cl  Cl187  1  0.117900  0.454810  0.566270  1.0  -0.0592
  Cl  Cl188  1  0.034200  0.571290  0.324160  1.0  -0.0626
  Cl  Cl189  1  0.417800  0.384400  0.471060  1.0  -0.1086
  Cl  Cl190  1  0.897900  0.346560  0.365340  1.0  -0.0926
  Cl  Cl191  1  0.301300  0.360440  0.375560  1.0  -0.0758
  Cl  Cl192  1  0.768600  0.427700  0.316840  1.0  -0.0668
  Cl  Cl193  1  0.124000  0.379950  0.268800  1.0  -0.0672
  Cl  Cl194  1  0.075700  0.284650  0.449460  1.0  -0.0674
  Cl  Cl195  1  0.105900  0.178090  0.398320  1.0  -0.0742
  Cl  Cl196  1  0.144500  0.273140  0.218680  1.0  -0.0936
  Cl  Cl197  1  0.996000  0.077780  0.523000  1.0  -0.06
  Cl  Cl198  1  0.170600  0.009550  0.633800  1.0  -0.086
  Cl  Cl199  1  0.117900  0.045190  0.433730  1.0  -0.0589
  Cl  Cl200  1  0.034200  0.928710  0.675840  1.0  -0.0641
  Cl  Cl201  1  0.417800  0.115600  0.528940  1.0  -0.1082
  Cl  Cl202  1  0.897900  0.153440  0.634660  1.0  -0.091
  Cl  Cl203  1  0.301300  0.139560  0.624440  1.0  -0.0762
  Cl  Cl204  1  0.768600  0.072300  0.683160  1.0  -0.0665
  Cl  Cl205  1  0.124000  0.120050  0.731200  1.0  -0.0651
  Cl  Cl206  1  0.075700  0.215350  0.550540  1.0  -0.0665
  Cl  Cl207  1  0.105900  0.321910  0.601680  1.0  -0.0735
  Cl  Cl208  1  0.144500  0.226860  0.781320  1.0  -0.0914
  Cl  Cl209  1  0.504000  0.077780  0.977000  1.0  -0.0599
  Cl  Cl210  1  0.329400  0.009550  0.866200  1.0  -0.0853
  Cl  Cl211  1  0.382100  0.045190  0.066270  1.0  -0.0599
  Cl  Cl212  1  0.465800  0.928710  0.824160  1.0  -0.0646
  Cl  Cl213  1  0.082200  0.115600  0.971060  1.0  -0.1095
  Cl  Cl214  1  0.602100  0.153440  0.865340  1.0  -0.0913
  Cl  Cl215  1  0.198700  0.139560  0.875560  1.0  -0.0758
  Cl  Cl216  1  0.731400  0.072300  0.816840  1.0  -0.0674
  Cl  Cl217  1  0.376000  0.120050  0.768800  1.0  -0.0665
  Cl  Cl218  1  0.424300  0.215350  0.949460  1.0  -0.0664
  Cl  Cl219  1  0.394100  0.321910  0.898320  1.0  -0.0721
  Cl  Cl220  1  0.355500  0.226860  0.718680  1.0  -0.0924
  Cl  Cl221  1  0.504000  0.422220  0.023000  1.0  -0.0598
  Cl  Cl222  1  0.329400  0.490450  0.133800  1.0  -0.0856
  Cl  Cl223  1  0.382100  0.454810  0.933730  1.0  -0.0591
  Cl  Cl224  1  0.465800  0.571290  0.175840  1.0  -0.063
  Cl  Cl225  1  0.082200  0.384400  0.028940  1.0  -0.1091
  Cl  Cl226  1  0.602100  0.346560  0.134660  1.0  -0.0929
  Cl  Cl227  1  0.198700  0.360440  0.124440  1.0  -0.076
  Cl  Cl228  1  0.731400  0.427700  0.183160  1.0  -0.0685
  Cl  Cl229  1  0.376000  0.379950  0.231200  1.0  -0.0647
  Cl  Cl230  1  0.424300  0.284650  0.050540  1.0  -0.0648
  Cl  Cl231  1  0.394100  0.178090  0.101680  1.0  -0.0734
  Cl  Cl232  1  0.355500  0.273140  0.281320  1.0  -0.0922
  Cl  Cl233  1  0.004000  0.577780  0.523000  1.0  -0.0605
  Cl  Cl234  1  0.829400  0.509550  0.633800  1.0  -0.0855
  Cl  Cl235  1  0.882100  0.545190  0.433730  1.0  -0.0597
  Cl  Cl236  1  0.965800  0.428710  0.675840  1.0  -0.0646
  Cl  Cl237  1  0.582200  0.615600  0.528940  1.0  -0.109
  Cl  Cl238  1  0.102100  0.653440  0.634660  1.0  -0.0913
  Cl  Cl239  1  0.698700  0.639560  0.624440  1.0  -0.0757
  Cl  Cl240  1  0.231400  0.572300  0.683160  1.0  -0.0672
  Cl  Cl241  1  0.876000  0.620050  0.731200  1.0  -0.0649
  Cl  Cl242  1  0.924300  0.715350  0.550540  1.0  -0.0655
  Cl  Cl243  1  0.894100  0.821910  0.601680  1.0  -0.0726
  Cl  Cl244  1  0.855500  0.726860  0.781320  1.0  -0.0924
  Cl  Cl245  1  0.004000  0.922220  0.477000  1.0  -0.0593
  Cl  Cl246  1  0.829400  0.990450  0.366200  1.0  -0.0851
  Cl  Cl247  1  0.882100  0.954810  0.566270  1.0  -0.0598
  Cl  Cl248  1  0.965800  0.071290  0.324160  1.0  -0.0632
  Cl  Cl249  1  0.582200  0.884400  0.471060  1.0  -0.1094
  Cl  Cl250  1  0.102100  0.846560  0.365340  1.0  -0.0933
  Cl  Cl251  1  0.698700  0.860440  0.375560  1.0  -0.0763
  Cl  Cl252  1  0.231400  0.927700  0.316840  1.0  -0.0684
  Cl  Cl253  1  0.876000  0.879950  0.268800  1.0  -0.0668
  Cl  Cl254  1  0.924300  0.784650  0.449460  1.0  -0.0663
  Cl  Cl255  1  0.894100  0.678090  0.398320  1.0  -0.0728
  Cl  Cl256  1  0.855500  0.773140  0.218680  1.0  -0.0921
  Cl  Cl257  1  0.496000  0.922220  0.023000  1.0  -0.0594
  Cl  Cl258  1  0.670600  0.990450  0.133800  1.0  -0.0862
  Cl  Cl259  1  0.617900  0.954810  0.933730  1.0  -0.0592
  Cl  Cl260  1  0.534200  0.071290  0.175840  1.0  -0.0624
  Cl  Cl261  1  0.917800  0.884400  0.028940  1.0  -0.1083
  Cl  Cl262  1  0.397900  0.846560  0.134660  1.0  -0.0923
  Cl  Cl263  1  0.801300  0.860440  0.124440  1.0  -0.0767
  Cl  Cl264  1  0.268600  0.927700  0.183160  1.0  -0.0669
  Cl  Cl265  1  0.624000  0.879950  0.231200  1.0  -0.0647
  Cl  Cl266  1  0.575700  0.784650  0.050540  1.0  -0.066
  Cl  Cl267  1  0.605900  0.678090  0.101680  1.0  -0.0746
  Cl  Cl268  1  0.644500  0.773140  0.281320  1.0  -0.0918
  Cl  Cl269  1  0.496000  0.577780  0.977000  1.0  -0.0581
  Cl  Cl270  1  0.670600  0.509550  0.866200  1.0  -0.0857
  Cl  Cl271  1  0.617900  0.545190  0.066270  1.0  -0.0601
  Cl  Cl272  1  0.534200  0.428710  0.824160  1.0  -0.0639
  Cl  Cl273  1  0.917800  0.615600  0.971060  1.0  -0.1086
  Cl  Cl274  1  0.397900  0.653440  0.865340  1.0  -0.091
  Cl  Cl275  1  0.801300  0.639560  0.875560  1.0  -0.0755
  Cl  Cl276  1  0.268600  0.572300  0.816840  1.0  -0.0664
  Cl  Cl277  1  0.624000  0.620050  0.768800  1.0  -0.0667
  Cl  Cl278  1  0.575700  0.715350  0.949460  1.0  -0.0677
  Cl  Cl279  1  0.605900  0.821910  0.898320  1.0  -0.0731
  Cl  Cl280  1  0.644500  0.726860  0.718680  1.0  -0.0934
  O  O281  1  0.864800  0.549200  0.254200  1.0  -0.6908
  O  O282  1  0.779100  0.549800  0.322400  1.0  -0.675
  O  O283  1  0.319700  0.399400  0.596000  1.0  -0.6391
  O  O284  1  0.105500  0.162000  0.252500  1.0  -0.5443
  O  O285  1  0.229100  0.158900  0.305700  1.0  -0.7417
  O  O286  1  0.361400  0.474600  0.557500  1.0  -0.4293
  O  O287  1  0.864800  0.950800  0.745800  1.0  -0.6901
  O  O288  1  0.779100  0.950200  0.677600  1.0  -0.6752
  O  O289  1  0.319700  0.100600  0.404000  1.0  -0.6403
  O  O290  1  0.105500  0.338000  0.747500  1.0  -0.5412
  O  O291  1  0.229100  0.341100  0.694300  1.0  -0.7418
  O  O292  1  0.361400  0.025400  0.442500  1.0  -0.4294
  O  O293  1  0.635200  0.950800  0.754200  1.0  -0.6931
  O  O294  1  0.720900  0.950200  0.822400  1.0  -0.6758
  O  O295  1  0.180300  0.100600  0.096000  1.0  -0.6422
  O  O296  1  0.394500  0.338000  0.752500  1.0  -0.542
  O  O297  1  0.270900  0.341100  0.805700  1.0  -0.7419
  O  O298  1  0.138600  0.025400  0.057500  1.0  -0.4299
  O  O299  1  0.635200  0.549200  0.245800  1.0  -0.6911
  O  O300  1  0.720900  0.549800  0.177600  1.0  -0.6767
  O  O301  1  0.180300  0.399400  0.904000  1.0  -0.641
  O  O302  1  0.394500  0.162000  0.247500  1.0  -0.5415
  O  O303  1  0.270900  0.158900  0.194300  1.0  -0.7429
  O  O304  1  0.138600  0.474600  0.942500  1.0  -0.4294
  O  O305  1  0.135200  0.450800  0.745800  1.0  -0.6904
  O  O306  1  0.220900  0.450200  0.677600  1.0  -0.6758
  O  O307  1  0.680300  0.600600  0.404000  1.0  -0.6431
  O  O308  1  0.894500  0.838000  0.747500  1.0  -0.5415
  O  O309  1  0.770900  0.841100  0.694300  1.0  -0.7428
  O  O310  1  0.638600  0.525400  0.442500  1.0  -0.4302
  O  O311  1  0.135200  0.049200  0.254200  1.0  -0.6931
  O  O312  1  0.220900  0.049800  0.322400  1.0  -0.6758
  O  O313  1  0.680300  0.899400  0.596000  1.0  -0.6399
  O  O314  1  0.894500  0.662000  0.252500  1.0  -0.5418
  O  O315  1  0.770900  0.658900  0.305700  1.0  -0.7423
  O  O316  1  0.638600  0.974600  0.557500  1.0  -0.4292
  O  O317  1  0.364800  0.049200  0.245800  1.0  -0.6901
  O  O318  1  0.279100  0.049800  0.177600  1.0  -0.6758
  O  O319  1  0.819700  0.899400  0.904000  1.0  -0.639
  O  O320  1  0.605500  0.662000  0.247500  1.0  -0.5415
  O  O321  1  0.729100  0.658900  0.194300  1.0  -0.7418
  O  O322  1  0.861400  0.974600  0.942500  1.0  -0.4296
  O  O323  1  0.364800  0.450800  0.754200  1.0  -0.6908
  O  O324  1  0.279100  0.450200  0.822400  1.0  -0.6746
  O  O325  1  0.819700  0.600600  0.096000  1.0  -0.6406
  O  O326  1  0.605500  0.838000  0.752500  1.0  -0.5443
  O  O327  1  0.729100  0.841100  0.805700  1.0  -0.7413
  O  O328  1  0.861400  0.525400  0.057500  1.0  -0.429
