# generated using pymatgen
data_Zn2H9C17N2O9
_symmetry_space_group_name_H-M   'P 1'
_cell_length_a   13.95170000
_cell_length_b   16.54740000
_cell_length_c   16.54740000
_cell_angle_alpha   103.39500000
_cell_angle_beta   110.00900000
_cell_angle_gamma   110.00900000
_symmetry_Int_Tables_number   1
_chemical_formula_structural   Zn2H9C17N2O9
_chemical_formula_sum   'Zn8 H36 C68 N8 O36'
_cell_volume   3098.67622439
_cell_formula_units_Z   4
loop_
 _symmetry_equiv_pos_site_id
 _symmetry_equiv_pos_as_xyz
  1  'x, y, z'
loop_
 _atom_site_type_symbol
 _atom_site_label
 _atom_site_symmetry_multiplicity
 _atom_site_fract_x
 _atom_site_fract_y
 _atom_site_fract_z
 _atom_site_occupancy
 _atom_site_charge
  Zn  Zn1  1  0.287750  0.347550  0.205730  1.0  1.0082
  Zn  Zn2  1  0.539220  0.359320  0.278620  1.0  1.0398
  Zn  Zn3  1  0.212250  0.794270  0.652450  1.0  1.0143
  Zn  Zn4  1  0.960780  0.721380  0.640680  1.0  1.0403
  Zn  Zn5  1  0.712250  0.652450  0.794270  1.0  1.0062
  Zn  Zn6  1  0.460780  0.640680  0.721380  1.0  1.04
  Zn  Zn7  1  0.787750  0.205730  0.347550  1.0  1.012
  Zn  Zn8  1  0.039220  0.278620  0.359320  1.0  1.0399
  H  H9  1  0.654400  0.505900  0.116100  1.0  0.1287
  H  H10  1  0.133400  0.057200  0.036400  1.0  0.1064
  H  H11  1  0.363100  0.482000  0.553200  1.0  0.1091
  H  H12  1  0.055400  0.349000  0.155400  1.0  0.0953
  H  H13  1  0.864600  0.258200  0.037200  1.0  0.1402
  H  H14  1  0.978900  0.125200  0.880800  1.0  0.1468
  H  H15  1  0.156900  0.217100  0.000900  1.0  0.0592
  H  H16  1  0.278100  0.393300  0.017100  1.0  0.3644
  H  H17  1  0.507100  0.157500  0.130900  1.0  0.3971
  H  H18  1  0.845600  0.883900  0.494100  1.0  0.1283
  H  H19  1  0.366600  0.963600  0.942800  1.0  0.1058
  H  H20  1  0.136900  0.446800  0.518000  1.0  0.1103
  H  H21  1  0.444600  0.844600  0.651000  1.0  0.0956
  H  H22  1  0.635400  0.962800  0.741800  1.0  0.1424
  H  H23  1  0.521100  0.119200  0.874800  1.0  0.1504
  H  H24  1  0.343100  0.999100  0.782900  1.0  0.0575
  H  H25  1  0.221900  0.982900  0.606700  1.0  0.371
  H  H26  1  0.992900  0.869100  0.842500  1.0  0.3949
  H  H27  1  0.345600  0.494100  0.883900  1.0  0.129
  H  H28  1  0.866600  0.942800  0.963600  1.0  0.106
  H  H29  1  0.636900  0.518000  0.446800  1.0  0.1087
  H  H30  1  0.944600  0.651000  0.844600  1.0  0.095
  H  H31  1  0.135400  0.741800  0.962800  1.0  0.1416
  H  H32  1  0.021100  0.874800  0.119200  1.0  0.1408
  H  H33  1  0.843100  0.782900  0.999100  1.0  0.0585
  H  H34  1  0.721900  0.606700  0.982900  1.0  0.3717
  H  H35  1  0.492900  0.842500  0.869100  1.0  0.3971
  H  H36  1  0.154400  0.116100  0.505900  1.0  0.1288
  H  H37  1  0.633400  0.036400  0.057200  1.0  0.1065
  H  H38  1  0.863100  0.553200  0.482000  1.0  0.1085
  H  H39  1  0.555400  0.155400  0.349000  1.0  0.0961
  H  H40  1  0.364600  0.037200  0.258200  1.0  0.1422
  H  H41  1  0.478900  0.880800  0.125200  1.0  0.1482
  H  H42  1  0.656900  0.000900  0.217100  1.0  0.0592
  H  H43  1  0.778100  0.017100  0.393300  1.0  0.3734
  H  H44  1  0.007100  0.130900  0.157500  1.0  0.3972
  C  C45  1  0.463500  0.417300  0.128500  1.0  0.7537
  C  C46  1  0.481900  0.460300  0.062300  1.0  -0.2541
  C  C47  1  0.590800  0.503900  0.068100  1.0  -0.1276
  C  C48  1  0.391200  0.457500  0.990300  1.0  0.3347
  C  C49  1  0.346800  0.184200  0.147400  1.0  0.7021
  C  C50  1  0.300700  0.092900  0.067100  1.0  -0.2379
  C  C51  1  0.181000  0.038900  0.015100  1.0  -0.1532
  C  C52  1  0.368800  0.064000  0.038200  1.0  0.3232
  C  C53  1  0.257700  0.370900  0.378100  1.0  0.7065
  C  C54  1  0.384700  0.438300  0.438300  1.0  -0.2558
  C  C55  1  0.468200  0.445400  0.404400  1.0  0.3499
  C  C56  1  0.420000  0.490900  0.532300  1.0  -0.1414
  C  C57  1  0.038300  0.301800  0.099800  1.0  0.1847
  C  C58  1  0.925300  0.248900  0.030300  1.0  -0.1899
  C  C59  1  0.905500  0.182000  0.950400  1.0  0.2225
  C  C60  1  0.992100  0.169300  0.936700  1.0  -0.2018
  C  C61  1  0.095500  0.224200  0.008800  1.0  0.2126
  C  C62  1  0.036500  0.871500  0.582700  1.0  0.7516
  C  C63  1  0.018100  0.937700  0.539700  1.0  -0.2539
  C  C64  1  0.909200  0.931900  0.496100  1.0  -0.1285
  C  C65  1  0.108800  0.009700  0.542500  1.0  0.3346
  C  C66  1  0.153200  0.852600  0.815800  1.0  0.6992
  C  C67  1  0.199300  0.932900  0.907100  1.0  -0.2412
  C  C68  1  0.319000  0.984900  0.961100  1.0  -0.1525
  C  C69  1  0.131200  0.961800  0.936000  1.0  0.3239
  C  C70  1  0.242300  0.621900  0.629100  1.0  0.7084
  C  C71  1  0.115300  0.561700  0.561700  1.0  -0.2545
  C  C72  1  0.031800  0.595600  0.554600  1.0  0.3501
  C  C73  1  0.080000  0.467700  0.509100  1.0  -0.1427
  C  C74  1  0.461700  0.900200  0.698200  1.0  0.1865
  C  C75  1  0.574700  0.969700  0.751100  1.0  -0.1952
  C  C76  1  0.594500  0.049600  0.818000  1.0  0.2207
  C  C77  1  0.507900  0.063300  0.830700  1.0  -0.199
  C  C78  1  0.404500  0.991200  0.775800  1.0  0.2129
  C  C79  1  0.536500  0.582700  0.871500  1.0  0.7542
  C  C80  1  0.518100  0.539700  0.937700  1.0  -0.2557
  C  C81  1  0.409200  0.496100  0.931900  1.0  -0.128
  C  C82  1  0.608800  0.542500  0.009700  1.0  0.3336
  C  C83  1  0.653200  0.815800  0.852600  1.0  0.7006
  C  C84  1  0.699300  0.907100  0.932900  1.0  -0.2419
  C  C85  1  0.819000  0.961100  0.984900  1.0  -0.1529
  C  C86  1  0.631200  0.936000  0.961800  1.0  0.3243
  C  C87  1  0.742300  0.629100  0.621900  1.0  0.7079
  C  C88  1  0.615300  0.561700  0.561700  1.0  -0.255
  C  C89  1  0.531800  0.554600  0.595600  1.0  0.3503
  C  C90  1  0.580000  0.509100  0.467700  1.0  -0.1408
  C  C91  1  0.961700  0.698200  0.900200  1.0  0.1834
  C  C92  1  0.074700  0.751100  0.969700  1.0  -0.1679
  C  C93  1  0.094500  0.818000  0.049600  1.0  0.224
  C  C94  1  0.007900  0.830700  0.063300  1.0  -0.2021
  C  C95  1  0.904500  0.775800  0.991200  1.0  0.2132
  C  C96  1  0.963500  0.128500  0.417300  1.0  0.7523
  C  C97  1  0.981900  0.062300  0.460300  1.0  -0.2531
  C  C98  1  0.090800  0.068100  0.503900  1.0  -0.1241
  C  C99  1  0.891200  0.990300  0.457500  1.0  0.3346
  C  C100  1  0.846800  0.147400  0.184200  1.0  0.7006
  C  C101  1  0.800700  0.067100  0.092900  1.0  -0.2347
  C  C102  1  0.681000  0.015100  0.038900  1.0  -0.1543
  C  C103  1  0.868800  0.038200  0.064000  1.0  0.3231
  C  C104  1  0.757700  0.378100  0.370900  1.0  0.7069
  C  C105  1  0.884700  0.438300  0.438300  1.0  -0.2553
  C  C106  1  0.968200  0.404400  0.445400  1.0  0.3498
  C  C107  1  0.920000  0.532300  0.490900  1.0  -0.1426
  C  C108  1  0.538300  0.099800  0.301800  1.0  0.1851
  C  C109  1  0.425300  0.030300  0.248900  1.0  -0.1933
  C  C110  1  0.405500  0.950400  0.182000  1.0  0.2196
  C  C111  1  0.492100  0.936700  0.169300  1.0  -0.2003
  C  C112  1  0.595500  0.008800  0.224200  1.0  0.2135
  N  N113  1  0.125400  0.287900  0.090700  1.0  -0.3489
  N  N114  1  0.784600  0.111300  0.875100  1.0  -0.1331
  N  N115  1  0.374600  0.909300  0.712100  1.0  -0.3536
  N  N116  1  0.715400  0.124900  0.888700  1.0  -0.1196
  N  N117  1  0.874600  0.712100  0.909300  1.0  -0.3504
  N  N118  1  0.215400  0.888700  0.124900  1.0  -0.1222
  N  N119  1  0.625400  0.090700  0.287900  1.0  -0.3497
  N  N120  1  0.284600  0.875100  0.111300  1.0  -0.1224
  O  O121  1  0.365200  0.378200  0.118800  1.0  -0.6594
  O  O122  1  0.548100  0.421900  0.190100  1.0  -0.595
  O  O123  1  0.280000  0.415400  0.976400  1.0  -0.5445
  O  O124  1  0.282400  0.211900  0.163500  1.0  -0.5801
  O  O125  1  0.458400  0.229900  0.193100  1.0  -0.652
  O  O126  1  0.485300  0.109500  0.084500  1.0  -0.5111
  O  O127  1  0.440300  0.395200  0.317200  1.0  -0.6554
  O  O128  1  0.217600  0.327300  0.292500  1.0  -0.5925
  O  O129  1  0.198200  0.362400  0.421000  1.0  -0.5715
  O  O130  1  0.134800  0.881200  0.621800  1.0  -0.6574
  O  O131  1  0.951900  0.809900  0.578100  1.0  -0.5958
  O  O132  1  0.220000  0.023600  0.584600  1.0  -0.5421
  O  O133  1  0.217600  0.836500  0.788100  1.0  -0.5821
  O  O134  1  0.041600  0.806900  0.770100  1.0  -0.652
  O  O135  1  0.014700  0.915500  0.890500  1.0  -0.5123
  O  O136  1  0.059700  0.682800  0.604800  1.0  -0.6538
  O  O137  1  0.282400  0.707500  0.672700  1.0  -0.5923
  O  O138  1  0.301800  0.579000  0.637600  1.0  -0.57
  O  O139  1  0.634800  0.621800  0.881200  1.0  -0.6599
  O  O140  1  0.451900  0.578100  0.809900  1.0  -0.5946
  O  O141  1  0.720000  0.584600  0.023600  1.0  -0.5446
  O  O142  1  0.717600  0.788100  0.836500  1.0  -0.5815
  O  O143  1  0.541600  0.770100  0.806900  1.0  -0.6513
  O  O144  1  0.514700  0.890500  0.915500  1.0  -0.5108
  O  O145  1  0.559700  0.604800  0.682800  1.0  -0.6545
  O  O146  1  0.782400  0.672700  0.707500  1.0  -0.5921
  O  O147  1  0.801800  0.637600  0.579000  1.0  -0.5709
  O  O148  1  0.865200  0.118800  0.378200  1.0  -0.6575
  O  O149  1  0.048100  0.190100  0.421900  1.0  -0.5968
  O  O150  1  0.780000  0.976400  0.415400  1.0  -0.5434
  O  O151  1  0.782400  0.163500  0.211900  1.0  -0.5807
  O  O152  1  0.958400  0.193100  0.229900  1.0  -0.6508
  O  O153  1  0.985300  0.084500  0.109500  1.0  -0.5112
  O  O154  1  0.940300  0.317200  0.395200  1.0  -0.6549
  O  O155  1  0.717600  0.292500  0.327300  1.0  -0.593
  O  O156  1  0.698200  0.421000  0.362400  1.0  -0.5684
