# generated using pymatgen
data_Cu5H96C132(N11O9)4
_symmetry_space_group_name_H-M   'P 1'
_cell_length_a   28.10430000
_cell_length_b   28.10430000
_cell_length_c   28.10430000
_cell_angle_alpha   109.47100000
_cell_angle_beta   109.47100000
_cell_angle_gamma   109.47100000
_symmetry_Int_Tables_number   1
_chemical_formula_structural   Cu5H96C132(N11O9)4
_chemical_formula_sum   'Cu10 H192 C264 N88 O72'
_cell_volume   17088.34387637
_cell_formula_units_Z   2
loop_
 _symmetry_equiv_pos_site_id
 _symmetry_equiv_pos_as_xyz
  1  'x, y, z'
loop_
 _atom_site_type_symbol
 _atom_site_label
 _atom_site_symmetry_multiplicity
 _atom_site_fract_x
 _atom_site_fract_y
 _atom_site_fract_z
 _atom_site_occupancy
 _atom_site_charge
  Cu  Cu1  1  0.500000  0.000000  0.000000  1.0  0.4306
  Cu  Cu2  1  0.000000  0.500000  0.000000  1.0  0.4308
  Cu  Cu3  1  0.000000  0.000000  0.500000  1.0  0.4307
  Cu  Cu4  1  0.500000  0.500000  0.500000  1.0  0.431
  Cu  Cu5  1  0.000000  0.761090  0.761090  1.0  0.4688
  Cu  Cu6  1  0.000000  0.238910  0.238910  1.0  0.4688
  Cu  Cu7  1  0.238910  0.000000  0.238910  1.0  0.469
  Cu  Cu8  1  0.761090  0.000000  0.761090  1.0  0.4689
  Cu  Cu9  1  0.238910  0.238910  0.000000  1.0  0.4685
  Cu  Cu10  1  0.761090  0.761090  0.000000  1.0  0.4688
  H  H11  1  0.204800  0.917500  0.903500  1.0  0.1041
  H  H12  1  0.280500  0.942400  0.884500  1.0  0.2644
  H  H13  1  0.108500  0.857000  0.870900  1.0  0.0895
  H  H14  1  0.356400  0.004700  0.800700  1.0  0.1107
  H  H15  1  0.172900  0.838700  0.737200  1.0  0.1224
  H  H16  1  0.366400  0.944000  0.912400  1.0  0.0813
  H  H17  1  0.455200  0.072100  0.860500  1.0  0.1229
  H  H18  1  0.077500  0.781700  0.709000  1.0  0.0913
  H  H19  1  0.014000  0.301300  0.096500  1.0  0.1032
  H  H20  1  0.057900  0.396000  0.115500  1.0  0.2663
  H  H21  1  0.986100  0.237600  0.129100  1.0  0.0881
  H  H22  1  0.204000  0.555700  0.199300  1.0  0.1102
  H  H23  1  0.101500  0.435700  0.262800  1.0  0.1234
  H  H24  1  0.031600  0.454000  0.087600  1.0  0.0829
  H  H25  1  0.211600  0.594700  0.139500  1.0  0.1236
  H  H26  1  0.072700  0.368500  0.291000  1.0  0.0927
  H  H27  1  0.986000  0.082500  0.287300  1.0  0.1045
  H  H28  1  0.942100  0.057600  0.338100  1.0  0.2658
  H  H29  1  0.013900  0.143000  0.251500  1.0  0.0864
  H  H30  1  0.796000  0.995300  0.351700  1.0  0.1107
  H  H31  1  0.898500  0.161300  0.334200  1.0  0.121
  H  H32  1  0.968400  0.056000  0.422400  1.0  0.0814
  H  H33  1  0.788400  0.927900  0.383100  1.0  0.1225
  H  H34  1  0.927300  0.218300  0.295800  1.0  0.0933
  H  H35  1  0.795200  0.698700  0.712700  1.0  0.1041
  H  H36  1  0.719500  0.604000  0.661900  1.0  0.2671
  H  H37  1  0.891500  0.762400  0.748500  1.0  0.089
  H  H38  1  0.643600  0.444300  0.648300  1.0  0.1103
  H  H39  1  0.827100  0.564300  0.665800  1.0  0.1222
  H  H40  1  0.633600  0.546000  0.577600  1.0  0.0839
  H  H41  1  0.544800  0.405300  0.616900  1.0  0.1237
  H  H42  1  0.922500  0.631500  0.704200  1.0  0.0936
  H  H43  1  0.287300  0.986000  0.082500  1.0  0.1046
  H  H44  1  0.338100  0.942100  0.057600  1.0  0.2657
  H  H45  1  0.251500  0.013900  0.143000  1.0  0.0869
  H  H46  1  0.351700  0.796000  0.995300  1.0  0.1098
  H  H47  1  0.334200  0.898500  0.161300  1.0  0.1209
  H  H48  1  0.422400  0.968400  0.056000  1.0  0.0833
  H  H49  1  0.383100  0.788400  0.927900  1.0  0.1232
  H  H50  1  0.295800  0.927300  0.218300  1.0  0.0917
  H  H51  1  0.712700  0.795200  0.698700  1.0  0.104
  H  H52  1  0.661900  0.719500  0.604000  1.0  0.2645
  H  H53  1  0.748500  0.891500  0.762400  1.0  0.0888
  H  H54  1  0.648300  0.643600  0.444300  1.0  0.1103
  H  H55  1  0.665800  0.827100  0.564300  1.0  0.1224
  H  H56  1  0.577600  0.633600  0.546000  1.0  0.0815
  H  H57  1  0.616900  0.544800  0.405300  1.0  0.1246
  H  H58  1  0.704200  0.922500  0.631500  1.0  0.0927
  H  H59  1  0.903500  0.204800  0.917500  1.0  0.1033
  H  H60  1  0.884500  0.280500  0.942400  1.0  0.2651
  H  H61  1  0.870900  0.108500  0.857000  1.0  0.0895
  H  H62  1  0.800700  0.356400  0.004700  1.0  0.1112
  H  H63  1  0.737200  0.172900  0.838700  1.0  0.1211
  H  H64  1  0.912400  0.366400  0.944000  1.0  0.0837
  H  H65  1  0.860500  0.455200  0.072100  1.0  0.1243
  H  H66  1  0.709000  0.077500  0.781700  1.0  0.092
  H  H67  1  0.096500  0.014000  0.301300  1.0  0.104
  H  H68  1  0.115500  0.057900  0.396000  1.0  0.2674
  H  H69  1  0.129100  0.986100  0.237600  1.0  0.088
  H  H70  1  0.199300  0.204000  0.555700  1.0  0.1108
  H  H71  1  0.262800  0.101500  0.435700  1.0  0.1208
  H  H72  1  0.087600  0.031600  0.454000  1.0  0.0827
  H  H73  1  0.139500  0.211600  0.594700  1.0  0.1241
  H  H74  1  0.291000  0.072700  0.368500  1.0  0.0938
  H  H75  1  0.301300  0.096500  0.014000  1.0  0.1036
  H  H76  1  0.396000  0.115500  0.057900  1.0  0.2648
  H  H77  1  0.237600  0.129100  0.986100  1.0  0.0869
  H  H78  1  0.555700  0.199300  0.204000  1.0  0.1097
  H  H79  1  0.435700  0.262800  0.101500  1.0  0.1229
  H  H80  1  0.454000  0.087600  0.031600  1.0  0.0817
  H  H81  1  0.594700  0.139500  0.211600  1.0  0.125
  H  H82  1  0.368500  0.291000  0.072700  1.0  0.0919
  H  H83  1  0.917500  0.903500  0.204800  1.0  0.1049
  H  H84  1  0.942400  0.884500  0.280500  1.0  0.2637
  H  H85  1  0.857000  0.870900  0.108500  1.0  0.0904
  H  H86  1  0.004700  0.800700  0.356400  1.0  0.1111
  H  H87  1  0.838700  0.737200  0.172900  1.0  0.1224
  H  H88  1  0.944000  0.912400  0.366400  1.0  0.0813
  H  H89  1  0.072100  0.860500  0.455200  1.0  0.122
  H  H90  1  0.781700  0.709000  0.077500  1.0  0.0921
  H  H91  1  0.698700  0.712700  0.795200  1.0  0.1039
  H  H92  1  0.604000  0.661900  0.719500  1.0  0.2662
  H  H93  1  0.762400  0.748500  0.891500  1.0  0.0882
  H  H94  1  0.444300  0.648300  0.643600  1.0  0.1107
  H  H95  1  0.564300  0.665800  0.827100  1.0  0.1215
  H  H96  1  0.546000  0.577600  0.633600  1.0  0.0829
  H  H97  1  0.405300  0.616900  0.544800  1.0  0.1222
  H  H98  1  0.631500  0.704200  0.922500  1.0  0.093
  H  H99  1  0.082500  0.287300  0.986000  1.0  0.1036
  H  H100  1  0.057600  0.338100  0.942100  1.0  0.2652
  H  H101  1  0.143000  0.251500  0.013900  1.0  0.0864
  H  H102  1  0.995300  0.351700  0.796000  1.0  0.11
  H  H103  1  0.161300  0.334200  0.898500  1.0  0.1216
  H  H104  1  0.056000  0.422400  0.968400  1.0  0.0818
  H  H105  1  0.927900  0.383100  0.788400  1.0  0.1233
  H  H106  1  0.218300  0.295800  0.927300  1.0  0.0918
  H  H107  1  0.082500  0.795200  0.096500  1.0  0.1038
  H  H108  1  0.057600  0.719500  0.115500  1.0  0.266
  H  H109  1  0.143000  0.891500  0.129100  1.0  0.0898
  H  H110  1  0.995300  0.643600  0.199300  1.0  0.1097
  H  H111  1  0.161300  0.827100  0.262800  1.0  0.1226
  H  H112  1  0.056000  0.633600  0.087600  1.0  0.0811
  H  H113  1  0.927900  0.544800  0.139500  1.0  0.1249
  H  H114  1  0.218300  0.922500  0.291000  1.0  0.0914
  H  H115  1  0.698700  0.986000  0.903500  1.0  0.1047
  H  H116  1  0.604000  0.942100  0.884500  1.0  0.2652
  H  H117  1  0.762400  0.013900  0.870900  1.0  0.0884
  H  H118  1  0.444300  0.796000  0.800700  1.0  0.1092
  H  H119  1  0.564300  0.898500  0.737200  1.0  0.1214
  H  H120  1  0.546000  0.968400  0.912400  1.0  0.0831
  H  H121  1  0.405300  0.788400  0.860500  1.0  0.1231
  H  H122  1  0.631500  0.927300  0.709000  1.0  0.0928
  H  H123  1  0.917500  0.014000  0.712700  1.0  0.1048
  H  H124  1  0.942400  0.057900  0.661900  1.0  0.2659
  H  H125  1  0.857000  0.986100  0.748500  1.0  0.0867
  H  H126  1  0.004700  0.204000  0.648300  1.0  0.1109
  H  H127  1  0.838700  0.101500  0.665800  1.0  0.1207
  H  H128  1  0.944000  0.031600  0.577600  1.0  0.0832
  H  H129  1  0.072100  0.211600  0.616900  1.0  0.1241
  H  H130  1  0.781700  0.072700  0.704200  1.0  0.0912
  H  H131  1  0.301300  0.204800  0.287300  1.0  0.1036
  H  H132  1  0.396000  0.280500  0.338100  1.0  0.2664
  H  H133  1  0.237600  0.108500  0.251500  1.0  0.0885
  H  H134  1  0.555700  0.356400  0.351700  1.0  0.1113
  H  H135  1  0.435700  0.172900  0.334200  1.0  0.1224
  H  H136  1  0.454000  0.366400  0.422400  1.0  0.0828
  H  H137  1  0.594700  0.455200  0.383100  1.0  0.1242
  H  H138  1  0.368500  0.077500  0.295800  1.0  0.0939
  H  H139  1  0.014000  0.712700  0.917500  1.0  0.1045
  H  H140  1  0.057900  0.661900  0.942400  1.0  0.2656
  H  H141  1  0.986100  0.748500  0.857000  1.0  0.0869
  H  H142  1  0.204000  0.648300  0.004700  1.0  0.1112
  H  H143  1  0.101500  0.665800  0.838700  1.0  0.121
  H  H144  1  0.031600  0.577600  0.944000  1.0  0.083
  H  H145  1  0.211600  0.616900  0.072100  1.0  0.1223
  H  H146  1  0.072700  0.704200  0.781700  1.0  0.0919
  H  H147  1  0.204800  0.287300  0.301300  1.0  0.1038
  H  H148  1  0.280500  0.338100  0.396000  1.0  0.2656
  H  H149  1  0.108500  0.251500  0.237600  1.0  0.0891
  H  H150  1  0.356400  0.351700  0.555700  1.0  0.1103
  H  H151  1  0.172900  0.334200  0.435700  1.0  0.1224
  H  H152  1  0.366400  0.422400  0.454000  1.0  0.0821
  H  H153  1  0.455200  0.383100  0.594700  1.0  0.1248
  H  H154  1  0.077500  0.295800  0.368500  1.0  0.093
  H  H155  1  0.795200  0.096500  0.082500  1.0  0.104
  H  H156  1  0.719500  0.115500  0.057600  1.0  0.265
  H  H157  1  0.891500  0.129100  0.143000  1.0  0.089
  H  H158  1  0.643600  0.199300  0.995300  1.0  0.1099
  H  H159  1  0.827100  0.262800  0.161300  1.0  0.1231
  H  H160  1  0.633600  0.087600  0.056000  1.0  0.081
  H  H161  1  0.544800  0.139500  0.927900  1.0  0.1244
  H  H162  1  0.922500  0.291000  0.218300  1.0  0.0906
  H  H163  1  0.986000  0.903500  0.698700  1.0  0.1052
  H  H164  1  0.942100  0.884500  0.604000  1.0  0.2638
  H  H165  1  0.013900  0.870900  0.762400  1.0  0.0892
  H  H166  1  0.796000  0.800700  0.444300  1.0  0.1108
  H  H167  1  0.898500  0.737200  0.564300  1.0  0.1221
  H  H168  1  0.968400  0.912400  0.546000  1.0  0.0816
  H  H169  1  0.788400  0.860500  0.405300  1.0  0.1227
  H  H170  1  0.927300  0.709000  0.631500  1.0  0.0932
  H  H171  1  0.903500  0.698700  0.986000  1.0  0.1045
  H  H172  1  0.884500  0.604000  0.942100  1.0  0.2654
  H  H173  1  0.870900  0.762400  0.013900  1.0  0.0878
  H  H174  1  0.800700  0.444300  0.796000  1.0  0.1106
  H  H175  1  0.737200  0.564300  0.898500  1.0  0.1224
  H  H176  1  0.912400  0.546000  0.968400  1.0  0.0833
  H  H177  1  0.860500  0.405300  0.788400  1.0  0.1229
  H  H178  1  0.709000  0.631500  0.927300  1.0  0.0937
  H  H179  1  0.096500  0.082500  0.795200  1.0  0.1048
  H  H180  1  0.115500  0.057600  0.719500  1.0  0.2675
  H  H181  1  0.129100  0.143000  0.891500  1.0  0.0898
  H  H182  1  0.199300  0.995300  0.643600  1.0  0.1112
  H  H183  1  0.262800  0.161300  0.827100  1.0  0.121
  H  H184  1  0.087600  0.056000  0.633600  1.0  0.0814
  H  H185  1  0.139500  0.927900  0.544800  1.0  0.1221
  H  H186  1  0.291000  0.218300  0.922500  1.0  0.0925
  H  H187  1  0.287300  0.301300  0.204800  1.0  0.1041
  H  H188  1  0.338100  0.396000  0.280500  1.0  0.265
  H  H189  1  0.251500  0.237600  0.108500  1.0  0.0895
  H  H190  1  0.351700  0.555700  0.356400  1.0  0.1102
  H  H191  1  0.334200  0.435700  0.172900  1.0  0.1231
  H  H192  1  0.422400  0.454000  0.366400  1.0  0.0828
  H  H193  1  0.383100  0.594700  0.455200  1.0  0.1235
  H  H194  1  0.295800  0.368500  0.077500  1.0  0.0923
  H  H195  1  0.712700  0.917500  0.014000  1.0  0.1041
  H  H196  1  0.661900  0.942400  0.057900  1.0  0.2659
  H  H197  1  0.748500  0.857000  0.986100  1.0  0.0868
  H  H198  1  0.648300  0.004700  0.204000  1.0  0.1103
  H  H199  1  0.665800  0.838700  0.101500  1.0  0.1233
  H  H200  1  0.577600  0.944000  0.031600  1.0  0.0812
  H  H201  1  0.616900  0.072100  0.211600  1.0  0.1234
  H  H202  1  0.704200  0.781700  0.072700  1.0  0.0927
  C  C203  1  0.179330  0.889290  0.863280  1.0  -0.2221
  C  C204  1  0.121780  0.853320  0.843640  1.0  0.1419
  C  C205  1  0.378220  0.006220  0.835740  1.0  -0.0461
  C  C206  1  0.468370  0.043120  0.918470  1.0  0.177
  C  C207  1  0.160680  0.843160  0.765340  1.0  -0.1796
  C  C208  1  0.200800  0.884820  0.824780  1.0  0.2272
  C  C209  1  0.384910  0.970140  0.901590  1.0  0.1041
  C  C210  1  0.436540  0.044570  0.869890  1.0  -0.1302
  C  C211  1  0.104200  0.809440  0.749120  1.0  0.1467
  C  C212  1  0.285560  0.927050  0.815050  1.0  0.5429
  C  C213  1  0.351240  0.969900  0.852280  1.0  -0.0004
  C  C214  1  0.026010  0.316050  0.136720  1.0  -0.2202
  C  C215  1  0.009680  0.278140  0.156360  1.0  0.1398
  C  C216  1  0.170480  0.542480  0.164260  1.0  -0.041
  C  C217  1  0.124650  0.549900  0.081530  1.0  0.1786
  C  C218  1  0.077820  0.395340  0.234660  1.0  -0.1795
  C  C219  1  0.060040  0.376020  0.175220  1.0  0.2258
  C  C220  1  0.068550  0.483320  0.098410  1.0  0.1015
  C  C221  1  0.174680  0.566650  0.130110  1.0  -0.1257
  C  C222  1  0.060320  0.355080  0.250880  1.0  0.1533
  C  C223  1  0.112000  0.470510  0.184950  1.0  0.5389
  C  C224  1  0.117620  0.498960  0.147720  1.0  -0.0002
  C  C225  1  0.973990  0.110710  0.290040  1.0  -0.2233
  C  C226  1  0.990320  0.146680  0.268460  1.0  0.1441
  C  C227  1  0.829520  0.993780  0.372000  1.0  -0.0398
  C  C228  1  0.875350  0.956880  0.425250  1.0  0.176
  C  C229  1  0.922180  0.156840  0.317520  1.0  -0.1815
  C  C230  1  0.939960  0.115180  0.315980  1.0  0.2256
  C  C231  1  0.931450  0.029860  0.414770  1.0  0.1019
  C  C232  1  0.825320  0.955430  0.391970  1.0  -0.1279
  C  C233  1  0.939680  0.190560  0.294760  1.0  0.1492
  C  C234  1  0.888000  0.072950  0.358510  1.0  0.5421
  C  C235  1  0.882380  0.030100  0.381340  1.0  -0.0045
  C  C236  1  0.820670  0.683950  0.709960  1.0  -0.2233
  C  C237  1  0.878220  0.721860  0.731540  1.0  0.1384
  C  C238  1  0.621780  0.457520  0.628000  1.0  -0.0446
  C  C239  1  0.531630  0.450100  0.574750  1.0  0.1788
  C  C240  1  0.839320  0.604660  0.682480  1.0  -0.1786
  C  C241  1  0.799200  0.623980  0.684020  1.0  0.2254
  C  C242  1  0.615090  0.516680  0.585230  1.0  0.1034
  C  C243  1  0.563460  0.433350  0.608030  1.0  -0.126
  C  C244  1  0.895800  0.644920  0.705240  1.0  0.1495
  C  C245  1  0.714440  0.529490  0.641490  1.0  0.5428
  C  C246  1  0.648760  0.501040  0.618660  1.0  -0.0025
  C  C247  1  0.290040  0.973990  0.110710  1.0  -0.2252
  C  C248  1  0.268460  0.990320  0.146680  1.0  0.1404
  C  C249  1  0.372000  0.829520  0.993780  1.0  -0.0461
  C  C250  1  0.425250  0.875350  0.956880  1.0  0.1767
  C  C251  1  0.317520  0.922180  0.156840  1.0  -0.1782
  C  C252  1  0.315980  0.939960  0.115180  1.0  0.2264
  C  C253  1  0.414770  0.931450  0.029860  1.0  0.1011
  C  C254  1  0.391970  0.825320  0.955430  1.0  -0.1283
  C  C255  1  0.294760  0.939680  0.190560  1.0  0.1539
  C  C256  1  0.358510  0.888000  0.072950  1.0  0.5407
  C  C257  1  0.381340  0.882380  0.030100  1.0  0.0003
  C  C258  1  0.709960  0.820670  0.683950  1.0  -0.2223
  C  C259  1  0.731540  0.878220  0.721860  1.0  0.1405
  C  C260  1  0.628000  0.621780  0.457520  1.0  -0.0471
  C  C261  1  0.574750  0.531630  0.450100  1.0  0.1779
  C  C262  1  0.682480  0.839320  0.604660  1.0  -0.1804
  C  C263  1  0.684020  0.799200  0.623980  1.0  0.2264
  C  C264  1  0.585230  0.615090  0.516680  1.0  0.1034
  C  C265  1  0.608030  0.563460  0.433350  1.0  -0.1308
  C  C266  1  0.705240  0.895800  0.644920  1.0  0.1492
  C  C267  1  0.641490  0.714440  0.529490  1.0  0.5428
  C  C268  1  0.618660  0.648760  0.501040  1.0  0.0034
  C  C269  1  0.863280  0.179330  0.889290  1.0  -0.2233
  C  C270  1  0.843640  0.121780  0.853320  1.0  0.1402
  C  C271  1  0.835740  0.378220  0.006220  1.0  -0.045
  C  C272  1  0.918470  0.468370  0.043120  1.0  0.1782
  C  C273  1  0.765340  0.160680  0.843160  1.0  -0.1767
  C  C274  1  0.824780  0.200800  0.884820  1.0  0.2257
  C  C275  1  0.901590  0.384910  0.970140  1.0  0.1021
  C  C276  1  0.869890  0.436540  0.044570  1.0  -0.1313
  C  C277  1  0.749120  0.104200  0.809440  1.0  0.1494
  C  C278  1  0.815050  0.285560  0.927050  1.0  0.5414
  C  C279  1  0.852280  0.351240  0.969900  1.0  -0.0011
  C  C280  1  0.136720  0.026010  0.316050  1.0  -0.2253
  C  C281  1  0.156360  0.009680  0.278140  1.0  0.1432
  C  C282  1  0.164260  0.170480  0.542480  1.0  -0.0391
  C  C283  1  0.081530  0.124650  0.549900  1.0  0.1763
  C  C284  1  0.234660  0.077820  0.395340  1.0  -0.1798
  C  C285  1  0.175220  0.060040  0.376020  1.0  0.2247
  C  C286  1  0.098410  0.068550  0.483320  1.0  0.1
  C  C287  1  0.130110  0.174680  0.566650  1.0  -0.1242
  C  C288  1  0.250880  0.060320  0.355080  1.0  0.1489
  C  C289  1  0.184950  0.112000  0.470510  1.0  0.5431
  C  C290  1  0.147720  0.117620  0.498960  1.0  -0.0027
  C  C291  1  0.316050  0.136720  0.026010  1.0  -0.2218
  C  C292  1  0.278140  0.156360  0.009680  1.0  0.1444
  C  C293  1  0.542480  0.164260  0.170480  1.0  -0.0446
  C  C294  1  0.549900  0.081530  0.124650  1.0  0.1787
  C  C295  1  0.395340  0.234660  0.077820  1.0  -0.1803
  C  C296  1  0.376020  0.175220  0.060040  1.0  0.2252
  C  C297  1  0.483320  0.098410  0.068550  1.0  0.1044
  C  C298  1  0.566650  0.130110  0.174680  1.0  -0.129
  C  C299  1  0.355080  0.250880  0.060320  1.0  0.1483
  C  C300  1  0.470510  0.184950  0.112000  1.0  0.5344
  C  C301  1  0.498960  0.147720  0.117620  1.0  0.004
  C  C302  1  0.889290  0.863280  0.179330  1.0  -0.2221
  C  C303  1  0.853320  0.843640  0.121780  1.0  0.1428
  C  C304  1  0.006220  0.835740  0.378220  1.0  -0.0433
  C  C305  1  0.043120  0.918470  0.468370  1.0  0.1794
  C  C306  1  0.843160  0.765340  0.160680  1.0  -0.1804
  C  C307  1  0.884820  0.824780  0.200800  1.0  0.2259
  C  C308  1  0.970140  0.901590  0.384910  1.0  0.1017
  C  C309  1  0.044570  0.869890  0.436540  1.0  -0.1276
  C  C310  1  0.809440  0.749120  0.104200  1.0  0.151
  C  C311  1  0.927050  0.815050  0.285560  1.0  0.5378
  C  C312  1  0.969900  0.852280  0.351240  1.0  -0.0006
  C  C313  1  0.683950  0.709960  0.820670  1.0  -0.222
  C  C314  1  0.721860  0.731540  0.878220  1.0  0.1409
  C  C315  1  0.457520  0.628000  0.621780  1.0  -0.0439
  C  C316  1  0.450100  0.574750  0.531630  1.0  0.1757
  C  C317  1  0.604660  0.682480  0.839320  1.0  -0.181
  C  C318  1  0.623980  0.684020  0.799200  1.0  0.2256
  C  C319  1  0.516680  0.585230  0.615090  1.0  0.1028
  C  C320  1  0.433350  0.608030  0.563460  1.0  -0.1272
  C  C321  1  0.644920  0.705240  0.895800  1.0  0.1528
  C  C322  1  0.529490  0.641490  0.714440  1.0  0.5436
  C  C323  1  0.501040  0.618660  0.648760  1.0  -0.0027
  C  C324  1  0.110710  0.290040  0.973990  1.0  -0.2241
  C  C325  1  0.146680  0.268460  0.990320  1.0  0.1415
  C  C326  1  0.993780  0.372000  0.829520  1.0  -0.0473
  C  C327  1  0.956880  0.425250  0.875350  1.0  0.1771
  C  C328  1  0.156840  0.317520  0.922180  1.0  -0.1801
  C  C329  1  0.115180  0.315980  0.939960  1.0  0.2258
  C  C330  1  0.029860  0.414770  0.931450  1.0  0.1046
  C  C331  1  0.955430  0.391970  0.825320  1.0  -0.1288
  C  C332  1  0.190560  0.294760  0.939680  1.0  0.1499
  C  C333  1  0.072950  0.358510  0.888000  1.0  0.5424
  C  C334  1  0.030100  0.381340  0.882380  1.0  -0.0017
  C  C335  1  0.110710  0.820670  0.136720  1.0  -0.2248
  C  C336  1  0.146680  0.878220  0.156360  1.0  0.1403
  C  C337  1  0.993780  0.621780  0.164260  1.0  -0.0475
  C  C338  1  0.956880  0.531630  0.081530  1.0  0.1784
  C  C339  1  0.156840  0.839320  0.234660  1.0  -0.183
  C  C340  1  0.115180  0.799200  0.175220  1.0  0.2266
  C  C341  1  0.029860  0.615090  0.098410  1.0  0.1014
  C  C342  1  0.955430  0.563460  0.130110  1.0  -0.1325
  C  C343  1  0.190560  0.895800  0.250880  1.0  0.1492
  C  C344  1  0.072950  0.714440  0.184950  1.0  0.5427
  C  C345  1  0.030100  0.648760  0.147720  1.0  0.0046
  C  C346  1  0.683950  0.973990  0.863280  1.0  -0.2225
  C  C347  1  0.721860  0.990320  0.843640  1.0  0.1398
  C  C348  1  0.457520  0.829520  0.835740  1.0  -0.0424
  C  C349  1  0.450100  0.875350  0.918470  1.0  0.1772
  C  C350  1  0.604660  0.922180  0.765340  1.0  -0.1785
  C  C351  1  0.623980  0.939960  0.824780  1.0  0.2255
  C  C352  1  0.516680  0.931450  0.901590  1.0  0.1041
  C  C353  1  0.433350  0.825320  0.869890  1.0  -0.1291
  C  C354  1  0.644920  0.939680  0.749120  1.0  0.1547
  C  C355  1  0.529490  0.888000  0.815050  1.0  0.54
  C  C356  1  0.501040  0.882380  0.852280  1.0  -0.0022
  C  C357  1  0.889290  0.026010  0.709960  1.0  -0.2229
  C  C358  1  0.853320  0.009680  0.731540  1.0  0.1427
  C  C359  1  0.006220  0.170480  0.628000  1.0  -0.041
  C  C360  1  0.043120  0.124650  0.574750  1.0  0.176
  C  C361  1  0.843160  0.077820  0.682480  1.0  -0.1797
  C  C362  1  0.884820  0.060040  0.684020  1.0  0.2258
  C  C363  1  0.970140  0.068550  0.585230  1.0  0.1013
  C  C364  1  0.044570  0.174680  0.608030  1.0  -0.1236
  C  C365  1  0.809440  0.060320  0.705240  1.0  0.1494
  C  C366  1  0.927050  0.112000  0.641490  1.0  0.5401
  C  C367  1  0.969900  0.117620  0.618660  1.0  -0.0018
  C  C368  1  0.316050  0.179330  0.290040  1.0  -0.224
  C  C369  1  0.278140  0.121780  0.268460  1.0  0.1417
  C  C370  1  0.542480  0.378220  0.372000  1.0  -0.0447
  C  C371  1  0.549900  0.468370  0.425250  1.0  0.1804
  C  C372  1  0.395340  0.160680  0.317520  1.0  -0.1762
  C  C373  1  0.376020  0.200800  0.315980  1.0  0.2263
  C  C374  1  0.483320  0.384910  0.414770  1.0  0.1037
  C  C375  1  0.566650  0.436540  0.391970  1.0  -0.13
  C  C376  1  0.355080  0.104200  0.294760  1.0  0.1495
  C  C377  1  0.470510  0.285560  0.358510  1.0  0.5438
  C  C378  1  0.498960  0.351240  0.381340  1.0  -0.0031
  C  C379  1  0.026010  0.709960  0.889290  1.0  -0.2247
  C  C380  1  0.009680  0.731540  0.853320  1.0  0.14
  C  C381  1  0.170480  0.628000  0.006220  1.0  -0.0412
  C  C382  1  0.124650  0.574750  0.043120  1.0  0.1779
  C  C383  1  0.077820  0.682480  0.843160  1.0  -0.1787
  C  C384  1  0.060040  0.684020  0.884820  1.0  0.2254
  C  C385  1  0.068550  0.585230  0.970140  1.0  0.1036
  C  C386  1  0.174680  0.608030  0.044570  1.0  -0.1254
  C  C387  1  0.060320  0.705240  0.809440  1.0  0.1529
  C  C388  1  0.112000  0.641490  0.927050  1.0  0.5453
  C  C389  1  0.117620  0.618660  0.969900  1.0  -0.0031
  C  C390  1  0.179330  0.290040  0.316050  1.0  -0.2203
  C  C391  1  0.121780  0.268460  0.278140  1.0  0.1407
  C  C392  1  0.378220  0.372000  0.542480  1.0  -0.0475
  C  C393  1  0.468370  0.425250  0.549900  1.0  0.1791
  C  C394  1  0.160680  0.317520  0.395340  1.0  -0.1829
  C  C395  1  0.200800  0.315980  0.376020  1.0  0.227
  C  C396  1  0.384910  0.414770  0.483320  1.0  0.1029
  C  C397  1  0.436540  0.391970  0.566650  1.0  -0.131
  C  C398  1  0.104200  0.294760  0.355080  1.0  0.1498
  C  C399  1  0.285560  0.358510  0.470510  1.0  0.5397
  C  C400  1  0.351240  0.381340  0.498960  1.0  0.0021
  C  C401  1  0.820670  0.136720  0.110710  1.0  -0.2224
  C  C402  1  0.878220  0.156360  0.146680  1.0  0.1437
  C  C403  1  0.621780  0.164260  0.993780  1.0  -0.0466
  C  C404  1  0.531630  0.081530  0.956880  1.0  0.1763
  C  C405  1  0.839320  0.234660  0.156840  1.0  -0.1808
  C  C406  1  0.799200  0.175220  0.115180  1.0  0.226
  C  C407  1  0.615090  0.098410  0.029860  1.0  0.105
  C  C408  1  0.563460  0.130110  0.955430  1.0  -0.1308
  C  C409  1  0.895800  0.250880  0.190560  1.0  0.149
  C  C410  1  0.714440  0.184950  0.072950  1.0  0.5349
  C  C411  1  0.648760  0.147720  0.030100  1.0  0.0021
  C  C412  1  0.973990  0.863280  0.683950  1.0  -0.2247
  C  C413  1  0.990320  0.843640  0.721860  1.0  0.1428
  C  C414  1  0.829520  0.835740  0.457520  1.0  -0.045
  C  C415  1  0.875350  0.918470  0.450100  1.0  0.1768
  C  C416  1  0.922180  0.765340  0.604660  1.0  -0.1796
  C  C417  1  0.939960  0.824780  0.623980  1.0  0.226
  C  C418  1  0.931450  0.901590  0.516680  1.0  0.1014
  C  C419  1  0.825320  0.869890  0.433350  1.0  -0.1282
  C  C420  1  0.939680  0.749120  0.644920  1.0  0.151
  C  C421  1  0.888000  0.815050  0.529490  1.0  0.5373
  C  C422  1  0.882380  0.852280  0.501040  1.0  -0.0016
  C  C423  1  0.863280  0.683950  0.973990  1.0  -0.2229
  C  C424  1  0.843640  0.721860  0.990320  1.0  0.1388
  C  C425  1  0.835740  0.457520  0.829520  1.0  -0.0451
  C  C426  1  0.918470  0.450100  0.875350  1.0  0.1775
  C  C427  1  0.765340  0.604660  0.922180  1.0  -0.1783
  C  C428  1  0.824780  0.623980  0.939960  1.0  0.2255
  C  C429  1  0.901590  0.516680  0.931450  1.0  0.1042
  C  C430  1  0.869890  0.433350  0.825320  1.0  -0.1266
  C  C431  1  0.749120  0.644920  0.939680  1.0  0.15
  C  C432  1  0.815050  0.529490  0.888000  1.0  0.5403
  C  C433  1  0.852280  0.501040  0.882380  1.0  -0.0027
  C  C434  1  0.136720  0.110710  0.820670  1.0  -0.2247
  C  C435  1  0.156360  0.146680  0.878220  1.0  0.1452
  C  C436  1  0.164260  0.993780  0.621780  1.0  -0.0399
  C  C437  1  0.081530  0.956880  0.531630  1.0  0.1783
  C  C438  1  0.234660  0.156840  0.839320  1.0  -0.1784
  C  C439  1  0.175220  0.115180  0.799200  1.0  0.2254
  C  C440  1  0.098410  0.029860  0.615090  1.0  0.1035
  C  C441  1  0.130110  0.955430  0.563460  1.0  -0.1277
  C  C442  1  0.250880  0.190560  0.895800  1.0  0.1503
  C  C443  1  0.184950  0.072950  0.714440  1.0  0.5437
  C  C444  1  0.147720  0.030100  0.648760  1.0  -0.0047
  C  C445  1  0.290040  0.316050  0.179330  1.0  -0.2192
  C  C446  1  0.268460  0.278140  0.121780  1.0  0.14
  C  C447  1  0.372000  0.542480  0.378220  1.0  -0.0443
  C  C448  1  0.425250  0.549900  0.468370  1.0  0.1774
  C  C449  1  0.317520  0.395340  0.160680  1.0  -0.1794
  C  C450  1  0.315980  0.376020  0.200800  1.0  0.2264
  C  C451  1  0.414770  0.483320  0.384910  1.0  0.1006
  C  C452  1  0.391970  0.566650  0.436540  1.0  -0.1272
  C  C453  1  0.294760  0.355080  0.104200  1.0  0.1534
  C  C454  1  0.358510  0.470510  0.285560  1.0  0.5394
  C  C455  1  0.381340  0.498960  0.351240  1.0  -0.0032
  C  C456  1  0.709960  0.889290  0.026010  1.0  -0.2247
  C  C457  1  0.731540  0.853320  0.009680  1.0  0.1429
  C  C458  1  0.628000  0.006220  0.170480  1.0  -0.0462
  C  C459  1  0.574750  0.043120  0.124650  1.0  0.179
  C  C460  1  0.682480  0.843160  0.077820  1.0  -0.183
  C  C461  1  0.684020  0.884820  0.060040  1.0  0.2278
  C  C462  1  0.585230  0.970140  0.068550  1.0  0.1021
  C  C463  1  0.608030  0.044570  0.174680  1.0  -0.1314
  C  C464  1  0.705240  0.809440  0.060320  1.0  0.1481
  C  C465  1  0.641490  0.927050  0.112000  1.0  0.5421
  C  C466  1  0.618660  0.969900  0.117620  1.0  0.0039
  N  N467  1  0.442050  0.005770  0.934020  1.0  -0.3304
  N  N468  1  0.083630  0.813100  0.787190  1.0  -0.3205
  N  N469  1  0.258550  0.920910  0.846360  1.0  -0.329
  N  N470  1  0.071750  0.508030  0.065980  1.0  -0.3313
  N  N471  1  0.025910  0.296440  0.212810  1.0  -0.3212
  N  N472  1  0.074550  0.412190  0.153640  1.0  -0.3301
  N  N473  1  0.928250  0.994230  0.436280  1.0  -0.331
  N  N474  1  0.974090  0.186900  0.270530  1.0  -0.3222
  N  N475  1  0.925450  0.079090  0.337640  1.0  -0.3296
  N  N476  1  0.557950  0.491970  0.563720  1.0  -0.33
  N  N477  1  0.916370  0.703560  0.729470  1.0  -0.3189
  N  N478  1  0.741450  0.587810  0.662360  1.0  -0.3295
  N  N479  1  0.436280  0.928250  0.994230  1.0  -0.3312
  N  N480  1  0.270530  0.974090  0.186900  1.0  -0.3213
  N  N481  1  0.337640  0.925450  0.079090  1.0  -0.3294
  N  N482  1  0.563720  0.557950  0.491970  1.0  -0.3312
  N  N483  1  0.729470  0.916370  0.703560  1.0  -0.3196
  N  N484  1  0.662360  0.741450  0.587810  1.0  -0.3288
  N  N485  1  0.934020  0.442050  0.005770  1.0  -0.3296
  N  N486  1  0.787190  0.083630  0.813100  1.0  -0.3207
  N  N487  1  0.846360  0.258550  0.920910  1.0  -0.3311
  N  N488  1  0.065980  0.071750  0.508030  1.0  -0.3317
  N  N489  1  0.212810  0.025910  0.296440  1.0  -0.3216
  N  N490  1  0.153640  0.074550  0.412190  1.0  -0.3305
  N  N491  1  0.508030  0.065980  0.071750  1.0  -0.3317
  N  N492  1  0.296440  0.212810  0.025910  1.0  -0.3202
  N  N493  1  0.412190  0.153640  0.074550  1.0  -0.3296
  N  N494  1  0.005770  0.934020  0.442050  1.0  -0.3311
  N  N495  1  0.813100  0.787190  0.083630  1.0  -0.3216
  N  N496  1  0.920910  0.846360  0.258550  1.0  -0.33
  N  N497  1  0.491970  0.563720  0.557950  1.0  -0.3307
  N  N498  1  0.703560  0.729470  0.916370  1.0  -0.3213
  N  N499  1  0.587810  0.662360  0.741450  1.0  -0.3288
  N  N500  1  0.994230  0.436280  0.928250  1.0  -0.3309
  N  N501  1  0.186900  0.270530  0.974090  1.0  -0.3199
  N  N502  1  0.079090  0.337640  0.925450  1.0  -0.3303
  N  N503  1  0.994230  0.557950  0.065980  1.0  -0.3288
  N  N504  1  0.186900  0.916370  0.212810  1.0  -0.3198
  N  N505  1  0.079090  0.741450  0.153640  1.0  -0.3286
  N  N506  1  0.491970  0.928250  0.934020  1.0  -0.3281
  N  N507  1  0.703560  0.974090  0.787190  1.0  -0.324
  N  N508  1  0.587810  0.925450  0.846360  1.0  -0.3292
  N  N509  1  0.005770  0.071750  0.563720  1.0  -0.3284
  N  N510  1  0.813100  0.025910  0.729470  1.0  -0.3209
  N  N511  1  0.920910  0.074550  0.662360  1.0  -0.3302
  N  N512  1  0.508030  0.442050  0.436280  1.0  -0.3263
  N  N513  1  0.296440  0.083630  0.270530  1.0  -0.3203
  N  N514  1  0.412190  0.258550  0.337640  1.0  -0.3299
  N  N515  1  0.071750  0.563720  0.005770  1.0  -0.3279
  N  N516  1  0.025910  0.729470  0.813100  1.0  -0.3223
  N  N517  1  0.074550  0.662360  0.920910  1.0  -0.3305
  N  N518  1  0.442050  0.436280  0.508030  1.0  -0.3272
  N  N519  1  0.083630  0.270530  0.296440  1.0  -0.3197
  N  N520  1  0.258550  0.337640  0.412190  1.0  -0.3291
  N  N521  1  0.557950  0.065980  0.994230  1.0  -0.3278
  N  N522  1  0.916370  0.212810  0.186900  1.0  -0.3221
  N  N523  1  0.741450  0.153640  0.079090  1.0  -0.3291
  N  N524  1  0.928250  0.934020  0.491970  1.0  -0.3282
  N  N525  1  0.974090  0.787190  0.703560  1.0  -0.3205
  N  N526  1  0.925450  0.846360  0.587810  1.0  -0.3295
  N  N527  1  0.934020  0.491970  0.928250  1.0  -0.3272
  N  N528  1  0.787190  0.703560  0.974090  1.0  -0.3187
  N  N529  1  0.846360  0.587810  0.925450  1.0  -0.3304
  N  N530  1  0.065980  0.994230  0.557950  1.0  -0.3275
  N  N531  1  0.212810  0.186900  0.916370  1.0  -0.3214
  N  N532  1  0.153640  0.079090  0.741450  1.0  -0.3298
  N  N533  1  0.436280  0.508030  0.442050  1.0  -0.3272
  N  N534  1  0.270530  0.296440  0.083630  1.0  -0.3234
  N  N535  1  0.337640  0.412190  0.258550  1.0  -0.3296
  N  N536  1  0.563720  0.005770  0.071750  1.0  -0.3284
  N  N537  1  0.729470  0.813100  0.025910  1.0  -0.3216
  N  N538  1  0.662360  0.920910  0.074550  1.0  -0.3289
  N  N539  1  0.333880  0.000000  0.000000  1.0  0.5624
  N  N540  1  0.194400  0.000000  0.000000  1.0  0.8048
  N  N541  1  0.000000  0.333880  0.000000  1.0  0.5625
  N  N542  1  0.000000  0.194400  0.000000  1.0  0.8047
  N  N543  1  0.000000  0.000000  0.333880  1.0  0.5616
  N  N544  1  0.000000  0.000000  0.194400  1.0  0.8042
  N  N545  1  0.666120  0.666120  0.666120  1.0  0.5618
  N  N546  1  0.805600  0.805600  0.805600  1.0  0.8071
  N  N547  1  0.000000  0.666120  0.000000  1.0  0.5606
  N  N548  1  0.000000  0.805600  0.000000  1.0  0.8042
  N  N549  1  0.666120  0.000000  0.000000  1.0  0.5621
  N  N550  1  0.805600  0.000000  0.000000  1.0  0.8039
  N  N551  1  0.000000  0.000000  0.666120  1.0  0.5626
  N  N552  1  0.000000  0.000000  0.805600  1.0  0.8056
  N  N553  1  0.333880  0.333880  0.333880  1.0  0.5613
  N  N554  1  0.194400  0.194400  0.194400  1.0  0.8069
  O  O555  1  0.262390  0.904540  0.763130  1.0  -0.4308
  O  O556  1  0.141410  0.499260  0.236870  1.0  -0.4287
  O  O557  1  0.858590  0.095460  0.357850  1.0  -0.4266
  O  O558  1  0.737610  0.500740  0.642150  1.0  -0.4272
  O  O559  1  0.357850  0.858590  0.095460  1.0  -0.4303
  O  O560  1  0.642150  0.737610  0.500740  1.0  -0.431
  O  O561  1  0.763130  0.262390  0.904540  1.0  -0.4245
  O  O562  1  0.236870  0.141410  0.499260  1.0  -0.4275
  O  O563  1  0.499260  0.236870  0.141410  1.0  -0.4262
  O  O564  1  0.904540  0.763130  0.262390  1.0  -0.4277
  O  O565  1  0.500740  0.642150  0.737610  1.0  -0.4287
  O  O566  1  0.095460  0.357850  0.858590  1.0  -0.431
  O  O567  1  0.095460  0.737610  0.236870  1.0  -0.43
  O  O568  1  0.500740  0.858590  0.763130  1.0  -0.4291
  O  O569  1  0.904540  0.141410  0.642150  1.0  -0.4271
  O  O570  1  0.499260  0.262390  0.357850  1.0  -0.4259
  O  O571  1  0.141410  0.642150  0.904540  1.0  -0.4281
  O  O572  1  0.262390  0.357850  0.499260  1.0  -0.4305
  O  O573  1  0.737610  0.236870  0.095460  1.0  -0.4265
  O  O574  1  0.858590  0.763130  0.500740  1.0  -0.4276
  O  O575  1  0.763130  0.500740  0.858590  1.0  -0.4265
  O  O576  1  0.236870  0.095460  0.737610  1.0  -0.4269
  O  O577  1  0.357850  0.499260  0.262390  1.0  -0.4288
  O  O578  1  0.642150  0.904540  0.141410  1.0  -0.4294
  O  O579  1  0.329500  0.020050  0.966350  1.0  -0.548
  O  O580  1  0.309450  0.946300  0.979950  1.0  -0.5487
  O  O581  1  0.363150  0.033650  0.053700  1.0  -0.5515
  O  O582  1  0.181440  0.010180  0.959260  1.0  -0.4467
  O  O583  1  0.171260  0.949080  0.989820  1.0  -0.4431
  O  O584  1  0.222180  0.040740  0.050920  1.0  -0.4331
  O  O585  1  0.053700  0.363150  0.033650  1.0  -0.5487
  O  O586  1  0.966350  0.329500  0.020050  1.0  -0.5484
  O  O587  1  0.979950  0.309450  0.946300  1.0  -0.5478
  O  O588  1  0.050920  0.222180  0.040740  1.0  -0.4293
  O  O589  1  0.959260  0.181440  0.010180  1.0  -0.4476
  O  O590  1  0.989820  0.171260  0.949080  1.0  -0.4426
  O  O591  1  0.946300  0.979950  0.309450  1.0  -0.5476
  O  O592  1  0.033650  0.053700  0.363150  1.0  -0.547
  O  O593  1  0.020050  0.966350  0.329500  1.0  -0.5482
  O  O594  1  0.949080  0.989820  0.171260  1.0  -0.444
  O  O595  1  0.040740  0.050920  0.222180  1.0  -0.4317
  O  O596  1  0.010180  0.959260  0.181440  1.0  -0.4453
  O  O597  1  0.670500  0.636850  0.690550  1.0  -0.5478
  O  O598  1  0.690550  0.670500  0.636850  1.0  -0.5488
  O  O599  1  0.636850  0.690550  0.670500  1.0  -0.5486
  O  O600  1  0.818560  0.777820  0.828740  1.0  -0.4382
  O  O601  1  0.828740  0.818560  0.777820  1.0  -0.4389
  O  O602  1  0.777820  0.828740  0.818560  1.0  -0.4403
  O  O603  1  0.979950  0.670500  0.033650  1.0  -0.5478
  O  O604  1  0.053700  0.690550  0.020050  1.0  -0.55
  O  O605  1  0.966350  0.636850  0.946300  1.0  -0.549
  O  O606  1  0.989820  0.818560  0.040740  1.0  -0.4467
  O  O607  1  0.050920  0.828740  0.010180  1.0  -0.4452
  O  O608  1  0.959260  0.777820  0.949080  1.0  -0.4311
  O  O609  1  0.636850  0.946300  0.966350  1.0  -0.5489
  O  O610  1  0.670500  0.033650  0.979950  1.0  -0.5517
  O  O611  1  0.690550  0.020050  0.053700  1.0  -0.5487
  O  O612  1  0.777820  0.949080  0.959260  1.0  -0.4328
  O  O613  1  0.818560  0.040740  0.989820  1.0  -0.449
  O  O614  1  0.828740  0.010180  0.050920  1.0  -0.4435
  O  O615  1  0.020050  0.053700  0.690550  1.0  -0.5476
  O  O616  1  0.946300  0.966350  0.636850  1.0  -0.5474
  O  O617  1  0.033650  0.979950  0.670500  1.0  -0.548
  O  O618  1  0.010180  0.050920  0.828740  1.0  -0.4413
  O  O619  1  0.949080  0.959260  0.777820  1.0  -0.4283
  O  O620  1  0.040740  0.989820  0.818560  1.0  -0.4448
  O  O621  1  0.363150  0.329500  0.309450  1.0  -0.5498
  O  O622  1  0.329500  0.309450  0.363150  1.0  -0.5473
  O  O623  1  0.309450  0.363150  0.329500  1.0  -0.5474
  O  O624  1  0.222180  0.181440  0.171260  1.0  -0.4414
  O  O625  1  0.181440  0.171260  0.222180  1.0  -0.4383
  O  O626  1  0.171260  0.222180  0.181440  1.0  -0.4359
