# generated using pymatgen
data_Zn5H96C132(N23O21)2
_symmetry_space_group_name_H-M   'P 1'
_cell_length_a   28.65500000
_cell_length_b   28.65500000
_cell_length_c   28.65500000
_cell_angle_alpha   109.47100000
_cell_angle_beta   109.47100000
_cell_angle_gamma   109.47100000
_symmetry_Int_Tables_number   1
_chemical_formula_structural   Zn5H96C132(N23O21)2
_chemical_formula_sum   'Zn10 H192 C264 N92 O84'
_cell_volume   18112.68754069
_cell_formula_units_Z   2
loop_
 _symmetry_equiv_pos_site_id
 _symmetry_equiv_pos_as_xyz
  1  'x, y, z'
loop_
 _atom_site_type_symbol
 _atom_site_label
 _atom_site_symmetry_multiplicity
 _atom_site_fract_x
 _atom_site_fract_y
 _atom_site_fract_z
 _atom_site_occupancy
 _atom_site_charge
  Zn  Zn1  1  0.500000  0.500000  0.500000  1.0  0.6603
  Zn  Zn2  1  0.000000  0.000000  0.500000  1.0  0.6599
  Zn  Zn3  1  0.000000  0.500000  0.000000  1.0  0.66
  Zn  Zn4  1  0.500000  0.000000  0.000000  1.0  0.6598
  Zn  Zn5  1  0.000000  0.245300  0.245300  1.0  0.6886
  Zn  Zn6  1  0.000000  0.754700  0.754700  1.0  0.6885
  Zn  Zn7  1  0.754700  0.000000  0.754700  1.0  0.6889
  Zn  Zn8  1  0.245300  0.000000  0.245300  1.0  0.6888
  Zn  Zn9  1  0.754700  0.754700  0.000000  1.0  0.6886
  Zn  Zn10  1  0.245300  0.245300  0.000000  1.0  0.6884
  H  H11  1  0.281900  0.338800  0.396300  1.0  0.2759
  H  H12  1  0.208900  0.298300  0.306800  1.0  0.1196
  H  H13  1  0.177500  0.333333  0.438400  1.0  0.1275
  H  H14  1  0.367900  0.420900  0.453200  1.0  0.0999
  H  H15  1  0.455600  0.382100  0.591900  1.0  0.133
  H  H16  1  0.357000  0.351500  0.552900  1.0  0.1207
  H  H17  1  0.110700  0.257600  0.243700  1.0  0.1094
  H  H18  1  0.082600  0.296300  0.372700  1.0  0.0824
  H  H19  1  0.942500  0.885600  0.603700  1.0  0.2725
  H  H20  1  0.991500  0.902100  0.693200  1.0  0.1211
  H  H21  1  0.894900  0.739100  0.561600  1.0  0.1277
  H  H22  1  0.967700  0.914700  0.546800  1.0  0.0996
  H  H23  1  0.790200  0.863700  0.408100  1.0  0.1303
  H  H24  1  0.798600  0.804100  0.447100  1.0  0.1208
  H  H25  1  0.013900  0.867000  0.756300  1.0  0.1124
  H  H26  1  0.923600  0.709900  0.627300  1.0  0.0828
  H  H27  1  0.057500  0.661200  0.943100  1.0  0.2743
  H  H28  1  0.008500  0.701700  0.910600  1.0  0.1187
  H  H29  1  0.105100  0.666667  0.844200  1.0  0.127
  H  H30  1  0.032300  0.579100  0.947000  1.0  0.101
  H  H31  1  0.209800  0.617900  0.073500  1.0  0.1303
  H  H32  1  0.201400  0.648500  0.005500  1.0  0.1209
  H  H33  1  0.986100  0.742400  0.853100  1.0  0.111
  H  H34  1  0.076400  0.703700  0.786300  1.0  0.0798
  H  H35  1  0.718100  0.114400  0.056900  1.0  0.2741
  H  H36  1  0.791100  0.097900  0.089400  1.0  0.1193
  H  H37  1  0.822500  0.260900  0.155800  1.0  0.1276
  H  H38  1  0.632100  0.085300  0.053000  1.0  0.0992
  H  H39  1  0.544400  0.136300  0.926500  1.0  0.1321
  H  H40  1  0.643000  0.195900  0.994500  1.0  0.1202
  H  H41  1  0.889300  0.133000  0.146900  1.0  0.1108
  H  H42  1  0.917400  0.290100  0.213700  1.0  0.0789
  H  H43  1  0.943100  0.057500  0.661200  1.0  0.275
  H  H44  1  0.910600  0.008500  0.701700  1.0  0.1188
  H  H45  1  0.844200  0.105100  0.666667  1.0  0.1266
  H  H46  1  0.947000  0.032300  0.579100  1.0  0.1017
  H  H47  1  0.073500  0.209800  0.617900  1.0  0.1321
  H  H48  1  0.005500  0.201400  0.648500  1.0  0.121
  H  H49  1  0.853100  0.986100  0.742400  1.0  0.1115
  H  H50  1  0.786300  0.076400  0.703700  1.0  0.0801
  H  H51  1  0.056900  0.718100  0.114400  1.0  0.2757
  H  H52  1  0.089400  0.791100  0.097900  1.0  0.1207
  H  H53  1  0.155800  0.822500  0.260900  1.0  0.1279
  H  H54  1  0.053000  0.632100  0.085300  1.0  0.0997
  H  H55  1  0.926500  0.544400  0.136300  1.0  0.1334
  H  H56  1  0.994500  0.643000  0.195900  1.0  0.1201
  H  H57  1  0.146900  0.889300  0.133000  1.0  0.11
  H  H58  1  0.213700  0.917400  0.290100  1.0  0.08
  H  H59  1  0.396300  0.281900  0.338800  1.0  0.2752
  H  H60  1  0.306800  0.208900  0.298300  1.0  0.1177
  H  H61  1  0.438400  0.177500  0.333333  1.0  0.1266
  H  H62  1  0.453200  0.367900  0.420900  1.0  0.101
  H  H63  1  0.591900  0.455600  0.382100  1.0  0.1318
  H  H64  1  0.552900  0.357000  0.351500  1.0  0.1214
  H  H65  1  0.243700  0.110700  0.257600  1.0  0.1101
  H  H66  1  0.372700  0.082600  0.296300  1.0  0.0831
  H  H67  1  0.603700  0.942500  0.885600  1.0  0.274
  H  H68  1  0.693200  0.991500  0.902100  1.0  0.1189
  H  H69  1  0.561600  0.894900  0.739100  1.0  0.1274
  H  H70  1  0.546800  0.967700  0.914700  1.0  0.1013
  H  H71  1  0.408100  0.790200  0.863700  1.0  0.1312
  H  H72  1  0.447100  0.798600  0.804100  1.0  0.1195
  H  H73  1  0.756300  0.013900  0.867000  1.0  0.1116
  H  H74  1  0.627300  0.923600  0.709900  1.0  0.0829
  H  H75  1  0.885600  0.603700  0.942500  1.0  0.2761
  H  H76  1  0.902100  0.693200  0.991500  1.0  0.1189
  H  H77  1  0.739100  0.561600  0.894900  1.0  0.1277
  H  H78  1  0.914700  0.546800  0.967700  1.0  0.1008
  H  H79  1  0.863700  0.408100  0.790200  1.0  0.1306
  H  H80  1  0.804100  0.447100  0.798600  1.0  0.1207
  H  H81  1  0.867000  0.756300  0.013900  1.0  0.1125
  H  H82  1  0.709900  0.627300  0.923600  1.0  0.0827
  H  H83  1  0.338800  0.396300  0.281900  1.0  0.274
  H  H84  1  0.298300  0.306800  0.208900  1.0  0.1194
  H  H85  1  0.333333  0.438400  0.177500  1.0  0.1277
  H  H86  1  0.420900  0.453200  0.367900  1.0  0.1012
  H  H87  1  0.382100  0.591900  0.455600  1.0  0.1311
  H  H88  1  0.351500  0.552900  0.357000  1.0  0.1204
  H  H89  1  0.257600  0.243700  0.110700  1.0  0.1107
  H  H90  1  0.296300  0.372700  0.082600  1.0  0.0821
  H  H91  1  0.114400  0.056900  0.718100  1.0  0.276
  H  H92  1  0.097900  0.089400  0.791100  1.0  0.1193
  H  H93  1  0.260900  0.155800  0.822500  1.0  0.1277
  H  H94  1  0.085300  0.053000  0.632100  1.0  0.1004
  H  H95  1  0.136300  0.926500  0.544400  1.0  0.1301
  H  H96  1  0.195900  0.994500  0.643000  1.0  0.1213
  H  H97  1  0.133000  0.146900  0.889300  1.0  0.1105
  H  H98  1  0.290100  0.213700  0.917400  1.0  0.0805
  H  H99  1  0.661200  0.943100  0.057500  1.0  0.2754
  H  H100  1  0.701700  0.910600  0.008500  1.0  0.1208
  H  H101  1  0.666667  0.844200  0.105100  1.0  0.1285
  H  H102  1  0.579100  0.947000  0.032300  1.0  0.0997
  H  H103  1  0.617900  0.073500  0.209800  1.0  0.1321
  H  H104  1  0.648500  0.005500  0.201400  1.0  0.1205
  H  H105  1  0.742400  0.853100  0.986100  1.0  0.1112
  H  H106  1  0.703700  0.786300  0.076400  1.0  0.0805
  H  H107  1  0.661200  0.718100  0.603700  1.0  0.275
  H  H108  1  0.701700  0.791100  0.693200  1.0  0.1189
  H  H109  1  0.666667  0.822500  0.561600  1.0  0.1273
  H  H110  1  0.579100  0.632100  0.546800  1.0  0.1001
  H  H111  1  0.617900  0.544400  0.408100  1.0  0.1325
  H  H112  1  0.648500  0.643000  0.447100  1.0  0.1211
  H  H113  1  0.742400  0.889300  0.756300  1.0  0.1084
  H  H114  1  0.703700  0.917400  0.627300  1.0  0.0824
  H  H115  1  0.114400  0.057500  0.396300  1.0  0.2755
  H  H116  1  0.097900  0.008500  0.306800  1.0  0.1188
  H  H117  1  0.260900  0.105100  0.438400  1.0  0.1269
  H  H118  1  0.085300  0.032300  0.453200  1.0  0.1011
  H  H119  1  0.136300  0.209800  0.591900  1.0  0.1323
  H  H120  1  0.195900  0.201400  0.552900  1.0  0.1214
  H  H121  1  0.133000  0.986100  0.243700  1.0  0.1106
  H  H122  1  0.290100  0.076400  0.372700  1.0  0.0839
  H  H123  1  0.338800  0.942500  0.056900  1.0  0.275
  H  H124  1  0.298300  0.991500  0.089400  1.0  0.1194
  H  H125  1  0.333333  0.894900  0.155800  1.0  0.1268
  H  H126  1  0.420900  0.967700  0.053000  1.0  0.1015
  H  H127  1  0.382100  0.790200  0.926500  1.0  0.1312
  H  H128  1  0.351500  0.798600  0.994500  1.0  0.1197
  H  H129  1  0.257600  0.013900  0.146900  1.0  0.1109
  H  H130  1  0.296300  0.923600  0.213700  1.0  0.0792
  H  H131  1  0.885600  0.281900  0.943100  1.0  0.275
  H  H132  1  0.902100  0.208900  0.910600  1.0  0.1195
  H  H133  1  0.739100  0.177500  0.844200  1.0  0.1269
  H  H134  1  0.914700  0.367900  0.947000  1.0  0.1013
  H  H135  1  0.863700  0.455600  0.073500  1.0  0.1319
  H  H136  1  0.804100  0.357000  0.005500  1.0  0.1213
  H  H137  1  0.867000  0.110700  0.853100  1.0  0.1107
  H  H138  1  0.709900  0.082600  0.786300  1.0  0.0815
  H  H139  1  0.942500  0.056900  0.338800  1.0  0.2755
  H  H140  1  0.991500  0.089400  0.298300  1.0  0.1199
  H  H141  1  0.894900  0.155800  0.333333  1.0  0.1266
  H  H142  1  0.967700  0.053000  0.420900  1.0  0.1002
  H  H143  1  0.790200  0.926500  0.382100  1.0  0.1303
  H  H144  1  0.798600  0.994500  0.351500  1.0  0.1221
  H  H145  1  0.013900  0.146900  0.257600  1.0  0.1109
  H  H146  1  0.923600  0.213700  0.296300  1.0  0.081
  H  H147  1  0.281900  0.943100  0.885600  1.0  0.276
  H  H148  1  0.208900  0.910600  0.902100  1.0  0.1208
  H  H149  1  0.177500  0.844200  0.739100  1.0  0.1285
  H  H150  1  0.367900  0.947000  0.914700  1.0  0.0996
  H  H151  1  0.455600  0.073500  0.863700  1.0  0.1312
  H  H152  1  0.357000  0.005500  0.804100  1.0  0.1212
  H  H153  1  0.110700  0.853100  0.867000  1.0  0.1101
  H  H154  1  0.082600  0.786300  0.709900  1.0  0.0793
  H  H155  1  0.718100  0.603700  0.661200  1.0  0.2756
  H  H156  1  0.791100  0.693200  0.701700  1.0  0.1179
  H  H157  1  0.822500  0.561600  0.666667  1.0  0.128
  H  H158  1  0.632100  0.546800  0.579100  1.0  0.1011
  H  H159  1  0.544400  0.408100  0.617900  1.0  0.1325
  H  H160  1  0.643000  0.447100  0.648500  1.0  0.1199
  H  H161  1  0.889300  0.756300  0.742400  1.0  0.1112
  H  H162  1  0.917400  0.627300  0.703700  1.0  0.0821
  H  H163  1  0.057500  0.396300  0.114400  1.0  0.2746
  H  H164  1  0.008500  0.306800  0.097900  1.0  0.1204
  H  H165  1  0.105100  0.438400  0.260900  1.0  0.1286
  H  H166  1  0.032300  0.453200  0.085300  1.0  0.1015
  H  H167  1  0.209800  0.591900  0.136300  1.0  0.1314
  H  H168  1  0.201400  0.552900  0.195900  1.0  0.12
  H  H169  1  0.986100  0.243700  0.133000  1.0  0.1111
  H  H170  1  0.076400  0.372700  0.290100  1.0  0.0824
  H  H171  1  0.396300  0.114400  0.057500  1.0  0.2749
  H  H172  1  0.306800  0.097900  0.008500  1.0  0.119
  H  H173  1  0.438400  0.260900  0.105100  1.0  0.1282
  H  H174  1  0.453200  0.085300  0.032300  1.0  0.0993
  H  H175  1  0.591900  0.136300  0.209800  1.0  0.1331
  H  H176  1  0.552900  0.195900  0.201400  1.0  0.12
  H  H177  1  0.243700  0.133000  0.986100  1.0  0.1104
  H  H178  1  0.372700  0.290100  0.076400  1.0  0.0817
  H  H179  1  0.603700  0.661200  0.718100  1.0  0.2747
  H  H180  1  0.693200  0.701700  0.791100  1.0  0.1183
  H  H181  1  0.561600  0.666667  0.822500  1.0  0.127
  H  H182  1  0.546800  0.579100  0.632100  1.0  0.1012
  H  H183  1  0.408100  0.617900  0.544400  1.0  0.1301
  H  H184  1  0.447100  0.648500  0.643000  1.0  0.1206
  H  H185  1  0.756300  0.742400  0.889300  1.0  0.1096
  H  H186  1  0.627300  0.703700  0.917400  1.0  0.0826
  H  H187  1  0.943100  0.885600  0.281900  1.0  0.2723
  H  H188  1  0.910600  0.902100  0.208900  1.0  0.1211
  H  H189  1  0.844200  0.739100  0.177500  1.0  0.1281
  H  H190  1  0.947000  0.914700  0.367900  1.0  0.0998
  H  H191  1  0.073500  0.863700  0.455600  1.0  0.1298
  H  H192  1  0.005500  0.804100  0.357000  1.0  0.1215
  H  H193  1  0.853100  0.867000  0.110700  1.0  0.1111
  H  H194  1  0.786300  0.709900  0.082600  1.0  0.0806
  H  H195  1  0.056900  0.338800  0.942500  1.0  0.2745
  H  H196  1  0.089400  0.298300  0.991500  1.0  0.1203
  H  H197  1  0.155800  0.333333  0.894900  1.0  0.128
  H  H198  1  0.053000  0.420900  0.967700  1.0  0.0997
  H  H199  1  0.926500  0.382100  0.790200  1.0  0.1308
  H  H200  1  0.994500  0.351500  0.798600  1.0  0.1212
  H  H201  1  0.146900  0.257600  0.013900  1.0  0.1107
  H  H202  1  0.213700  0.296300  0.923600  1.0  0.0787
  C  C203  1  0.202810  0.318400  0.377490  1.0  0.203
  C  C204  1  0.183380  0.297620  0.321200  1.0  -0.1493
  C  C205  1  0.468480  0.425180  0.548220  1.0  0.2138
  C  C206  1  0.164990  0.318820  0.398790  1.0  -0.2182
  C  C207  1  0.385900  0.413600  0.482280  1.0  0.1333
  C  C208  1  0.437280  0.391140  0.564720  1.0  -0.1089
  C  C209  1  0.288160  0.357210  0.469070  1.0  0.5762
  C  C210  1  0.352840  0.380320  0.496840  1.0  -0.0229
  C  C211  1  0.378730  0.371230  0.540000  1.0  -0.0384
  C  C212  1  0.125150  0.274900  0.283770  1.0  0.1334
  C  C213  1  0.108780  0.297090  0.359210  1.0  0.1574
  C  C214  1  0.940910  0.825320  0.622510  1.0  0.2024
  C  C215  1  0.976420  0.862180  0.678800  1.0  -0.1549
  C  C216  1  0.876960  0.920260  0.451780  1.0  0.2111
  C  C217  1  0.920030  0.766200  0.601210  1.0  -0.219
  C  C218  1  0.931320  0.903620  0.517720  1.0  0.1327
  C  C219  1  0.826420  0.872560  0.435280  1.0  -0.1074
  C  C220  1  0.888140  0.819090  0.530930  1.0  0.5745
  C  C221  1  0.883480  0.856000  0.503160  1.0  -0.0215
  C  C222  1  0.831230  0.838730  0.460000  1.0  -0.0357
  C  C223  1  0.991130  0.841380  0.716230  1.0  0.1355
  C  C224  1  0.937880  0.749570  0.640790  1.0  0.1598
  C  C225  1  0.059090  0.681600  0.884410  1.0  0.2038
  C  C226  1  0.023580  0.702380  0.885760  1.0  -0.1558
  C  C227  1  0.123040  0.574820  0.043300  1.0  0.2134
  C  C228  1  0.079970  0.681180  0.846170  1.0  -0.2138
  C  C229  1  0.068680  0.586400  0.972300  1.0  0.1325
  C  C230  1  0.173580  0.608860  0.046140  1.0  -0.1018
  C  C231  1  0.111860  0.642790  0.930950  1.0  0.5779
  C  C232  1  0.116520  0.619680  0.972520  1.0  -0.0256
  C  C233  1  0.168770  0.628770  0.007500  1.0  -0.0332
  C  C234  1  0.008870  0.725100  0.850250  1.0  0.1339
  C  C235  1  0.062120  0.702910  0.811690  1.0  0.1594
  C  C236  1  0.797190  0.174680  0.115590  1.0  0.2033
  C  C237  1  0.816620  0.137820  0.114240  1.0  -0.1591
  C  C238  1  0.531520  0.079740  0.956700  1.0  0.2108
  C  C239  1  0.835010  0.233800  0.153830  1.0  -0.2179
  C  C240  1  0.614100  0.096380  0.027700  1.0  0.1357
  C  C241  1  0.562720  0.127440  0.953860  1.0  -0.1073
  C  C242  1  0.711840  0.180910  0.069050  1.0  0.5683
  C  C243  1  0.647160  0.144000  0.027480  1.0  -0.023
  C  C244  1  0.621270  0.161270  0.992500  1.0  -0.0388
  C  C245  1  0.874850  0.158620  0.149750  1.0  0.1345
  C  C246  1  0.891220  0.250430  0.188310  1.0  0.1593
  C  C247  1  0.884410  0.059090  0.681600  1.0  0.201
  C  C248  1  0.885760  0.023580  0.702380  1.0  -0.1541
  C  C249  1  0.043300  0.123040  0.574820  1.0  0.2112
  C  C250  1  0.846170  0.079970  0.681180  1.0  -0.2143
  C  C251  1  0.972300  0.068680  0.586400  1.0  0.1312
  C  C252  1  0.046140  0.173580  0.608860  1.0  -0.0994
  C  C253  1  0.930950  0.111860  0.642790  1.0  0.5745
  C  C254  1  0.972520  0.116520  0.619680  1.0  -0.0237
  C  C255  1  0.007500  0.168770  0.628770  1.0  -0.0331
  C  C256  1  0.850250  0.008870  0.725100  1.0  0.1362
  C  C257  1  0.811690  0.062120  0.702910  1.0  0.1604
  C  C258  1  0.115590  0.797190  0.174680  1.0  0.2024
  C  C259  1  0.114240  0.816620  0.137820  1.0  -0.1515
  C  C260  1  0.956700  0.531520  0.079740  1.0  0.2143
  C  C261  1  0.153830  0.835010  0.233800  1.0  -0.2151
  C  C262  1  0.027700  0.614100  0.096380  1.0  0.1334
  C  C263  1  0.953860  0.562720  0.127440  1.0  -0.1106
  C  C264  1  0.069050  0.711840  0.180910  1.0  0.5791
  C  C265  1  0.027480  0.647160  0.144000  1.0  -0.0228
  C  C266  1  0.992500  0.621270  0.161270  1.0  -0.0393
  C  C267  1  0.149750  0.874850  0.158620  1.0  0.1336
  C  C268  1  0.188310  0.891220  0.250430  1.0  0.1569
  C  C269  1  0.377490  0.202810  0.318400  1.0  0.2037
  C  C270  1  0.321200  0.183380  0.297620  1.0  -0.1559
  C  C271  1  0.548220  0.468480  0.425180  1.0  0.2128
  C  C272  1  0.398790  0.164990  0.318820  1.0  -0.2099
  C  C273  1  0.482280  0.385900  0.413600  1.0  0.1337
  C  C274  1  0.564720  0.437280  0.391140  1.0  -0.1085
  C  C275  1  0.469070  0.288160  0.357210  1.0  0.5778
  C  C276  1  0.496840  0.352840  0.380320  1.0  -0.027
  C  C277  1  0.540000  0.378730  0.371230  1.0  -0.0372
  C  C278  1  0.283770  0.125150  0.274900  1.0  0.1327
  C  C279  1  0.359210  0.108780  0.297090  1.0  0.1577
  C  C280  1  0.622510  0.940910  0.825320  1.0  0.2031
  C  C281  1  0.678800  0.976420  0.862180  1.0  -0.1535
  C  C282  1  0.451780  0.876960  0.920260  1.0  0.2121
  C  C283  1  0.601210  0.920030  0.766200  1.0  -0.2175
  C  C284  1  0.517720  0.931320  0.903620  1.0  0.1323
  C  C285  1  0.435280  0.826420  0.872560  1.0  -0.1075
  C  C286  1  0.530930  0.888140  0.819090  1.0  0.5752
  C  C287  1  0.503160  0.883480  0.856000  1.0  -0.0229
  C  C288  1  0.460000  0.831230  0.838730  1.0  -0.035
  C  C289  1  0.716230  0.991130  0.841380  1.0  0.1344
  C  C290  1  0.640790  0.937880  0.749570  1.0  0.1629
  C  C291  1  0.825320  0.622510  0.940910  1.0  0.2029
  C  C292  1  0.862180  0.678800  0.976420  1.0  -0.1536
  C  C293  1  0.920260  0.451780  0.876960  1.0  0.2115
  C  C294  1  0.766200  0.601210  0.920030  1.0  -0.2182
  C  C295  1  0.903620  0.517720  0.931320  1.0  0.133
  C  C296  1  0.872560  0.435280  0.826420  1.0  -0.1089
  C  C297  1  0.819090  0.530930  0.888140  1.0  0.5735
  C  C298  1  0.856000  0.503160  0.883480  1.0  -0.0241
  C  C299  1  0.838730  0.460000  0.831230  1.0  -0.0386
  C  C300  1  0.841380  0.716230  0.991130  1.0  0.1327
  C  C301  1  0.749570  0.640790  0.937880  1.0  0.1594
  C  C302  1  0.318400  0.377490  0.202810  1.0  0.204
  C  C303  1  0.297620  0.321200  0.183380  1.0  -0.1544
  C  C304  1  0.425180  0.548220  0.468480  1.0  0.2133
  C  C305  1  0.318820  0.398790  0.164990  1.0  -0.2187
  C  C306  1  0.413600  0.482280  0.385900  1.0  0.132
  C  C307  1  0.391140  0.564720  0.437280  1.0  -0.1072
  C  C308  1  0.357210  0.469070  0.288160  1.0  0.5744
  C  C309  1  0.380320  0.496840  0.352840  1.0  -0.0234
  C  C310  1  0.371230  0.540000  0.378730  1.0  -0.0366
  C  C311  1  0.274900  0.283770  0.125150  1.0  0.1343
  C  C312  1  0.297090  0.359210  0.108780  1.0  0.1584
  C  C313  1  0.174680  0.115590  0.797190  1.0  0.2026
  C  C314  1  0.137820  0.114240  0.816620  1.0  -0.1573
  C  C315  1  0.079740  0.956700  0.531520  1.0  0.2146
  C  C316  1  0.233800  0.153830  0.835010  1.0  -0.2139
  C  C317  1  0.096380  0.027700  0.614100  1.0  0.1324
  C  C318  1  0.127440  0.953860  0.562720  1.0  -0.1037
  C  C319  1  0.180910  0.069050  0.711840  1.0  0.5767
  C  C320  1  0.144000  0.027480  0.647160  1.0  -0.0269
  C  C321  1  0.161270  0.992500  0.621270  1.0  -0.0302
  C  C322  1  0.158620  0.149750  0.874850  1.0  0.1363
  C  C323  1  0.250430  0.188310  0.891220  1.0  0.1583
  C  C324  1  0.681600  0.884410  0.059090  1.0  0.2028
  C  C325  1  0.702380  0.885760  0.023580  1.0  -0.1529
  C  C326  1  0.574820  0.043300  0.123040  1.0  0.2141
  C  C327  1  0.681180  0.846170  0.079970  1.0  -0.2193
  C  C328  1  0.586400  0.972300  0.068680  1.0  0.1348
  C  C329  1  0.608860  0.046140  0.173580  1.0  -0.1091
  C  C330  1  0.642790  0.930950  0.111860  1.0  0.5759
  C  C331  1  0.619680  0.972520  0.116520  1.0  -0.0232
  C  C332  1  0.628770  0.007500  0.168770  1.0  -0.0388
  C  C333  1  0.725100  0.850250  0.008870  1.0  0.134
  C  C334  1  0.702910  0.811690  0.062120  1.0  0.1565
  C  C335  1  0.681600  0.797190  0.622510  1.0  0.2032
  C  C336  1  0.702380  0.816620  0.678800  1.0  -0.1491
  C  C337  1  0.574820  0.531520  0.451780  1.0  0.2128
  C  C338  1  0.681180  0.835010  0.601210  1.0  -0.2151
  C  C339  1  0.586400  0.614100  0.517720  1.0  0.1337
  C  C340  1  0.608860  0.562720  0.435280  1.0  -0.1096
  C  C341  1  0.642790  0.711840  0.530930  1.0  0.579
  C  C342  1  0.619680  0.647160  0.503160  1.0  -0.024
  C  C343  1  0.628770  0.621270  0.460000  1.0  -0.041
  C  C344  1  0.725100  0.874850  0.716230  1.0  0.1336
  C  C345  1  0.702910  0.891220  0.640790  1.0  0.1581
  C  C346  1  0.174680  0.059090  0.377490  1.0  0.2025
  C  C347  1  0.137820  0.023580  0.321200  1.0  -0.1561
  C  C348  1  0.079740  0.123040  0.548220  1.0  0.212
  C  C349  1  0.233800  0.079970  0.398790  1.0  -0.2152
  C  C350  1  0.096380  0.068680  0.482280  1.0  0.131
  C  C351  1  0.127440  0.173580  0.564720  1.0  -0.1025
  C  C352  1  0.180910  0.111860  0.469070  1.0  0.5751
  C  C353  1  0.144000  0.116520  0.496840  1.0  -0.0249
  C  C354  1  0.161270  0.168770  0.540000  1.0  -0.0328
  C  C355  1  0.158620  0.008870  0.283770  1.0  0.1367
  C  C356  1  0.250430  0.062120  0.359210  1.0  0.159
  C  C357  1  0.318400  0.940910  0.115590  1.0  0.2038
  C  C358  1  0.297620  0.976420  0.114240  1.0  -0.1521
  C  C359  1  0.425180  0.876960  0.956700  1.0  0.2117
  C  C360  1  0.318820  0.920030  0.153830  1.0  -0.2145
  C  C361  1  0.413600  0.931320  0.027700  1.0  0.131
  C  C362  1  0.391140  0.826420  0.953860  1.0  -0.1049
  C  C363  1  0.357210  0.888140  0.069050  1.0  0.5756
  C  C364  1  0.380320  0.883480  0.027480  1.0  -0.0227
  C  C365  1  0.371230  0.831230  0.992500  1.0  -0.036
  C  C366  1  0.274900  0.991130  0.149750  1.0  0.1336
  C  C367  1  0.297090  0.937880  0.188310  1.0  0.1611
  C  C368  1  0.825320  0.202810  0.884410  1.0  0.2022
  C  C369  1  0.862180  0.183380  0.885760  1.0  -0.1527
  C  C370  1  0.920260  0.468480  0.043300  1.0  0.2124
  C  C371  1  0.766200  0.164990  0.846170  1.0  -0.2117
  C  C372  1  0.903620  0.385900  0.972300  1.0  0.1327
  C  C373  1  0.872560  0.437280  0.046140  1.0  -0.1083
  C  C374  1  0.819090  0.288160  0.930950  1.0  0.5746
  C  C375  1  0.856000  0.352840  0.972520  1.0  -0.0242
  C  C376  1  0.838730  0.378730  0.007500  1.0  -0.0372
  C  C377  1  0.841380  0.125150  0.850250  1.0  0.1321
  C  C378  1  0.749570  0.108780  0.811690  1.0  0.1575
  C  C379  1  0.940910  0.115590  0.318400  1.0  0.2017
  C  C380  1  0.976420  0.114240  0.297620  1.0  -0.1537
  C  C381  1  0.876960  0.956700  0.425180  1.0  0.2119
  C  C382  1  0.920030  0.153830  0.318820  1.0  -0.2155
  C  C383  1  0.931320  0.027700  0.413600  1.0  0.1318
  C  C384  1  0.826420  0.953860  0.391140  1.0  -0.1042
  C  C385  1  0.888140  0.069050  0.357210  1.0  0.5746
  C  C386  1  0.883480  0.027480  0.380320  1.0  -0.0259
  C  C387  1  0.831230  0.992500  0.371230  1.0  -0.0318
  C  C388  1  0.991130  0.149750  0.274900  1.0  0.1363
  C  C389  1  0.937880  0.188310  0.297090  1.0  0.1575
  C  C390  1  0.202810  0.884410  0.825320  1.0  0.2031
  C  C391  1  0.183380  0.885760  0.862180  1.0  -0.1494
  C  C392  1  0.468480  0.043300  0.920260  1.0  0.2125
  C  C393  1  0.164990  0.846170  0.766200  1.0  -0.2172
  C  C394  1  0.385900  0.972300  0.903620  1.0  0.1352
  C  C395  1  0.437280  0.046140  0.872560  1.0  -0.1087
  C  C396  1  0.288160  0.930950  0.819090  1.0  0.5785
  C  C397  1  0.352840  0.972520  0.856000  1.0  -0.0257
  C  C398  1  0.378730  0.007500  0.838730  1.0  -0.0388
  C  C399  1  0.125150  0.850250  0.841380  1.0  0.1329
  C  C400  1  0.108780  0.811690  0.749570  1.0  0.1562
  C  C401  1  0.797190  0.622510  0.681600  1.0  0.2034
  C  C402  1  0.816620  0.678800  0.702380  1.0  -0.1564
  C  C403  1  0.531520  0.451780  0.574820  1.0  0.2122
  C  C404  1  0.835010  0.601210  0.681180  1.0  -0.217
  C  C405  1  0.614100  0.517720  0.586400  1.0  0.1323
  C  C406  1  0.562720  0.435280  0.608860  1.0  -0.106
  C  C407  1  0.711840  0.530930  0.642790  1.0  0.5756
  C  C408  1  0.647160  0.503160  0.619680  1.0  -0.0249
  C  C409  1  0.621270  0.460000  0.628770  1.0  -0.0373
  C  C410  1  0.874850  0.716230  0.725100  1.0  0.1327
  C  C411  1  0.891220  0.640790  0.702910  1.0  0.1595
  C  C412  1  0.059090  0.377490  0.174680  1.0  0.2041
  C  C413  1  0.023580  0.321200  0.137820  1.0  -0.1571
  C  C414  1  0.123040  0.548220  0.079740  1.0  0.2154
  C  C415  1  0.079970  0.398790  0.233800  1.0  -0.2176
  C  C416  1  0.068680  0.482280  0.096380  1.0  0.1326
  C  C417  1  0.173580  0.564720  0.127440  1.0  -0.1067
  C  C418  1  0.111860  0.469070  0.180910  1.0  0.5693
  C  C419  1  0.116520  0.496840  0.144000  1.0  -0.0237
  C  C420  1  0.168770  0.540000  0.161270  1.0  -0.0349
  C  C421  1  0.008870  0.283770  0.158620  1.0  0.1331
  C  C422  1  0.062120  0.359210  0.250430  1.0  0.1583
  C  C423  1  0.377490  0.174680  0.059090  1.0  0.2027
  C  C424  1  0.321200  0.137820  0.023580  1.0  -0.1569
  C  C425  1  0.548220  0.079740  0.123040  1.0  0.2127
  C  C426  1  0.398790  0.233800  0.079970  1.0  -0.2157
  C  C427  1  0.482280  0.096380  0.068680  1.0  0.135
  C  C428  1  0.564720  0.127440  0.173580  1.0  -0.1081
  C  C429  1  0.469070  0.180910  0.111860  1.0  0.5685
  C  C430  1  0.496840  0.144000  0.116520  1.0  -0.0208
  C  C431  1  0.540000  0.161270  0.168770  1.0  -0.0362
  C  C432  1  0.283770  0.158620  0.008870  1.0  0.1343
  C  C433  1  0.359210  0.250430  0.062120  1.0  0.1586
  C  C434  1  0.622510  0.681600  0.797190  1.0  0.204
  C  C435  1  0.678800  0.702380  0.816620  1.0  -0.1517
  C  C436  1  0.451780  0.574820  0.531520  1.0  0.2129
  C  C437  1  0.601210  0.681180  0.835010  1.0  -0.2195
  C  C438  1  0.517720  0.586400  0.614100  1.0  0.1327
  C  C439  1  0.435280  0.608860  0.562720  1.0  -0.1033
  C  C440  1  0.530930  0.642790  0.711840  1.0  0.5733
  C  C441  1  0.503160  0.619680  0.647160  1.0  -0.0247
  C  C442  1  0.460000  0.628770  0.621270  1.0  -0.0344
  C  C443  1  0.716230  0.725100  0.874850  1.0  0.1337
  C  C444  1  0.640790  0.702910  0.891220  1.0  0.1584
  C  C445  1  0.884410  0.825320  0.202810  1.0  0.2026
  C  C446  1  0.885760  0.862180  0.183380  1.0  -0.1551
  C  C447  1  0.043300  0.920260  0.468480  1.0  0.2126
  C  C448  1  0.846170  0.766200  0.164990  1.0  -0.2177
  C  C449  1  0.972300  0.903620  0.385900  1.0  0.132
  C  C450  1  0.046140  0.872560  0.437280  1.0  -0.1037
  C  C451  1  0.930950  0.819090  0.288160  1.0  0.5748
  C  C452  1  0.972520  0.856000  0.352840  1.0  -0.0218
  C  C453  1  0.007500  0.838730  0.378730  1.0  -0.035
  C  C454  1  0.850250  0.841380  0.125150  1.0  0.1355
  C  C455  1  0.811690  0.749570  0.108780  1.0  0.1591
  C  C456  1  0.115590  0.318400  0.940910  1.0  0.2024
  C  C457  1  0.114240  0.297620  0.976420  1.0  -0.152
  C  C458  1  0.956700  0.425180  0.876960  1.0  0.2107
  C  C459  1  0.153830  0.318820  0.920030  1.0  -0.2145
  C  C460  1  0.027700  0.413600  0.931320  1.0  0.1344
  C  C461  1  0.953860  0.391140  0.826420  1.0  -0.1074
  C  C462  1  0.069050  0.357210  0.888140  1.0  0.5782
  C  C463  1  0.027480  0.380320  0.883480  1.0  -0.0253
  C  C464  1  0.992500  0.371230  0.831230  1.0  -0.0385
  C  C465  1  0.149750  0.274900  0.991130  1.0  0.1345
  C  C466  1  0.188310  0.297090  0.937880  1.0  0.1569
  N  N467  1  0.442760  0.435850  0.508130  1.0  -0.3148
  N  N468  1  0.261100  0.338520  0.412940  1.0  -0.3836
  N  N469  1  0.089240  0.277670  0.304790  1.0  -0.3204
  N  N470  1  0.927720  0.934630  0.491870  1.0  -0.3146
  N  N471  1  0.925580  0.848160  0.587060  1.0  -0.3858
  N  N472  1  0.972880  0.784450  0.695210  1.0  -0.3192
  N  N473  1  0.072280  0.564150  0.006910  1.0  -0.3154
  N  N474  1  0.074420  0.661480  0.922580  1.0  -0.3877
  N  N475  1  0.027120  0.722330  0.811570  1.0  -0.3205
  N  N476  1  0.557240  0.065370  0.993090  1.0  -0.3147
  N  N477  1  0.738900  0.151840  0.077420  1.0  -0.3854
  N  N478  1  0.910760  0.215550  0.188430  1.0  -0.3183
  N  N479  1  0.006910  0.072280  0.564150  1.0  -0.3149
  N  N480  1  0.922580  0.074420  0.661480  1.0  -0.384
  N  N481  1  0.811570  0.027120  0.722330  1.0  -0.32
  N  N482  1  0.993090  0.557240  0.065370  1.0  -0.3159
  N  N483  1  0.077420  0.738900  0.151840  1.0  -0.3846
  N  N484  1  0.188430  0.910760  0.215550  1.0  -0.3202
  N  N485  1  0.508130  0.442760  0.435850  1.0  -0.313
  N  N486  1  0.412940  0.261100  0.338520  1.0  -0.3862
  N  N487  1  0.304790  0.089240  0.277670  1.0  -0.3203
  N  N488  1  0.491870  0.927720  0.934630  1.0  -0.315
  N  N489  1  0.587060  0.925580  0.848160  1.0  -0.3877
  N  N490  1  0.695210  0.972880  0.784450  1.0  -0.3213
  N  N491  1  0.934630  0.491870  0.927720  1.0  -0.313
  N  N492  1  0.848160  0.587060  0.925580  1.0  -0.3847
  N  N493  1  0.784450  0.695210  0.972880  1.0  -0.3194
  N  N494  1  0.435850  0.508130  0.442760  1.0  -0.3152
  N  N495  1  0.338520  0.412940  0.261100  1.0  -0.387
  N  N496  1  0.277670  0.304790  0.089240  1.0  -0.3222
  N  N497  1  0.065370  0.993090  0.557240  1.0  -0.3153
  N  N498  1  0.151840  0.077420  0.738900  1.0  -0.386
  N  N499  1  0.215550  0.188430  0.910760  1.0  -0.3201
  N  N500  1  0.564150  0.006910  0.072280  1.0  -0.3152
  N  N501  1  0.661480  0.922580  0.074420  1.0  -0.3842
  N  N502  1  0.722330  0.811570  0.027120  1.0  -0.3177
  N  N503  1  0.564150  0.557240  0.491870  1.0  -0.3142
  N  N504  1  0.661480  0.738900  0.587060  1.0  -0.3858
  N  N505  1  0.722330  0.910760  0.695210  1.0  -0.3205
  N  N506  1  0.065370  0.072280  0.508130  1.0  -0.3142
  N  N507  1  0.151840  0.074420  0.412940  1.0  -0.3853
  N  N508  1  0.215550  0.027120  0.304790  1.0  -0.3199
  N  N509  1  0.435850  0.927720  0.993090  1.0  -0.315
  N  N510  1  0.338520  0.925580  0.077420  1.0  -0.3855
  N  N511  1  0.277670  0.972880  0.188430  1.0  -0.3215
  N  N512  1  0.934630  0.442760  0.006910  1.0  -0.3137
  N  N513  1  0.848160  0.261100  0.922580  1.0  -0.3845
  N  N514  1  0.784450  0.089240  0.811570  1.0  -0.3201
  N  N515  1  0.927720  0.993090  0.435850  1.0  -0.3157
  N  N516  1  0.925580  0.077420  0.338520  1.0  -0.3844
  N  N517  1  0.972880  0.188430  0.277670  1.0  -0.3206
  N  N518  1  0.442760  0.006910  0.934630  1.0  -0.3134
  N  N519  1  0.261100  0.922580  0.848160  1.0  -0.3856
  N  N520  1  0.089240  0.811570  0.784450  1.0  -0.3186
  N  N521  1  0.557240  0.491870  0.564150  1.0  -0.3152
  N  N522  1  0.738900  0.587060  0.661480  1.0  -0.3856
  N  N523  1  0.910760  0.695210  0.722330  1.0  -0.3195
  N  N524  1  0.072280  0.508130  0.065370  1.0  -0.3156
  N  N525  1  0.074420  0.412940  0.151840  1.0  -0.385
  N  N526  1  0.027120  0.304790  0.215550  1.0  -0.3205
  N  N527  1  0.508130  0.065370  0.072280  1.0  -0.3158
  N  N528  1  0.412940  0.151840  0.074420  1.0  -0.3856
  N  N529  1  0.304790  0.215550  0.027120  1.0  -0.319
  N  N530  1  0.491870  0.564150  0.557240  1.0  -0.3147
  N  N531  1  0.587060  0.661480  0.738900  1.0  -0.3848
  N  N532  1  0.695210  0.722330  0.910760  1.0  -0.3194
  N  N533  1  0.006910  0.934630  0.442760  1.0  -0.3146
  N  N534  1  0.922580  0.848160  0.261100  1.0  -0.3863
  N  N535  1  0.811570  0.784450  0.089240  1.0  -0.3214
  N  N536  1  0.993090  0.435850  0.927720  1.0  -0.3135
  N  N537  1  0.077420  0.338520  0.925580  1.0  -0.3872
  N  N538  1  0.188430  0.277670  0.972880  1.0  -0.3199
  N  N539  1  0.663900  0.000000  0.000000  1.0  0.6023
  N  N540  1  0.000000  0.663900  0.000000  1.0  0.6023
  N  N541  1  0.000000  0.000000  0.663900  1.0  0.6001
  N  N542  1  0.336100  0.336100  0.336100  1.0  0.6012
  N  N543  1  0.000000  0.336100  0.000000  1.0  0.6016
  N  N544  1  0.336100  0.000000  0.000000  1.0  0.602
  N  N545  1  0.000000  0.000000  0.336100  1.0  0.6017
  N  N546  1  0.663900  0.663900  0.663900  1.0  0.6019
  N  N547  1  0.808700  0.000000  0.191300  1.0  0.7512
  N  N548  1  0.808700  0.617400  0.808700  1.0  0.7506
  N  N549  1  0.191300  0.000000  0.808700  1.0  0.7521
  N  N550  1  0.191300  0.382600  0.191300  1.0  0.7508
  N  N551  1  0.808700  0.191300  0.000000  1.0  0.7515
  N  N552  1  0.191300  0.191300  0.382600  1.0  0.7523
  N  N553  1  0.191300  0.808700  0.000000  1.0  0.7515
  N  N554  1  0.808700  0.808700  0.617400  1.0  0.7505
  N  N555  1  0.617400  0.808700  0.808700  1.0  0.7506
  N  N556  1  0.000000  0.191300  0.808700  1.0  0.7515
  N  N557  1  0.382600  0.191300  0.191300  1.0  0.7524
  N  N558  1  0.000000  0.808700  0.191300  1.0  0.7512
  O  O559  1  0.265950  0.355600  0.499010  1.0  -0.4697
  O  O560  1  0.856590  0.766940  0.500990  1.0  -0.467
  O  O561  1  0.143410  0.644400  0.910350  1.0  -0.4696
  O  O562  1  0.734050  0.233060  0.089650  1.0  -0.4695
  O  O563  1  0.910350  0.143410  0.644400  1.0  -0.4715
  O  O564  1  0.089650  0.734050  0.233060  1.0  -0.4682
  O  O565  1  0.499010  0.265950  0.355600  1.0  -0.466
  O  O566  1  0.500990  0.856590  0.766940  1.0  -0.4701
  O  O567  1  0.766940  0.500990  0.856590  1.0  -0.4691
  O  O568  1  0.355600  0.499010  0.265950  1.0  -0.471
  O  O569  1  0.233060  0.089650  0.734050  1.0  -0.469
  O  O570  1  0.644400  0.910350  0.143410  1.0  -0.4677
  O  O571  1  0.644400  0.734050  0.500990  1.0  -0.4718
  O  O572  1  0.233060  0.143410  0.499010  1.0  -0.47
  O  O573  1  0.355600  0.856590  0.089650  1.0  -0.47
  O  O574  1  0.766940  0.265950  0.910350  1.0  -0.4695
  O  O575  1  0.856590  0.089650  0.355600  1.0  -0.47
  O  O576  1  0.265950  0.910350  0.766940  1.0  -0.4698
  O  O577  1  0.734050  0.500990  0.644400  1.0  -0.4688
  O  O578  1  0.143410  0.499010  0.233060  1.0  -0.4694
  O  O579  1  0.499010  0.233060  0.143410  1.0  -0.469
  O  O580  1  0.500990  0.644400  0.734050  1.0  -0.4721
  O  O581  1  0.910350  0.766940  0.265950  1.0  -0.4666
  O  O582  1  0.089650  0.355600  0.856590  1.0  -0.4723
  O  O583  1  0.688840  0.023370  0.053250  1.0  -0.5317
  O  O584  1  0.665470  0.029880  0.976630  1.0  -0.5359
  O  O585  1  0.635590  0.946750  0.970120  1.0  -0.5334
  O  O586  1  0.970120  0.635590  0.946750  1.0  -0.5354
  O  O587  1  0.053250  0.688840  0.023370  1.0  -0.5313
  O  O588  1  0.976630  0.665470  0.029880  1.0  -0.5326
  O  O589  1  0.029880  0.976630  0.665470  1.0  -0.532
  O  O590  1  0.946750  0.970120  0.635590  1.0  -0.5321
  O  O591  1  0.023370  0.053250  0.688840  1.0  -0.5305
  O  O592  1  0.311160  0.364410  0.334530  1.0  -0.532
  O  O593  1  0.334530  0.311160  0.364410  1.0  -0.5317
  O  O594  1  0.364410  0.334530  0.311160  1.0  -0.5345
  O  O595  1  0.976630  0.311160  0.946750  1.0  -0.5326
  O  O596  1  0.970120  0.334530  0.023370  1.0  -0.5353
  O  O597  1  0.053250  0.364410  0.029880  1.0  -0.5316
  O  O598  1  0.364410  0.029880  0.053250  1.0  -0.5376
  O  O599  1  0.311160  0.946750  0.976630  1.0  -0.5318
  O  O600  1  0.334530  0.023370  0.970120  1.0  -0.5325
  O  O601  1  0.023370  0.970120  0.334530  1.0  -0.5315
  O  O602  1  0.029880  0.053250  0.364410  1.0  -0.5302
  O  O603  1  0.946750  0.976630  0.311160  1.0  -0.5336
  O  O604  1  0.635590  0.688840  0.665470  1.0  -0.5322
  O  O605  1  0.688840  0.665470  0.635590  1.0  -0.533
  O  O606  1  0.665470  0.635590  0.688840  1.0  -0.5351
  O  O607  1  0.830100  0.965900  0.188000  1.0  -0.5173
  O  O608  1  0.812000  0.034100  0.169900  1.0  -0.5227
  O  O609  1  0.781200  0.000000  0.218800  1.0  -0.5259
  O  O610  1  0.777900  0.642100  0.812000  1.0  -0.517
  O  O611  1  0.864200  0.642100  0.830100  1.0  -0.517
  O  O612  1  0.781200  0.562400  0.781200  1.0  -0.5257
  O  O613  1  0.222100  0.034100  0.864200  1.0  -0.5226
  O  O614  1  0.135800  0.965900  0.777900  1.0  -0.5172
  O  O615  1  0.218800  0.000000  0.781200  1.0  -0.5279
  O  O616  1  0.169900  0.357900  0.135800  1.0  -0.5246
  O  O617  1  0.188000  0.357900  0.222100  1.0  -0.5214
  O  O618  1  0.218800  0.437600  0.218800  1.0  -0.5211
  O  O619  1  0.864200  0.222100  0.034100  1.0  -0.5174
  O  O620  1  0.777900  0.135800  0.965900  1.0  -0.5163
  O  O621  1  0.781200  0.218800  0.000000  1.0  -0.5217
  O  O622  1  0.135800  0.169900  0.357900  1.0  -0.5168
  O  O623  1  0.222100  0.188000  0.357900  1.0  -0.5193
  O  O624  1  0.218800  0.218800  0.437600  1.0  -0.5262
  O  O625  1  0.188000  0.830100  0.965900  1.0  -0.5236
  O  O626  1  0.169900  0.812000  0.034100  1.0  -0.5215
  O  O627  1  0.218800  0.781200  0.000000  1.0  -0.5229
  O  O628  1  0.812000  0.777900  0.642100  1.0  -0.5217
  O  O629  1  0.830100  0.864200  0.642100  1.0  -0.5191
  O  O630  1  0.781200  0.781200  0.562400  1.0  -0.5278
  O  O631  1  0.642100  0.812000  0.777900  1.0  -0.5236
  O  O632  1  0.642100  0.830100  0.864200  1.0  -0.5226
  O  O633  1  0.562400  0.781200  0.781200  1.0  -0.5216
  O  O634  1  0.965900  0.188000  0.830100  1.0  -0.52
  O  O635  1  0.034100  0.169900  0.812000  1.0  -0.5172
  O  O636  1  0.000000  0.218800  0.781200  1.0  -0.5276
  O  O637  1  0.357900  0.135800  0.169900  1.0  -0.5175
  O  O638  1  0.357900  0.222100  0.188000  1.0  -0.5164
  O  O639  1  0.437600  0.218800  0.218800  1.0  -0.522
  O  O640  1  0.034100  0.864200  0.222100  1.0  -0.5183
  O  O641  1  0.965900  0.777900  0.135800  1.0  -0.5225
  O  O642  1  0.000000  0.781200  0.218800  1.0  -0.526
