# generated using pymatgen
data_Fe2Cu3H96C132(N5O3)8
_symmetry_space_group_name_H-M   'P 1'
_cell_length_a   28.26450000
_cell_length_b   28.26450000
_cell_length_c   28.26450000
_cell_angle_alpha   109.47100000
_cell_angle_beta   109.47100000
_cell_angle_gamma   109.47100000
_symmetry_Int_Tables_number   1
_chemical_formula_structural   Fe2Cu3H96C132(N5O3)8
_chemical_formula_sum   'Fe4 Cu6 H192 C264 N80 O48'
_cell_volume   17382.23345097
_cell_formula_units_Z   2
loop_
 _symmetry_equiv_pos_site_id
 _symmetry_equiv_pos_as_xyz
  1  'x, y, z'
loop_
 _atom_site_type_symbol
 _atom_site_label
 _atom_site_symmetry_multiplicity
 _atom_site_fract_x
 _atom_site_fract_y
 _atom_site_fract_z
 _atom_site_occupancy
 _atom_site_charge
  Fe  Fe1  1  0.500000  0.000000  0.000000  1.0  0.5705
  Fe  Fe2  1  0.000000  0.500000  0.000000  1.0  0.5706
  Fe  Fe3  1  0.000000  0.000000  0.500000  1.0  0.5706
  Fe  Fe4  1  0.500000  0.500000  0.500000  1.0  0.5705
  Cu  Cu5  1  0.000000  0.242720  0.242720  1.0  0.3404
  Cu  Cu6  1  0.000000  0.757280  0.757280  1.0  0.3399
  Cu  Cu7  1  0.757280  0.000000  0.757280  1.0  0.3403
  Cu  Cu8  1  0.242720  0.000000  0.242720  1.0  0.3405
  Cu  Cu9  1  0.757280  0.757280  0.000000  1.0  0.3403
  Cu  Cu10  1  0.242720  0.242720  0.000000  1.0  0.3399
  H  H11  1  0.797800  0.087200  0.099800  1.0  0.1081
  H  H12  1  0.825400  0.165300  0.260900  1.0  0.1099
  H  H13  1  0.721000  0.060300  0.116500  1.0  0.2683
  H  H14  1  0.891700  0.146900  0.134000  1.0  0.0693
  H  H15  1  0.645800  0.996500  0.198900  1.0  0.1046
  H  H16  1  0.631300  0.053600  0.085300  1.0  0.0643
  H  H17  1  0.543600  0.927600  0.137600  1.0  0.118
  H  H18  1  0.920100  0.217800  0.290700  1.0  0.0804
  H  H19  1  0.987400  0.698000  0.900200  1.0  0.1108
  H  H20  1  0.904400  0.564500  0.739100  1.0  0.1095
  H  H21  1  0.943800  0.604500  0.883500  1.0  0.2675
  H  H22  1  0.012900  0.757700  0.866000  1.0  0.067
  H  H23  1  0.797600  0.446900  0.801100  1.0  0.1049
  H  H24  1  0.968300  0.546000  0.914700  1.0  0.0651
  H  H25  1  0.790000  0.406000  0.862400  1.0  0.1176
  H  H26  1  0.927100  0.629400  0.709300  1.0  0.0803
  H  H27  1  0.012600  0.912800  0.710600  1.0  0.1089
  H  H28  1  0.095600  0.834700  0.660100  1.0  0.108
  H  H29  1  0.056200  0.939700  0.660700  1.0  0.2689
  H  H30  1  0.987100  0.853100  0.744800  1.0  0.0704
  H  H31  1  0.202400  0.003500  0.649300  1.0  0.1063
  H  H32  1  0.031700  0.946400  0.577700  1.0  0.0639
  H  H33  1  0.210000  0.072400  0.616000  1.0  0.1166
  H  H34  1  0.072900  0.782200  0.702300  1.0  0.0799
  H  H35  1  0.202200  0.302000  0.289400  1.0  0.1119
  H  H36  1  0.174600  0.435500  0.339900  1.0  0.1082
  H  H37  1  0.279000  0.395500  0.339300  1.0  0.2679
  H  H38  1  0.108300  0.242300  0.255200  1.0  0.0636
  H  H39  1  0.354200  0.553100  0.350700  1.0  0.105
  H  H40  1  0.368700  0.454000  0.422300  1.0  0.0655
  H  H41  1  0.456400  0.594000  0.384000  1.0  0.1178
  H  H42  1  0.079900  0.370600  0.297700  1.0  0.0812
  H  H43  1  0.710600  0.012600  0.912800  1.0  0.1077
  H  H44  1  0.660100  0.095600  0.834700  1.0  0.108
  H  H45  1  0.660700  0.056200  0.939700  1.0  0.2689
  H  H46  1  0.744800  0.987100  0.853100  1.0  0.07
  H  H47  1  0.649300  0.202400  0.003500  1.0  0.1043
  H  H48  1  0.577700  0.031700  0.946400  1.0  0.0653
  H  H49  1  0.616000  0.210000  0.072400  1.0  0.1191
  H  H50  1  0.702300  0.072900  0.782200  1.0  0.0798
  H  H51  1  0.289400  0.202200  0.302000  1.0  0.1113
  H  H52  1  0.339900  0.174600  0.435500  1.0  0.1098
  H  H53  1  0.339300  0.279000  0.395500  1.0  0.2681
  H  H54  1  0.255200  0.108300  0.242300  1.0  0.0644
  H  H55  1  0.350700  0.354200  0.553100  1.0  0.1044
  H  H56  1  0.422300  0.368700  0.454000  1.0  0.0647
  H  H57  1  0.384000  0.456400  0.594000  1.0  0.1191
  H  H58  1  0.297700  0.079900  0.370600  1.0  0.0808
  H  H59  1  0.099800  0.797800  0.087200  1.0  0.109
  H  H60  1  0.260900  0.825400  0.165300  1.0  0.1082
  H  H61  1  0.116500  0.721000  0.060300  1.0  0.2681
  H  H62  1  0.134000  0.891700  0.146900  1.0  0.0704
  H  H63  1  0.198900  0.645800  0.996500  1.0  0.1052
  H  H64  1  0.085300  0.631300  0.053600  1.0  0.0644
  H  H65  1  0.137600  0.543600  0.927600  1.0  0.1179
  H  H66  1  0.290700  0.920100  0.217800  1.0  0.0806
  H  H67  1  0.900200  0.987400  0.698000  1.0  0.1121
  H  H68  1  0.739100  0.904400  0.564500  1.0  0.1078
  H  H69  1  0.883500  0.943800  0.604500  1.0  0.2695
  H  H70  1  0.866000  0.012900  0.757700  1.0  0.069
  H  H71  1  0.801100  0.797600  0.446900  1.0  0.1055
  H  H72  1  0.914700  0.968300  0.546000  1.0  0.0659
  H  H73  1  0.862400  0.790000  0.406000  1.0  0.1171
  H  H74  1  0.709300  0.927100  0.629400  1.0  0.0807
  H  H75  1  0.698000  0.900200  0.987400  1.0  0.1102
  H  H76  1  0.564500  0.739100  0.904400  1.0  0.1084
  H  H77  1  0.604500  0.883500  0.943800  1.0  0.267
  H  H78  1  0.757700  0.866000  0.012900  1.0  0.0683
  H  H79  1  0.446900  0.801100  0.797600  1.0  0.1051
  H  H80  1  0.546000  0.914700  0.968300  1.0  0.0632
  H  H81  1  0.406000  0.862400  0.790000  1.0  0.1179
  H  H82  1  0.629400  0.709300  0.927100  1.0  0.0792
  H  H83  1  0.087200  0.099800  0.797800  1.0  0.109
  H  H84  1  0.165300  0.260900  0.825400  1.0  0.1093
  H  H85  1  0.060300  0.116500  0.721000  1.0  0.2677
  H  H86  1  0.146900  0.134000  0.891700  1.0  0.0695
  H  H87  1  0.996500  0.198900  0.645800  1.0  0.1064
  H  H88  1  0.053600  0.085300  0.631300  1.0  0.064
  H  H89  1  0.927600  0.137600  0.543600  1.0  0.1178
  H  H90  1  0.217800  0.290700  0.920100  1.0  0.0794
  H  H91  1  0.302000  0.289400  0.202200  1.0  0.1109
  H  H92  1  0.435500  0.339900  0.174600  1.0  0.1089
  H  H93  1  0.395500  0.339300  0.279000  1.0  0.2684
  H  H94  1  0.242300  0.255200  0.108300  1.0  0.066
  H  H95  1  0.553100  0.350700  0.354200  1.0  0.1053
  H  H96  1  0.454000  0.422300  0.368700  1.0  0.0656
  H  H97  1  0.594000  0.384000  0.456400  1.0  0.1159
  H  H98  1  0.370600  0.297700  0.079900  1.0  0.0807
  H  H99  1  0.912800  0.710600  0.012600  1.0  0.1086
  H  H100  1  0.834700  0.660100  0.095600  1.0  0.1094
  H  H101  1  0.939700  0.660700  0.056200  1.0  0.2676
  H  H102  1  0.853100  0.744800  0.987100  1.0  0.0689
  H  H103  1  0.003500  0.649300  0.202400  1.0  0.1036
  H  H104  1  0.946400  0.577700  0.031700  1.0  0.0655
  H  H105  1  0.072400  0.616000  0.210000  1.0  0.1184
  H  H106  1  0.782200  0.702300  0.072900  1.0  0.0802
  H  H107  1  0.912800  0.202200  0.900200  1.0  0.1084
  H  H108  1  0.834700  0.174600  0.739100  1.0  0.1089
  H  H109  1  0.939700  0.279000  0.883500  1.0  0.2674
  H  H110  1  0.853100  0.108300  0.866000  1.0  0.0682
  H  H111  1  0.003500  0.354200  0.801100  1.0  0.1046
  H  H112  1  0.946400  0.368700  0.914700  1.0  0.0646
  H  H113  1  0.072400  0.456400  0.862400  1.0  0.1188
  H  H114  1  0.782200  0.079900  0.709300  1.0  0.0785
  H  H115  1  0.302000  0.012600  0.099800  1.0  0.1103
  H  H116  1  0.435500  0.095600  0.260900  1.0  0.1086
  H  H117  1  0.395500  0.056200  0.116500  1.0  0.2694
  H  H118  1  0.242300  0.987100  0.134000  1.0  0.0688
  H  H119  1  0.553100  0.202400  0.198900  1.0  0.1045
  H  H120  1  0.454000  0.031700  0.085300  1.0  0.066
  H  H121  1  0.594000  0.210000  0.137600  1.0  0.119
  H  H122  1  0.370600  0.072900  0.290700  1.0  0.0806
  H  H123  1  0.087200  0.987400  0.289400  1.0  0.112
  H  H124  1  0.165300  0.904400  0.339900  1.0  0.1083
  H  H125  1  0.060300  0.943800  0.339300  1.0  0.2697
  H  H126  1  0.146900  0.012900  0.255200  1.0  0.0699
  H  H127  1  0.996500  0.797600  0.350700  1.0  0.1058
  H  H128  1  0.053600  0.968300  0.422300  1.0  0.0659
  H  H129  1  0.927600  0.790000  0.384000  1.0  0.1171
  H  H130  1  0.217800  0.927100  0.297700  1.0  0.0797
  H  H131  1  0.698000  0.797800  0.710600  1.0  0.1124
  H  H132  1  0.564500  0.825400  0.660100  1.0  0.1072
  H  H133  1  0.604500  0.721000  0.660700  1.0  0.2675
  H  H134  1  0.757700  0.891700  0.744800  1.0  0.0645
  H  H135  1  0.446900  0.645800  0.649300  1.0  0.1053
  H  H136  1  0.546000  0.631300  0.577700  1.0  0.0643
  H  H137  1  0.406000  0.543600  0.616000  1.0  0.1183
  H  H138  1  0.629400  0.920100  0.702300  1.0  0.0813
  H  H139  1  0.987400  0.289400  0.087200  1.0  0.1082
  H  H140  1  0.904400  0.339900  0.165300  1.0  0.108
  H  H141  1  0.943800  0.339300  0.060300  1.0  0.2679
  H  H142  1  0.012900  0.255200  0.146900  1.0  0.0696
  H  H143  1  0.797600  0.350700  0.996500  1.0  0.1053
  H  H144  1  0.968300  0.422300  0.053600  1.0  0.0659
  H  H145  1  0.790000  0.384000  0.927600  1.0  0.1166
  H  H146  1  0.927100  0.297700  0.217800  1.0  0.0802
  H  H147  1  0.797800  0.710600  0.698000  1.0  0.1122
  H  H148  1  0.825400  0.660100  0.564500  1.0  0.1082
  H  H149  1  0.721000  0.660700  0.604500  1.0  0.2677
  H  H150  1  0.891700  0.744800  0.757700  1.0  0.0637
  H  H151  1  0.645800  0.649300  0.446900  1.0  0.1046
  H  H152  1  0.631300  0.577700  0.546000  1.0  0.0648
  H  H153  1  0.543600  0.616000  0.406000  1.0  0.118
  H  H154  1  0.920100  0.702300  0.629400  1.0  0.0797
  H  H155  1  0.202200  0.900200  0.912800  1.0  0.1076
  H  H156  1  0.174600  0.739100  0.834700  1.0  0.1089
  H  H157  1  0.279000  0.883500  0.939700  1.0  0.2667
  H  H158  1  0.108300  0.866000  0.853100  1.0  0.0687
  H  H159  1  0.354200  0.801100  0.003500  1.0  0.105
  H  H160  1  0.368700  0.914700  0.946400  1.0  0.0632
  H  H161  1  0.456400  0.862400  0.072400  1.0  0.1183
  H  H162  1  0.079900  0.709300  0.782200  1.0  0.0783
  H  H163  1  0.012600  0.099800  0.302000  1.0  0.1117
  H  H164  1  0.095600  0.260900  0.435500  1.0  0.1096
  H  H165  1  0.056200  0.116500  0.395500  1.0  0.2673
  H  H166  1  0.987100  0.134000  0.242300  1.0  0.0675
  H  H167  1  0.202400  0.198900  0.553100  1.0  0.1063
  H  H168  1  0.031700  0.085300  0.454000  1.0  0.064
  H  H169  1  0.210000  0.137600  0.594000  1.0  0.1167
  H  H170  1  0.072900  0.290700  0.370600  1.0  0.0797
  H  H171  1  0.099800  0.302000  0.012600  1.0  0.1118
  H  H172  1  0.260900  0.435500  0.095600  1.0  0.1087
  H  H173  1  0.116500  0.395500  0.056200  1.0  0.2687
  H  H174  1  0.134000  0.242300  0.987100  1.0  0.0663
  H  H175  1  0.198900  0.553100  0.202400  1.0  0.1045
  H  H176  1  0.085300  0.454000  0.031700  1.0  0.0662
  H  H177  1  0.137600  0.594000  0.210000  1.0  0.1183
  H  H178  1  0.290700  0.370600  0.072900  1.0  0.08
  H  H179  1  0.900200  0.912800  0.202200  1.0  0.1085
  H  H180  1  0.739100  0.834700  0.174600  1.0  0.1079
  H  H181  1  0.883500  0.939700  0.279000  1.0  0.2679
  H  H182  1  0.866000  0.853100  0.108300  1.0  0.0694
  H  H183  1  0.801100  0.003500  0.354200  1.0  0.1076
  H  H184  1  0.914700  0.946400  0.368700  1.0  0.0639
  H  H185  1  0.862400  0.072400  0.456400  1.0  0.1169
  H  H186  1  0.709300  0.782200  0.079900  1.0  0.0801
  H  H187  1  0.710600  0.698000  0.797800  1.0  0.112
  H  H188  1  0.660100  0.564500  0.825400  1.0  0.1092
  H  H189  1  0.660700  0.604500  0.721000  1.0  0.2683
  H  H190  1  0.744800  0.757700  0.891700  1.0  0.0623
  H  H191  1  0.649300  0.446900  0.645800  1.0  0.1051
  H  H192  1  0.577700  0.546000  0.631300  1.0  0.0659
  H  H193  1  0.616000  0.406000  0.543600  1.0  0.1175
  H  H194  1  0.702300  0.629400  0.920100  1.0  0.0806
  H  H195  1  0.289400  0.087200  0.987400  1.0  0.1082
  H  H196  1  0.339900  0.165300  0.904400  1.0  0.1091
  H  H197  1  0.339300  0.060300  0.943800  1.0  0.268
  H  H198  1  0.255200  0.146900  0.012900  1.0  0.0692
  H  H199  1  0.350700  0.996500  0.797600  1.0  0.1054
  H  H200  1  0.422300  0.053600  0.968300  1.0  0.0639
  H  H201  1  0.384000  0.927600  0.790000  1.0  0.1166
  H  H202  1  0.297700  0.217800  0.927100  1.0  0.0795
  C  C203  1  0.821700  0.114340  0.139160  1.0  -0.2635
  C  C204  1  0.838120  0.159650  0.234150  1.0  -0.24
  C  C205  1  0.532190  0.956630  0.080260  1.0  0.1485
  C  C206  1  0.799260  0.117580  0.176060  1.0  0.2838
  C  C207  1  0.878130  0.150350  0.160100  1.0  0.1516
  C  C208  1  0.624010  0.994830  0.164800  1.0  -0.1069
  C  C209  1  0.649580  0.031190  0.146650  1.0  -0.0324
  C  C210  1  0.613970  0.029060  0.097050  1.0  0.176
  C  C211  1  0.713290  0.072130  0.182040  1.0  0.5883
  C  C212  1  0.562370  0.954320  0.128610  1.0  -0.1223
  C  C213  1  0.894290  0.192200  0.251290  1.0  0.1438
  C  C214  1  0.975180  0.682540  0.860840  1.0  -0.2623
  C  C215  1  0.925500  0.603970  0.765850  1.0  -0.2372
  C  C216  1  0.876370  0.451930  0.919740  1.0  0.1433
  C  C217  1  0.941520  0.623200  0.823940  1.0  0.2827
  C  C218  1  0.990250  0.718030  0.839900  1.0  0.1526
  C  C219  1  0.830030  0.459210  0.835200  1.0  -0.1065
  C  C220  1  0.884540  0.502930  0.853350  1.0  -0.0392
  C  C221  1  0.932010  0.516920  0.902950  1.0  0.1736
  C  C222  1  0.890090  0.531250  0.817960  1.0  0.5852
  C  C223  1  0.825710  0.433760  0.871390  1.0  -0.1188
  C  C224  1  0.940910  0.643000  0.748710  1.0  0.1492
  C  C225  1  0.024820  0.885660  0.707360  1.0  -0.2663
  C  C226  1  0.074500  0.840350  0.678470  1.0  -0.2359
  C  C227  1  0.123630  0.043370  0.575560  1.0  0.1463
  C  C228  1  0.058480  0.882420  0.681680  1.0  0.2822
  C  C229  1  0.009750  0.849650  0.727780  1.0  0.1541
  C  C230  1  0.169970  0.005170  0.629180  1.0  -0.0978
  C  C231  1  0.115460  0.968810  0.618390  1.0  -0.0394
  C  C232  1  0.067990  0.970940  0.584910  1.0  0.1749
  C  C233  1  0.109910  0.927870  0.641160  1.0  0.5862
  C  C234  1  0.174290  0.045680  0.608050  1.0  -0.115
  C  C235  1  0.059090  0.807800  0.702090  1.0  0.1482
  C  C236  1  0.178300  0.317460  0.292640  1.0  -0.2623
  C  C237  1  0.161880  0.396030  0.321530  1.0  -0.2363
  C  C238  1  0.467810  0.548070  0.424440  1.0  0.1471
  C  C239  1  0.200740  0.376800  0.318320  1.0  0.2824
  C  C240  1  0.121870  0.281970  0.272220  1.0  0.1511
  C  C241  1  0.375990  0.540790  0.370820  1.0  -0.1067
  C  C242  1  0.350420  0.497070  0.381610  1.0  -0.0359
  C  C243  1  0.386030  0.483080  0.415090  1.0  0.1754
  C  C244  1  0.286710  0.468750  0.358840  1.0  0.5857
  C  C245  1  0.437630  0.566240  0.391950  1.0  -0.1175
  C  C246  1  0.105710  0.357000  0.297910  1.0  0.1451
  C  C247  1  0.707360  0.024820  0.885660  1.0  -0.2619
  C  C248  1  0.678470  0.074500  0.840350  1.0  -0.2389
  C  C249  1  0.575560  0.123630  0.043370  1.0  0.143
  C  C250  1  0.681680  0.058480  0.882420  1.0  0.2825
  C  C251  1  0.727780  0.009750  0.849650  1.0  0.1509
  C  C252  1  0.629180  0.169970  0.005170  1.0  -0.1009
  C  C253  1  0.618390  0.115460  0.968810  1.0  -0.0374
  C  C254  1  0.584910  0.067990  0.970940  1.0  0.1763
  C  C255  1  0.641160  0.109910  0.927870  1.0  0.5857
  C  C256  1  0.608050  0.174290  0.045680  1.0  -0.1139
  C  C257  1  0.702090  0.059090  0.807800  1.0  0.1511
  C  C258  1  0.292640  0.178300  0.317460  1.0  -0.2633
  C  C259  1  0.321530  0.161880  0.396030  1.0  -0.2398
  C  C260  1  0.424440  0.467810  0.548070  1.0  0.1479
  C  C261  1  0.318320  0.200740  0.376800  1.0  0.2835
  C  C262  1  0.272220  0.121870  0.281970  1.0  0.1529
  C  C263  1  0.370820  0.375990  0.540790  1.0  -0.1096
  C  C264  1  0.381610  0.350420  0.497070  1.0  -0.0309
  C  C265  1  0.415090  0.386030  0.483080  1.0  0.1744
  C  C266  1  0.358840  0.286710  0.468750  1.0  0.589
  C  C267  1  0.391950  0.437630  0.566240  1.0  -0.1221
  C  C268  1  0.297910  0.105710  0.357000  1.0  0.1453
  C  C269  1  0.139160  0.821700  0.114340  1.0  -0.2632
  C  C270  1  0.234150  0.838120  0.159650  1.0  -0.235
  C  C271  1  0.080260  0.532190  0.956630  1.0  0.1461
  C  C272  1  0.176060  0.799260  0.117580  1.0  0.282
  C  C273  1  0.160100  0.878130  0.150350  1.0  0.1505
  C  C274  1  0.164800  0.624010  0.994830  1.0  -0.104
  C  C275  1  0.146650  0.649580  0.031190  1.0  -0.0379
  C  C276  1  0.097050  0.613970  0.029060  1.0  0.1746
  C  C277  1  0.182040  0.713290  0.072130  1.0  0.5862
  C  C278  1  0.128610  0.562370  0.954320  1.0  -0.1181
  C  C279  1  0.251290  0.894290  0.192200  1.0  0.1477
  C  C280  1  0.860840  0.975180  0.682540  1.0  -0.2622
  C  C281  1  0.765850  0.925500  0.603970  1.0  -0.2362
  C  C282  1  0.919740  0.876370  0.451930  1.0  0.1439
  C  C283  1  0.823940  0.941520  0.623200  1.0  0.2824
  C  C284  1  0.839900  0.990250  0.718030  1.0  0.1534
  C  C285  1  0.835200  0.830030  0.459210  1.0  -0.1039
  C  C286  1  0.853350  0.884540  0.502930  1.0  -0.0366
  C  C287  1  0.902950  0.932010  0.516920  1.0  0.1732
  C  C288  1  0.817960  0.890090  0.531250  1.0  0.5868
  C  C289  1  0.871390  0.825710  0.433760  1.0  -0.1162
  C  C290  1  0.748710  0.940910  0.643000  1.0  0.1478
  C  C291  1  0.682540  0.860840  0.975180  1.0  -0.2609
  C  C292  1  0.603970  0.765850  0.925500  1.0  -0.2391
  C  C293  1  0.451930  0.919740  0.876370  1.0  0.1456
  C  C294  1  0.623200  0.823940  0.941520  1.0  0.2829
  C  C295  1  0.718030  0.839900  0.990250  1.0  0.1514
  C  C296  1  0.459210  0.835200  0.830030  1.0  -0.1051
  C  C297  1  0.502930  0.853350  0.884540  1.0  -0.035
  C  C298  1  0.516920  0.902950  0.932010  1.0  0.1755
  C  C299  1  0.531250  0.817960  0.890090  1.0  0.5827
  C  C300  1  0.433760  0.871390  0.825710  1.0  -0.1178
  C  C301  1  0.643000  0.748710  0.940910  1.0  0.1467
  C  C302  1  0.114340  0.139160  0.821700  1.0  -0.2643
  C  C303  1  0.159650  0.234150  0.838120  1.0  -0.2387
  C  C304  1  0.956630  0.080260  0.532190  1.0  0.1443
  C  C305  1  0.117580  0.176060  0.799260  1.0  0.2826
  C  C306  1  0.150350  0.160100  0.878130  1.0  0.1524
  C  C307  1  0.994830  0.164800  0.624010  1.0  -0.1026
  C  C308  1  0.031190  0.146650  0.649580  1.0  -0.0357
  C  C309  1  0.029060  0.097050  0.613970  1.0  0.1737
  C  C310  1  0.072130  0.182040  0.713290  1.0  0.5818
  C  C311  1  0.954320  0.128610  0.562370  1.0  -0.1194
  C  C312  1  0.192200  0.251290  0.894290  1.0  0.1494
  C  C313  1  0.317460  0.292640  0.178300  1.0  -0.2621
  C  C314  1  0.396030  0.321530  0.161880  1.0  -0.2378
  C  C315  1  0.548070  0.424440  0.467810  1.0  0.1461
  C  C316  1  0.376800  0.318320  0.200740  1.0  0.2824
  C  C317  1  0.281970  0.272220  0.121870  1.0  0.1505
  C  C318  1  0.540790  0.370820  0.375990  1.0  -0.1026
  C  C319  1  0.497070  0.381610  0.350420  1.0  -0.0399
  C  C320  1  0.483080  0.415090  0.386030  1.0  0.1747
  C  C321  1  0.468750  0.358840  0.286710  1.0  0.5884
  C  C322  1  0.566240  0.391950  0.437630  1.0  -0.1152
  C  C323  1  0.357000  0.297910  0.105710  1.0  0.149
  C  C324  1  0.885660  0.707360  0.024820  1.0  -0.2607
  C  C325  1  0.840350  0.678470  0.074500  1.0  -0.2379
  C  C326  1  0.043370  0.575560  0.123630  1.0  0.1471
  C  C327  1  0.882420  0.681680  0.058480  1.0  0.2836
  C  C328  1  0.849650  0.727780  0.009750  1.0  0.15
  C  C329  1  0.005170  0.629180  0.169970  1.0  -0.1097
  C  C330  1  0.968810  0.618390  0.115460  1.0  -0.0319
  C  C331  1  0.970940  0.584910  0.067990  1.0  0.1762
  C  C332  1  0.927870  0.641160  0.109910  1.0  0.5859
  C  C333  1  0.045680  0.608050  0.174290  1.0  -0.1217
  C  C334  1  0.807800  0.702090  0.059090  1.0  0.147
  C  C335  1  0.885660  0.178300  0.860840  1.0  -0.2612
  C  C336  1  0.840350  0.161880  0.765850  1.0  -0.2383
  C  C337  1  0.043370  0.467810  0.919740  1.0  0.1453
  C  C338  1  0.882420  0.200740  0.823940  1.0  0.2827
  C  C339  1  0.849650  0.121870  0.839900  1.0  0.1518
  C  C340  1  0.005170  0.375990  0.835200  1.0  -0.1092
  C  C341  1  0.968810  0.350420  0.853350  1.0  -0.033
  C  C342  1  0.970940  0.386030  0.902950  1.0  0.176
  C  C343  1  0.927870  0.286710  0.817960  1.0  0.5894
  C  C344  1  0.045680  0.437630  0.871390  1.0  -0.1199
  C  C345  1  0.807800  0.105710  0.748710  1.0  0.1465
  C  C346  1  0.317460  0.024820  0.139160  1.0  -0.2642
  C  C347  1  0.396030  0.074500  0.234150  1.0  -0.2381
  C  C348  1  0.548070  0.123630  0.080260  1.0  0.1428
  C  C349  1  0.376800  0.058480  0.176060  1.0  0.2827
  C  C350  1  0.281970  0.009750  0.160100  1.0  0.1517
  C  C351  1  0.540790  0.169970  0.164800  1.0  -0.1008
  C  C352  1  0.497070  0.115460  0.146650  1.0  -0.0348
  C  C353  1  0.483080  0.067990  0.097050  1.0  0.1753
  C  C354  1  0.468750  0.109910  0.182040  1.0  0.5854
  C  C355  1  0.566240  0.174290  0.128610  1.0  -0.1127
  C  C356  1  0.357000  0.059090  0.251290  1.0  0.1507
  C  C357  1  0.114340  0.975180  0.292640  1.0  -0.2654
  C  C358  1  0.159650  0.925500  0.321530  1.0  -0.2363
  C  C359  1  0.956630  0.876370  0.424440  1.0  0.144
  C  C360  1  0.117580  0.941520  0.318320  1.0  0.2825
  C  C361  1  0.150350  0.990250  0.272220  1.0  0.1533
  C  C362  1  0.994830  0.830030  0.370820  1.0  -0.103
  C  C363  1  0.031190  0.884540  0.381610  1.0  -0.0377
  C  C364  1  0.029060  0.932010  0.415090  1.0  0.1737
  C  C365  1  0.072130  0.890090  0.358840  1.0  0.5867
  C  C366  1  0.954320  0.825710  0.391950  1.0  -0.1178
  C  C367  1  0.192200  0.940910  0.297910  1.0  0.1476
  C  C368  1  0.682540  0.821700  0.707360  1.0  -0.262
  C  C369  1  0.603970  0.838120  0.678470  1.0  -0.2362
  C  C370  1  0.451930  0.532190  0.575560  1.0  0.145
  C  C371  1  0.623200  0.799260  0.681680  1.0  0.2822
  C  C372  1  0.718030  0.878130  0.727780  1.0  0.1508
  C  C373  1  0.459210  0.624010  0.629180  1.0  -0.1072
  C  C374  1  0.502930  0.649580  0.618390  1.0  -0.0356
  C  C375  1  0.516920  0.613970  0.584910  1.0  0.1744
  C  C376  1  0.531250  0.713290  0.641160  1.0  0.5859
  C  C377  1  0.433760  0.562370  0.608050  1.0  -0.1209
  C  C378  1  0.643000  0.894290  0.702090  1.0  0.1473
  C  C379  1  0.975180  0.292640  0.114340  1.0  -0.2624
  C  C380  1  0.925500  0.321530  0.159650  1.0  -0.2398
  C  C381  1  0.876370  0.424440  0.956630  1.0  0.1425
  C  C382  1  0.941520  0.318320  0.117580  1.0  0.2828
  C  C383  1  0.990250  0.272220  0.150350  1.0  0.1498
  C  C384  1  0.830030  0.370820  0.994830  1.0  -0.1041
  C  C385  1  0.884540  0.381610  0.031190  1.0  -0.0373
  C  C386  1  0.932010  0.415090  0.029060  1.0  0.1742
  C  C387  1  0.890090  0.358840  0.072130  1.0  0.587
  C  C388  1  0.825710  0.391950  0.954320  1.0  -0.1161
  C  C389  1  0.940910  0.297910  0.192200  1.0  0.1504
  C  C390  1  0.821700  0.707360  0.682540  1.0  -0.2624
  C  C391  1  0.838120  0.678470  0.603970  1.0  -0.238
  C  C392  1  0.532190  0.575560  0.451930  1.0  0.145
  C  C393  1  0.799260  0.681680  0.623200  1.0  0.2826
  C  C394  1  0.878130  0.727780  0.718030  1.0  0.151
  C  C395  1  0.624010  0.629180  0.459210  1.0  -0.1101
  C  C396  1  0.649580  0.618390  0.502930  1.0  -0.0333
  C  C397  1  0.613970  0.584910  0.516920  1.0  0.178
  C  C398  1  0.713290  0.641160  0.531250  1.0  0.5869
  C  C399  1  0.562370  0.608050  0.433760  1.0  -0.1201
  C  C400  1  0.894290  0.702090  0.643000  1.0  0.1477
  C  C401  1  0.178300  0.860840  0.885660  1.0  -0.2608
  C  C402  1  0.161880  0.765850  0.840350  1.0  -0.2389
  C  C403  1  0.467810  0.919740  0.043370  1.0  0.1456
  C  C404  1  0.200740  0.823940  0.882420  1.0  0.2825
  C  C405  1  0.121870  0.839900  0.849650  1.0  0.152
  C  C406  1  0.375990  0.835200  0.005170  1.0  -0.1068
  C  C407  1  0.350420  0.853350  0.968810  1.0  -0.0326
  C  C408  1  0.386030  0.902950  0.970940  1.0  0.1754
  C  C409  1  0.286710  0.817960  0.927870  1.0  0.5834
  C  C410  1  0.437630  0.871390  0.045680  1.0  -0.1198
  C  C411  1  0.105710  0.748710  0.807800  1.0  0.1462
  C  C412  1  0.024820  0.139160  0.317460  1.0  -0.2627
  C  C413  1  0.074500  0.234150  0.396030  1.0  -0.2385
  C  C414  1  0.123630  0.080260  0.548070  1.0  0.1459
  C  C415  1  0.058480  0.176060  0.376800  1.0  0.2822
  C  C416  1  0.009750  0.160100  0.281970  1.0  0.1491
  C  C417  1  0.169970  0.164800  0.540790  1.0  -0.1008
  C  C418  1  0.115460  0.146650  0.497070  1.0  -0.036
  C  C419  1  0.067990  0.097050  0.483080  1.0  0.1743
  C  C420  1  0.109910  0.182040  0.468750  1.0  0.5814
  C  C421  1  0.174290  0.128610  0.566240  1.0  -0.1173
  C  C422  1  0.059090  0.251290  0.357000  1.0  0.1478
  C  C423  1  0.139160  0.317460  0.024820  1.0  -0.2647
  C  C424  1  0.234150  0.396030  0.074500  1.0  -0.2374
  C  C425  1  0.080260  0.548070  0.123630  1.0  0.1464
  C  C426  1  0.176060  0.376800  0.058480  1.0  0.2819
  C  C427  1  0.160100  0.281970  0.009750  1.0  0.152
  C  C428  1  0.164800  0.540790  0.169970  1.0  -0.101
  C  C429  1  0.146650  0.497070  0.115460  1.0  -0.0372
  C  C430  1  0.097050  0.483080  0.067990  1.0  0.1756
  C  C431  1  0.182040  0.468750  0.109910  1.0  0.5868
  C  C432  1  0.128610  0.566240  0.174290  1.0  -0.1192
  C  C433  1  0.251290  0.357000  0.059090  1.0  0.1454
  C  C434  1  0.860840  0.885660  0.178300  1.0  -0.263
  C  C435  1  0.765850  0.840350  0.161880  1.0  -0.2375
  C  C436  1  0.919740  0.043370  0.467810  1.0  0.1437
  C  C437  1  0.823940  0.882420  0.200740  1.0  0.2823
  C  C438  1  0.839900  0.849650  0.121870  1.0  0.152
  C  C439  1  0.835200  0.005170  0.375990  1.0  -0.101
  C  C440  1  0.853350  0.968810  0.350420  1.0  -0.0388
  C  C441  1  0.902950  0.970940  0.386030  1.0  0.1753
  C  C442  1  0.817960  0.927870  0.286710  1.0  0.5856
  C  C443  1  0.871390  0.045680  0.437630  1.0  -0.1165
  C  C444  1  0.748710  0.807800  0.105710  1.0  0.1481
  C  C445  1  0.707360  0.682540  0.821700  1.0  -0.2632
  C  C446  1  0.678470  0.603970  0.838120  1.0  -0.2373
  C  C447  1  0.575560  0.451930  0.532190  1.0  0.1465
  C  C448  1  0.681680  0.623200  0.799260  1.0  0.2827
  C  C449  1  0.727780  0.718030  0.878130  1.0  0.1538
  C  C450  1  0.629180  0.459210  0.624010  1.0  -0.1027
  C  C451  1  0.618390  0.502930  0.649580  1.0  -0.0367
  C  C452  1  0.584910  0.516920  0.613970  1.0  0.175
  C  C453  1  0.641160  0.531250  0.713290  1.0  0.5853
  C  C454  1  0.608050  0.433760  0.562370  1.0  -0.1177
  C  C455  1  0.702090  0.643000  0.894290  1.0  0.1501
  C  C456  1  0.292640  0.114340  0.975180  1.0  -0.2611
  C  C457  1  0.321530  0.159650  0.925500  1.0  -0.2388
  C  C458  1  0.424440  0.956630  0.876370  1.0  0.1457
  C  C459  1  0.318320  0.117580  0.941520  1.0  0.2828
  C  C460  1  0.272220  0.150350  0.990250  1.0  0.152
  C  C461  1  0.370820  0.994830  0.830030  1.0  -0.1076
  C  C462  1  0.381610  0.031190  0.884540  1.0  -0.0331
  C  C463  1  0.415090  0.029060  0.932010  1.0  0.1771
  C  C464  1  0.358840  0.072130  0.890090  1.0  0.5888
  C  C465  1  0.391950  0.954320  0.825710  1.0  -0.1187
  C  C466  1  0.297910  0.192200  0.940910  1.0  0.144
  N  N467  1  0.557710  0.994740  0.065870  1.0  -0.341
  N  N468  1  0.741500  0.080600  0.153660  1.0  -0.3607
  N  N469  1  0.915180  0.189730  0.214430  1.0  -0.3227
  N  N470  1  0.928870  0.491840  0.934130  1.0  -0.3398
  N  N471  1  0.926940  0.587840  0.846340  1.0  -0.3619
  N  N472  1  0.975300  0.700750  0.785570  1.0  -0.3246
  N  N473  1  0.071130  0.005260  0.562970  1.0  -0.3402
  N  N474  1  0.073060  0.919400  0.660900  1.0  -0.3593
  N  N475  1  0.024700  0.810270  0.725450  1.0  -0.3245
  N  N476  1  0.442290  0.508160  0.437030  1.0  -0.3409
  N  N477  1  0.258500  0.412160  0.339100  1.0  -0.3562
  N  N478  1  0.084820  0.299250  0.274550  1.0  -0.3247
  N  N479  1  0.562970  0.071130  0.005260  1.0  -0.3412
  N  N480  1  0.660900  0.073060  0.919400  1.0  -0.362
  N  N481  1  0.725450  0.024700  0.810270  1.0  -0.3239
  N  N482  1  0.437030  0.442290  0.508160  1.0  -0.3405
  N  N483  1  0.339100  0.258500  0.412160  1.0  -0.3597
  N  N484  1  0.274550  0.084820  0.299250  1.0  -0.3226
  N  N485  1  0.065870  0.557710  0.994740  1.0  -0.3405
  N  N486  1  0.153660  0.741500  0.080600  1.0  -0.3599
  N  N487  1  0.214430  0.915180  0.189730  1.0  -0.3232
  N  N488  1  0.934130  0.928870  0.491840  1.0  -0.3413
  N  N489  1  0.846340  0.926940  0.587840  1.0  -0.3583
  N  N490  1  0.785570  0.975300  0.700750  1.0  -0.3251
  N  N491  1  0.491840  0.934130  0.928870  1.0  -0.3412
  N  N492  1  0.587840  0.846340  0.926940  1.0  -0.3626
  N  N493  1  0.700750  0.785570  0.975300  1.0  -0.3236
  N  N494  1  0.994740  0.065870  0.557710  1.0  -0.3416
  N  N495  1  0.080600  0.153660  0.741500  1.0  -0.3622
  N  N496  1  0.189730  0.214430  0.915180  1.0  -0.3239
  N  N497  1  0.508160  0.437030  0.442290  1.0  -0.3396
  N  N498  1  0.412160  0.339100  0.258500  1.0  -0.3626
  N  N499  1  0.299250  0.274550  0.084820  1.0  -0.3249
  N  N500  1  0.005260  0.562970  0.071130  1.0  -0.3407
  N  N501  1  0.919400  0.660900  0.073060  1.0  -0.3595
  N  N502  1  0.810270  0.725450  0.024700  1.0  -0.3241
  N  N503  1  0.005260  0.442290  0.934130  1.0  -0.3401
  N  N504  1  0.919400  0.258500  0.846340  1.0  -0.3614
  N  N505  1  0.810270  0.084820  0.785570  1.0  -0.3227
  N  N506  1  0.508160  0.071130  0.065870  1.0  -0.342
  N  N507  1  0.412160  0.073060  0.153660  1.0  -0.3612
  N  N508  1  0.299250  0.024700  0.214430  1.0  -0.3243
  N  N509  1  0.994740  0.928870  0.437030  1.0  -0.3413
  N  N510  1  0.080600  0.926940  0.339100  1.0  -0.3604
  N  N511  1  0.189730  0.975300  0.274550  1.0  -0.3238
  N  N512  1  0.491840  0.557710  0.562970  1.0  -0.3405
  N  N513  1  0.587840  0.741500  0.660900  1.0  -0.358
  N  N514  1  0.700750  0.915180  0.725450  1.0  -0.3232
  N  N515  1  0.928870  0.437030  0.994740  1.0  -0.3399
  N  N516  1  0.926940  0.339100  0.080600  1.0  -0.36
  N  N517  1  0.975300  0.274550  0.189730  1.0  -0.3233
  N  N518  1  0.557710  0.562970  0.491840  1.0  -0.3409
  N  N519  1  0.741500  0.660900  0.587840  1.0  -0.3615
  N  N520  1  0.915180  0.725450  0.700750  1.0  -0.3234
  N  N521  1  0.442290  0.934130  0.005260  1.0  -0.3415
  N  N522  1  0.258500  0.846340  0.919400  1.0  -0.3625
  N  N523  1  0.084820  0.785570  0.810270  1.0  -0.3243
  N  N524  1  0.071130  0.065870  0.508160  1.0  -0.3409
  N  N525  1  0.073060  0.153660  0.412160  1.0  -0.362
  N  N526  1  0.024700  0.214430  0.299250  1.0  -0.3251
  N  N527  1  0.065870  0.508160  0.071130  1.0  -0.3406
  N  N528  1  0.153660  0.412160  0.073060  1.0  -0.359
  N  N529  1  0.214430  0.299250  0.024700  1.0  -0.3221
  N  N530  1  0.934130  0.005260  0.442290  1.0  -0.342
  N  N531  1  0.846340  0.919400  0.258500  1.0  -0.3567
  N  N532  1  0.785570  0.810270  0.084820  1.0  -0.3251
  N  N533  1  0.562970  0.491840  0.557710  1.0  -0.3406
  N  N534  1  0.660900  0.587840  0.741500  1.0  -0.3608
  N  N535  1  0.725450  0.700750  0.915180  1.0  -0.3249
  N  N536  1  0.437030  0.994740  0.928870  1.0  -0.3407
  N  N537  1  0.339100  0.080600  0.926940  1.0  -0.3611
  N  N538  1  0.274550  0.189730  0.975300  1.0  -0.3244
  N  N539  1  0.666667  0.000000  0.000000  1.0  0.6326
  N  N540  1  0.000000  0.666667  0.000000  1.0  0.6343
  N  N541  1  0.000000  0.000000  0.666667  1.0  0.6309
  N  N542  1  0.333333  0.333333  0.333333  1.0  0.6328
  N  N543  1  0.000000  0.333333  0.000000  1.0  0.633
  N  N544  1  0.333333  0.000000  0.000000  1.0  0.633
  N  N545  1  0.000000  0.000000  0.333333  1.0  0.6336
  N  N546  1  0.666667  0.666667  0.666667  1.0  0.6334
  O  O547  1  0.737330  0.093750  0.234620  1.0  -0.4595
  O  O548  1  0.859130  0.502710  0.765380  1.0  -0.4593
  O  O549  1  0.140870  0.906250  0.643580  1.0  -0.4593
  O  O550  1  0.262670  0.497290  0.356420  1.0  -0.4594
  O  O551  1  0.643580  0.140870  0.906250  1.0  -0.4601
  O  O552  1  0.356420  0.262670  0.497290  1.0  -0.4591
  O  O553  1  0.234620  0.737330  0.093750  1.0  -0.4554
  O  O554  1  0.765380  0.859130  0.502710  1.0  -0.4602
  O  O555  1  0.502710  0.765380  0.859130  1.0  -0.4613
  O  O556  1  0.093750  0.234620  0.737330  1.0  -0.4612
  O  O557  1  0.497290  0.356420  0.262670  1.0  -0.4582
  O  O558  1  0.906250  0.643580  0.140870  1.0  -0.4598
  O  O559  1  0.906250  0.262670  0.765380  1.0  -0.4577
  O  O560  1  0.497290  0.140870  0.234620  1.0  -0.4614
  O  O561  1  0.093750  0.859130  0.356420  1.0  -0.4601
  O  O562  1  0.502710  0.737330  0.643580  1.0  -0.4575
  O  O563  1  0.859130  0.356420  0.093750  1.0  -0.4592
  O  O564  1  0.737330  0.643580  0.502710  1.0  -0.4579
  O  O565  1  0.262670  0.765380  0.906250  1.0  -0.4612
  O  O566  1  0.140870  0.234620  0.497290  1.0  -0.4599
  O  O567  1  0.234620  0.497290  0.140870  1.0  -0.46
  O  O568  1  0.765380  0.906250  0.262670  1.0  -0.4569
  O  O569  1  0.643580  0.502710  0.737330  1.0  -0.4629
  O  O570  1  0.356420  0.093750  0.859130  1.0  -0.4569
  O  O571  1  0.667680  0.977220  0.031720  1.0  -0.5586
  O  O572  1  0.690460  0.054500  0.022780  1.0  -0.5594
  O  O573  1  0.635960  0.968280  0.945500  1.0  -0.5613
  O  O574  1  0.945500  0.635960  0.968280  1.0  -0.5535
  O  O575  1  0.031720  0.667680  0.977220  1.0  -0.5605
  O  O576  1  0.022780  0.690460  0.054500  1.0  -0.5591
  O  O577  1  0.054500  0.022780  0.690460  1.0  -0.5598
  O  O578  1  0.968280  0.945500  0.635960  1.0  -0.5581
  O  O579  1  0.977220  0.031720  0.667680  1.0  -0.5559
  O  O580  1  0.332320  0.364040  0.309540  1.0  -0.5589
  O  O581  1  0.309540  0.332320  0.364040  1.0  -0.5565
  O  O582  1  0.364040  0.309540  0.332320  1.0  -0.5572
  O  O583  1  0.022780  0.332320  0.968280  1.0  -0.5584
  O  O584  1  0.945500  0.309540  0.977220  1.0  -0.5534
  O  O585  1  0.031720  0.364040  0.054500  1.0  -0.5601
  O  O586  1  0.364040  0.054500  0.031720  1.0  -0.5614
  O  O587  1  0.332320  0.968280  0.022780  1.0  -0.5619
  O  O588  1  0.309540  0.977220  0.945500  1.0  -0.5569
  O  O589  1  0.977220  0.945500  0.309540  1.0  -0.559
  O  O590  1  0.054500  0.031720  0.364040  1.0  -0.5584
  O  O591  1  0.968280  0.022780  0.332320  1.0  -0.5563
  O  O592  1  0.635960  0.667680  0.690460  1.0  -0.5586
  O  O593  1  0.667680  0.690460  0.635960  1.0  -0.5579
  O  O594  1  0.690460  0.635960  0.667680  1.0  -0.5575
