# generated using pymatgen
data_NiH30(C2N)12
_symmetry_space_group_name_H-M   'P 1'
_cell_length_a   18.70730000
_cell_length_b   18.70730000
_cell_length_c   7.97970000
_cell_angle_alpha   90.00000000
_cell_angle_beta   90.00000000
_cell_angle_gamma   120.00000000
_symmetry_Int_Tables_number   1
_chemical_formula_structural   NiH30(C2N)12
_chemical_formula_sum   'Ni3 H90 C72 N36'
_cell_volume   2418.46283353
_cell_formula_units_Z   3
loop_
 _symmetry_equiv_pos_site_id
 _symmetry_equiv_pos_as_xyz
  1  'x, y, z'
loop_
 _atom_site_type_symbol
 _atom_site_label
 _atom_site_symmetry_multiplicity
 _atom_site_fract_x
 _atom_site_fract_y
 _atom_site_fract_z
 _atom_site_occupancy
 _atom_site_charge
  Ni  Ni1  1  0.000000  0.000000  0.000000  1.0  0.4696
  Ni  Ni2  1  0.666667  0.333333  0.333333  1.0  0.4757
  Ni  Ni3  1  0.333333  0.666667  0.666667  1.0  0.4761
  H  H4  1  0.940000  0.059000  0.341000  1.0  0.0825
  H  H5  1  0.011000  0.201000  0.458000  1.0  0.1037
  H  H6  1  0.130000  0.204000  0.042000  1.0  0.0792
  H  H7  1  0.110000  0.352000  0.263000  1.0  0.0778
  H  H8  1  0.174000  0.337000  0.155000  1.0  0.0782
  H  H9  1  0.606670  0.392330  0.674330  1.0  0.0825
  H  H10  1  0.677670  0.534330  0.791330  1.0  0.1037
  H  H11  1  0.796670  0.537330  0.375330  1.0  0.0792
  H  H12  1  0.776670  0.685330  0.596330  1.0  0.0778
  H  H13  1  0.840670  0.670330  0.488330  1.0  0.0782
  H  H14  1  0.273330  0.725670  0.007670  1.0  0.0825
  H  H15  1  0.344330  0.867670  0.124670  1.0  0.1037
  H  H16  1  0.463330  0.870670  0.708670  1.0  0.0791
  H  H17  1  0.443330  0.018670  0.929670  1.0  0.0779
  H  H18  1  0.507330  0.003670  0.821670  1.0  0.0782
  H  H19  1  0.941000  0.881000  0.341000  1.0  0.0828
  H  H20  1  0.799000  0.810000  0.458000  1.0  0.1041
  H  H21  1  0.796000  0.926000  0.042000  1.0  0.0791
  H  H22  1  0.648000  0.758000  0.263000  1.0  0.0829
  H  H23  1  0.663000  0.837000  0.155000  1.0  0.0785
  H  H24  1  0.607670  0.214330  0.674330  1.0  0.0828
  H  H25  1  0.465670  0.143330  0.791330  1.0  0.1042
  H  H26  1  0.462670  0.259330  0.375330  1.0  0.0791
  H  H27  1  0.314670  0.091330  0.596330  1.0  0.0829
  H  H28  1  0.329670  0.170330  0.488330  1.0  0.0785
  H  H29  1  0.274330  0.547670  0.007670  1.0  0.0828
  H  H30  1  0.132330  0.476670  0.124670  1.0  0.1041
  H  H31  1  0.129330  0.592670  0.708670  1.0  0.0791
  H  H32  1  0.981330  0.424670  0.929670  1.0  0.0828
  H  H33  1  0.996330  0.503670  0.821670  1.0  0.0785
  H  H34  1  0.119000  0.060000  0.341000  1.0  0.0822
  H  H35  1  0.190000  0.989000  0.458000  1.0  0.1032
  H  H36  1  0.074000  0.870000  0.042000  1.0  0.079
  H  H37  1  0.242000  0.890000  0.263000  1.0  0.082
  H  H38  1  0.163000  0.826000  0.155000  1.0  0.0787
  H  H39  1  0.785670  0.393330  0.674330  1.0  0.0823
  H  H40  1  0.856670  0.322330  0.791330  1.0  0.1031
  H  H41  1  0.740670  0.203330  0.375330  1.0  0.079
  H  H42  1  0.908670  0.223330  0.596330  1.0  0.0821
  H  H43  1  0.829670  0.159330  0.488330  1.0  0.0787
  H  H44  1  0.452330  0.726670  0.007670  1.0  0.0822
  H  H45  1  0.523330  0.655670  0.124670  1.0  0.1032
  H  H46  1  0.407330  0.536670  0.708670  1.0  0.079
  H  H47  1  0.575330  0.556670  0.929670  1.0  0.082
  H  H48  1  0.496330  0.492670  0.821670  1.0  0.0787
  H  H49  1  0.060000  0.941000  0.659000  1.0  0.0822
  H  H50  1  0.989000  0.799000  0.542000  1.0  0.1029
  H  H51  1  0.870000  0.796000  0.958000  1.0  0.0797
  H  H52  1  0.890000  0.648000  0.737000  1.0  0.0786
  H  H53  1  0.826000  0.663000  0.845000  1.0  0.0774
  H  H54  1  0.726670  0.274330  0.992330  1.0  0.0822
  H  H55  1  0.655670  0.132330  0.875330  1.0  0.1028
  H  H56  1  0.536670  0.129330  0.291330  1.0  0.0797
  H  H57  1  0.556670  0.981330  0.070330  1.0  0.0786
  H  H58  1  0.492670  0.996330  0.178330  1.0  0.0774
  H  H59  1  0.393330  0.607670  0.325670  1.0  0.0822
  H  H60  1  0.322330  0.465670  0.208670  1.0  0.1028
  H  H61  1  0.203330  0.462670  0.624670  1.0  0.0797
  H  H62  1  0.223330  0.314670  0.403670  1.0  0.0786
  H  H63  1  0.159330  0.329670  0.511670  1.0  0.0774
  H  H64  1  0.059000  0.119000  0.659000  1.0  0.0828
  H  H65  1  0.201000  0.190000  0.542000  1.0  0.1033
  H  H66  1  0.204000  0.074000  0.958000  1.0  0.0792
  H  H67  1  0.352000  0.242000  0.737000  1.0  0.0801
  H  H68  1  0.337000  0.163000  0.845000  1.0  0.0781
  H  H69  1  0.725670  0.452330  0.992330  1.0  0.0828
  H  H70  1  0.867670  0.523330  0.875330  1.0  0.1033
  H  H71  1  0.870670  0.407330  0.291330  1.0  0.0792
  H  H72  1  0.018670  0.575330  0.070330  1.0  0.08
  H  H73  1  0.003670  0.496330  0.178330  1.0  0.0781
  H  H74  1  0.392330  0.785670  0.325670  1.0  0.0828
  H  H75  1  0.534330  0.856670  0.208670  1.0  0.1034
  H  H76  1  0.537330  0.740670  0.624670  1.0  0.0792
  H  H77  1  0.685330  0.908670  0.403670  1.0  0.0801
  H  H78  1  0.670330  0.829670  0.511670  1.0  0.0781
  H  H79  1  0.881000  0.940000  0.659000  1.0  0.0853
  H  H80  1  0.810000  0.011000  0.542000  1.0  0.1033
  H  H81  1  0.926000  0.130000  0.958000  1.0  0.0799
  H  H82  1  0.758000  0.110000  0.737000  1.0  0.0792
  H  H83  1  0.837000  0.174000  0.845000  1.0  0.0777
  H  H84  1  0.547670  0.273330  0.992330  1.0  0.0853
  H  H85  1  0.476670  0.344330  0.875330  1.0  0.1033
  H  H86  1  0.592670  0.463330  0.291330  1.0  0.0799
  H  H87  1  0.424670  0.443330  0.070330  1.0  0.0792
  H  H88  1  0.503670  0.507330  0.178330  1.0  0.0777
  H  H89  1  0.214330  0.606670  0.325670  1.0  0.0853
  H  H90  1  0.143330  0.677670  0.208670  1.0  0.1032
  H  H91  1  0.259330  0.796670  0.624670  1.0  0.0799
  H  H92  1  0.091330  0.776670  0.403670  1.0  0.0793
  H  H93  1  0.170330  0.840670  0.511670  1.0  0.0777
  C  C94  1  0.987430  0.105510  0.294600  1.0  -0.0247
  C  C95  1  0.022790  0.183380  0.356200  1.0  -0.1635
  C  C96  1  0.087680  0.181390  0.130000  1.0  0.0969
  C  C97  1  0.138600  0.321510  0.257900  1.0  -0.0643
  C  C98  1  0.654100  0.438840  0.627930  1.0  -0.0247
  C  C99  1  0.689460  0.516710  0.689530  1.0  -0.1635
  C  C100  1  0.754350  0.514720  0.463330  1.0  0.0969
  C  C101  1  0.805270  0.654840  0.591230  1.0  -0.0643
  C  C102  1  0.320760  0.772180  0.961270  1.0  -0.0247
  C  C103  1  0.356120  0.850050  0.022870  1.0  -0.1635
  C  C104  1  0.421010  0.848060  0.796670  1.0  0.0969
  C  C105  1  0.471930  0.988180  0.924570  1.0  -0.0641
  C  C106  1  0.894490  0.881920  0.294600  1.0  -0.0229
  C  C107  1  0.816620  0.839410  0.356200  1.0  -0.1622
  C  C108  1  0.818610  0.906290  0.130000  1.0  0.0974
  C  C109  1  0.678490  0.817090  0.257900  1.0  -0.0649
  C  C110  1  0.561160  0.215250  0.627930  1.0  -0.0229
  C  C111  1  0.483290  0.172740  0.689530  1.0  -0.1622
  C  C112  1  0.485280  0.239620  0.463330  1.0  0.0974
  C  C113  1  0.345160  0.150420  0.591230  1.0  -0.0649
  C  C114  1  0.227820  0.548590  0.961270  1.0  -0.0229
  C  C115  1  0.149950  0.506080  0.022870  1.0  -0.1622
  C  C116  1  0.151940  0.572960  0.796670  1.0  0.0974
  C  C117  1  0.011820  0.483760  0.924570  1.0  -0.0649
  C  C118  1  0.118080  0.012570  0.294600  1.0  -0.024
  C  C119  1  0.160590  0.977210  0.356200  1.0  -0.164
  C  C120  1  0.093710  0.912320  0.130000  1.0  0.0988
  C  C121  1  0.182910  0.861400  0.257900  1.0  -0.0625
  C  C122  1  0.784750  0.345900  0.627930  1.0  -0.0239
  C  C123  1  0.827260  0.310540  0.689530  1.0  -0.1641
  C  C124  1  0.760380  0.245650  0.463330  1.0  0.0988
  C  C125  1  0.849580  0.194730  0.591230  1.0  -0.0625
  C  C126  1  0.451410  0.679240  0.961270  1.0  -0.0239
  C  C127  1  0.493920  0.643880  0.022870  1.0  -0.1641
  C  C128  1  0.427040  0.578990  0.796670  1.0  0.0988
  C  C129  1  0.516240  0.528070  0.924570  1.0  -0.0627
  C  C130  1  0.012570  0.894490  0.705400  1.0  -0.0236
  C  C131  1  0.977210  0.816620  0.643800  1.0  -0.1625
  C  C132  1  0.912320  0.818610  0.870000  1.0  0.0969
  C  C133  1  0.861400  0.678490  0.742100  1.0  -0.0652
  C  C134  1  0.679240  0.227820  0.038730  1.0  -0.0236
  C  C135  1  0.643880  0.149950  0.977130  1.0  -0.1625
  C  C136  1  0.578990  0.151940  0.203330  1.0  0.0969
  C  C137  1  0.528070  0.011820  0.075430  1.0  -0.065
  C  C138  1  0.345900  0.561160  0.372070  1.0  -0.0236
  C  C139  1  0.310540  0.483290  0.310470  1.0  -0.1625
  C  C140  1  0.245650  0.485280  0.536670  1.0  0.0969
  C  C141  1  0.194730  0.345160  0.408770  1.0  -0.0652
  C  C142  1  0.105510  0.118080  0.705400  1.0  -0.0225
  C  C143  1  0.183380  0.160590  0.643800  1.0  -0.1638
  C  C144  1  0.181390  0.093710  0.870000  1.0  0.0986
  C  C145  1  0.321510  0.182910  0.742100  1.0  -0.0664
  C  C146  1  0.772180  0.451410  0.038730  1.0  -0.0225
  C  C147  1  0.850050  0.493920  0.977130  1.0  -0.1638
  C  C148  1  0.848060  0.427040  0.203330  1.0  0.0986
  C  C149  1  0.988180  0.516240  0.075430  1.0  -0.0664
  C  C150  1  0.438840  0.784750  0.372070  1.0  -0.0225
  C  C151  1  0.516710  0.827260  0.310470  1.0  -0.1638
  C  C152  1  0.514720  0.760380  0.536670  1.0  0.0986
  C  C153  1  0.654840  0.849580  0.408770  1.0  -0.0664
  C  C154  1  0.881920  0.987430  0.705400  1.0  -0.0225
  C  C155  1  0.839410  0.022790  0.643800  1.0  -0.1637
  C  C156  1  0.906290  0.087680  0.870000  1.0  0.0981
  C  C157  1  0.817090  0.138600  0.742100  1.0  -0.0637
  C  C158  1  0.548590  0.320760  0.038730  1.0  -0.0225
  C  C159  1  0.506080  0.356120  0.977130  1.0  -0.1637
  C  C160  1  0.572960  0.421010  0.203330  1.0  0.0981
  C  C161  1  0.483760  0.471930  0.075430  1.0  -0.0638
  C  C162  1  0.215250  0.654100  0.372070  1.0  -0.0225
  C  C163  1  0.172740  0.689460  0.310470  1.0  -0.1637
  C  C164  1  0.239620  0.754350  0.536670  1.0  0.0981
  C  C165  1  0.150420  0.805270  0.408770  1.0  -0.0637
  N  N166  1  0.028680  0.104280  0.153100  1.0  -0.367
  N  N167  1  0.085660  0.231600  0.249100  1.0  0.0172
  N  N168  1  0.695350  0.437610  0.486430  1.0  -0.367
  N  N169  1  0.752330  0.564930  0.582430  1.0  0.0171
  N  N170  1  0.362010  0.770950  0.819770  1.0  -0.367
  N  N171  1  0.418990  0.898270  0.915770  1.0  0.0172
  N  N172  1  0.895720  0.924400  0.153100  1.0  -0.3669
  N  N173  1  0.768400  0.854060  0.249100  1.0  0.0162
  N  N174  1  0.562390  0.257730  0.486430  1.0  -0.3669
  N  N175  1  0.435070  0.187390  0.582430  1.0  0.0163
  N  N176  1  0.229050  0.591070  0.819770  1.0  -0.3669
  N  N177  1  0.101730  0.520730  0.915770  1.0  0.0163
  N  N178  1  0.075600  0.971320  0.153100  1.0  -0.3663
  N  N179  1  0.145940  0.914340  0.249100  1.0  0.019
  N  N180  1  0.742270  0.304650  0.486430  1.0  -0.3663
  N  N181  1  0.812610  0.247670  0.582430  1.0  0.019
  N  N182  1  0.408930  0.637990  0.819770  1.0  -0.3663
  N  N183  1  0.479270  0.581010  0.915770  1.0  0.019
  N  N184  1  0.971320  0.895720  0.846900  1.0  -0.3665
  N  N185  1  0.914340  0.768400  0.750900  1.0  0.0173
  N  N186  1  0.637990  0.229050  0.180230  1.0  -0.3665
  N  N187  1  0.581010  0.101730  0.084230  1.0  0.0173
  N  N188  1  0.304650  0.562390  0.513570  1.0  -0.3665
  N  N189  1  0.247670  0.435070  0.417570  1.0  0.0173
  N  N190  1  0.104280  0.075600  0.846900  1.0  -0.3672
  N  N191  1  0.231600  0.145940  0.750900  1.0  0.0176
  N  N192  1  0.770950  0.408930  0.180230  1.0  -0.3672
  N  N193  1  0.898270  0.479270  0.084230  1.0  0.0177
  N  N194  1  0.437610  0.742270  0.513570  1.0  -0.3672
  N  N195  1  0.564930  0.812610  0.417570  1.0  0.0177
  N  N196  1  0.924400  0.028680  0.846900  1.0  -0.3675
  N  N197  1  0.854060  0.085660  0.750900  1.0  0.0172
  N  N198  1  0.591070  0.362010  0.180230  1.0  -0.3675
  N  N199  1  0.520730  0.418990  0.084230  1.0  0.0171
  N  N200  1  0.257730  0.695350  0.513570  1.0  -0.3675
  N  N201  1  0.187390  0.752330  0.417570  1.0  0.0172
