# generated using pymatgen
data_Zn2H7C19O8
_symmetry_space_group_name_H-M   'P 1'
_cell_length_a   10.52360000
_cell_length_b   25.76800000
_cell_length_c   25.95070000
_cell_angle_alpha   90.00000000
_cell_angle_beta   90.00000000
_cell_angle_gamma   90.00000000
_symmetry_Int_Tables_number   1
_chemical_formula_structural   Zn2H7C19O8
_chemical_formula_sum   'Zn16 H56 C152 O64'
_cell_volume   7037.10645905
_cell_formula_units_Z   8
loop_
 _symmetry_equiv_pos_site_id
 _symmetry_equiv_pos_as_xyz
  1  'x, y, z'
loop_
 _atom_site_type_symbol
 _atom_site_label
 _atom_site_symmetry_multiplicity
 _atom_site_fract_x
 _atom_site_fract_y
 _atom_site_fract_z
 _atom_site_occupancy
 _atom_site_charge
  Zn  Zn1  1  0.437840  0.421530  0.131480  1.0  1.0914
  Zn  Zn2  1  0.201210  0.503890  0.111230  1.0  1.0463
  Zn  Zn3  1  0.937840  0.578470  0.368520  1.0  1.0918
  Zn  Zn4  1  0.701210  0.496110  0.388770  1.0  1.0463
  Zn  Zn5  1  0.562160  0.921530  0.868520  1.0  1.0936
  Zn  Zn6  1  0.798790  0.003890  0.888770  1.0  1.0459
  Zn  Zn7  1  0.062160  0.078470  0.631480  1.0  1.093
  Zn  Zn8  1  0.298790  0.996110  0.611230  1.0  1.046
  Zn  Zn9  1  0.562160  0.578470  0.868520  1.0  1.0933
  Zn  Zn10  1  0.798790  0.496110  0.888770  1.0  1.046
  Zn  Zn11  1  0.062160  0.421530  0.631480  1.0  1.0933
  Zn  Zn12  1  0.298790  0.503890  0.611230  1.0  1.046
  Zn  Zn13  1  0.437840  0.078470  0.131480  1.0  1.0912
  Zn  Zn14  1  0.201210  0.996110  0.111230  1.0  1.0463
  Zn  Zn15  1  0.937840  0.921530  0.368520  1.0  1.0919
  Zn  Zn16  1  0.701210  0.003890  0.388770  1.0  1.0463
  H  H17  1  0.500800  0.624500  0.131500  1.0  0.1095
  H  H18  1  0.718600  0.665300  0.254000  1.0  0.1115
  H  H19  1  0.539700  0.526700  0.252300  1.0  0.1119
  H  H20  1  0.871600  0.543500  0.008600  1.0  0.1175
  H  H21  1  0.870800  0.633300  0.136300  1.0  0.1121
  H  H22  1  0.619000  0.661500  0.021500  1.0  0.1133
  H  H23  1  0.000800  0.375500  0.368500  1.0  0.1098
  H  H24  1  0.218600  0.334700  0.246000  1.0  0.1118
  H  H25  1  0.039700  0.473300  0.247700  1.0  0.1125
  H  H26  1  0.371600  0.456500  0.491400  1.0  0.1171
  H  H27  1  0.370800  0.366700  0.363700  1.0  0.1126
  H  H28  1  0.119000  0.338500  0.478500  1.0  0.1133
  H  H29  1  0.499200  0.124500  0.868500  1.0  0.1096
  H  H30  1  0.281400  0.165300  0.746000  1.0  0.1121
  H  H31  1  0.460300  0.026700  0.747700  1.0  0.1122
  H  H32  1  0.128400  0.043500  0.991400  1.0  0.1173
  H  H33  1  0.129200  0.133300  0.863700  1.0  0.1125
  H  H34  1  0.381000  0.161500  0.978500  1.0  0.1132
  H  H35  1  0.999200  0.875500  0.631500  1.0  0.1097
  H  H36  1  0.781400  0.834700  0.754000  1.0  0.112
  H  H37  1  0.960300  0.973300  0.752300  1.0  0.1117
  H  H38  1  0.628400  0.956500  0.508600  1.0  0.1172
  H  H39  1  0.629200  0.866700  0.636300  1.0  0.1125
  H  H40  1  0.881000  0.838500  0.521500  1.0  0.1135
  H  H41  1  0.499200  0.375500  0.868500  1.0  0.1097
  H  H42  1  0.281400  0.334700  0.746000  1.0  0.1117
  H  H43  1  0.460300  0.473300  0.747700  1.0  0.1123
  H  H44  1  0.128400  0.456500  0.991400  1.0  0.1166
  H  H45  1  0.129200  0.366700  0.863700  1.0  0.1126
  H  H46  1  0.381000  0.338500  0.978500  1.0  0.1132
  H  H47  1  0.999200  0.624500  0.631500  1.0  0.1096
  H  H48  1  0.781400  0.665300  0.754000  1.0  0.112
  H  H49  1  0.960300  0.526700  0.752300  1.0  0.1119
  H  H50  1  0.628400  0.543500  0.508600  1.0  0.1173
  H  H51  1  0.629200  0.633300  0.636300  1.0  0.1124
  H  H52  1  0.881000  0.661500  0.521500  1.0  0.1137
  H  H53  1  0.500800  0.875500  0.131500  1.0  0.1094
  H  H54  1  0.718600  0.834700  0.254000  1.0  0.1115
  H  H55  1  0.539700  0.973300  0.252300  1.0  0.1118
  H  H56  1  0.871600  0.956500  0.008600  1.0  0.1172
  H  H57  1  0.870800  0.866700  0.136300  1.0  0.1122
  H  H58  1  0.619000  0.838500  0.021500  1.0  0.1133
  H  H59  1  0.000800  0.124500  0.368500  1.0  0.1098
  H  H60  1  0.218600  0.165300  0.246000  1.0  0.1119
  H  H61  1  0.039700  0.026700  0.247700  1.0  0.1122
  H  H62  1  0.371600  0.043500  0.491400  1.0  0.1172
  H  H63  1  0.370800  0.133300  0.363700  1.0  0.1125
  H  H64  1  0.119000  0.161500  0.478500  1.0  0.1133
  H  H65  1  0.594000  0.750000  0.220500  1.0  0.1149
  H  H66  1  0.744800  0.750000  0.052000  1.0  0.1145
  H  H67  1  0.094000  0.250000  0.279500  1.0  0.1148
  H  H68  1  0.244800  0.250000  0.448000  1.0  0.1141
  H  H69  1  0.406000  0.250000  0.779500  1.0  0.1154
  H  H70  1  0.255200  0.250000  0.948000  1.0  0.1145
  H  H71  1  0.906000  0.750000  0.720500  1.0  0.1147
  H  H72  1  0.755200  0.750000  0.552000  1.0  0.1148
  C  C73  1  0.418800  0.532430  0.162610  1.0  0.7057
  C  C74  1  0.505500  0.570440  0.188410  1.0  -0.1445
  C  C75  1  0.535200  0.616950  0.164510  1.0  -0.0698
  C  C76  1  0.615200  0.652820  0.188550  1.0  0.0256
  C  C77  1  0.664200  0.641200  0.237200  1.0  -0.0644
  C  C78  1  0.557300  0.559120  0.236450  1.0  -0.0026
  C  C79  1  0.009700  0.559020  0.093510  1.0  0.6506
  C  C80  1  0.891200  0.585990  0.074000  1.0  -0.1203
  C  C81  1  0.838800  0.572250  0.027290  1.0  0.0031
  C  C82  1  0.838200  0.625950  0.102890  1.0  -0.0547
  C  C83  1  0.681800  0.586860  0.956480  1.0  0.717
  C  C84  1  0.736700  0.600950  0.007560  1.0  -0.1503
  C  C85  1  0.687700  0.642050  0.035310  1.0  -0.0723
  C  C86  1  0.737600  0.655530  0.083480  1.0  0.0206
  C  C87  1  0.694700  0.702830  0.110890  1.0  0.0201
  C  C88  1  0.646600  0.702640  0.161740  1.0  0.0143
  C  C89  1  0.633900  0.594640  0.261140  1.0  -0.142
  C  C90  1  0.689600  0.580170  0.312630  1.0  0.7237
  C  C91  1  0.918800  0.467570  0.337390  1.0  0.7062
  C  C92  1  0.005500  0.429560  0.311590  1.0  -0.144
  C  C93  1  0.035200  0.383050  0.335490  1.0  -0.0695
  C  C94  1  0.115200  0.347180  0.311450  1.0  0.0259
  C  C95  1  0.164200  0.358800  0.262800  1.0  -0.065
  C  C96  1  0.057300  0.440880  0.263550  1.0  -0.0033
  C  C97  1  0.509700  0.440980  0.406490  1.0  0.65
  C  C98  1  0.391200  0.414010  0.426000  1.0  -0.1201
  C  C99  1  0.338800  0.427750  0.472710  1.0  0.0021
  C  C100  1  0.338200  0.374050  0.397110  1.0  -0.0543
  C  C101  1  0.181800  0.413140  0.543520  1.0  0.7175
  C  C102  1  0.236700  0.399050  0.492440  1.0  -0.1499
  C  C103  1  0.187700  0.357950  0.464690  1.0  -0.0724
  C  C104  1  0.237600  0.344470  0.416520  1.0  0.0211
  C  C105  1  0.194700  0.297170  0.389110  1.0  0.0203
  C  C106  1  0.146600  0.297360  0.338260  1.0  0.0132
  C  C107  1  0.133900  0.405360  0.238860  1.0  -0.1417
  C  C108  1  0.189600  0.419830  0.187370  1.0  0.7234
  C  C109  1  0.581200  0.032430  0.837390  1.0  0.7054
  C  C110  1  0.494500  0.070440  0.811590  1.0  -0.1445
  C  C111  1  0.464800  0.116950  0.835490  1.0  -0.0698
  C  C112  1  0.384800  0.152820  0.811450  1.0  0.0261
  C  C113  1  0.335800  0.141200  0.762800  1.0  -0.0644
  C  C114  1  0.442700  0.059120  0.763550  1.0  -0.0031
  C  C115  1  0.990300  0.059020  0.906490  1.0  0.6499
  C  C116  1  0.108800  0.085990  0.926000  1.0  -0.1194
  C  C117  1  0.161200  0.072250  0.972710  1.0  0.0034
  C  C118  1  0.161800  0.125950  0.897110  1.0  -0.0537
  C  C119  1  0.318200  0.086860  0.043520  1.0  0.7183
  C  C120  1  0.263300  0.100950  0.992440  1.0  -0.1507
  C  C121  1  0.312300  0.142050  0.964690  1.0  -0.0722
  C  C122  1  0.262400  0.155530  0.916520  1.0  0.021
  C  C123  1  0.305300  0.202830  0.889110  1.0  0.0199
  C  C124  1  0.353400  0.202640  0.838260  1.0  0.0135
  C  C125  1  0.366100  0.094640  0.738860  1.0  -0.1406
  C  C126  1  0.310400  0.080170  0.687370  1.0  0.7235
  C  C127  1  0.081200  0.967570  0.662610  1.0  0.7055
  C  C128  1  0.994500  0.929560  0.688410  1.0  -0.1442
  C  C129  1  0.964800  0.883050  0.664510  1.0  -0.0705
  C  C130  1  0.884800  0.847180  0.688550  1.0  0.0259
  C  C131  1  0.835800  0.858800  0.737200  1.0  -0.0654
  C  C132  1  0.942700  0.940880  0.736450  1.0  -0.0037
  C  C133  1  0.490300  0.940980  0.593510  1.0  0.6504
  C  C134  1  0.608800  0.914010  0.574000  1.0  -0.1196
  C  C135  1  0.661200  0.927750  0.527290  1.0  0.0017
  C  C136  1  0.661800  0.874050  0.602890  1.0  -0.0546
  C  C137  1  0.818200  0.913140  0.456480  1.0  0.7174
  C  C138  1  0.763300  0.899050  0.507560  1.0  -0.1506
  C  C139  1  0.812300  0.857950  0.535310  1.0  -0.0728
  C  C140  1  0.762400  0.844470  0.583480  1.0  0.0202
  C  C141  1  0.805300  0.797170  0.610890  1.0  0.0199
  C  C142  1  0.853400  0.797360  0.661740  1.0  0.0149
  C  C143  1  0.866100  0.905360  0.761140  1.0  -0.1413
  C  C144  1  0.810400  0.919830  0.812630  1.0  0.7235
  C  C145  1  0.581200  0.467570  0.837390  1.0  0.7056
  C  C146  1  0.494500  0.429560  0.811590  1.0  -0.1446
  C  C147  1  0.464800  0.383050  0.835490  1.0  -0.0692
  C  C148  1  0.384800  0.347180  0.811450  1.0  0.0262
  C  C149  1  0.335800  0.358800  0.762800  1.0  -0.0645
  C  C150  1  0.442700  0.440880  0.763550  1.0  -0.0038
  C  C151  1  0.990300  0.440980  0.906490  1.0  0.6497
  C  C152  1  0.108800  0.414010  0.926000  1.0  -0.1193
  C  C153  1  0.161200  0.427750  0.972710  1.0  0.0019
  C  C154  1  0.161800  0.374050  0.897110  1.0  -0.0537
  C  C155  1  0.318200  0.413140  0.043520  1.0  0.7185
  C  C156  1  0.263300  0.399050  0.992440  1.0  -0.1507
  C  C157  1  0.312300  0.357950  0.964690  1.0  -0.0719
  C  C158  1  0.262400  0.344470  0.916520  1.0  0.0209
  C  C159  1  0.305300  0.297170  0.889110  1.0  0.02
  C  C160  1  0.353400  0.297360  0.838260  1.0  0.0137
  C  C161  1  0.366100  0.405360  0.738860  1.0  -0.1408
  C  C162  1  0.310400  0.419830  0.687370  1.0  0.7229
  C  C163  1  0.081200  0.532430  0.662610  1.0  0.7052
  C  C164  1  0.994500  0.570440  0.688410  1.0  -0.1442
  C  C165  1  0.964800  0.616950  0.664510  1.0  -0.0709
  C  C166  1  0.884800  0.652820  0.688550  1.0  0.0257
  C  C167  1  0.835800  0.641200  0.737200  1.0  -0.0653
  C  C168  1  0.942700  0.559120  0.736450  1.0  -0.0027
  C  C169  1  0.490300  0.559020  0.593510  1.0  0.6505
  C  C170  1  0.608800  0.585990  0.574000  1.0  -0.1196
  C  C171  1  0.661200  0.572250  0.527290  1.0  0.0026
  C  C172  1  0.661800  0.625950  0.602890  1.0  -0.0546
  C  C173  1  0.818200  0.586860  0.456480  1.0  0.7172
  C  C174  1  0.763300  0.600950  0.507560  1.0  -0.1508
  C  C175  1  0.812300  0.642050  0.535310  1.0  -0.0729
  C  C176  1  0.762400  0.655530  0.583480  1.0  0.0206
  C  C177  1  0.805300  0.702830  0.610890  1.0  0.0199
  C  C178  1  0.853400  0.702640  0.661740  1.0  0.0148
  C  C179  1  0.866100  0.594640  0.761140  1.0  -0.1413
  C  C180  1  0.810400  0.580170  0.812630  1.0  0.7228
  C  C181  1  0.418800  0.967570  0.162610  1.0  0.7061
  C  C182  1  0.505500  0.929560  0.188410  1.0  -0.144
  C  C183  1  0.535200  0.883050  0.164510  1.0  -0.0696
  C  C184  1  0.615200  0.847180  0.188550  1.0  0.0257
  C  C185  1  0.664200  0.858800  0.237200  1.0  -0.0649
  C  C186  1  0.557300  0.940880  0.236450  1.0  -0.0037
  C  C187  1  0.009700  0.940980  0.093510  1.0  0.6507
  C  C188  1  0.891200  0.914010  0.074000  1.0  -0.1209
  C  C189  1  0.838800  0.927750  0.027290  1.0  0.0018
  C  C190  1  0.838200  0.874050  0.102890  1.0  -0.0546
  C  C191  1  0.681800  0.913140  0.956480  1.0  0.7172
  C  C192  1  0.736700  0.899050  0.007560  1.0  -0.15
  C  C193  1  0.687700  0.857950  0.035310  1.0  -0.072
  C  C194  1  0.737600  0.844470  0.083480  1.0  0.0205
  C  C195  1  0.694700  0.797170  0.110890  1.0  0.0201
  C  C196  1  0.646600  0.797360  0.161740  1.0  0.0145
  C  C197  1  0.633900  0.905360  0.261140  1.0  -0.142
  C  C198  1  0.689600  0.919830  0.312630  1.0  0.7242
  C  C199  1  0.918800  0.032430  0.337390  1.0  0.706
  C  C200  1  0.005500  0.070440  0.311590  1.0  -0.1444
  C  C201  1  0.035200  0.116950  0.335490  1.0  -0.0698
  C  C202  1  0.115200  0.152820  0.311450  1.0  0.026
  C  C203  1  0.164200  0.141200  0.262800  1.0  -0.0649
  C  C204  1  0.057300  0.059120  0.263550  1.0  -0.0028
  C  C205  1  0.509700  0.059020  0.406490  1.0  0.6499
  C  C206  1  0.391200  0.085990  0.426000  1.0  -0.1195
  C  C207  1  0.338800  0.072250  0.472710  1.0  0.004
  C  C208  1  0.338200  0.125950  0.397110  1.0  -0.0545
  C  C209  1  0.181800  0.086860  0.543520  1.0  0.7173
  C  C210  1  0.236700  0.100950  0.492440  1.0  -0.1499
  C  C211  1  0.187700  0.142050  0.464690  1.0  -0.0728
  C  C212  1  0.237600  0.155530  0.416520  1.0  0.0212
  C  C213  1  0.194700  0.202830  0.389110  1.0  0.0203
  C  C214  1  0.146600  0.202640  0.338260  1.0  0.013
  C  C215  1  0.133900  0.094640  0.238860  1.0  -0.1416
  C  C216  1  0.189600  0.080170  0.187370  1.0  0.7242
  C  C217  1  0.624800  0.750000  0.186070  1.0  -0.1398
  C  C218  1  0.715400  0.750000  0.086570  1.0  -0.1421
  C  C219  1  0.124800  0.250000  0.313930  1.0  -0.1407
  C  C220  1  0.215400  0.250000  0.413430  1.0  -0.1425
  C  C221  1  0.375200  0.250000  0.813930  1.0  -0.1405
  C  C222  1  0.284600  0.250000  0.913430  1.0  -0.1432
  C  C223  1  0.875200  0.750000  0.686070  1.0  -0.139
  C  C224  1  0.784600  0.750000  0.586570  1.0  -0.1417
  O  O225  1  0.049100  0.568490  0.137220  1.0  -0.5883
  O  O226  1  0.064000  0.527030  0.063990  1.0  -0.6026
  O  O227  1  0.342400  0.549930  0.129850  1.0  -0.5465
  O  O228  1  0.426300  0.485460  0.177040  1.0  -0.641
  O  O229  1  0.705900  0.543520  0.936530  1.0  -0.6598
  O  O230  1  0.607300  0.618100  0.934490  1.0  -0.5768
  O  O231  1  0.639900  0.542530  0.335260  1.0  -0.5914
  O  O232  1  0.782400  0.607070  0.328960  1.0  -0.6424
  O  O233  1  0.549100  0.431510  0.362780  1.0  -0.5872
  O  O234  1  0.564000  0.472970  0.436010  1.0  -0.6021
  O  O235  1  0.842400  0.450070  0.370150  1.0  -0.5465
  O  O236  1  0.926300  0.514540  0.322960  1.0  -0.6414
  O  O237  1  0.205900  0.456480  0.563470  1.0  -0.6606
  O  O238  1  0.107300  0.381900  0.565510  1.0  -0.5766
  O  O239  1  0.139900  0.457470  0.164740  1.0  -0.5916
  O  O240  1  0.282400  0.392930  0.171040  1.0  -0.6411
  O  O241  1  0.950900  0.068490  0.862780  1.0  -0.587
  O  O242  1  0.936000  0.027030  0.936010  1.0  -0.6007
  O  O243  1  0.657600  0.049930  0.870150  1.0  -0.5462
  O  O244  1  0.573700  0.985460  0.822960  1.0  -0.6426
  O  O245  1  0.294100  0.043520  0.063470  1.0  -0.6601
  O  O246  1  0.392700  0.118100  0.065510  1.0  -0.5779
  O  O247  1  0.360100  0.042530  0.664740  1.0  -0.5915
  O  O248  1  0.217600  0.107070  0.671040  1.0  -0.6432
  O  O249  1  0.450900  0.931510  0.637220  1.0  -0.5875
  O  O250  1  0.436000  0.972970  0.563990  1.0  -0.6019
  O  O251  1  0.157600  0.950070  0.629850  1.0  -0.5468
  O  O252  1  0.073700  0.014540  0.677040  1.0  -0.6424
  O  O253  1  0.794100  0.956480  0.436530  1.0  -0.6603
  O  O254  1  0.892700  0.881900  0.434490  1.0  -0.5774
  O  O255  1  0.860100  0.957470  0.835260  1.0  -0.5912
  O  O256  1  0.717600  0.892930  0.828960  1.0  -0.642
  O  O257  1  0.950900  0.431510  0.862780  1.0  -0.5871
  O  O258  1  0.936000  0.472970  0.936010  1.0  -0.6011
  O  O259  1  0.657600  0.450070  0.870150  1.0  -0.5461
  O  O260  1  0.573700  0.514540  0.822960  1.0  -0.6427
  O  O261  1  0.294100  0.456480  0.063470  1.0  -0.6606
  O  O262  1  0.392700  0.381900  0.065510  1.0  -0.5774
  O  O263  1  0.360100  0.457470  0.664740  1.0  -0.5915
  O  O264  1  0.217600  0.392930  0.671040  1.0  -0.642
  O  O265  1  0.450900  0.568490  0.637220  1.0  -0.5882
  O  O266  1  0.436000  0.527030  0.563990  1.0  -0.6015
  O  O267  1  0.157600  0.549930  0.629850  1.0  -0.5466
  O  O268  1  0.073700  0.485460  0.677040  1.0  -0.6422
  O  O269  1  0.794100  0.543520  0.436530  1.0  -0.6595
  O  O270  1  0.892700  0.618100  0.434490  1.0  -0.5768
  O  O271  1  0.860100  0.542530  0.835260  1.0  -0.5911
  O  O272  1  0.717600  0.607070  0.828960  1.0  -0.6428
  O  O273  1  0.049100  0.931510  0.137220  1.0  -0.5879
  O  O274  1  0.064000  0.972970  0.063990  1.0  -0.6029
  O  O275  1  0.342400  0.950070  0.129850  1.0  -0.5466
  O  O276  1  0.426300  0.014540  0.177040  1.0  -0.6409
  O  O277  1  0.705900  0.956480  0.936530  1.0  -0.6607
  O  O278  1  0.607300  0.881900  0.934490  1.0  -0.575
  O  O279  1  0.639900  0.957470  0.335260  1.0  -0.5915
  O  O280  1  0.782400  0.892930  0.328960  1.0  -0.6414
  O  O281  1  0.549100  0.068490  0.362780  1.0  -0.5869
  O  O282  1  0.564000  0.027030  0.436010  1.0  -0.6018
  O  O283  1  0.842400  0.049930  0.370150  1.0  -0.5462
  O  O284  1  0.926300  0.985460  0.322960  1.0  -0.6412
  O  O285  1  0.205900  0.043520  0.563470  1.0  -0.6603
  O  O286  1  0.107300  0.118100  0.565510  1.0  -0.5766
  O  O287  1  0.139900  0.042530  0.164740  1.0  -0.5918
  O  O288  1  0.282400  0.107070  0.171040  1.0  -0.6427
