# generated using pymatgen
data_CoH8C12(NO2)2
_symmetry_space_group_name_H-M   'P 1'
_cell_length_a   9.81900000
_cell_length_b   11.07310000
_cell_length_c   12.64990000
_cell_angle_alpha   90.00000000
_cell_angle_beta   90.00000000
_cell_angle_gamma   99.85200000
_symmetry_Int_Tables_number   1
_chemical_formula_structural   CoH8C12(NO2)2
_chemical_formula_sum   'Co4 H32 C48 N8 O16'
_cell_volume   1355.10000566
_cell_formula_units_Z   4
loop_
 _symmetry_equiv_pos_site_id
 _symmetry_equiv_pos_as_xyz
  1  'x, y, z'
loop_
 _atom_site_type_symbol
 _atom_site_label
 _atom_site_symmetry_multiplicity
 _atom_site_fract_x
 _atom_site_fract_y
 _atom_site_fract_z
 _atom_site_occupancy
 _atom_site_charge
  Co  Co1  1  0.872800  0.750770  0.566320  1.0  1.0155
  Co  Co2  1  0.376400  0.748120  0.564360  1.0  1.0187
  Co  Co3  1  0.127200  0.249230  0.066320  1.0  1.0148
  Co  Co4  1  0.623600  0.251880  0.064360  1.0  1.0204
  H  H5  1  0.103400  0.367400  0.458600  1.0  0.1355
  H  H6  1  0.851500  0.015900  0.515500  1.0  0.0716
  H  H7  1  0.454400  0.007800  0.735000  1.0  0.1083
  H  H8  1  0.102900  0.241300  0.312700  1.0  0.0685
  H  H9  1  0.602900  0.512600  0.839400  1.0  0.1128
  H  H10  1  0.105500  0.646900  0.258800  1.0  0.1223
  H  H11  1  0.445400  0.131400  0.884800  1.0  0.0772
  H  H12  1  0.841100  0.148200  0.377000  1.0  0.1219
  H  H13  1  0.120900  0.519200  0.123300  1.0  0.0815
  H  H14  1  0.194700  0.627200  0.745800  1.0  0.0563
  H  H15  1  0.587900  0.641800  0.698200  1.0  0.0712
  H  H16  1  0.852800  0.007800  0.800100  1.0  0.1017
  H  H17  1  0.871600  0.868800  0.181900  1.0  0.1172
  H  H18  1  0.871800  0.745600  0.323200  1.0  0.092
  H  H19  1  0.192300  0.494200  0.880900  1.0  0.116
  H  H20  1  0.836500  0.135300  0.939800  1.0  0.0673
  H  H21  1  0.896600  0.632600  0.958600  1.0  0.1354
  H  H22  1  0.148500  0.984100  0.015500  1.0  0.0719
  H  H23  1  0.545600  0.992200  0.235000  1.0  0.1081
  H  H24  1  0.897100  0.758700  0.812700  1.0  0.0677
  H  H25  1  0.397100  0.487400  0.339400  1.0  0.113
  H  H26  1  0.894500  0.353100  0.758800  1.0  0.1224
  H  H27  1  0.554600  0.868600  0.384800  1.0  0.0772
  H  H28  1  0.158900  0.851800  0.877000  1.0  0.1222
  H  H29  1  0.879100  0.480800  0.623300  1.0  0.0813
  H  H30  1  0.805300  0.372800  0.245800  1.0  0.0568
  H  H31  1  0.412100  0.358200  0.198200  1.0  0.0714
  H  H32  1  0.147200  0.992200  0.300100  1.0  0.1015
  H  H33  1  0.128400  0.131200  0.681900  1.0  0.1171
  H  H34  1  0.128200  0.254400  0.823200  1.0  0.0922
  H  H35  1  0.807700  0.505800  0.380900  1.0  0.1163
  H  H36  1  0.163500  0.864700  0.439800  1.0  0.0674
  C  C37  1  0.652100  0.897800  0.664800  1.0  0.6439
  C  C38  1  0.652100  0.989200  0.754100  1.0  -0.0628
  C  C39  1  0.104600  0.399700  0.390700  1.0  -0.1901
  C  C40  1  0.853100  0.985700  0.447000  1.0  0.1874
  C  C41  1  0.532300  0.030000  0.777000  1.0  -0.1096
  C  C42  1  0.107200  0.324900  0.301600  1.0  0.1765
  C  C43  1  0.407400  0.398200  0.966900  1.0  0.6972
  C  C44  1  0.092900  0.604800  0.466500  1.0  0.6679
  C  C45  1  0.397500  0.486900  0.875000  1.0  -0.0559
  C  C46  1  0.103900  0.523900  0.374100  1.0  0.0316
  C  C47  1  0.518500  0.533300  0.820200  1.0  -0.1418
  C  C48  1  0.107900  0.564800  0.272400  1.0  -0.1906
  C  C49  1  0.528400  0.107100  0.866400  1.0  0.1602
  C  C50  1  0.847400  0.066700  0.364000  1.0  -0.1728
  C  C51  1  0.115400  0.486900  0.191300  1.0  0.1721
  C  C52  1  0.277200  0.601700  0.763700  1.0  0.1812
  C  C53  1  0.508300  0.611300  0.736300  1.0  0.1623
  C  C54  1  0.768600  0.031500  0.815700  1.0  -0.151
  C  C55  1  0.864100  0.901300  0.249000  1.0  -0.1655
  C  C56  1  0.866300  0.827700  0.333900  1.0  0.1553
  C  C57  1  0.274300  0.523200  0.845400  1.0  -0.1678
  C  C58  1  0.846600  0.109000  0.167600  1.0  0.6718
  C  C59  1  0.758000  0.108300  0.899400  1.0  0.1749
  C  C60  1  0.851300  0.022600  0.258300  1.0  0.0147
  C  C61  1  0.347900  0.102200  0.164800  1.0  0.6444
  C  C62  1  0.347900  0.010800  0.254100  1.0  -0.0637
  C  C63  1  0.895400  0.600300  0.890700  1.0  -0.1908
  C  C64  1  0.146900  0.014300  0.947000  1.0  0.1874
  C  C65  1  0.467700  0.970000  0.277000  1.0  -0.1101
  C  C66  1  0.892800  0.675100  0.801600  1.0  0.1749
  C  C67  1  0.592600  0.601800  0.466900  1.0  0.688
  C  C68  1  0.907100  0.395200  0.966500  1.0  0.6687
  C  C69  1  0.602500  0.513100  0.375000  1.0  -0.055
  C  C70  1  0.896100  0.476100  0.874100  1.0  0.0316
  C  C71  1  0.481500  0.466700  0.320200  1.0  -0.142
  C  C72  1  0.892100  0.435200  0.772400  1.0  -0.1889
  C  C73  1  0.471600  0.892900  0.366400  1.0  0.16
  C  C74  1  0.152600  0.933300  0.864000  1.0  -0.1718
  C  C75  1  0.884600  0.513100  0.691300  1.0  0.1725
  C  C76  1  0.722800  0.398300  0.263700  1.0  0.1806
  C  C77  1  0.491700  0.388700  0.236300  1.0  0.1619
  C  C78  1  0.231400  0.968500  0.315700  1.0  -0.1494
  C  C79  1  0.135900  0.098700  0.749000  1.0  -0.1658
  C  C80  1  0.133700  0.172300  0.833900  1.0  0.1541
  C  C81  1  0.725700  0.476800  0.345400  1.0  -0.167
  C  C82  1  0.153400  0.891000  0.667600  1.0  0.6699
  C  C83  1  0.242000  0.891700  0.399400  1.0  0.1756
  C  C84  1  0.148700  0.977400  0.758300  1.0  0.0146
  N  N85  1  0.115400  0.365200  0.202000  1.0  -0.3415
  N  N86  1  0.387900  0.645400  0.707000  1.0  -0.3434
  N  N87  1  0.860700  0.869700  0.435000  1.0  -0.351
  N  N88  1  0.641800  0.145700  0.925100  1.0  -0.3432
  N  N89  1  0.884600  0.634800  0.702000  1.0  -0.3408
  N  N90  1  0.612100  0.354600  0.207000  1.0  -0.3445
  N  N91  1  0.139300  0.130300  0.935000  1.0  -0.3515
  N  N92  1  0.358200  0.854300  0.425100  1.0  -0.3419
  O  O93  1  0.555200  0.875200  0.605500  1.0  -0.5804
  O  O94  1  0.299000  0.370900  0.020800  1.0  -0.6309
  O  O95  1  0.984800  0.645600  0.474400  1.0  -0.5819
  O  O96  1  0.518200  0.364700  0.980800  1.0  -0.5854
  O  O97  1  0.193800  0.625700  0.532300  1.0  -0.6406
  O  O98  1  0.734000  0.147200  0.159600  1.0  -0.6092
  O  O99  1  0.947500  0.126300  0.108900  1.0  -0.6063
  O  O100  1  0.767700  0.851600  0.664500  1.0  -0.6259
  O  O101  1  0.444800  0.124800  0.105500  1.0  -0.5816
  O  O102  1  0.701000  0.629100  0.520800  1.0  -0.6327
  O  O103  1  0.015200  0.354400  0.974400  1.0  -0.5808
  O  O104  1  0.481800  0.635300  0.480800  1.0  -0.5869
  O  O105  1  0.806200  0.374300  0.032300  1.0  -0.6395
  O  O106  1  0.266000  0.852800  0.659600  1.0  -0.6089
  O  O107  1  0.052500  0.873700  0.608900  1.0  -0.606
  O  O108  1  0.232300  0.148400  0.164500  1.0  -0.6266
