# generated using pymatgen
data_CoH8C12(NO2)2
_symmetry_space_group_name_H-M   'P 1'
_cell_length_a   9.81000000
_cell_length_b   12.75300000
_cell_length_c   10.91700000
_cell_angle_alpha   90.00000000
_cell_angle_beta   100.63000000
_cell_angle_gamma   90.00000000
_symmetry_Int_Tables_number   1
_chemical_formula_structural   CoH8C12(NO2)2
_chemical_formula_sum   'Co4 H32 C48 N8 O16'
_cell_volume   1342.35385251
_cell_formula_units_Z   4
loop_
 _symmetry_equiv_pos_site_id
 _symmetry_equiv_pos_as_xyz
  1  'x, y, z'
loop_
 _atom_site_type_symbol
 _atom_site_label
 _atom_site_symmetry_multiplicity
 _atom_site_fract_x
 _atom_site_fract_y
 _atom_site_fract_z
 _atom_site_occupancy
 _atom_site_charge
  Co  Co1  1  0.376640  0.783340  0.248770  1.0  1.0233
  Co  Co2  1  0.872660  0.781840  0.250410  1.0  1.0114
  Co  Co3  1  0.623360  0.283340  0.751230  1.0  1.0262
  Co  Co4  1  0.127340  0.281840  0.749590  1.0  1.0109
  H  H5  1  0.132600  0.523800  0.761400  1.0  0.0804
  H  H6  1  0.146800  0.336800  0.482200  1.0  0.0818
  H  H7  1  0.447400  0.466500  0.634000  1.0  0.0684
  H  H8  1  0.396900  0.010100  0.984000  1.0  0.1015
  H  H9  1  0.802100  0.959200  0.000000  1.0  0.115
  H  H10  1  0.807900  0.104000  0.875100  1.0  0.0688
  H  H11  1  0.889900  0.537300  0.263700  1.0  0.0839
  H  H12  1  0.893300  0.585800  0.847600  1.0  0.1336
  H  H13  1  0.131000  0.668800  0.636900  1.0  0.1302
  H  H14  1  0.880200  0.725700  0.978200  1.0  0.0899
  H  H15  1  0.156600  0.477900  0.351800  1.0  0.1135
  H  H16  1  0.854700  0.550800  0.511800  1.0  0.1005
  H  H17  1  0.836700  0.409700  0.641000  1.0  0.0719
  H  H18  1  0.898800  0.393500  0.137900  1.0  0.1202
  H  H19  1  0.408800  0.150700  0.856500  1.0  0.085
  H  H20  1  0.452600  0.613000  0.511300  1.0  0.1275
  H  H21  1  0.867400  0.023800  0.238600  1.0  0.0807
  H  H22  1  0.853200  0.836800  0.517800  1.0  0.0819
  H  H23  1  0.552600  0.966500  0.366000  1.0  0.068
  H  H24  1  0.603100  0.510100  0.016000  1.0  0.101
  H  H25  1  0.197900  0.459200  0.000000  1.0  0.116
  H  H26  1  0.192100  0.604000  0.124900  1.0  0.0691
  H  H27  1  0.110100  0.037300  0.736300  1.0  0.0847
  H  H28  1  0.106700  0.085800  0.152400  1.0  0.133
  H  H29  1  0.869000  0.168800  0.363100  1.0  0.1307
  H  H30  1  0.119800  0.225700  0.021800  1.0  0.0898
  H  H31  1  0.843400  0.977900  0.648200  1.0  0.1133
  H  H32  1  0.145300  0.050800  0.488200  1.0  0.1008
  H  H33  1  0.163300  0.909700  0.359000  1.0  0.0733
  H  H34  1  0.101200  0.893500  0.862100  1.0  0.1198
  H  H35  1  0.591200  0.650700  0.143500  1.0  0.0845
  H  H36  1  0.547400  0.113000  0.488700  1.0  0.1274
  C  C37  1  0.136000  0.514800  0.677500  1.0  0.1527
  C  C38  1  0.145800  0.404400  0.514100  1.0  0.1657
  C  C39  1  0.529900  0.484200  0.608600  1.0  0.1783
  C  C40  1  0.153600  0.682200  0.397900  1.0  0.6799
  C  C41  1  0.658700  0.682900  0.404400  1.0  0.6447
  C  C42  1  0.599100  0.970000  0.008800  1.0  -0.0954
  C  C43  1  0.654800  0.596500  0.492600  1.0  -0.0769
  C  C44  1  0.147800  0.590200  0.478900  1.0  0.0251
  C  C45  1  0.481400  0.028300  0.962900  1.0  -0.078
  C  C46  1  0.721900  0.998000  0.973300  1.0  -0.1135
  C  C47  1  0.724000  0.085100  0.897100  1.0  0.1806
  C  C48  1  0.890000  0.547800  0.179400  1.0  0.1354
  C  C49  1  0.891500  0.574600  0.931500  1.0  -0.1551
  C  C50  1  0.137200  0.602200  0.603700  1.0  -0.1886
  C  C51  1  0.884900  0.658300  0.011300  1.0  0.1675
  C  C52  1  0.151000  0.489400  0.434800  1.0  -0.1411
  C  C53  1  0.770200  0.535300  0.534700  1.0  -0.1494
  C  C54  1  0.758300  0.449900  0.612200  1.0  0.1638
  C  C55  1  0.895300  0.460400  0.103700  1.0  -0.1411
  C  C56  1  0.895400  0.473100  0.979900  1.0  -0.0323
  C  C57  1  0.489200  0.112900  0.886600  1.0  0.1623
  C  C58  1  0.531400  0.571700  0.533700  1.0  -0.1357
  C  C59  1  0.908100  0.376800  0.894600  1.0  0.6542
  C  C60  1  0.591400  0.878400  0.100400  1.0  0.694
  C  C61  1  0.864000  0.014800  0.322500  1.0  0.1534
  C  C62  1  0.854200  0.904400  0.485900  1.0  0.1659
  C  C63  1  0.470100  0.984200  0.391400  1.0  0.1778
  C  C64  1  0.846400  0.182200  0.602100  1.0  0.6803
  C  C65  1  0.341300  0.182900  0.595600  1.0  0.6447
  C  C66  1  0.400900  0.470000  0.991200  1.0  -0.095
  C  C67  1  0.345200  0.096500  0.507400  1.0  -0.0764
  C  C68  1  0.852200  0.090200  0.521100  1.0  0.0243
  C  C69  1  0.518600  0.528300  0.037100  1.0  -0.0796
  C  C70  1  0.278100  0.498000  0.026700  1.0  -0.1121
  C  C71  1  0.276000  0.585100  0.102900  1.0  0.1819
  C  C72  1  0.110000  0.047800  0.820600  1.0  0.1365
  C  C73  1  0.108500  0.074600  0.068500  1.0  -0.1537
  C  C74  1  0.862800  0.102200  0.396300  1.0  -0.188
  C  C75  1  0.115100  0.158300  0.988700  1.0  0.1676
  C  C76  1  0.849000  0.989400  0.565200  1.0  -0.142
  C  C77  1  0.229800  0.035300  0.465300  1.0  -0.1491
  C  C78  1  0.241700  0.949900  0.387800  1.0  0.1649
  C  C79  1  0.104700  0.960400  0.896300  1.0  -0.1414
  C  C80  1  0.104600  0.973100  0.020100  1.0  -0.0314
  C  C81  1  0.510800  0.612900  0.113400  1.0  0.1608
  C  C82  1  0.468600  0.071700  0.466300  1.0  -0.1354
  C  C83  1  0.091900  0.876800  0.105400  1.0  0.6541
  C  C84  1  0.408600  0.378400  0.899600  1.0  0.6931
  N  N85  1  0.139500  0.416800  0.632600  1.0  -0.33
  N  N86  1  0.641200  0.424100  0.646000  1.0  -0.3183
  N  N87  1  0.611200  0.143700  0.853300  1.0  -0.3543
  N  N88  1  0.884900  0.647400  0.135600  1.0  -0.3299
  N  N89  1  0.860500  0.916800  0.367400  1.0  -0.3314
  N  N90  1  0.358800  0.924100  0.354000  1.0  -0.3179
  N  N91  1  0.388800  0.643700  0.146700  1.0  -0.3548
  N  N92  1  0.115100  0.147400  0.864400  1.0  -0.3313
  O  O93  1  0.266500  0.692600  0.357100  1.0  -0.6493
  O  O94  1  0.018300  0.375100  0.855700  1.0  -0.5904
  O  O95  1  0.812000  0.316400  0.877500  1.0  -0.6049
  O  O96  1  0.768600  0.688500  0.356400  1.0  -0.642
  O  O97  1  0.478800  0.869200  0.133900  1.0  -0.6074
  O  O98  1  0.049800  0.745800  0.376900  1.0  -0.621
  O  O99  1  0.554600  0.748700  0.378000  1.0  -0.655
  O  O100  1  0.694300  0.826700  0.125900  1.0  -0.6025
  O  O101  1  0.733500  0.192600  0.642900  1.0  -0.6506
  O  O102  1  0.981700  0.875100  0.144300  1.0  -0.5922
  O  O103  1  0.188000  0.816400  0.122500  1.0  -0.6045
  O  O104  1  0.231400  0.188500  0.643600  1.0  -0.6443
  O  O105  1  0.521200  0.369200  0.866100  1.0  -0.6064
  O  O106  1  0.950200  0.245800  0.623100  1.0  -0.6204
  O  O107  1  0.445400  0.248700  0.622000  1.0  -0.655
  O  O108  1  0.305700  0.326700  0.874100  1.0  -0.6025
