# generated using pymatgen
data_K2Ca3H4(CO)14
_symmetry_space_group_name_H-M   'P 1'
_cell_length_a   17.30880000
_cell_length_b   17.42770000
_cell_length_c   7.89490000
_cell_angle_alpha   90.00000000
_cell_angle_beta   90.00000000
_cell_angle_gamma   90.00000000
_symmetry_Int_Tables_number   1
_chemical_formula_structural   K2Ca3H4(CO)14
_chemical_formula_sum   'K8 Ca12 H16 C56 O56'
_cell_volume   2381.51690458
_cell_formula_units_Z   4
loop_
 _symmetry_equiv_pos_site_id
 _symmetry_equiv_pos_as_xyz
  1  'x, y, z'
loop_
 _atom_site_type_symbol
 _atom_site_label
 _atom_site_symmetry_multiplicity
 _atom_site_fract_x
 _atom_site_fract_y
 _atom_site_fract_z
 _atom_site_occupancy
 _atom_site_charge
  K  K1  1  0.783940  0.482070  0.182510  1.0  0.9279
  K  K2  1  0.716060  0.017930  0.182510  1.0  0.9278
  K  K3  1  0.216060  0.982070  0.317490  1.0  0.9278
  K  K4  1  0.283940  0.517930  0.317490  1.0  0.927
  K  K5  1  0.216060  0.517930  0.817490  1.0  0.9274
  K  K6  1  0.283940  0.982070  0.817490  1.0  0.9276
  K  K7  1  0.783940  0.017930  0.682510  1.0  0.9274
  K  K8  1  0.716060  0.482070  0.682510  1.0  0.9282
  Ca  Ca9  1  0.919510  0.303820  0.179590  1.0  1.5419
  Ca  Ca10  1  0.580490  0.196180  0.179590  1.0  1.542
  Ca  Ca11  1  0.080490  0.803820  0.320410  1.0  1.5423
  Ca  Ca12  1  0.419510  0.696180  0.320410  1.0  1.5417
  Ca  Ca13  1  0.080490  0.696180  0.820410  1.0  1.5419
  Ca  Ca14  1  0.419510  0.803820  0.820410  1.0  1.542
  Ca  Ca15  1  0.919510  0.196180  0.679590  1.0  1.5415
  Ca  Ca16  1  0.580490  0.303820  0.679590  1.0  1.5425
  Ca  Ca17  1  0.750000  0.250000  0.933780  1.0  1.3921
  Ca  Ca18  1  0.250000  0.750000  0.566220  1.0  1.3918
  Ca  Ca19  1  0.250000  0.750000  0.066220  1.0  1.3918
  Ca  Ca20  1  0.750000  0.250000  0.433780  1.0  1.3921
  H  H21  1  0.907600  0.494700  0.936500  1.0  0.1274
  H  H22  1  0.904400  0.493700  0.425900  1.0  0.1237
  H  H23  1  0.592400  0.005300  0.936500  1.0  0.1269
  H  H24  1  0.595600  0.006300  0.425900  1.0  0.1231
  H  H25  1  0.092400  0.994700  0.563500  1.0  0.1248
  H  H26  1  0.095600  0.993700  0.074100  1.0  0.1227
  H  H27  1  0.407600  0.505300  0.563500  1.0  0.125
  H  H28  1  0.404400  0.506300  0.074100  1.0  0.1233
  H  H29  1  0.092400  0.505300  0.063500  1.0  0.1248
  H  H30  1  0.095600  0.506300  0.574100  1.0  0.1225
  H  H31  1  0.407600  0.994700  0.063500  1.0  0.1248
  H  H32  1  0.404400  0.993700  0.574100  1.0  0.1235
  H  H33  1  0.907600  0.005300  0.436500  1.0  0.1273
  H  H34  1  0.904400  0.006300  0.925900  1.0  0.1235
  H  H35  1  0.592400  0.494700  0.436500  1.0  0.127
  H  H36  1  0.595600  0.493700  0.925900  1.0  0.1233
  C  C37  1  0.941200  0.585700  0.678000  1.0  0.7298
  C  C38  1  0.910200  0.506300  0.680000  1.0  -0.1489
  C  C39  1  0.895600  0.469900  0.835600  1.0  -0.076
  C  C40  1  0.863000  0.396300  0.838700  1.0  0.2713
  C  C41  1  0.849200  0.358400  0.682200  1.0  0.1866
  C  C42  1  0.863300  0.394700  0.526800  1.0  0.2863
  C  C43  1  0.894300  0.469000  0.527900  1.0  -0.1024
  C  C44  1  0.558800  0.914300  0.678000  1.0  0.7289
  C  C45  1  0.589800  0.993700  0.680000  1.0  -0.1497
  C  C46  1  0.604400  0.030100  0.835600  1.0  -0.0766
  C  C47  1  0.637000  0.103700  0.838700  1.0  0.2709
  C  C48  1  0.650800  0.141600  0.682200  1.0  0.1873
  C  C49  1  0.636700  0.105300  0.526800  1.0  0.2872
  C  C50  1  0.605700  0.031000  0.527900  1.0  -0.1039
  C  C51  1  0.058800  0.085700  0.822000  1.0  0.7292
  C  C52  1  0.089800  0.006300  0.820000  1.0  -0.1495
  C  C53  1  0.104400  0.969900  0.664400  1.0  -0.0772
  C  C54  1  0.137000  0.896300  0.661300  1.0  0.273
  C  C55  1  0.150800  0.858400  0.817800  1.0  0.1867
  C  C56  1  0.136700  0.894700  0.973200  1.0  0.2845
  C  C57  1  0.105700  0.969000  0.972100  1.0  -0.102
  C  C58  1  0.441200  0.414300  0.822000  1.0  0.7284
  C  C59  1  0.410200  0.493700  0.820000  1.0  -0.1493
  C  C60  1  0.395600  0.530100  0.664400  1.0  -0.0769
  C  C61  1  0.363000  0.603700  0.661300  1.0  0.273
  C  C62  1  0.349200  0.641600  0.817800  1.0  0.1866
  C  C63  1  0.363300  0.605300  0.973200  1.0  0.2845
  C  C64  1  0.394300  0.531000  0.972100  1.0  -0.1011
  C  C65  1  0.058800  0.414300  0.322000  1.0  0.7282
  C  C66  1  0.089800  0.493700  0.320000  1.0  -0.15
  C  C67  1  0.104400  0.530100  0.164400  1.0  -0.0773
  C  C68  1  0.137000  0.603700  0.161300  1.0  0.2732
  C  C69  1  0.150800  0.641600  0.317800  1.0  0.1872
  C  C70  1  0.136700  0.605300  0.473200  1.0  0.2846
  C  C71  1  0.105700  0.531000  0.472100  1.0  -0.1023
  C  C72  1  0.441200  0.085700  0.322000  1.0  0.7298
  C  C73  1  0.410200  0.006300  0.320000  1.0  -0.149
  C  C74  1  0.395600  0.969900  0.164400  1.0  -0.0767
  C  C75  1  0.363000  0.896300  0.161300  1.0  0.2727
  C  C76  1  0.349200  0.858400  0.317800  1.0  0.1865
  C  C77  1  0.363300  0.894700  0.473200  1.0  0.2843
  C  C78  1  0.394300  0.969000  0.472100  1.0  -0.1008
  C  C79  1  0.941200  0.914300  0.178000  1.0  0.7281
  C  C80  1  0.910200  0.993700  0.180000  1.0  -0.1491
  C  C81  1  0.895600  0.030100  0.335600  1.0  -0.0757
  C  C82  1  0.863000  0.103700  0.338700  1.0  0.271
  C  C83  1  0.849200  0.141600  0.182200  1.0  0.1867
  C  C84  1  0.863300  0.105300  0.026800  1.0  0.287
  C  C85  1  0.894300  0.031000  0.027900  1.0  -0.1027
  C  C86  1  0.558800  0.585700  0.178000  1.0  0.7287
  C  C87  1  0.589800  0.506300  0.180000  1.0  -0.1493
  C  C88  1  0.604400  0.469900  0.335600  1.0  -0.0772
  C  C89  1  0.637000  0.396300  0.338700  1.0  0.2714
  C  C90  1  0.650800  0.358400  0.182200  1.0  0.1867
  C  C91  1  0.636700  0.394700  0.026800  1.0  0.2866
  C  C92  1  0.605700  0.469000  0.027900  1.0  -0.1037
  O  O93  1  0.927500  0.627700  0.547700  1.0  -0.5486
  O  O94  1  0.978200  0.610300  0.804100  1.0  -0.6457
  O  O95  1  0.843270  0.361290  0.983400  1.0  -0.7475
  O  O96  1  0.821140  0.286080  0.684600  1.0  -0.7726
  O  O97  1  0.844810  0.358020  0.383100  1.0  -0.7776
  O  O98  1  0.992400  0.255100  0.926600  1.0  -0.5058
  O  O99  1  0.732400  0.591800  0.941600  1.0  -0.5576
  O  O100  1  0.572500  0.872300  0.547700  1.0  -0.5452
  O  O101  1  0.521800  0.889700  0.804100  1.0  -0.6459
  O  O102  1  0.656730  0.138710  0.983400  1.0  -0.7468
  O  O103  1  0.678860  0.213920  0.684600  1.0  -0.7718
  O  O104  1  0.655190  0.141980  0.383100  1.0  -0.7779
  O  O105  1  0.507600  0.244900  0.926600  1.0  -0.5065
  O  O106  1  0.767600  0.908200  0.941600  1.0  -0.569
  O  O107  1  0.072500  0.127700  0.952300  1.0  -0.5482
  O  O108  1  0.021800  0.110300  0.695900  1.0  -0.6452
  O  O109  1  0.156730  0.861290  0.516600  1.0  -0.7469
  O  O110  1  0.178860  0.786080  0.815400  1.0  -0.7731
  O  O111  1  0.155190  0.858020  0.116900  1.0  -0.7761
  O  O112  1  0.007600  0.755100  0.573400  1.0  -0.5062
  O  O113  1  0.267600  0.091800  0.558400  1.0  -0.5594
  O  O114  1  0.427500  0.372300  0.952300  1.0  -0.5477
  O  O115  1  0.478200  0.389700  0.695900  1.0  -0.6468
  O  O116  1  0.343270  0.638710  0.516600  1.0  -0.7476
  O  O117  1  0.321140  0.713920  0.815400  1.0  -0.771
  O  O118  1  0.344810  0.641980  0.116900  1.0  -0.7771
  O  O119  1  0.492400  0.744900  0.573400  1.0  -0.5061
  O  O120  1  0.232400  0.408200  0.558400  1.0  -0.5683
  O  O121  1  0.072500  0.372300  0.452300  1.0  -0.5468
  O  O122  1  0.021800  0.389700  0.195900  1.0  -0.6466
  O  O123  1  0.156730  0.638710  0.016600  1.0  -0.7467
  O  O124  1  0.178860  0.713920  0.315400  1.0  -0.7717
  O  O125  1  0.155190  0.641980  0.616900  1.0  -0.777
  O  O126  1  0.007600  0.744900  0.073400  1.0  -0.5066
  O  O127  1  0.267600  0.408200  0.058400  1.0  -0.5694
  O  O128  1  0.427500  0.127700  0.452300  1.0  -0.5496
  O  O129  1  0.478200  0.110300  0.195900  1.0  -0.6462
  O  O130  1  0.343270  0.861290  0.016600  1.0  -0.7476
  O  O131  1  0.321140  0.786080  0.315400  1.0  -0.7726
  O  O132  1  0.344810  0.858020  0.616900  1.0  -0.7761
  O  O133  1  0.492400  0.755100  0.073400  1.0  -0.5056
  O  O134  1  0.232400  0.091800  0.058400  1.0  -0.5583
  O  O135  1  0.927500  0.872300  0.047700  1.0  -0.547
  O  O136  1  0.978200  0.889700  0.304100  1.0  -0.6457
  O  O137  1  0.843270  0.138710  0.483400  1.0  -0.7479
  O  O138  1  0.821140  0.213920  0.184600  1.0  -0.7712
  O  O139  1  0.844810  0.141980  0.883100  1.0  -0.778
  O  O140  1  0.992400  0.244900  0.426600  1.0  -0.506
  O  O141  1  0.732400  0.908200  0.441600  1.0  -0.5676
  O  O142  1  0.572500  0.627700  0.047700  1.0  -0.5467
  O  O143  1  0.521800  0.610300  0.304100  1.0  -0.6455
  O  O144  1  0.656730  0.361290  0.483400  1.0  -0.7465
  O  O145  1  0.678860  0.286080  0.184600  1.0  -0.7732
  O  O146  1  0.655190  0.358020  0.883100  1.0  -0.7776
  O  O147  1  0.507600  0.255100  0.426600  1.0  -0.5064
  O  O148  1  0.767600  0.591800  0.441600  1.0  -0.5587
