# generated using pymatgen
data_ZnH20C26(NO)6
_symmetry_space_group_name_H-M   'P 1'
_cell_length_a   11.60250000
_cell_length_b   16.39800000
_cell_length_c   16.79600000
_cell_angle_alpha   90.00000000
_cell_angle_beta   109.30000000
_cell_angle_gamma   90.00000000
_symmetry_Int_Tables_number   1
_chemical_formula_structural   ZnH20C26(NO)6
_chemical_formula_sum   'Zn4 H80 C104 N24 O24'
_cell_volume   3015.98193590
_cell_formula_units_Z   4
loop_
 _symmetry_equiv_pos_site_id
 _symmetry_equiv_pos_as_xyz
  1  'x, y, z'
loop_
 _atom_site_type_symbol
 _atom_site_label
 _atom_site_symmetry_multiplicity
 _atom_site_fract_x
 _atom_site_fract_y
 _atom_site_fract_z
 _atom_site_occupancy
 _atom_site_charge
  Zn  Zn1  1  0.332700  0.490860  0.225350  1.0  0.8856
  Zn  Zn2  1  0.332700  0.009140  0.725350  1.0  0.885
  Zn  Zn3  1  0.667300  0.990860  0.274650  1.0  0.8839
  Zn  Zn4  1  0.667300  0.509140  0.774650  1.0  0.883
  H  H5  1  0.732700  0.307900  0.819700  1.0  0.2784
  H  H6  1  0.077200  0.424000  0.927500  1.0  0.1236
  H  H7  1  0.892600  0.359100  0.886500  1.0  0.2944
  H  H8  1  0.881000  0.791700  0.133600  1.0  0.2134
  H  H9  1  0.972200  0.861700  0.074800  1.0  0.2622
  H  H10  1  0.657000  0.673500  0.987300  1.0  0.1196
  H  H11  1  0.238400  0.476900  0.033800  1.0  0.084
  H  H12  1  0.520600  0.589600  0.025500  1.0  0.0979
  H  H13  1  0.647000  0.674100  0.262400  1.0  0.1086
  H  H14  1  0.216900  0.979900  0.954700  1.0  0.1146
  H  H15  1  0.939500  0.341600  0.103100  1.0  0.1232
  H  H16  1  0.887200  0.801000  0.862800  1.0  0.1103
  H  H17  1  0.112100  0.943000  0.044600  1.0  0.1072
  H  H18  1  0.784700  0.755500  0.226800  1.0  0.097
  H  H19  1  0.997700  0.832900  0.775400  1.0  0.0963
  H  H20  1  0.578200  0.252700  0.712700  1.0  0.1195
  H  H21  1  0.425300  0.158400  0.665100  1.0  0.0771
  H  H22  1  0.476900  0.083100  0.896400  1.0  0.1038
  H  H23  1  0.633000  0.177400  0.952000  1.0  0.1228
  H  H24  1  0.101900  0.400400  0.204100  1.0  0.0812
  H  H25  1  0.732700  0.192100  0.319700  1.0  0.2787
  H  H26  1  0.077200  0.076000  0.427500  1.0  0.1231
  H  H27  1  0.892600  0.140900  0.386500  1.0  0.2948
  H  H28  1  0.881000  0.708300  0.633600  1.0  0.2142
  H  H29  1  0.972200  0.638300  0.574800  1.0  0.2618
  H  H30  1  0.657000  0.826500  0.487300  1.0  0.1197
  H  H31  1  0.238400  0.023100  0.533800  1.0  0.084
  H  H32  1  0.520600  0.910400  0.525500  1.0  0.0982
  H  H33  1  0.647000  0.825900  0.762400  1.0  0.1087
  H  H34  1  0.216900  0.520100  0.454700  1.0  0.1149
  H  H35  1  0.939500  0.158400  0.603100  1.0  0.1231
  H  H36  1  0.887200  0.699000  0.362800  1.0  0.1099
  H  H37  1  0.112100  0.557000  0.544600  1.0  0.1072
  H  H38  1  0.784700  0.744500  0.726800  1.0  0.0968
  H  H39  1  0.997700  0.667100  0.275400  1.0  0.0962
  H  H40  1  0.578200  0.247300  0.212700  1.0  0.1195
  H  H41  1  0.425300  0.341600  0.165100  1.0  0.0773
  H  H42  1  0.476900  0.416900  0.396400  1.0  0.1041
  H  H43  1  0.633000  0.322600  0.452000  1.0  0.1227
  H  H44  1  0.101900  0.099600  0.704100  1.0  0.0811
  H  H45  1  0.267300  0.807900  0.680300  1.0  0.2789
  H  H46  1  0.922800  0.924000  0.572500  1.0  0.1233
  H  H47  1  0.107400  0.859100  0.613500  1.0  0.2937
  H  H48  1  0.119000  0.291700  0.366400  1.0  0.2147
  H  H49  1  0.027800  0.361700  0.425200  1.0  0.2626
  H  H50  1  0.343000  0.173500  0.512700  1.0  0.1186
  H  H51  1  0.761600  0.976900  0.466200  1.0  0.0846
  H  H52  1  0.479400  0.089600  0.474500  1.0  0.0983
  H  H53  1  0.353000  0.174100  0.237600  1.0  0.1093
  H  H54  1  0.783100  0.479900  0.545300  1.0  0.1149
  H  H55  1  0.060500  0.841600  0.396900  1.0  0.125
  H  H56  1  0.112800  0.301000  0.637200  1.0  0.1108
  H  H57  1  0.887900  0.443000  0.455400  1.0  0.1073
  H  H58  1  0.215300  0.255500  0.273200  1.0  0.0971
  H  H59  1  0.002300  0.332900  0.724600  1.0  0.0959
  H  H60  1  0.421800  0.752700  0.787300  1.0  0.1208
  H  H61  1  0.574700  0.658400  0.834900  1.0  0.0784
  H  H62  1  0.523100  0.583100  0.603600  1.0  0.1034
  H  H63  1  0.367000  0.677400  0.548000  1.0  0.1231
  H  H64  1  0.898100  0.900400  0.295900  1.0  0.0807
  H  H65  1  0.267300  0.692100  0.180300  1.0  0.2787
  H  H66  1  0.922800  0.576000  0.072500  1.0  0.1235
  H  H67  1  0.107400  0.640900  0.113500  1.0  0.2937
  H  H68  1  0.119000  0.208300  0.866400  1.0  0.2145
  H  H69  1  0.027800  0.138300  0.925200  1.0  0.2623
  H  H70  1  0.343000  0.326500  0.012700  1.0  0.1186
  H  H71  1  0.761600  0.523100  0.966200  1.0  0.085
  H  H72  1  0.479400  0.410400  0.974500  1.0  0.0981
  H  H73  1  0.353000  0.325900  0.737600  1.0  0.1092
  H  H74  1  0.783100  0.020100  0.045300  1.0  0.1147
  H  H75  1  0.060500  0.658400  0.896900  1.0  0.1246
  H  H76  1  0.112800  0.199000  0.137200  1.0  0.1107
  H  H77  1  0.887900  0.057000  0.955400  1.0  0.1073
  H  H78  1  0.215300  0.244500  0.773200  1.0  0.0966
  H  H79  1  0.002300  0.167100  0.224600  1.0  0.0957
  H  H80  1  0.421800  0.747300  0.287300  1.0  0.1209
  H  H81  1  0.574700  0.841600  0.334900  1.0  0.0786
  H  H82  1  0.523100  0.916900  0.103600  1.0  0.1035
  H  H83  1  0.367000  0.822600  0.048000  1.0  0.1235
  H  H84  1  0.898100  0.599600  0.795900  1.0  0.0807
  C  C85  1  0.080800  0.417800  0.983900  1.0  -0.2539
  C  C86  1  0.478100  0.569900  0.168700  1.0  0.6495
  C  C87  1  0.735800  0.722900  0.103900  1.0  0.2273
  C  C88  1  0.656000  0.673500  0.043000  1.0  -0.2114
  C  C89  1  0.569600  0.623400  0.147100  1.0  -0.1437
  C  C90  1  0.176500  0.449800  0.047900  1.0  0.1787
  C  C91  1  0.574000  0.623600  0.066300  1.0  -0.0093
  C  C92  1  0.991300  0.865700  0.964500  1.0  0.239
  C  C93  1  0.649000  0.673400  0.206900  1.0  -0.0667
  C  C94  1  0.628300  0.222700  0.835000  1.0  0.2044
  C  C95  1  0.798500  0.295700  0.939800  1.0  0.433
  C  C96  1  0.152100  0.942400  0.936700  1.0  -0.0565
  C  C97  1  0.189600  0.928500  0.797300  1.0  0.6879
  C  C98  1  0.999000  0.369600  0.087100  1.0  -0.2118
  C  C99  1  0.955700  0.835300  0.882300  1.0  -0.2192
  C  C100  1  0.120000  0.908900  0.856300  1.0  -0.1288
  C  C101  1  0.836900  0.793400  0.012800  1.0  0.4548
  C  C102  1  0.089000  0.920600  0.990000  1.0  -0.159
  C  C103  1  0.988500  0.375900  0.003100  1.0  0.278
  C  C104  1  0.731000  0.722100  0.185500  1.0  -0.1683
  C  C105  1  0.020600  0.855500  0.829900  1.0  -0.0124
  C  C106  1  0.561600  0.217000  0.751400  1.0  -0.2278
  C  C107  1  0.470500  0.159800  0.723000  1.0  0.1734
  C  C108  1  0.501600  0.116300  0.859400  1.0  0.1536
  C  C109  1  0.594400  0.172500  0.893400  1.0  -0.2048
  C  C110  1  0.097100  0.404600  0.147200  1.0  0.1779
  C  C111  1  0.080800  0.082200  0.483900  1.0  -0.2531
  C  C112  1  0.478100  0.930100  0.668700  1.0  0.6486
  C  C113  1  0.735800  0.777100  0.603900  1.0  0.227
  C  C114  1  0.656000  0.826500  0.543000  1.0  -0.2115
  C  C115  1  0.569600  0.876600  0.647100  1.0  -0.144
  C  C116  1  0.176500  0.050200  0.547900  1.0  0.1788
  C  C117  1  0.574000  0.876400  0.566300  1.0  -0.008
  C  C118  1  0.991300  0.634300  0.464500  1.0  0.2395
  C  C119  1  0.649000  0.826600  0.706900  1.0  -0.0659
  C  C120  1  0.628300  0.277300  0.335000  1.0  0.2054
  C  C121  1  0.798500  0.204300  0.439800  1.0  0.4326
  C  C122  1  0.152100  0.557600  0.436700  1.0  -0.0564
  C  C123  1  0.189600  0.571500  0.297300  1.0  0.6877
  C  C124  1  0.999000  0.130400  0.587100  1.0  -0.212
  C  C125  1  0.955700  0.664700  0.382300  1.0  -0.2187
  C  C126  1  0.120000  0.591100  0.356300  1.0  -0.1288
  C  C127  1  0.836900  0.706600  0.512800  1.0  0.4537
  C  C128  1  0.089000  0.579400  0.490000  1.0  -0.1584
  C  C129  1  0.988500  0.124100  0.503100  1.0  0.2781
  C  C130  1  0.731000  0.777900  0.685500  1.0  -0.169
  C  C131  1  0.020600  0.644500  0.329900  1.0  -0.0124
  C  C132  1  0.561600  0.283000  0.251400  1.0  -0.2279
  C  C133  1  0.470500  0.340200  0.223000  1.0  0.1734
  C  C134  1  0.501600  0.383700  0.359400  1.0  0.1537
  C  C135  1  0.594400  0.327500  0.393400  1.0  -0.2047
  C  C136  1  0.097100  0.095400  0.647200  1.0  0.1779
  C  C137  1  0.919200  0.917800  0.516100  1.0  -0.2543
  C  C138  1  0.521900  0.069900  0.331300  1.0  0.6484
  C  C139  1  0.264200  0.222900  0.396100  1.0  0.227
  C  C140  1  0.344000  0.173500  0.457000  1.0  -0.2144
  C  C141  1  0.430400  0.123400  0.352900  1.0  -0.1442
  C  C142  1  0.823500  0.949800  0.452100  1.0  0.1793
  C  C143  1  0.426000  0.123600  0.433700  1.0  -0.0096
  C  C144  1  0.008700  0.365700  0.535500  1.0  0.2385
  C  C145  1  0.351000  0.173400  0.293100  1.0  -0.0678
  C  C146  1  0.371700  0.722700  0.665000  1.0  0.2054
  C  C147  1  0.201500  0.795700  0.560200  1.0  0.4325
  C  C148  1  0.847900  0.442400  0.563300  1.0  -0.0569
  C  C149  1  0.810400  0.428500  0.702700  1.0  0.6892
  C  C150  1  0.001000  0.869600  0.412900  1.0  -0.214
  C  C151  1  0.044300  0.335300  0.617700  1.0  -0.2181
  C  C152  1  0.880000  0.408900  0.643700  1.0  -0.1299
  C  C153  1  0.163100  0.293400  0.487200  1.0  0.4537
  C  C154  1  0.911000  0.420600  0.510000  1.0  -0.1579
  C  C155  1  0.011500  0.875900  0.496900  1.0  0.2775
  C  C156  1  0.269000  0.222100  0.314500  1.0  -0.1684
  C  C157  1  0.979400  0.355500  0.670100  1.0  -0.0124
  C  C158  1  0.438400  0.717000  0.748600  1.0  -0.2309
  C  C159  1  0.529500  0.659800  0.777000  1.0  0.1726
  C  C160  1  0.498400  0.616300  0.640600  1.0  0.1529
  C  C161  1  0.405600  0.672500  0.606600  1.0  -0.2052
  C  C162  1  0.902900  0.904600  0.352800  1.0  0.1782
  C  C163  1  0.919200  0.582200  0.016100  1.0  -0.2538
  C  C164  1  0.521900  0.430100  0.831300  1.0  0.6486
  C  C165  1  0.264200  0.277100  0.896100  1.0  0.2268
  C  C166  1  0.344000  0.326500  0.957000  1.0  -0.2143
  C  C167  1  0.430400  0.376600  0.852900  1.0  -0.1446
  C  C168  1  0.823500  0.550200  0.952100  1.0  0.1798
  C  C169  1  0.426000  0.376400  0.933700  1.0  -0.0082
  C  C170  1  0.008700  0.134300  0.035500  1.0  0.2388
  C  C171  1  0.351000  0.326600  0.793100  1.0  -0.0684
  C  C172  1  0.371700  0.777300  0.165000  1.0  0.2061
  C  C173  1  0.201500  0.704300  0.060200  1.0  0.4325
  C  C174  1  0.847900  0.057600  0.063300  1.0  -0.0569
  C  C175  1  0.810400  0.071500  0.202700  1.0  0.6892
  C  C176  1  0.001000  0.630400  0.912900  1.0  -0.2137
  C  C177  1  0.044300  0.164700  0.117700  1.0  -0.2177
  C  C178  1  0.880000  0.091100  0.143700  1.0  -0.1297
  C  C179  1  0.163100  0.206600  0.987200  1.0  0.4536
  C  C180  1  0.911000  0.079400  0.010000  1.0  -0.1576
  C  C181  1  0.011500  0.624100  0.996900  1.0  0.2776
  C  C182  1  0.269000  0.277900  0.814500  1.0  -0.1694
  C  C183  1  0.979400  0.144500  0.170100  1.0  -0.0118
  C  C184  1  0.438400  0.783000  0.248600  1.0  -0.2314
  C  C185  1  0.529500  0.840200  0.277000  1.0  0.1723
  C  C186  1  0.498400  0.883700  0.140600  1.0  0.1539
  C  C187  1  0.405600  0.827500  0.106600  1.0  -0.2054
  C  C188  1  0.902900  0.595400  0.852800  1.0  0.1783
  N  N189  1  0.186700  0.444700  0.129300  1.0  -0.3416
  N  N190  1  0.721400  0.279000  0.859900  1.0  -0.2962
  N  N191  1  0.893200  0.345400  0.936600  1.0  -0.3596
  N  N192  1  0.825700  0.772200  0.089100  1.0  -0.2541
  N  N193  1  0.937800  0.842700  0.024100  1.0  -0.347
  N  N194  1  0.443500  0.106700  0.773100  1.0  -0.3629
  N  N195  1  0.186700  0.055300  0.629300  1.0  -0.3407
  N  N196  1  0.721400  0.221000  0.359900  1.0  -0.2962
  N  N197  1  0.893200  0.154600  0.436600  1.0  -0.3591
  N  N198  1  0.825700  0.727800  0.589100  1.0  -0.255
  N  N199  1  0.937800  0.657300  0.524100  1.0  -0.3477
  N  N200  1  0.443500  0.393300  0.273100  1.0  -0.3616
  N  N201  1  0.813300  0.944700  0.370700  1.0  -0.3455
  N  N202  1  0.278600  0.779000  0.640100  1.0  -0.2963
  N  N203  1  0.106800  0.845400  0.563400  1.0  -0.3592
  N  N204  1  0.174300  0.272200  0.410900  1.0  -0.2522
  N  N205  1  0.062200  0.342700  0.475900  1.0  -0.3501
  N  N206  1  0.556500  0.606700  0.726900  1.0  -0.362
  N  N207  1  0.813300  0.555300  0.870700  1.0  -0.3463
  N  N208  1  0.278600  0.721000  0.140100  1.0  -0.2969
  N  N209  1  0.106800  0.654600  0.063400  1.0  -0.3587
  N  N210  1  0.174300  0.227800  0.910900  1.0  -0.2531
  N  N211  1  0.062200  0.157300  0.975900  1.0  -0.35
  N  N212  1  0.556500  0.893300  0.226900  1.0  -0.362
  O  O213  1  0.785400  0.271800  0.005500  1.0  -0.5277
  O  O214  1  0.767300  0.771900  0.944080  1.0  -0.5266
  O  O215  1  0.174000  0.886020  0.733120  1.0  -0.6199
  O  O216  1  0.426200  0.514500  0.117800  1.0  -0.6057
  O  O217  1  0.457900  0.580700  0.236800  1.0  -0.5721
  O  O218  1  0.262200  0.988990  0.816600  1.0  -0.5865
  O  O219  1  0.785400  0.228200  0.505500  1.0  -0.5283
  O  O220  1  0.767300  0.728100  0.444080  1.0  -0.5266
  O  O221  1  0.174000  0.613980  0.233120  1.0  -0.6196
  O  O222  1  0.426200  0.985500  0.617800  1.0  -0.6054
  O  O223  1  0.457900  0.919300  0.736800  1.0  -0.5721
  O  O224  1  0.262200  0.511010  0.316600  1.0  -0.5875
  O  O225  1  0.214600  0.771800  0.494500  1.0  -0.5254
  O  O226  1  0.232700  0.271900  0.555920  1.0  -0.5279
  O  O227  1  0.826000  0.386020  0.766880  1.0  -0.6172
  O  O228  1  0.573800  0.014500  0.382200  1.0  -0.6052
  O  O229  1  0.542100  0.080700  0.263200  1.0  -0.5729
  O  O230  1  0.737800  0.488990  0.683400  1.0  -0.5876
  O  O231  1  0.214600  0.728200  0.994500  1.0  -0.5252
  O  O232  1  0.232700  0.228100  0.055920  1.0  -0.5279
  O  O233  1  0.826000  0.113980  0.266880  1.0  -0.6173
  O  O234  1  0.573800  0.485500  0.882200  1.0  -0.6058
  O  O235  1  0.542100  0.419300  0.763200  1.0  -0.5731
  O  O236  1  0.737800  0.011010  0.183400  1.0  -0.5887
