# generated using pymatgen
data_Al2P2O8F
_symmetry_space_group_name_H-M   'P 1'
_cell_length_a   9.40490000
_cell_length_b   12.77390000
_cell_length_c   8.58050000
_cell_angle_alpha   90.00000000
_cell_angle_beta   112.79600000
_cell_angle_gamma   90.00000000
_symmetry_Int_Tables_number   1
_chemical_formula_structural   Al2P2O8F
_chemical_formula_sum   'Al8 P8 O32 F4'
_cell_volume   950.31916892
_cell_formula_units_Z   4
loop_
 _symmetry_equiv_pos_site_id
 _symmetry_equiv_pos_as_xyz
  1  'x, y, z'
loop_
 _atom_site_type_symbol
 _atom_site_label
 _atom_site_symmetry_multiplicity
 _atom_site_fract_x
 _atom_site_fract_y
 _atom_site_fract_z
 _atom_site_occupancy
 _atom_site_charge
  Al  Al1  1  0.436100  0.098900  0.408400  1.0  1.7748
  Al  Al2  1  0.126300  0.382300  0.180300  1.0  1.8784
  Al  Al3  1  0.563900  0.598900  0.091600  1.0  1.7737
  Al  Al4  1  0.873700  0.882300  0.319700  1.0  1.8787
  Al  Al5  1  0.563900  0.901100  0.591600  1.0  1.7731
  Al  Al6  1  0.873700  0.617700  0.819700  1.0  1.8783
  Al  Al7  1  0.436100  0.401100  0.908400  1.0  1.7748
  Al  Al8  1  0.126300  0.117700  0.680300  1.0  1.8789
  P  P9  1  0.215900  0.950100  0.481800  1.0  1.8552
  P  P10  1  0.294100  0.211200  0.047000  1.0  2.0372
  P  P11  1  0.784100  0.450100  0.018200  1.0  1.8547
  P  P12  1  0.705900  0.711200  0.453000  1.0  2.0335
  P  P13  1  0.784100  0.049900  0.518200  1.0  1.8573
  P  P14  1  0.705900  0.788800  0.953000  1.0  2.0336
  P  P15  1  0.215900  0.549900  0.981800  1.0  1.8573
  P  P16  1  0.294100  0.288800  0.547000  1.0  2.037
  O  O17  1  0.380000  0.146700  0.194100  1.0  -0.849
  O  O18  1  0.405800  0.275800  0.005400  1.0  -0.8995
  O  O19  1  0.169000  0.280100  0.075800  1.0  -0.9639
  O  O20  1  0.237700  0.032900  0.369200  1.0  -0.7426
  O  O21  1  0.346600  0.875000  0.537600  1.0  -0.703
  O  O22  1  0.066800  0.888000  0.375400  1.0  -0.9743
  O  O23  1  0.198800  0.997000  0.637900  1.0  -0.8892
  O  O24  1  0.203500  0.140800  0.895500  1.0  -0.994
  O  O25  1  0.620000  0.646700  0.305900  1.0  -0.849
  O  O26  1  0.594200  0.775800  0.494600  1.0  -0.8993
  O  O27  1  0.831000  0.780100  0.424200  1.0  -0.9649
  O  O28  1  0.762300  0.532900  0.130800  1.0  -0.7434
  O  O29  1  0.653400  0.375000  0.962400  1.0  -0.7031
  O  O30  1  0.933200  0.388000  0.124600  1.0  -0.9757
  O  O31  1  0.801200  0.497000  0.862100  1.0  -0.8895
  O  O32  1  0.796500  0.640800  0.604500  1.0  -0.9939
  O  O33  1  0.620000  0.853300  0.805900  1.0  -0.8499
  O  O34  1  0.594200  0.724200  0.994600  1.0  -0.8988
  O  O35  1  0.831000  0.719900  0.924200  1.0  -0.9658
  O  O36  1  0.762300  0.967100  0.630800  1.0  -0.7439
  O  O37  1  0.653400  0.125000  0.462400  1.0  -0.7045
  O  O38  1  0.933200  0.112000  0.624600  1.0  -0.9766
  O  O39  1  0.801200  0.003000  0.362100  1.0  -0.8891
  O  O40  1  0.796500  0.859200  0.104500  1.0  -0.9973
  O  O41  1  0.380000  0.353300  0.694100  1.0  -0.849
  O  O42  1  0.405800  0.224200  0.505400  1.0  -0.8989
  O  O43  1  0.169000  0.219900  0.575800  1.0  -0.965
  O  O44  1  0.237700  0.467100  0.869200  1.0  -0.7427
  O  O45  1  0.346600  0.625000  0.037600  1.0  -0.7045
  O  O46  1  0.066800  0.612000  0.875400  1.0  -0.974
  O  O47  1  0.198800  0.503000  0.137900  1.0  -0.889
  O  O48  1  0.203500  0.359200  0.395500  1.0  -0.9971
  F  F49  1  0.488700  0.963500  0.366300  1.0  -0.524
  F  F50  1  0.511300  0.463500  0.133700  1.0  -0.5242
  F  F51  1  0.511300  0.036500  0.633700  1.0  -0.5239
  F  F52  1  0.488700  0.536500  0.866300  1.0  -0.5241
