# generated using pymatgen
data_Al3P3HO14
_symmetry_space_group_name_H-M   'P 1'
_cell_length_a   10.05830000
_cell_length_b   18.08500000
_cell_length_c   15.61920000
_cell_angle_alpha   90.00000000
_cell_angle_beta   90.00000000
_cell_angle_gamma   90.00000000
_symmetry_Int_Tables_number   1
_chemical_formula_structural   Al3P3HO14
_chemical_formula_sum   'Al24 P24 H8 O112'
_cell_volume   2841.20050943
_cell_formula_units_Z   8
loop_
 _symmetry_equiv_pos_site_id
 _symmetry_equiv_pos_as_xyz
  1  'x, y, z'
loop_
 _atom_site_type_symbol
 _atom_site_label
 _atom_site_symmetry_multiplicity
 _atom_site_fract_x
 _atom_site_fract_y
 _atom_site_fract_z
 _atom_site_occupancy
 _atom_site_charge
  Al  Al1  1  0.181600  0.216580  0.464140  1.0  1.7898
  Al  Al2  1  0.334400  0.325470  0.149910  1.0  1.8595
  Al  Al3  1  0.150000  0.402960  0.495100  1.0  1.8926
  Al  Al4  1  0.318400  0.783420  0.964140  1.0  1.7903
  Al  Al5  1  0.165600  0.674530  0.649910  1.0  1.8586
  Al  Al6  1  0.350000  0.597040  0.995100  1.0  1.8896
  Al  Al7  1  0.818400  0.716580  0.035860  1.0  1.7883
  Al  Al8  1  0.665600  0.825470  0.350090  1.0  1.8557
  Al  Al9  1  0.850000  0.902960  0.004900  1.0  1.8908
  Al  Al10  1  0.681600  0.283420  0.535860  1.0  1.7902
  Al  Al11  1  0.834400  0.174530  0.850090  1.0  1.8533
  Al  Al12  1  0.650000  0.097040  0.504900  1.0  1.889
  Al  Al13  1  0.818400  0.783420  0.535860  1.0  1.789
  Al  Al14  1  0.665600  0.674530  0.850090  1.0  1.8539
  Al  Al15  1  0.850000  0.597040  0.504900  1.0  1.8883
  Al  Al16  1  0.681600  0.216580  0.035860  1.0  1.7897
  Al  Al17  1  0.834400  0.325470  0.350090  1.0  1.8553
  Al  Al18  1  0.650000  0.402960  0.004900  1.0  1.8923
  Al  Al19  1  0.181600  0.283420  0.964140  1.0  1.7916
  Al  Al20  1  0.334400  0.174530  0.649910  1.0  1.8585
  Al  Al21  1  0.150000  0.097040  0.995100  1.0  1.8906
  Al  Al22  1  0.318400  0.716580  0.464140  1.0  1.7884
  Al  Al23  1  0.165600  0.825470  0.149910  1.0  1.8597
  Al  Al24  1  0.350000  0.902960  0.495100  1.0  1.8909
  P  P25  1  0.147200  0.328700  0.316920  1.0  1.8977
  P  P26  1  0.381300  0.315180  0.558930  1.0  1.8927
  P  P27  1  0.140300  0.575380  0.486470  1.0  1.8721
  P  P28  1  0.352800  0.671300  0.816920  1.0  1.8969
  P  P29  1  0.118700  0.684820  0.058930  1.0  1.8949
  P  P30  1  0.359700  0.424620  0.986470  1.0  1.8707
  P  P31  1  0.852800  0.828700  0.183080  1.0  1.8983
  P  P32  1  0.618700  0.815180  0.941070  1.0  1.8919
  P  P33  1  0.859700  0.075380  0.013530  1.0  1.8712
  P  P34  1  0.647200  0.171300  0.683080  1.0  1.8995
  P  P35  1  0.881300  0.184820  0.441070  1.0  1.8946
  P  P36  1  0.640300  0.924620  0.513530  1.0  1.8723
  P  P37  1  0.852800  0.671300  0.683080  1.0  1.8983
  P  P38  1  0.618700  0.684820  0.441070  1.0  1.8941
  P  P39  1  0.859700  0.424620  0.513530  1.0  1.871
  P  P40  1  0.647200  0.328700  0.183080  1.0  1.8997
  P  P41  1  0.881300  0.315180  0.941070  1.0  1.8923
  P  P42  1  0.640300  0.575380  0.013530  1.0  1.8728
  P  P43  1  0.147200  0.171300  0.816920  1.0  1.8978
  P  P44  1  0.381300  0.184820  0.058930  1.0  1.8955
  P  P45  1  0.140300  0.924620  0.986470  1.0  1.8716
  P  P46  1  0.352800  0.828700  0.316920  1.0  1.8966
  P  P47  1  0.118700  0.815180  0.558930  1.0  1.892
  P  P48  1  0.359700  0.075380  0.486470  1.0  1.8706
  H  H49  1  0.046900  0.297100  0.548400  1.0  0.3328
  H  H50  1  0.453100  0.702900  0.048400  1.0  0.3326
  H  H51  1  0.953100  0.797100  0.951600  1.0  0.3334
  H  H52  1  0.546900  0.202900  0.451600  1.0  0.3329
  H  H53  1  0.953100  0.702900  0.451600  1.0  0.3332
  H  H54  1  0.546900  0.297100  0.951600  1.0  0.3329
  H  H55  1  0.046900  0.202900  0.048400  1.0  0.3325
  H  H56  1  0.453100  0.797100  0.548400  1.0  0.333
  O  O57  1  0.000200  0.336200  0.291100  1.0  -0.7383
  O  O58  1  0.178100  0.251200  0.349700  1.0  -0.7789
  O  O59  1  0.182700  0.388700  0.382800  1.0  -0.8637
  O  O60  1  0.233800  0.346600  0.238900  1.0  -0.9431
  O  O61  1  0.362000  0.272400  0.642900  1.0  -0.8248
  O  O62  1  0.343000  0.266600  0.482900  1.0  -0.8232
  O  O63  1  0.292400  0.384400  0.562300  1.0  -0.8267
  O  O64  1  0.524900  0.339800  0.549500  1.0  -0.7701
  O  O65  1  0.374100  0.099800  0.580500  1.0  -0.9329
  O  O66  1  0.279300  0.131600  0.434100  1.0  -0.801
  O  O67  1  0.206900  0.500300  0.482100  1.0  -0.7956
  O  O68  1  0.000700  0.429100  0.550900  1.0  -0.8546
  O  O69  1  0.093300  0.302700  0.499000  1.0  -0.9253
  O  O70  1  0.181400  0.187200  0.580500  1.0  -0.6606
  O  O71  1  0.499800  0.663800  0.791100  1.0  -0.7374
  O  O72  1  0.321900  0.748800  0.849700  1.0  -0.7773
  O  O73  1  0.317300  0.611300  0.882800  1.0  -0.8638
  O  O74  1  0.266200  0.653400  0.738900  1.0  -0.9426
  O  O75  1  0.138000  0.727600  0.142900  1.0  -0.8253
  O  O76  1  0.157000  0.733400  0.982900  1.0  -0.8239
  O  O77  1  0.207600  0.615600  0.062300  1.0  -0.8261
  O  O78  1  0.975100  0.660200  0.049500  1.0  -0.7704
  O  O79  1  0.125900  0.900200  0.080500  1.0  -0.9327
  O  O80  1  0.220700  0.868400  0.934100  1.0  -0.801
  O  O81  1  0.293100  0.499700  0.982100  1.0  -0.7958
  O  O82  1  0.499300  0.570900  0.050900  1.0  -0.8546
  O  O83  1  0.406700  0.697300  0.999000  1.0  -0.9251
  O  O84  1  0.318600  0.812800  0.080500  1.0  -0.6592
  O  O85  1  0.999800  0.836200  0.208900  1.0  -0.7382
  O  O86  1  0.821900  0.751200  0.150300  1.0  -0.7791
  O  O87  1  0.817300  0.888700  0.117200  1.0  -0.864
  O  O88  1  0.766200  0.846600  0.261100  1.0  -0.9442
  O  O89  1  0.638000  0.772400  0.857100  1.0  -0.8236
  O  O90  1  0.657000  0.766600  0.017100  1.0  -0.8247
  O  O91  1  0.707600  0.884400  0.937700  1.0  -0.826
  O  O92  1  0.475100  0.839800  0.950500  1.0  -0.7703
  O  O93  1  0.625900  0.599800  0.919500  1.0  -0.9296
  O  O94  1  0.720700  0.631600  0.065900  1.0  -0.8012
  O  O95  1  0.793100  0.000300  0.017900  1.0  -0.7952
  O  O96  1  0.999300  0.929100  0.949100  1.0  -0.8526
  O  O97  1  0.906700  0.802700  0.001000  1.0  -0.922
  O  O98  1  0.818600  0.687200  0.919500  1.0  -0.661
  O  O99  1  0.500200  0.163800  0.708900  1.0  -0.7389
  O  O100  1  0.678100  0.248800  0.650300  1.0  -0.7771
  O  O101  1  0.682700  0.111300  0.617200  1.0  -0.8626
  O  O102  1  0.733800  0.153400  0.761100  1.0  -0.9432
  O  O103  1  0.862000  0.227600  0.357100  1.0  -0.8227
  O  O104  1  0.843000  0.233400  0.517100  1.0  -0.824
  O  O105  1  0.792400  0.115600  0.437700  1.0  -0.824
  O  O106  1  0.024900  0.160200  0.450500  1.0  -0.7714
  O  O107  1  0.874100  0.400200  0.419500  1.0  -0.9338
  O  O108  1  0.779300  0.368400  0.565900  1.0  -0.8016
  O  O109  1  0.706900  0.999700  0.517900  1.0  -0.7947
  O  O110  1  0.500700  0.070900  0.449100  1.0  -0.8533
  O  O111  1  0.593300  0.197300  0.501000  1.0  -0.9226
  O  O112  1  0.681400  0.312800  0.419500  1.0  -0.6603
  O  O113  1  0.999800  0.663800  0.708900  1.0  -0.7378
  O  O114  1  0.821900  0.748800  0.650300  1.0  -0.7773
  O  O115  1  0.817300  0.611300  0.617200  1.0  -0.8635
  O  O116  1  0.766200  0.653400  0.761100  1.0  -0.9434
  O  O117  1  0.638000  0.727600  0.357100  1.0  -0.8224
  O  O118  1  0.657000  0.733400  0.517100  1.0  -0.8246
  O  O119  1  0.707600  0.615600  0.437700  1.0  -0.8218
  O  O120  1  0.475100  0.660200  0.450500  1.0  -0.7712
  O  O121  1  0.625900  0.900200  0.419500  1.0  -0.9332
  O  O122  1  0.720700  0.868400  0.565900  1.0  -0.8001
  O  O123  1  0.793100  0.499700  0.517900  1.0  -0.7936
  O  O124  1  0.999300  0.570900  0.449100  1.0  -0.8526
  O  O125  1  0.906700  0.697300  0.501000  1.0  -0.9224
  O  O126  1  0.818600  0.812800  0.419500  1.0  -0.6601
  O  O127  1  0.500200  0.336200  0.208900  1.0  -0.7382
  O  O128  1  0.678100  0.251200  0.150300  1.0  -0.779
  O  O129  1  0.682700  0.388700  0.117200  1.0  -0.8626
  O  O130  1  0.733800  0.346600  0.261100  1.0  -0.9437
  O  O131  1  0.862000  0.272400  0.857100  1.0  -0.8235
  O  O132  1  0.843000  0.266600  0.017100  1.0  -0.8243
  O  O133  1  0.792400  0.384400  0.937700  1.0  -0.8281
  O  O134  1  0.024900  0.339800  0.950500  1.0  -0.7704
  O  O135  1  0.874100  0.099800  0.919500  1.0  -0.9301
  O  O136  1  0.779300  0.131600  0.065900  1.0  -0.8024
  O  O137  1  0.706900  0.500300  0.017900  1.0  -0.7933
  O  O138  1  0.500700  0.429100  0.949100  1.0  -0.8531
  O  O139  1  0.593300  0.302700  0.001000  1.0  -0.9223
  O  O140  1  0.681400  0.187200  0.919500  1.0  -0.6612
  O  O141  1  0.000200  0.163800  0.791100  1.0  -0.7382
  O  O142  1  0.178100  0.248800  0.849700  1.0  -0.7778
  O  O143  1  0.182700  0.111300  0.882800  1.0  -0.8634
  O  O144  1  0.233800  0.153400  0.738900  1.0  -0.9422
  O  O145  1  0.362000  0.227600  0.142900  1.0  -0.8252
  O  O146  1  0.343000  0.233400  0.982900  1.0  -0.8234
  O  O147  1  0.292400  0.115600  0.062300  1.0  -0.8268
  O  O148  1  0.524900  0.160200  0.049500  1.0  -0.7707
  O  O149  1  0.374100  0.400200  0.080500  1.0  -0.9337
  O  O150  1  0.279300  0.368400  0.934100  1.0  -0.802
  O  O151  1  0.206900  0.999700  0.982100  1.0  -0.7951
  O  O152  1  0.000700  0.070900  0.050900  1.0  -0.8547
  O  O153  1  0.093300  0.197300  0.999000  1.0  -0.9253
  O  O154  1  0.181400  0.312800  0.080500  1.0  -0.6596
  O  O155  1  0.499800  0.836200  0.291100  1.0  -0.7376
  O  O156  1  0.321900  0.751200  0.349700  1.0  -0.7788
  O  O157  1  0.317300  0.888700  0.382800  1.0  -0.864
  O  O158  1  0.266200  0.846600  0.238900  1.0  -0.9432
  O  O159  1  0.138000  0.772400  0.642900  1.0  -0.8249
  O  O160  1  0.157000  0.766600  0.482900  1.0  -0.8234
  O  O161  1  0.207600  0.884400  0.562300  1.0  -0.826
  O  O162  1  0.975100  0.839800  0.549500  1.0  -0.7698
  O  O163  1  0.125900  0.599800  0.580500  1.0  -0.9318
  O  O164  1  0.220700  0.631600  0.434100  1.0  -0.8003
  O  O165  1  0.293100  0.000300  0.482100  1.0  -0.7957
  O  O166  1  0.499300  0.929100  0.550900  1.0  -0.8535
  O  O167  1  0.406700  0.802700  0.499000  1.0  -0.9249
  O  O168  1  0.318600  0.687200  0.580500  1.0  -0.6604
