# generated using pymatgen
data_Zn3P4(HO3)4
_symmetry_space_group_name_H-M   'P 1'
_cell_length_a   8.08310000
_cell_length_b   16.88410000
_cell_length_c   15.40440000
_cell_angle_alpha   90.00000000
_cell_angle_beta   90.76800000
_cell_angle_gamma   90.00000000
_symmetry_Int_Tables_number   1
_chemical_formula_structural   Zn3P4(HO3)4
_chemical_formula_sum   'Zn12 P16 H16 O48'
_cell_volume   2102.14001137
_cell_formula_units_Z   4
loop_
 _symmetry_equiv_pos_site_id
 _symmetry_equiv_pos_as_xyz
  1  'x, y, z'
loop_
 _atom_site_type_symbol
 _atom_site_label
 _atom_site_symmetry_multiplicity
 _atom_site_fract_x
 _atom_site_fract_y
 _atom_site_fract_z
 _atom_site_occupancy
 _atom_site_charge
  Zn  Zn1  1  0.651620  0.149190  0.241720  1.0  1.1195
  Zn  Zn2  1  0.853980  0.040550  0.607810  1.0  1.1467
  Zn  Zn3  1  0.933290  0.054070  0.883550  1.0  1.1504
  Zn  Zn4  1  0.848380  0.649190  0.258280  1.0  1.1198
  Zn  Zn5  1  0.646020  0.540550  0.892190  1.0  1.1462
  Zn  Zn6  1  0.566710  0.554070  0.616450  1.0  1.1498
  Zn  Zn7  1  0.348380  0.850810  0.758280  1.0  1.1195
  Zn  Zn8  1  0.146020  0.959450  0.392190  1.0  1.1464
  Zn  Zn9  1  0.066710  0.945930  0.116450  1.0  1.1491
  Zn  Zn10  1  0.151620  0.350810  0.741720  1.0  1.1195
  Zn  Zn11  1  0.353980  0.459450  0.107810  1.0  1.1467
  Zn  Zn12  1  0.433290  0.445930  0.383550  1.0  1.1497
  P  P13  1  0.767710  0.059200  0.069150  1.0  1.5974
  P  P14  1  0.797570  0.056980  0.405410  1.0  1.4243
  P  P15  1  0.647330  0.976060  0.770100  1.0  1.6048
  P  P16  1  0.048170  0.159190  0.731510  1.0  1.4855
  P  P17  1  0.732290  0.559200  0.430850  1.0  1.6048
  P  P18  1  0.702430  0.556980  0.094590  1.0  1.4243
  P  P19  1  0.852670  0.476060  0.729900  1.0  1.6058
  P  P20  1  0.451830  0.659190  0.768490  1.0  1.4866
  P  P21  1  0.232290  0.940800  0.930850  1.0  1.6059
  P  P22  1  0.202430  0.943020  0.594590  1.0  1.4244
  P  P23  1  0.352670  0.023940  0.229900  1.0  1.6056
  P  P24  1  0.951830  0.840810  0.268490  1.0  1.4956
  P  P25  1  0.267710  0.440800  0.569150  1.0  1.5979
  P  P26  1  0.297570  0.443020  0.905410  1.0  1.4244
  P  P27  1  0.147330  0.523940  0.270100  1.0  1.6044
  P  P28  1  0.548170  0.340810  0.231510  1.0  1.4943
  H  H29  1  0.618000  0.042900  0.051300  1.0  -0.0565
  H  H30  1  0.683000  0.985300  0.373800  1.0  -0.0409
  H  H31  1  0.517200  0.025200  0.809800  1.0  -0.0739
  H  H32  1  0.187700  0.107500  0.739700  1.0  -0.0561
  H  H33  1  0.882000  0.542900  0.448700  1.0  -0.058
  H  H34  1  0.817000  0.485300  0.126200  1.0  -0.0419
  H  H35  1  0.982800  0.525200  0.690200  1.0  -0.0733
  H  H36  1  0.312300  0.607500  0.760300  1.0  -0.0566
  H  H37  1  0.382000  0.957100  0.948700  1.0  -0.0579
  H  H38  1  0.317000  0.014700  0.626200  1.0  -0.0414
  H  H39  1  0.482800  0.974800  0.190200  1.0  -0.0744
  H  H40  1  0.812300  0.892500  0.260300  1.0  -0.0562
  H  H41  1  0.118000  0.457100  0.551300  1.0  -0.0564
  H  H42  1  0.183000  0.514700  0.873800  1.0  -0.041
  H  H43  1  0.017200  0.474800  0.309800  1.0  -0.075
  H  H44  1  0.687700  0.392500  0.239700  1.0  -0.056
  O  O45  1  0.780100  0.119900  0.141000  1.0  -0.7602
  O  O46  1  0.570400  0.893400  0.772600  1.0  -0.7705
  O  O47  1  0.130700  0.238200  0.722900  1.0  -0.8232
  O  O48  1  0.748900  0.128600  0.352200  1.0  -0.7632
  O  O49  1  0.749500  0.069400  0.498900  1.0  -0.7191
  O  O50  1  0.940200  0.142200  0.652200  1.0  -0.7393
  O  O51  1  0.978600  0.038100  0.395300  1.0  -0.8802
  O  O52  1  0.674300  0.005500  0.680600  1.0  -0.7658
  O  O53  1  0.798800  0.975100  0.828100  1.0  -0.7895
  O  O54  1  0.953800  0.150200  0.814900  1.0  -0.7428
  O  O55  1  0.843900  0.980400  0.088900  1.0  -0.7968
  O  O56  1  0.836400  0.097600  0.988200  1.0  -0.7612
  O  O57  1  0.719900  0.619900  0.359000  1.0  -0.7598
  O  O58  1  0.929600  0.393400  0.727400  1.0  -0.7719
  O  O59  1  0.369300  0.738200  0.777100  1.0  -0.8238
  O  O60  1  0.751100  0.628600  0.147800  1.0  -0.7644
  O  O61  1  0.750500  0.569400  0.001100  1.0  -0.7188
  O  O62  1  0.559800  0.642200  0.847800  1.0  -0.7391
  O  O63  1  0.521400  0.538100  0.104700  1.0  -0.8807
  O  O64  1  0.825700  0.505500  0.819400  1.0  -0.7646
  O  O65  1  0.701200  0.475100  0.671900  1.0  -0.791
  O  O66  1  0.546200  0.650200  0.685100  1.0  -0.7422
  O  O67  1  0.656100  0.480400  0.411100  1.0  -0.7967
  O  O68  1  0.663600  0.597600  0.511800  1.0  -0.7606
  O  O69  1  0.219900  0.880100  0.859000  1.0  -0.7593
  O  O70  1  0.429600  0.106600  0.227400  1.0  -0.7695
  O  O71  1  0.869300  0.761800  0.277100  1.0  -0.823
  O  O72  1  0.251100  0.871400  0.647800  1.0  -0.7647
  O  O73  1  0.250500  0.930600  0.501100  1.0  -0.7197
  O  O74  1  0.059800  0.857800  0.347800  1.0  -0.7381
  O  O75  1  0.021400  0.961900  0.604700  1.0  -0.8784
  O  O76  1  0.325700  0.994500  0.319400  1.0  -0.7645
  O  O77  1  0.201200  0.024900  0.171900  1.0  -0.7902
  O  O78  1  0.046200  0.849800  0.185100  1.0  -0.7427
  O  O79  1  0.156100  0.019600  0.911100  1.0  -0.7961
  O  O80  1  0.163600  0.902400  0.011800  1.0  -0.7602
  O  O81  1  0.280100  0.380100  0.641000  1.0  -0.7597
  O  O82  1  0.070400  0.606600  0.272600  1.0  -0.7682
  O  O83  1  0.630700  0.261800  0.222900  1.0  -0.8226
  O  O84  1  0.248900  0.371400  0.852200  1.0  -0.7635
  O  O85  1  0.249500  0.430600  0.998900  1.0  -0.7201
  O  O86  1  0.440200  0.357800  0.152200  1.0  -0.7373
  O  O87  1  0.478600  0.461900  0.895300  1.0  -0.878
  O  O88  1  0.174300  0.494500  0.180600  1.0  -0.7657
  O  O89  1  0.298800  0.524900  0.328100  1.0  -0.7882
  O  O90  1  0.453800  0.349800  0.314900  1.0  -0.7434
  O  O91  1  0.343900  0.519600  0.588900  1.0  -0.7963
  O  O92  1  0.336400  0.402400  0.488200  1.0  -0.7593
