# generated using pymatgen
data_ZnH33(C4O)9
_symmetry_space_group_name_H-M   'P 1'
_cell_length_a   18.77700000
_cell_length_b   8.74230000
_cell_length_c   29.73300000
_cell_angle_alpha   90.00000000
_cell_angle_beta   90.22500000
_cell_angle_gamma   90.00000000
_symmetry_Int_Tables_number   1
_chemical_formula_structural   ZnH33(C4O)9
_chemical_formula_sum   'Zn4 H132 C144 O36'
_cell_volume   4880.75821643
_cell_formula_units_Z   4
loop_
 _symmetry_equiv_pos_site_id
 _symmetry_equiv_pos_as_xyz
  1  'x, y, z'
loop_
 _atom_site_type_symbol
 _atom_site_label
 _atom_site_symmetry_multiplicity
 _atom_site_fract_x
 _atom_site_fract_y
 _atom_site_fract_z
 _atom_site_occupancy
 _atom_site_charge
  Zn  Zn1  1  0.182670  0.720690  0.249340  1.0  1.0188
  Zn  Zn2  1  0.317330  0.220690  0.250660  1.0  1.0181
  Zn  Zn3  1  0.817330  0.279310  0.750660  1.0  1.0184
  Zn  Zn4  1  0.682670  0.779310  0.749340  1.0  1.0192
  H  H5  1  0.106100  0.432900  0.135300  1.0  0.0919
  H  H6  1  0.179900  0.366200  0.150300  1.0  0.1224
  H  H7  1  0.000200  0.449300  0.161000  1.0  0.1085
  H  H8  1  0.027100  0.995400  0.172300  1.0  0.1182
  H  H9  1  0.890600  0.557100  0.148100  1.0  0.1211
  H  H10  1  0.833500  0.483800  0.179800  1.0  0.112
  H  H11  1  0.830200  0.453800  0.127900  1.0  0.1257
  H  H12  1  0.880100  0.858500  0.143000  1.0  0.1112
  H  H13  1  0.855100  0.894700  0.192100  1.0  0.1258
  H  H14  1  0.931700  0.829800  0.183700  1.0  0.1211
  H  H15  1  0.754900  0.249800  0.205200  1.0  0.1007
  H  H16  1  0.613800  0.095900  0.114000  1.0  0.1146
  H  H17  1  0.823600  0.056000  0.090700  1.0  0.1169
  H  H18  1  0.522900  0.551000  0.213900  1.0  0.1108
  H  H19  1  0.468300  0.116600  0.240400  1.0  0.1041
  H  H20  1  0.558800  0.918600  0.182200  1.0  0.1285
  H  H21  1  0.555700  0.916200  0.234800  1.0  0.1303
  H  H22  1  0.628500  0.943600  0.210500  1.0  0.1278
  H  H23  1  0.659800  0.489300  0.144300  1.0  0.1271
  H  H24  1  0.691700  0.513700  0.192600  1.0  0.1185
  H  H25  1  0.626800  0.612600  0.176400  1.0  0.1179
  H  H26  1  0.402000  0.553000  0.204000  1.0  0.0886
  H  H27  1  0.422000  0.606400  0.252900  1.0  0.0791
  H  H28  1  0.703600  0.661000  0.999500  1.0  0.1091
  H  H29  1  0.661800  0.074800  0.946300  1.0  0.1107
  H  H30  1  0.666300  0.296100  0.987800  1.0  0.1253
  H  H31  1  0.723300  0.296100  0.026500  1.0  0.1219
  H  H32  1  0.642200  0.280600  0.038000  1.0  0.1283
  H  H33  1  0.728600  0.628300  0.076400  1.0  0.1177
  H  H34  1  0.698200  0.752800  0.109100  1.0  0.1166
  H  H35  1  0.778000  0.760300  0.094000  1.0  0.1255
  H  H36  1  0.698400  0.954500  0.886300  1.0  0.0913
  H  H37  1  0.616400  0.918800  0.887400  1.0  0.1036
  H  H38  1  0.393900  0.932900  0.364700  1.0  0.0942
  H  H39  1  0.320100  0.866200  0.349700  1.0  0.1231
  H  H40  1  0.499800  0.949300  0.339000  1.0  0.1083
  H  H41  1  0.472900  0.495400  0.327700  1.0  0.1178
  H  H42  1  0.609400  0.057100  0.351900  1.0  0.1205
  H  H43  1  0.666500  0.983800  0.320200  1.0  0.1121
  H  H44  1  0.669800  0.953800  0.372100  1.0  0.1266
  H  H45  1  0.619900  0.358500  0.357000  1.0  0.1114
  H  H46  1  0.644900  0.394700  0.307900  1.0  0.1258
  H  H47  1  0.568300  0.329800  0.316300  1.0  0.1209
  H  H48  1  0.745100  0.749800  0.294800  1.0  0.1015
  H  H49  1  0.886200  0.595900  0.386000  1.0  0.1151
  H  H50  1  0.676400  0.556000  0.409300  1.0  0.1182
  H  H51  1  0.977100  0.051000  0.286100  1.0  0.1108
  H  H52  1  0.031700  0.616600  0.259600  1.0  0.1048
  H  H53  1  0.941200  0.418600  0.317800  1.0  0.1289
  H  H54  1  0.944300  0.416200  0.265200  1.0  0.1309
  H  H55  1  0.871500  0.443600  0.289500  1.0  0.1309
  H  H56  1  0.840200  0.989300  0.355700  1.0  0.1271
  H  H57  1  0.808300  0.013700  0.307400  1.0  0.1164
  H  H58  1  0.873200  0.112600  0.323600  1.0  0.1172
  H  H59  1  0.098000  0.053000  0.296000  1.0  0.088
  H  H60  1  0.078000  0.106400  0.247100  1.0  0.0793
  H  H61  1  0.796400  0.161000  0.500500  1.0  0.1092
  H  H62  1  0.838200  0.574800  0.553700  1.0  0.1109
  H  H63  1  0.833700  0.796100  0.512200  1.0  0.1253
  H  H64  1  0.776700  0.796100  0.473500  1.0  0.1271
  H  H65  1  0.857800  0.780600  0.462000  1.0  0.1294
  H  H66  1  0.771400  0.128300  0.423600  1.0  0.1174
  H  H67  1  0.801800  0.252800  0.390900  1.0  0.1166
  H  H68  1  0.722000  0.260300  0.406000  1.0  0.1261
  H  H69  1  0.801600  0.454500  0.613700  1.0  0.0916
  H  H70  1  0.883600  0.418800  0.612600  1.0  0.0994
  H  H71  1  0.893900  0.567100  0.864700  1.0  0.0945
  H  H72  1  0.820100  0.633800  0.849700  1.0  0.1227
  H  H73  1  0.999800  0.550700  0.839000  1.0  0.109
  H  H74  1  0.972900  0.004600  0.827700  1.0  0.1177
  H  H75  1  0.109400  0.442900  0.851900  1.0  0.1205
  H  H76  1  0.166500  0.516200  0.820200  1.0  0.1123
  H  H77  1  0.169800  0.546200  0.872100  1.0  0.1268
  H  H78  1  0.119900  0.141500  0.857000  1.0  0.1114
  H  H79  1  0.144900  0.105300  0.807900  1.0  0.1256
  H  H80  1  0.068300  0.170200  0.816300  1.0  0.1212
  H  H81  1  0.245100  0.750200  0.794800  1.0  0.102
  H  H82  1  0.386200  0.904100  0.886000  1.0  0.1151
  H  H83  1  0.176400  0.944000  0.909300  1.0  0.1181
  H  H84  1  0.477100  0.449000  0.786100  1.0  0.1113
  H  H85  1  0.531700  0.883400  0.759600  1.0  0.1048
  H  H86  1  0.441200  0.081400  0.817800  1.0  0.1289
  H  H87  1  0.444300  0.083800  0.765200  1.0  0.1304
  H  H88  1  0.371500  0.056400  0.789500  1.0  0.1318
  H  H89  1  0.340200  0.510700  0.855700  1.0  0.1274
  H  H90  1  0.308300  0.486300  0.807400  1.0  0.1164
  H  H91  1  0.373200  0.387400  0.823600  1.0  0.1176
  H  H92  1  0.598000  0.447000  0.796000  1.0  0.0883
  H  H93  1  0.578000  0.393600  0.747100  1.0  0.079
  H  H94  1  0.296400  0.339000  0.000500  1.0  0.1087
  H  H95  1  0.338200  0.925200  0.053700  1.0  0.1108
  H  H96  1  0.333700  0.703900  0.012200  1.0  0.1255
  H  H97  1  0.276700  0.703900  0.973500  1.0  0.1272
  H  H98  1  0.357800  0.719400  0.962000  1.0  0.1292
  H  H99  1  0.271400  0.371700  0.923600  1.0  0.1204
  H  H100  1  0.301800  0.247200  0.890900  1.0  0.117
  H  H101  1  0.222000  0.239700  0.906000  1.0  0.1261
  H  H102  1  0.301600  0.045500  0.113700  1.0  0.0918
  H  H103  1  0.383600  0.081200  0.112600  1.0  0.0992
  H  H104  1  0.606100  0.067100  0.635300  1.0  0.0913
  H  H105  1  0.679900  0.133800  0.650300  1.0  0.1222
  H  H106  1  0.500200  0.050700  0.661000  1.0  0.1089
  H  H107  1  0.527100  0.504600  0.672300  1.0  0.1184
  H  H108  1  0.390600  0.942900  0.648100  1.0  0.1206
  H  H109  1  0.333500  0.016200  0.679800  1.0  0.1119
  H  H110  1  0.330200  0.046200  0.627900  1.0  0.1254
  H  H111  1  0.380100  0.641500  0.643000  1.0  0.112
  H  H112  1  0.355100  0.605300  0.692100  1.0  0.1256
  H  H113  1  0.431700  0.670200  0.683700  1.0  0.1212
  H  H114  1  0.254900  0.250200  0.705200  1.0  0.1008
  H  H115  1  0.113800  0.404100  0.614000  1.0  0.1149
  H  H116  1  0.323600  0.444000  0.590700  1.0  0.1171
  H  H117  1  0.022900  0.949000  0.713900  1.0  0.1108
  H  H118  1  0.968300  0.383400  0.740400  1.0  0.104
  H  H119  1  0.058800  0.581400  0.682200  1.0  0.1289
  H  H120  1  0.055700  0.583800  0.734800  1.0  0.1298
  H  H121  1  0.128500  0.556400  0.710500  1.0  0.128
  H  H122  1  0.159800  0.010700  0.644300  1.0  0.1266
  H  H123  1  0.191700  0.986300  0.692600  1.0  0.1191
  H  H124  1  0.126800  0.887400  0.676400  1.0  0.1175
  H  H125  1  0.902000  0.947000  0.704000  1.0  0.0885
  H  H126  1  0.922000  0.893600  0.752900  1.0  0.0794
  H  H127  1  0.203600  0.839000  0.499500  1.0  0.1086
  H  H128  1  0.161800  0.425200  0.446300  1.0  0.1106
  H  H129  1  0.166300  0.203900  0.487800  1.0  0.1256
  H  H130  1  0.223300  0.203900  0.526500  1.0  0.1211
  H  H131  1  0.142200  0.219400  0.538000  1.0  0.1287
  H  H132  1  0.228600  0.871700  0.576400  1.0  0.1212
  H  H133  1  0.198200  0.747200  0.609100  1.0  0.1165
  H  H134  1  0.278000  0.739700  0.594000  1.0  0.1252
  H  H135  1  0.198400  0.545500  0.386300  1.0  0.092
  H  H136  1  0.116400  0.581200  0.387400  1.0  0.1038
  C  C137  1  0.127700  0.474400  0.202100  1.0  0.69
  C  C138  1  0.130600  0.378500  0.159200  1.0  -0.1421
  C  C139  1  0.025900  0.225900  0.164800  1.0  0.2292
  C  C140  1  0.981200  0.351100  0.161500  1.0  -0.1738
  C  C141  1  0.907600  0.331000  0.159000  1.0  0.0787
  C  C142  1  0.878900  0.184000  0.160900  1.0  -0.029
  C  C143  1  0.923400  0.056900  0.167500  1.0  0.0875
  C  C144  1  0.997000  0.079000  0.168800  1.0  -0.0953
  C  C145  1  0.861300  0.468800  0.153200  1.0  -0.4133
  C  C146  1  0.895000  0.895200  0.172000  1.0  -0.3709
  C  C147  1  0.801300  0.158700  0.150200  1.0  0.0407
  C  C148  1  0.745000  0.204700  0.177500  1.0  -0.0683
  C  C149  1  0.675100  0.184900  0.164400  1.0  0.0141
  C  C150  1  0.660700  0.112500  0.122800  1.0  -0.0801
  C  C151  1  0.716400  0.065600  0.094900  1.0  0.0205
  C  C152  1  0.786300  0.088100  0.108900  1.0  -0.1307
  C  C153  1  0.612500  0.238900  0.190900  1.0  -0.0338
  C  C154  1  0.598200  0.395300  0.193400  1.0  0.0528
  C  C155  1  0.533100  0.447000  0.212400  1.0  -0.2053
  C  C156  1  0.485600  0.341400  0.228600  1.0  0.2561
  C  C157  1  0.500500  0.185900  0.228300  1.0  -0.1458
  C  C158  1  0.564400  0.134100  0.209600  1.0  0.0766
  C  C159  1  0.578100  0.962200  0.209200  1.0  -0.3764
  C  C160  1  0.648700  0.513400  0.175000  1.0  -0.3855
  C  C161  1  0.395100  0.531900  0.235700  1.0  -0.0171
  C  C162  1  0.316300  0.543500  0.247300  1.0  0.7177
  C  C163  1  0.702800  0.992100  0.049900  1.0  -0.0279
  C  C164  1  0.709300  0.831900  0.044800  1.0  0.0984
  C  C165  1  0.699000  0.766200  0.003000  1.0  -0.1463
  C  C166  1  0.681600  0.857300  0.965900  1.0  0.2545
  C  C167  1  0.673900  0.014500  0.970900  1.0  -0.1973
  C  C168  1  0.684400  0.082000  0.013300  1.0  0.0892
  C  C169  1  0.678500  0.254500  0.016700  1.0  -0.3958
  C  C170  1  0.730500  0.734400  0.084700  1.0  -0.4172
  C  C171  1  0.663400  0.872900  0.886900  1.0  -0.0291
  C  C172  1  0.671100  0.774200  0.845200  1.0  0.6769
  C  C173  1  0.372300  0.974400  0.297900  1.0  0.6898
  C  C174  1  0.369400  0.878500  0.340800  1.0  -0.1436
  C  C175  1  0.474100  0.725900  0.335200  1.0  0.2307
  C  C176  1  0.518800  0.851100  0.338500  1.0  -0.1754
  C  C177  1  0.592400  0.831000  0.341000  1.0  0.076
  C  C178  1  0.621100  0.684000  0.339100  1.0  -0.0287
  C  C179  1  0.576600  0.556900  0.332500  1.0  0.0864
  C  C180  1  0.503000  0.579000  0.331200  1.0  -0.0951
  C  C181  1  0.638700  0.968800  0.346800  1.0  -0.4129
  C  C182  1  0.605000  0.395200  0.328000  1.0  -0.3709
  C  C183  1  0.698700  0.658700  0.349800  1.0  0.0398
  C  C184  1  0.755000  0.704700  0.322500  1.0  -0.0694
  C  C185  1  0.824900  0.684900  0.335600  1.0  0.015
  C  C186  1  0.839300  0.612500  0.377200  1.0  -0.0781
  C  C187  1  0.783600  0.565600  0.405100  1.0  0.0224
  C  C188  1  0.713700  0.588100  0.391100  1.0  -0.1317
  C  C189  1  0.887500  0.738900  0.309100  1.0  -0.034
  C  C190  1  0.901800  0.895300  0.306600  1.0  0.0534
  C  C191  1  0.966900  0.947000  0.287600  1.0  -0.2035
  C  C192  1  0.014400  0.841400  0.271400  1.0  0.2562
  C  C193  1  0.999500  0.685900  0.271700  1.0  -0.1464
  C  C194  1  0.935600  0.634100  0.290400  1.0  0.0771
  C  C195  1  0.921900  0.462200  0.290800  1.0  -0.3759
  C  C196  1  0.851300  0.013400  0.325000  1.0  -0.3868
  C  C197  1  0.104900  0.031900  0.264300  1.0  -0.0168
  C  C198  1  0.183700  0.043500  0.252700  1.0  0.7178
  C  C199  1  0.797200  0.492100  0.450100  1.0  -0.0292
  C  C200  1  0.790700  0.331900  0.455200  1.0  0.0984
  C  C201  1  0.801000  0.266200  0.497000  1.0  -0.1463
  C  C202  1  0.818400  0.357300  0.534100  1.0  0.2534
  C  C203  1  0.826100  0.514500  0.529100  1.0  -0.1967
  C  C204  1  0.815600  0.582000  0.486700  1.0  0.0881
  C  C205  1  0.821500  0.754500  0.483300  1.0  -0.3993
  C  C206  1  0.769500  0.234400  0.415300  1.0  -0.4186
  C  C207  1  0.836600  0.372900  0.613100  1.0  -0.0283
  C  C208  1  0.828900  0.274200  0.654800  1.0  0.6782
  C  C209  1  0.872300  0.525600  0.797900  1.0  0.6894
  C  C210  1  0.869400  0.621500  0.840800  1.0  -0.144
  C  C211  1  0.974100  0.774100  0.835200  1.0  0.2302
  C  C212  1  0.018800  0.648900  0.838500  1.0  -0.1747
  C  C213  1  0.092400  0.669000  0.841000  1.0  0.0763
  C  C214  1  0.121100  0.816000  0.839100  1.0  -0.0287
  C  C215  1  0.076600  0.943100  0.832500  1.0  0.0859
  C  C216  1  0.003000  0.921000  0.831200  1.0  -0.0955
  C  C217  1  0.138700  0.531200  0.846800  1.0  -0.4136
  C  C218  1  0.105000  0.104800  0.828000  1.0  -0.369
  C  C219  1  0.198700  0.841300  0.849800  1.0  0.0397
  C  C220  1  0.255000  0.795300  0.822500  1.0  -0.0696
  C  C221  1  0.324900  0.815100  0.835600  1.0  0.015
  C  C222  1  0.339300  0.887500  0.877200  1.0  -0.0784
  C  C223  1  0.283600  0.934400  0.905100  1.0  0.0224
  C  C224  1  0.213700  0.911900  0.891100  1.0  -0.1309
  C  C225  1  0.387500  0.761100  0.809100  1.0  -0.0341
  C  C226  1  0.401800  0.604700  0.806600  1.0  0.0537
  C  C227  1  0.466900  0.553000  0.787600  1.0  -0.2039
  C  C228  1  0.514400  0.658600  0.771400  1.0  0.2564
  C  C229  1  0.499500  0.814100  0.771700  1.0  -0.1469
  C  C230  1  0.435600  0.865900  0.790400  1.0  0.0762
  C  C231  1  0.421900  0.037800  0.790800  1.0  -0.3747
  C  C232  1  0.351300  0.486600  0.825000  1.0  -0.3866
  C  C233  1  0.604900  0.468100  0.764300  1.0  -0.0165
  C  C234  1  0.683700  0.456500  0.752700  1.0  0.7177
  C  C235  1  0.297200  0.007900  0.950100  1.0  -0.0291
  C  C236  1  0.290700  0.168100  0.955200  1.0  0.0987
  C  C237  1  0.301000  0.233800  0.997000  1.0  -0.1462
  C  C238  1  0.318400  0.142700  0.034100  1.0  0.2531
  C  C239  1  0.326100  0.985500  0.029100  1.0  -0.1976
  C  C240  1  0.315600  0.918000  0.986700  1.0  0.0888
  C  C241  1  0.321500  0.745500  0.983300  1.0  -0.3988
  C  C242  1  0.269500  0.265600  0.915300  1.0  -0.4187
  C  C243  1  0.336600  0.127100  0.113100  1.0  -0.027
  C  C244  1  0.328900  0.225800  0.154800  1.0  0.6791
  C  C245  1  0.627700  0.025600  0.702100  1.0  0.6903
  C  C246  1  0.630600  0.121500  0.659200  1.0  -0.1396
  C  C247  1  0.525900  0.274100  0.664800  1.0  0.2295
  C  C248  1  0.481200  0.148900  0.661500  1.0  -0.174
  C  C249  1  0.407600  0.169000  0.659000  1.0  0.0798
  C  C250  1  0.378900  0.316000  0.660900  1.0  -0.029
  C  C251  1  0.423400  0.443100  0.667500  1.0  0.086
  C  C252  1  0.497000  0.421000  0.668800  1.0  -0.0967
  C  C253  1  0.361300  0.031200  0.653200  1.0  -0.414
  C  C254  1  0.395000  0.604800  0.672000  1.0  -0.3692
  C  C255  1  0.301300  0.341300  0.650200  1.0  0.0406
  C  C256  1  0.245000  0.295300  0.677500  1.0  -0.069
  C  C257  1  0.175100  0.315100  0.664400  1.0  0.0142
  C  C258  1  0.160700  0.387500  0.622800  1.0  -0.08
  C  C259  1  0.216400  0.434400  0.594900  1.0  0.0207
  C  C260  1  0.286300  0.411900  0.608900  1.0  -0.1309
  C  C261  1  0.112500  0.261100  0.690900  1.0  -0.034
  C  C262  1  0.098200  0.104700  0.693400  1.0  0.0536
  C  C263  1  0.033100  0.053000  0.712400  1.0  -0.2059
  C  C264  1  0.985600  0.158600  0.728600  1.0  0.2563
  C  C265  1  0.000500  0.314100  0.728300  1.0  -0.1471
  C  C266  1  0.064400  0.365900  0.709600  1.0  0.0753
  C  C267  1  0.078100  0.537800  0.709200  1.0  -0.3752
  C  C268  1  0.148700  0.986600  0.675000  1.0  -0.3858
  C  C269  1  0.895100  0.968100  0.735700  1.0  -0.0175
  C  C270  1  0.816300  0.956500  0.747300  1.0  0.7173
  C  C271  1  0.202800  0.507900  0.549900  1.0  -0.0279
  C  C272  1  0.209300  0.668100  0.544800  1.0  0.0986
  C  C273  1  0.199000  0.733800  0.503000  1.0  -0.1472
  C  C274  1  0.181600  0.642700  0.465900  1.0  0.2545
  C  C275  1  0.173900  0.485500  0.470900  1.0  -0.1984
  C  C276  1  0.184400  0.418000  0.513300  1.0  0.0904
  C  C277  1  0.178500  0.245500  0.516700  1.0  -0.3975
  C  C278  1  0.230500  0.765600  0.584700  1.0  -0.4176
  C  C279  1  0.163400  0.627100  0.386900  1.0  -0.028
  C  C280  1  0.171100  0.725800  0.345200  1.0  0.6784
  O  O281  1  0.108900  0.418800  0.237590  1.0  -0.5088
  O  O282  1  0.147200  0.613100  0.195940  1.0  -0.5928
  O  O283  1  0.099100  0.231200  0.164320  1.0  -0.2772
  O  O284  1  0.288700  0.670400  0.239040  1.0  -0.5741
  O  O285  1  0.285000  0.430800  0.264370  1.0  -0.591
  O  O286  1  0.419200  0.382200  0.245940  1.0  -0.3216
  O  O287  1  0.673700  0.780900  0.926480  1.0  -0.2796
  O  O288  1  0.682600  0.635900  0.846460  1.0  -0.5434
  O  O289  1  0.665900  0.856700  0.809620  1.0  -0.6082
  O  O290  1  0.391100  0.918800  0.262410  1.0  -0.5108
  O  O291  1  0.352800  0.113100  0.304060  1.0  -0.5919
  O  O292  1  0.400900  0.731200  0.335680  1.0  -0.2765
  O  O293  1  0.211300  0.170400  0.260960  1.0  -0.5754
  O  O294  1  0.215000  0.930800  0.235630  1.0  -0.5905
  O  O295  1  0.080800  0.882200  0.254060  1.0  -0.3198
  O  O296  1  0.826300  0.280900  0.573520  1.0  -0.2804
  O  O297  1  0.817400  0.135900  0.653540  1.0  -0.544
  O  O298  1  0.834100  0.356700  0.690380  1.0  -0.608
  O  O299  1  0.891100  0.581200  0.762410  1.0  -0.5108
  O  O300  1  0.852800  0.386900  0.804060  1.0  -0.5921
  O  O301  1  0.900900  0.768800  0.835680  1.0  -0.2761
  O  O302  1  0.711300  0.329600  0.760960  1.0  -0.5755
  O  O303  1  0.715000  0.569200  0.735630  1.0  -0.5904
  O  O304  1  0.580800  0.617800  0.754060  1.0  -0.3212
  O  O305  1  0.326300  0.219100  0.073520  1.0  -0.2814
  O  O306  1  0.317400  0.364100  0.153540  1.0  -0.5432
  O  O307  1  0.334100  0.143300  0.190380  1.0  -0.6085
  O  O308  1  0.608900  0.081200  0.737590  1.0  -0.5089
  O  O309  1  0.647200  0.886900  0.695940  1.0  -0.5908
  O  O310  1  0.599100  0.268800  0.664320  1.0  -0.2762
  O  O311  1  0.788700  0.829600  0.739040  1.0  -0.5747
  O  O312  1  0.785000  0.069200  0.764370  1.0  -0.5917
  O  O313  1  0.919200  0.117800  0.745940  1.0  -0.3228
  O  O314  1  0.173700  0.719100  0.426480  1.0  -0.2809
  O  O315  1  0.182600  0.864100  0.346460  1.0  -0.5433
  O  O316  1  0.165900  0.643300  0.309620  1.0  -0.6086
