# generated using pymatgen
data_Zn3P2H28C10(NO2)4
_symmetry_space_group_name_H-M   'P 1'
_cell_length_a   4.93270000
_cell_length_b   12.88920000
_cell_length_c   19.80800000
_cell_angle_alpha   107.04600000
_cell_angle_beta   90.00000000
_cell_angle_gamma   101.03200000
_symmetry_Int_Tables_number   1
_chemical_formula_structural   Zn3P2H28C10(NO2)4
_chemical_formula_sum   'Zn6 P4 H56 C20 N8 O16'
_cell_volume   1179.67644623
_cell_formula_units_Z   2
loop_
 _symmetry_equiv_pos_site_id
 _symmetry_equiv_pos_as_xyz
  1  'x, y, z'
loop_
 _atom_site_type_symbol
 _atom_site_label
 _atom_site_symmetry_multiplicity
 _atom_site_fract_x
 _atom_site_fract_y
 _atom_site_fract_z
 _atom_site_occupancy
 _atom_site_charge
  Zn  Zn1  1  0.233800  0.882200  0.762770  1.0  0.984
  Zn  Zn2  1  0.787740  0.111480  0.736830  1.0  0.8865
  Zn  Zn3  1  0.351600  0.117800  0.237230  1.0  0.9828
  Zn  Zn4  1  0.676260  0.888520  0.263170  1.0  0.8867
  Zn  Zn5  1  0.956800  0.000000  0.000000  1.0  0.8396
  Zn  Zn6  1  0.070100  0.000000  0.500000  1.0  0.8887
  P  P7  1  0.261740  0.015680  0.650990  1.0  1.7593
  P  P8  1  0.758810  0.974620  0.848740  1.0  1.7559
  P  P9  1  0.246060  0.984320  0.349010  1.0  1.7588
  P  P10  1  0.784190  0.025380  0.151260  1.0  1.7564
  H  H11  1  0.862500  0.734800  0.688400  1.0  0.3145
  H  H12  1  0.855000  0.723800  0.760900  1.0  0.277
  H  H13  1  0.233100  0.646400  0.665300  1.0  0.0853
  H  H14  1  0.215400  0.632000  0.742700  1.0  0.0777
  H  H15  1  0.778500  0.511000  0.710400  1.0  0.0664
  H  H16  1  0.775900  0.530600  0.634200  1.0  0.0725
  H  H17  1  0.155300  0.420200  0.682800  1.0  0.0719
  H  H18  1  0.181200  0.448000  0.609300  1.0  0.0721
  H  H19  1  0.741700  0.295000  0.641800  1.0  0.0651
  H  H20  1  0.739300  0.329000  0.570200  1.0  0.0659
  H  H21  1  0.146700  0.222200  0.610600  1.0  0.0696
  H  H22  1  0.160000  0.261000  0.540800  1.0  0.0733
  H  H23  1  0.724600  0.105800  0.560800  1.0  0.226
  H  H24  1  0.778200  0.134000  0.494000  1.0  0.2902
  H  H25  1  0.259600  0.871800  0.011000  1.0  0.2882
  H  H26  1  0.292800  0.887600  0.940100  1.0  0.2543
  H  H27  1  0.862100  0.745000  0.973500  1.0  0.0798
  H  H28  1  0.886700  0.764200  0.897600  1.0  0.0719
  H  H29  1  0.256200  0.664000  0.956400  1.0  0.0785
  H  H30  1  0.285400  0.684400  0.880700  1.0  0.0653
  H  H31  1  0.844100  0.563600  0.843600  1.0  0.0678
  H  H32  1  0.844400  0.537000  0.917400  1.0  0.0715
  H  H33  1  0.236200  0.484600  0.815400  1.0  0.0638
  H  H34  1  0.220900  0.453600  0.887900  1.0  0.076
  H  H35  1  0.803500  0.366000  0.776000  1.0  0.0645
  H  H36  1  0.793100  0.334000  0.848000  1.0  0.0721
  H  H37  1  0.159400  0.277600  0.745200  1.0  0.2351
  H  H38  1  0.170000  0.253200  0.813700  1.0  0.2874
  H  H39  1  0.127700  0.265200  0.311600  1.0  0.3146
  H  H40  1  0.131200  0.276200  0.239100  1.0  0.2782
  H  H41  1  0.586700  0.353600  0.334700  1.0  0.0855
  H  H42  1  0.583400  0.368000  0.257300  1.0  0.0782
  H  H43  1  0.267500  0.489000  0.289600  1.0  0.0667
  H  H44  1  0.245300  0.469400  0.365800  1.0  0.0732
  H  H45  1  0.735100  0.579800  0.317200  1.0  0.0724
  H  H46  1  0.733200  0.552000  0.390700  1.0  0.072
  H  H47  1  0.446700  0.705000  0.358200  1.0  0.0659
  H  H48  1  0.410300  0.671000  0.429800  1.0  0.0662
  H  H49  1  0.924500  0.777800  0.389400  1.0  0.0683
  H  H50  1  0.899000  0.739000  0.459200  1.0  0.0746
  H  H51  1  0.618800  0.894200  0.439200  1.0  0.227
  H  H52  1  0.644200  0.866000  0.506000  1.0  0.2904
  H  H53  1  0.387800  0.128200  0.989000  1.0  0.2872
  H  H54  1  0.405200  0.112400  0.059900  1.0  0.254
  H  H55  1  0.117100  0.255000  0.026500  1.0  0.0778
  H  H56  1  0.122500  0.235800  0.102400  1.0  0.0725
  H  H57  1  0.592200  0.336000  0.043600  1.0  0.0778
  H  H58  1  0.601000  0.315600  0.119300  1.0  0.0646
  H  H59  1  0.280500  0.436400  0.156400  1.0  0.0674
  H  H60  1  0.307400  0.463000  0.082600  1.0  0.0696
  H  H61  1  0.751600  0.515400  0.184600  1.0  0.0629
  H  H62  1  0.767300  0.546400  0.112100  1.0  0.0742
  H  H63  1  0.437500  0.634000  0.224000  1.0  0.065
  H  H64  1  0.459100  0.666000  0.152000  1.0  0.072
  H  H65  1  0.881800  0.722400  0.254800  1.0  0.2318
  H  H66  1  0.916800  0.746800  0.186300  1.0  0.2885
  C  C67  1  0.105000  0.636000  0.702200  1.0  0.021
  C  C68  1  0.896700  0.525400  0.672500  1.0  -0.1322
  C  C69  1  0.048400  0.428800  0.643200  1.0  -0.1036
  C  C70  1  0.861000  0.320000  0.607000  1.0  -0.1029
  C  C71  1  0.032500  0.233000  0.573000  1.0  0.018
  C  C72  1  0.995000  0.762000  0.939000  1.0  0.0155
  C  C73  1  0.151000  0.668000  0.915000  1.0  -0.1069
  C  C74  1  0.965200  0.556400  0.881200  1.0  -0.1154
  C  C75  1  0.107900  0.463800  0.849900  1.0  -0.1005
  C  C76  1  0.919400  0.354800  0.813100  1.0  0.0244
  C  C77  1  0.469000  0.364000  0.297800  1.0  0.0181
  C  C78  1  0.371300  0.474600  0.327500  1.0  -0.1338
  C  C79  1  0.619600  0.571200  0.356800  1.0  -0.1056
  C  C80  1  0.541000  0.680000  0.393000  1.0  -0.104
  C  C81  1  0.799500  0.767000  0.427000  1.0  0.0174
  C  C82  1  0.233000  0.238000  0.061000  1.0  0.0176
  C  C83  1  0.483000  0.332000  0.085000  1.0  -0.1064
  C  C84  1  0.408800  0.443600  0.118800  1.0  -0.1158
  C  C85  1  0.644100  0.536200  0.150100  1.0  -0.1001
  C  C86  1  0.564600  0.645200  0.186900  1.0  0.0247
  N  N87  1  0.970600  0.733200  0.725800  1.0  -0.6481
  N  N88  1  0.861700  0.125400  0.533000  1.0  -0.6353
  N  N89  1  0.164400  0.872800  0.971400  1.0  -0.642
  N  N90  1  0.052400  0.260800  0.780100  1.0  -0.6507
  N  N91  1  0.237400  0.266800  0.274200  1.0  -0.6468
  N  N92  1  0.736300  0.874600  0.467000  1.0  -0.6357
  N  N93  1  0.291600  0.127200  0.028600  1.0  -0.6436
  N  N94  1  0.791600  0.739200  0.219900  1.0  -0.6495
  O  O95  1  0.313400  0.916800  0.675400  1.0  -0.8348
  O  O96  1  0.445800  0.125600  0.695300  1.0  -0.8326
  O  O97  1  0.317700  0.991400  0.571800  1.0  -0.8644
  O  O98  1  0.959200  0.022400  0.657800  1.0  -0.8201
  O  O99  1  0.691400  0.000800  0.926400  1.0  -0.8371
  O  O100  1  0.572200  0.864400  0.804600  1.0  -0.826
  O  O101  1  0.696800  0.069600  0.821800  1.0  -0.8334
  O  O102  1  0.065600  0.967200  0.841400  1.0  -0.8379
  O  O103  1  0.396600  0.083200  0.324600  1.0  -0.8341
  O  O104  1  0.320200  0.874400  0.304700  1.0  -0.8318
  O  O105  1  0.326300  0.008600  0.428200  1.0  -0.8658
  O  O106  1  0.936800  0.977600  0.342200  1.0  -0.8212
  O  O107  1  0.690600  0.999200  0.073600  1.0  -0.8375
  O  O108  1  0.707800  0.135600  0.195400  1.0  -0.8277
  O  O109  1  0.627200  0.930400  0.178200  1.0  -0.8352
  O  O110  1  0.098400  0.032800  0.158600  1.0  -0.8389
