# generated using pymatgen
data_CdH19C21(NO3)2
_symmetry_space_group_name_H-M   'P 1'
_cell_length_a   11.96690000
_cell_length_b   11.96690000
_cell_length_c   19.02620000
_cell_angle_alpha   102.44800000
_cell_angle_beta   102.44800000
_cell_angle_gamma   91.70870000
_symmetry_Int_Tables_number   1
_chemical_formula_structural   CdH19C21(NO3)2
_chemical_formula_sum   'Cd4 H76 C84 N8 O24'
_cell_volume   2589.75479928
_cell_formula_units_Z   4
loop_
 _symmetry_equiv_pos_site_id
 _symmetry_equiv_pos_as_xyz
  1  'x, y, z'
loop_
 _atom_site_type_symbol
 _atom_site_label
 _atom_site_symmetry_multiplicity
 _atom_site_fract_x
 _atom_site_fract_y
 _atom_site_fract_z
 _atom_site_occupancy
 _atom_site_charge
  Cd  Cd1  1  0.972610  0.772070  0.443600  1.0  0.9359
  Cd  Cd2  1  0.772070  0.972610  0.943600  1.0  0.9354
  Cd  Cd3  1  0.227930  0.027390  0.056400  1.0  0.9347
  Cd  Cd4  1  0.027390  0.227930  0.556400  1.0  0.935
  H  H5  1  0.882400  0.901200  0.204700  1.0  0.1213
  H  H6  1  0.658600  0.141200  0.166400  1.0  0.115
  H  H7  1  0.720700  0.052900  0.364300  1.0  0.1322
  H  H8  1  0.714800  0.794200  0.466700  1.0  0.0888
  H  H9  1  0.541800  0.696600  0.448700  1.0  0.1303
  H  H10  1  0.420500  0.518700  0.418700  1.0  0.0939
  H  H11  1  0.486100  0.403500  0.410500  1.0  0.1052
  H  H12  1  0.398100  0.504500  0.289200  1.0  0.085
  H  H13  1  0.454800  0.384200  0.283000  1.0  0.0676
  H  H14  1  0.296700  0.311700  0.330300  1.0  0.1098
  H  H15  1  0.254900  0.337300  0.249800  1.0  0.1083
  H  H16  1  0.164600  0.517200  0.243800  1.0  0.1177
  H  H17  1  0.048500  0.656500  0.289000  1.0  0.1018
  H  H18  1  0.100100  0.544500  0.473200  1.0  0.0803
  H  H19  1  0.215600  0.414800  0.428800  1.0  0.1101
  H  H20  1  0.671200  0.411400  0.355500  1.0  0.1287
  H  H21  1  0.839400  0.521600  0.372700  1.0  0.0651
  H  H22  1  0.128700  0.960500  0.511600  1.0  0.3573
  H  H23  1  0.577100  0.217900  0.255800  1.0  0.3786
  H  H24  1  0.901200  0.882400  0.704700  1.0  0.1213
  H  H25  1  0.141200  0.658600  0.666400  1.0  0.1148
  H  H26  1  0.052900  0.720700  0.864300  1.0  0.1322
  H  H27  1  0.794200  0.714800  0.966700  1.0  0.0883
  H  H28  1  0.696600  0.541800  0.948700  1.0  0.1292
  H  H29  1  0.518700  0.420500  0.918700  1.0  0.0935
  H  H30  1  0.403500  0.486100  0.910500  1.0  0.1037
  H  H31  1  0.504500  0.398100  0.789200  1.0  0.0835
  H  H32  1  0.384200  0.454800  0.783000  1.0  0.0688
  H  H33  1  0.311700  0.296700  0.830300  1.0  0.1085
  H  H34  1  0.337300  0.254900  0.749800  1.0  0.1079
  H  H35  1  0.517200  0.164600  0.743800  1.0  0.1178
  H  H36  1  0.656500  0.048500  0.789000  1.0  0.1007
  H  H37  1  0.544500  0.100100  0.973200  1.0  0.0802
  H  H38  1  0.414800  0.215600  0.928800  1.0  0.1097
  H  H39  1  0.411400  0.671200  0.855500  1.0  0.1283
  H  H40  1  0.521600  0.839400  0.872700  1.0  0.0654
  H  H41  1  0.960500  0.128700  0.011600  1.0  0.3569
  H  H42  1  0.217900  0.577100  0.755800  1.0  0.3786
  H  H43  1  0.098800  0.117600  0.295300  1.0  0.1212
  H  H44  1  0.858800  0.341400  0.333600  1.0  0.113
  H  H45  1  0.947100  0.279300  0.135700  1.0  0.131
  H  H46  1  0.205800  0.285200  0.033300  1.0  0.0884
  H  H47  1  0.303400  0.458200  0.051300  1.0  0.1295
  H  H48  1  0.481300  0.579500  0.081300  1.0  0.0933
  H  H49  1  0.596500  0.513900  0.089500  1.0  0.1044
  H  H50  1  0.495500  0.601900  0.210800  1.0  0.0813
  H  H51  1  0.615800  0.545200  0.217000  1.0  0.0687
  H  H52  1  0.688300  0.703300  0.169700  1.0  0.1081
  H  H53  1  0.662700  0.745100  0.250200  1.0  0.1079
  H  H54  1  0.482800  0.835400  0.256200  1.0  0.1169
  H  H55  1  0.343500  0.951500  0.211000  1.0  0.1001
  H  H56  1  0.455500  0.899900  0.026800  1.0  0.0807
  H  H57  1  0.585200  0.784400  0.071200  1.0  0.1095
  H  H58  1  0.588600  0.328800  0.144500  1.0  0.1286
  H  H59  1  0.478400  0.160600  0.127300  1.0  0.0652
  H  H60  1  0.039500  0.871300  0.988400  1.0  0.358
  H  H61  1  0.782100  0.422900  0.244200  1.0  0.3774
  H  H62  1  0.117600  0.098800  0.795300  1.0  0.1206
  H  H63  1  0.341400  0.858800  0.833600  1.0  0.1139
  H  H64  1  0.279300  0.947100  0.635700  1.0  0.1318
  H  H65  1  0.285200  0.205800  0.533300  1.0  0.088
  H  H66  1  0.458200  0.303400  0.551300  1.0  0.1301
  H  H67  1  0.579500  0.481300  0.581300  1.0  0.093
  H  H68  1  0.513900  0.596500  0.589500  1.0  0.1047
  H  H69  1  0.601900  0.495500  0.710800  1.0  0.0843
  H  H70  1  0.545200  0.615800  0.717000  1.0  0.0676
  H  H71  1  0.703300  0.688300  0.669700  1.0  0.1095
  H  H72  1  0.745100  0.662700  0.750200  1.0  0.1081
  H  H73  1  0.835400  0.482800  0.756200  1.0  0.1176
  H  H74  1  0.951500  0.343500  0.711000  1.0  0.1021
  H  H75  1  0.899900  0.455500  0.526800  1.0  0.0802
  H  H76  1  0.784400  0.585200  0.571200  1.0  0.1099
  H  H77  1  0.328800  0.588600  0.644500  1.0  0.1286
  H  H78  1  0.160600  0.478400  0.627300  1.0  0.0645
  H  H79  1  0.871300  0.039500  0.488400  1.0  0.3576
  H  H80  1  0.422900  0.782100  0.744200  1.0  0.3769
  C  C81  1  0.875700  0.902300  0.344200  1.0  0.6397
  C  C82  1  0.783400  0.000400  0.094800  1.0  0.6377
  C  C83  1  0.812700  0.967300  0.292700  1.0  -0.0961
  C  C84  1  0.829800  0.953200  0.220900  1.0  -0.043
  C  C85  1  0.769300  0.015500  0.173000  1.0  -0.0725
  C  C86  1  0.696000  0.095400  0.198000  1.0  -0.2344
  C  C87  1  0.677300  0.108100  0.268400  1.0  0.3129
  C  C88  1  0.734400  0.044400  0.316100  1.0  -0.1613
  C  C89  1  0.705700  0.715300  0.442400  1.0  0.1848
  C  C90  1  0.602400  0.656800  0.432500  1.0  -0.2409
  C  C91  1  0.583300  0.543300  0.400200  1.0  0.17
  C  C92  1  0.470300  0.472500  0.390300  1.0  -0.1931
  C  C93  1  0.408200  0.436200  0.310700  1.0  -0.0769
  C  C94  1  0.287900  0.373100  0.302500  1.0  -0.218
  C  C95  1  0.207500  0.457300  0.331800  1.0  0.1819
  C  C96  1  0.155100  0.524500  0.292900  1.0  -0.2189
  C  C97  1  0.084000  0.608800  0.319900  1.0  0.168
  C  C98  1  0.115100  0.543700  0.426100  1.0  0.1604
  C  C99  1  0.183200  0.465800  0.399400  1.0  -0.2163
  C  C100  1  0.676800  0.491000  0.377800  1.0  -0.243
  C  C101  1  0.776900  0.558100  0.388900  1.0  0.1743
  C  C102  1  0.902300  0.875700  0.844200  1.0  0.6378
  C  C103  1  0.000400  0.783400  0.594800  1.0  0.637
  C  C104  1  0.967300  0.812700  0.792700  1.0  -0.0959
  C  C105  1  0.953200  0.829800  0.720900  1.0  -0.0436
  C  C106  1  0.015500  0.769300  0.673000  1.0  -0.0719
  C  C107  1  0.095400  0.696000  0.698000  1.0  -0.2329
  C  C108  1  0.108100  0.677300  0.768400  1.0  0.3122
  C  C109  1  0.044400  0.734400  0.816100  1.0  -0.1604
  C  C110  1  0.715300  0.705700  0.942400  1.0  0.186
  C  C111  1  0.656800  0.602400  0.932500  1.0  -0.2362
  C  C112  1  0.543300  0.583300  0.900200  1.0  0.171
  C  C113  1  0.472500  0.470300  0.890300  1.0  -0.1947
  C  C114  1  0.436200  0.408200  0.810700  1.0  -0.0756
  C  C115  1  0.373100  0.287900  0.802500  1.0  -0.2141
  C  C116  1  0.457300  0.207500  0.831800  1.0  0.1815
  C  C117  1  0.524500  0.155100  0.792900  1.0  -0.2196
  C  C118  1  0.608800  0.084000  0.819900  1.0  0.1698
  C  C119  1  0.543700  0.115100  0.926100  1.0  0.1612
  C  C120  1  0.465800  0.183200  0.899400  1.0  -0.2216
  C  C121  1  0.491000  0.676800  0.877800  1.0  -0.2482
  C  C122  1  0.558100  0.776900  0.888900  1.0  0.1744
  C  C123  1  0.097700  0.124300  0.155800  1.0  0.6385
  C  C124  1  0.999600  0.216600  0.405200  1.0  0.6369
  C  C125  1  0.032700  0.187300  0.207300  1.0  -0.0981
  C  C126  1  0.046800  0.170200  0.279100  1.0  -0.0428
  C  C127  1  0.984500  0.230700  0.327000  1.0  -0.071
  C  C128  1  0.904600  0.304000  0.302000  1.0  -0.2335
  C  C129  1  0.891900  0.322700  0.231600  1.0  0.3128
  C  C130  1  0.955600  0.265600  0.183900  1.0  -0.1593
  C  C131  1  0.284700  0.294300  0.057600  1.0  0.1855
  C  C132  1  0.343200  0.397600  0.067500  1.0  -0.2401
  C  C133  1  0.456700  0.416700  0.099800  1.0  0.17
  C  C134  1  0.527500  0.529700  0.109700  1.0  -0.1945
  C  C135  1  0.563800  0.591800  0.189300  1.0  -0.076
  C  C136  1  0.626900  0.712100  0.197500  1.0  -0.2123
  C  C137  1  0.542700  0.792500  0.168200  1.0  0.1806
  C  C138  1  0.475500  0.844900  0.207100  1.0  -0.2154
  C  C139  1  0.391200  0.916000  0.180100  1.0  0.1696
  C  C140  1  0.456300  0.884900  0.073900  1.0  0.1611
  C  C141  1  0.534200  0.816800  0.100600  1.0  -0.219
  C  C142  1  0.509000  0.323200  0.122200  1.0  -0.2481
  C  C143  1  0.441900  0.223100  0.111100  1.0  0.1748
  C  C144  1  0.124300  0.097700  0.655800  1.0  0.6391
  C  C145  1  0.216600  0.999600  0.905200  1.0  0.6364
  C  C146  1  0.187300  0.032700  0.707300  1.0  -0.0962
  C  C147  1  0.170200  0.046800  0.779100  1.0  -0.0434
  C  C148  1  0.230700  0.984500  0.827000  1.0  -0.0711
  C  C149  1  0.304000  0.904600  0.802000  1.0  -0.232
  C  C150  1  0.322700  0.891900  0.731600  1.0  0.312
  C  C151  1  0.265600  0.955600  0.683900  1.0  -0.1592
  C  C152  1  0.294300  0.284700  0.557600  1.0  0.1841
  C  C153  1  0.397600  0.343200  0.567500  1.0  -0.2389
  C  C154  1  0.416700  0.456700  0.599800  1.0  0.17
  C  C155  1  0.529700  0.527500  0.609700  1.0  -0.1934
  C  C156  1  0.591800  0.563800  0.689300  1.0  -0.0761
  C  C157  1  0.712100  0.626900  0.697500  1.0  -0.2179
  C  C158  1  0.792500  0.542700  0.668200  1.0  0.183
  C  C159  1  0.844900  0.475500  0.707100  1.0  -0.2186
  C  C160  1  0.916000  0.391200  0.680100  1.0  0.1659
  C  C161  1  0.884900  0.456300  0.573900  1.0  0.1598
  C  C162  1  0.816800  0.534200  0.600600  1.0  -0.2211
  C  C163  1  0.323200  0.509000  0.622200  1.0  -0.2435
  C  C164  1  0.223100  0.441900  0.611100  1.0  0.1743
  N  N165  1  0.794100  0.668700  0.420100  1.0  -0.3436
  N  N166  1  0.066200  0.622200  0.388000  1.0  -0.3439
  N  N167  1  0.668700  0.794100  0.920100  1.0  -0.3414
  N  N168  1  0.622200  0.066200  0.888000  1.0  -0.3446
  N  N169  1  0.331300  0.205900  0.079900  1.0  -0.3417
  N  N170  1  0.377800  0.933800  0.112000  1.0  -0.3444
  N  N171  1  0.205900  0.331300  0.579900  1.0  -0.3439
  N  N172  1  0.933800  0.377800  0.612000  1.0  -0.3443
  O  O173  1  0.859200  0.917000  0.408600  1.0  -0.5722
  O  O174  1  0.133100  0.909700  0.474400  1.0  -0.5527
  O  O175  1  0.944300  0.832300  0.322600  1.0  -0.5754
  O  O176  1  0.930400  0.851800  0.573600  1.0  -0.558
  O  O177  1  0.053200  0.726000  0.552900  1.0  -0.574
  O  O178  1  0.604200  0.186400  0.290500  1.0  -0.5165
  O  O179  1  0.917000  0.859200  0.908600  1.0  -0.573
  O  O180  1  0.909700  0.133100  0.974400  1.0  -0.5548
  O  O181  1  0.832300  0.944300  0.822600  1.0  -0.5741
  O  O182  1  0.851800  0.930400  0.073600  1.0  -0.5592
  O  O183  1  0.726000  0.053200  0.052900  1.0  -0.5736
  O  O184  1  0.186400  0.604200  0.790500  1.0  -0.5173
  O  O185  1  0.083000  0.140800  0.091400  1.0  -0.5731
  O  O186  1  0.090300  0.866900  0.025600  1.0  -0.5574
  O  O187  1  0.167700  0.055700  0.177400  1.0  -0.5744
  O  O188  1  0.148200  0.069600  0.926400  1.0  -0.5597
  O  O189  1  0.274000  0.946800  0.947100  1.0  -0.5733
  O  O190  1  0.813600  0.395800  0.209500  1.0  -0.5177
  O  O191  1  0.140800  0.083000  0.591400  1.0  -0.5712
  O  O192  1  0.866900  0.090300  0.525600  1.0  -0.5647
  O  O193  1  0.055700  0.167700  0.677400  1.0  -0.573
  O  O194  1  0.069600  0.148200  0.426400  1.0  -0.5602
  O  O195  1  0.946800  0.274000  0.447100  1.0  -0.5722
  O  O196  1  0.395800  0.813600  0.709500  1.0  -0.5179
