# generated using pymatgen
data_Eu2Cd3H12(C3O2)12
_symmetry_space_group_name_H-M   'P 1'
_cell_length_a   19.49110000
_cell_length_b   19.49110000
_cell_length_c   26.29950000
_cell_angle_alpha   90.00000000
_cell_angle_beta   90.00000000
_cell_angle_gamma   90.00000000
_symmetry_Int_Tables_number   1
_chemical_formula_structural   Eu2Cd3H12(C3O2)12
_chemical_formula_sum   'Eu8 Cd12 H48 C144 O96'
_cell_volume   9991.25840173
_cell_formula_units_Z   4
loop_
 _symmetry_equiv_pos_site_id
 _symmetry_equiv_pos_as_xyz
  1  'x, y, z'
loop_
 _atom_site_type_symbol
 _atom_site_label
 _atom_site_symmetry_multiplicity
 _atom_site_fract_x
 _atom_site_fract_y
 _atom_site_fract_z
 _atom_site_occupancy
 _atom_site_charge
  Eu  Eu1  1  0.056530  0.443470  0.197410  1.0  1.8683
  Eu  Eu2  1  0.443470  0.056530  0.197410  1.0  1.8696
  Eu  Eu3  1  0.056530  0.056530  0.697410  1.0  1.8677
  Eu  Eu4  1  0.443470  0.443470  0.697410  1.0  1.8656
  Eu  Eu5  1  0.943470  0.943470  0.302590  1.0  1.8548
  Eu  Eu6  1  0.556530  0.556530  0.302590  1.0  1.859
  Eu  Eu7  1  0.943470  0.556530  0.802590  1.0  1.8591
  Eu  Eu8  1  0.556530  0.943470  0.802590  1.0  1.8579
  Cd  Cd9  1  0.967570  0.532430  0.303670  1.0  1.0726
  Cd  Cd10  1  0.532430  0.967570  0.303670  1.0  1.0746
  Cd  Cd11  1  0.967570  0.967570  0.803670  1.0  1.0736
  Cd  Cd12  1  0.532430  0.532430  0.803670  1.0  1.074
  Cd  Cd13  1  0.032430  0.032430  0.196330  1.0  1.0728
  Cd  Cd14  1  0.467570  0.467570  0.196330  1.0  1.0759
  Cd  Cd15  1  0.032430  0.467570  0.696330  1.0  1.0751
  Cd  Cd16  1  0.467570  0.032430  0.696330  1.0  1.0737
  Cd  Cd17  1  0.750000  0.250000  0.000000  1.0  1.0205
  Cd  Cd18  1  0.250000  0.750000  0.500000  1.0  1.0205
  Cd  Cd19  1  0.250000  0.750000  0.000000  1.0  1.0205
  Cd  Cd20  1  0.750000  0.250000  0.500000  1.0  1.0205
  H  H21  1  0.664800  0.410200  0.115400  1.0  0.1305
  H  H22  1  0.748100  0.511100  0.231800  1.0  0.1255
  H  H23  1  0.868700  0.407600  0.135900  1.0  0.1243
  H  H24  1  0.835200  0.089800  0.115400  1.0  0.1306
  H  H25  1  0.751900  0.988900  0.231800  1.0  0.1255
  H  H26  1  0.631300  0.092400  0.135900  1.0  0.1245
  H  H27  1  0.089800  0.664800  0.615400  1.0  0.1303
  H  H28  1  0.988900  0.748100  0.731800  1.0  0.1249
  H  H29  1  0.092400  0.868700  0.635900  1.0  0.1247
  H  H30  1  0.410200  0.835200  0.615400  1.0  0.131
  H  H31  1  0.511100  0.751900  0.731800  1.0  0.1249
  H  H32  1  0.407600  0.631300  0.635900  1.0  0.1248
  H  H33  1  0.335200  0.910200  0.384600  1.0  0.13
  H  H34  1  0.251900  0.011100  0.268200  1.0  0.1252
  H  H35  1  0.131300  0.907600  0.364100  1.0  0.1243
  H  H36  1  0.164800  0.589800  0.384600  1.0  0.1303
  H  H37  1  0.248100  0.488900  0.268200  1.0  0.1251
  H  H38  1  0.368700  0.592400  0.364100  1.0  0.1246
  H  H39  1  0.910200  0.164800  0.884600  1.0  0.1304
  H  H40  1  0.011100  0.248100  0.768200  1.0  0.1246
  H  H41  1  0.907600  0.368700  0.864100  1.0  0.1246
  H  H42  1  0.589800  0.335200  0.884600  1.0  0.1302
  H  H43  1  0.488900  0.251900  0.768200  1.0  0.1246
  H  H44  1  0.592400  0.131300  0.864100  1.0  0.1247
  H  H45  1  0.335200  0.589800  0.884600  1.0  0.1301
  H  H46  1  0.251900  0.488900  0.768200  1.0  0.125
  H  H47  1  0.131300  0.592400  0.864100  1.0  0.1243
  H  H48  1  0.164800  0.910200  0.884600  1.0  0.1303
  H  H49  1  0.248100  0.011100  0.768200  1.0  0.1252
  H  H50  1  0.368700  0.907600  0.864100  1.0  0.1245
  H  H51  1  0.910200  0.335200  0.384600  1.0  0.1305
  H  H52  1  0.011100  0.251900  0.268200  1.0  0.1246
  H  H53  1  0.907600  0.131300  0.364100  1.0  0.1248
  H  H54  1  0.589800  0.164800  0.384600  1.0  0.1301
  H  H55  1  0.488900  0.248100  0.268200  1.0  0.1244
  H  H56  1  0.592400  0.368700  0.364100  1.0  0.1249
  H  H57  1  0.664800  0.089800  0.615400  1.0  0.1309
  H  H58  1  0.748100  0.988900  0.731800  1.0  0.1254
  H  H59  1  0.868700  0.092400  0.635900  1.0  0.1245
  H  H60  1  0.835200  0.410200  0.615400  1.0  0.1305
  H  H61  1  0.751900  0.511100  0.731800  1.0  0.1256
  H  H62  1  0.631300  0.407600  0.635900  1.0  0.1244
  H  H63  1  0.089800  0.835200  0.115400  1.0  0.1307
  H  H64  1  0.988900  0.751900  0.231800  1.0  0.125
  H  H65  1  0.092400  0.631300  0.135900  1.0  0.1247
  H  H66  1  0.410200  0.664800  0.115400  1.0  0.1306
  H  H67  1  0.511100  0.748100  0.231800  1.0  0.1248
  H  H68  1  0.407600  0.868700  0.135900  1.0  0.1246
  C  C69  1  0.625900  0.482100  0.194300  1.0  0.7641
  C  C70  1  0.817900  0.462200  0.188200  1.0  -0.1772
  C  C71  1  0.696900  0.463800  0.176000  1.0  -0.1539
  C  C72  1  0.703500  0.423000  0.133900  1.0  0.0168
  C  C73  1  0.880200  0.482800  0.219000  1.0  0.7488
  C  C74  1  0.753200  0.483500  0.203200  1.0  0.017
  C  C75  1  0.774900  0.352600  0.074700  1.0  0.6935
  C  C76  1  0.825200  0.421500  0.146100  1.0  0.0395
  C  C77  1  0.768100  0.400900  0.118800  1.0  -0.1635
  C  C78  1  0.874100  0.017900  0.194300  1.0  0.764
  C  C79  1  0.682100  0.037800  0.188200  1.0  -0.177
  C  C80  1  0.803100  0.036200  0.176000  1.0  -0.1537
  C  C81  1  0.796500  0.077000  0.133900  1.0  0.016
  C  C82  1  0.619800  0.017200  0.219000  1.0  0.7474
  C  C83  1  0.746800  0.016500  0.203200  1.0  0.018
  C  C84  1  0.725100  0.147400  0.074700  1.0  0.694
  C  C85  1  0.674800  0.078500  0.146100  1.0  0.0389
  C  C86  1  0.731900  0.099100  0.118800  1.0  -0.1628
  C  C87  1  0.017900  0.625900  0.694300  1.0  0.7621
  C  C88  1  0.037800  0.817900  0.688200  1.0  -0.1762
  C  C89  1  0.036200  0.696900  0.676000  1.0  -0.1533
  C  C90  1  0.077000  0.703500  0.633900  1.0  0.0168
  C  C91  1  0.017200  0.880200  0.719000  1.0  0.7506
  C  C92  1  0.016500  0.753200  0.703200  1.0  0.0173
  C  C93  1  0.147400  0.774900  0.574700  1.0  0.6914
  C  C94  1  0.078500  0.825200  0.646100  1.0  0.0395
  C  C95  1  0.099100  0.768100  0.618800  1.0  -0.1628
  C  C96  1  0.482100  0.874100  0.694300  1.0  0.7629
  C  C97  1  0.462200  0.682100  0.688200  1.0  -0.1769
  C  C98  1  0.463800  0.803100  0.676000  1.0  -0.1537
  C  C99  1  0.423000  0.796500  0.633900  1.0  0.0167
  C  C100  1  0.482800  0.619800  0.719000  1.0  0.7503
  C  C101  1  0.483500  0.746800  0.703200  1.0  0.0172
  C  C102  1  0.352600  0.725100  0.574700  1.0  0.6893
  C  C103  1  0.421500  0.674800  0.646100  1.0  0.0412
  C  C104  1  0.400900  0.731900  0.618800  1.0  -0.1634
  C  C105  1  0.374100  0.982100  0.305700  1.0  0.7638
  C  C106  1  0.182100  0.962200  0.311800  1.0  -0.1771
  C  C107  1  0.303100  0.963800  0.324000  1.0  -0.1542
  C  C108  1  0.296500  0.923000  0.366100  1.0  0.0162
  C  C109  1  0.119800  0.982800  0.281000  1.0  0.7474
  C  C110  1  0.246800  0.983500  0.296800  1.0  0.0188
  C  C111  1  0.225100  0.852600  0.425300  1.0  0.6934
  C  C112  1  0.174800  0.921500  0.353900  1.0  0.039
  C  C113  1  0.231900  0.900900  0.381200  1.0  -0.1634
  C  C114  1  0.125900  0.517900  0.305700  1.0  0.764
  C  C115  1  0.317900  0.537800  0.311800  1.0  -0.177
  C  C116  1  0.196900  0.536200  0.324000  1.0  -0.1542
  C  C117  1  0.203500  0.577000  0.366100  1.0  0.0159
  C  C118  1  0.380200  0.517200  0.281000  1.0  0.7484
  C  C119  1  0.253200  0.516500  0.296800  1.0  0.0185
  C  C120  1  0.274900  0.647400  0.425300  1.0  0.6935
  C  C121  1  0.325200  0.578500  0.353900  1.0  0.0395
  C  C122  1  0.268100  0.599100  0.381200  1.0  -0.1634
  C  C123  1  0.982100  0.125900  0.805700  1.0  0.7626
  C  C124  1  0.962200  0.317900  0.811800  1.0  -0.1775
  C  C125  1  0.963800  0.196900  0.824000  1.0  -0.1528
  C  C126  1  0.923000  0.203500  0.866100  1.0  0.0167
  C  C127  1  0.982800  0.380200  0.781000  1.0  0.7503
  C  C128  1  0.983500  0.253200  0.796800  1.0  0.0183
  C  C129  1  0.852600  0.274900  0.925300  1.0  0.6887
  C  C130  1  0.921500  0.325200  0.853900  1.0  0.04
  C  C131  1  0.900900  0.268100  0.881200  1.0  -0.1632
  C  C132  1  0.517900  0.374100  0.805700  1.0  0.7628
  C  C133  1  0.537800  0.182100  0.811800  1.0  -0.1766
  C  C134  1  0.536200  0.303100  0.824000  1.0  -0.1533
  C  C135  1  0.577000  0.296500  0.866100  1.0  0.0169
  C  C136  1  0.517200  0.119800  0.781000  1.0  0.7505
  C  C137  1  0.516500  0.246800  0.796800  1.0  0.0184
  C  C138  1  0.647400  0.225100  0.925300  1.0  0.6909
  C  C139  1  0.578500  0.174800  0.853900  1.0  0.0413
  C  C140  1  0.599100  0.231900  0.881200  1.0  -0.1636
  C  C141  1  0.374100  0.517900  0.805700  1.0  0.7641
  C  C142  1  0.182100  0.537800  0.811800  1.0  -0.1772
  C  C143  1  0.303100  0.536200  0.824000  1.0  -0.1538
  C  C144  1  0.296500  0.577000  0.866100  1.0  0.016
  C  C145  1  0.119800  0.517200  0.781000  1.0  0.7474
  C  C146  1  0.246800  0.516500  0.796800  1.0  0.0185
  C  C147  1  0.225100  0.647400  0.925300  1.0  0.6931
  C  C148  1  0.174800  0.578500  0.853900  1.0  0.0391
  C  C149  1  0.231900  0.599100  0.881200  1.0  -0.1635
  C  C150  1  0.125900  0.982100  0.805700  1.0  0.7639
  C  C151  1  0.317900  0.962200  0.811800  1.0  -0.177
  C  C152  1  0.196900  0.963800  0.824000  1.0  -0.154
  C  C153  1  0.203500  0.923000  0.866100  1.0  0.0163
  C  C154  1  0.380200  0.982800  0.781000  1.0  0.7486
  C  C155  1  0.253200  0.983500  0.796800  1.0  0.0186
  C  C156  1  0.274900  0.852600  0.925300  1.0  0.6935
  C  C157  1  0.325200  0.921500  0.853900  1.0  0.0396
  C  C158  1  0.268100  0.900900  0.881200  1.0  -0.1632
  C  C159  1  0.982100  0.374100  0.305700  1.0  0.7631
  C  C160  1  0.962200  0.182100  0.311800  1.0  -0.177
  C  C161  1  0.963800  0.303100  0.324000  1.0  -0.1538
  C  C162  1  0.923000  0.296500  0.366100  1.0  0.0165
  C  C163  1  0.982800  0.119800  0.281000  1.0  0.7501
  C  C164  1  0.983500  0.246800  0.296800  1.0  0.0182
  C  C165  1  0.852600  0.225100  0.425300  1.0  0.6889
  C  C166  1  0.921500  0.174800  0.353900  1.0  0.0413
  C  C167  1  0.900900  0.231900  0.381200  1.0  -0.1633
  C  C168  1  0.517900  0.125900  0.305700  1.0  0.7622
  C  C169  1  0.537800  0.317900  0.311800  1.0  -0.1766
  C  C170  1  0.536200  0.196900  0.324000  1.0  -0.1534
  C  C171  1  0.577000  0.203500  0.366100  1.0  0.0174
  C  C172  1  0.517200  0.380200  0.281000  1.0  0.7507
  C  C173  1  0.516500  0.253200  0.296800  1.0  0.0185
  C  C174  1  0.647400  0.274900  0.425300  1.0  0.6909
  C  C175  1  0.578500  0.325200  0.353900  1.0  0.0402
  C  C176  1  0.599100  0.268100  0.381200  1.0  -0.1636
  C  C177  1  0.625900  0.017900  0.694300  1.0  0.7643
  C  C178  1  0.817900  0.037800  0.688200  1.0  -0.177
  C  C179  1  0.696900  0.036200  0.676000  1.0  -0.154
  C  C180  1  0.703500  0.077000  0.633900  1.0  0.0165
  C  C181  1  0.880200  0.017200  0.719000  1.0  0.7486
  C  C182  1  0.753200  0.016500  0.703200  1.0  0.0175
  C  C183  1  0.774900  0.147400  0.574700  1.0  0.6936
  C  C184  1  0.825200  0.078500  0.646100  1.0  0.0395
  C  C185  1  0.768100  0.099100  0.618800  1.0  -0.1626
  C  C186  1  0.874100  0.482100  0.694300  1.0  0.7637
  C  C187  1  0.682100  0.462200  0.688200  1.0  -0.1771
  C  C188  1  0.803100  0.463800  0.676000  1.0  -0.154
  C  C189  1  0.796500  0.423000  0.633900  1.0  0.0162
  C  C190  1  0.619800  0.482800  0.719000  1.0  0.7472
  C  C191  1  0.746800  0.483500  0.703200  1.0  0.0175
  C  C192  1  0.725100  0.352600  0.574700  1.0  0.6941
  C  C193  1  0.674800  0.421500  0.646100  1.0  0.0386
  C  C194  1  0.731900  0.400900  0.618800  1.0  -0.1637
  C  C195  1  0.017900  0.874100  0.194300  1.0  0.7626
  C  C196  1  0.037800  0.682100  0.188200  1.0  -0.1761
  C  C197  1  0.036200  0.803100  0.176000  1.0  -0.1533
  C  C198  1  0.077000  0.796500  0.133900  1.0  0.0168
  C  C199  1  0.017200  0.619800  0.219000  1.0  0.7504
  C  C200  1  0.016500  0.746800  0.203200  1.0  0.0174
  C  C201  1  0.147400  0.725100  0.074700  1.0  0.6907
  C  C202  1  0.078500  0.674800  0.146100  1.0  0.041
  C  C203  1  0.099100  0.731900  0.118800  1.0  -0.1632
  C  C204  1  0.482100  0.625900  0.194300  1.0  0.7626
  C  C205  1  0.462200  0.817900  0.188200  1.0  -0.1775
  C  C206  1  0.463800  0.696900  0.176000  1.0  -0.1527
  C  C207  1  0.423000  0.703500  0.133900  1.0  0.0164
  C  C208  1  0.482800  0.880200  0.219000  1.0  0.7505
  C  C209  1  0.483500  0.753200  0.203200  1.0  0.0173
  C  C210  1  0.352600  0.774900  0.074700  1.0  0.6899
  C  C211  1  0.421500  0.825200  0.146100  1.0  0.0397
  C  C212  1  0.400900  0.768100  0.118800  1.0  -0.163
  O  O213  1  0.832000  0.328000  0.064000  1.0  -0.6033
  O  O214  1  0.720600  0.335100  0.051600  1.0  -0.5679
  O  O215  1  0.936400  0.461900  0.205300  1.0  -0.7666
  O  O216  1  0.870400  0.516100  0.259300  1.0  -0.5923
  O  O217  1  0.576100  0.459500  0.169500  1.0  -0.6061
  O  O218  1  0.619900  0.518300  0.232200  1.0  -0.755
  O  O219  1  0.668000  0.172000  0.064000  1.0  -0.6037
  O  O220  1  0.779400  0.164900  0.051600  1.0  -0.5681
  O  O221  1  0.563600  0.038100  0.205300  1.0  -0.7667
  O  O222  1  0.629600  0.983900  0.259300  1.0  -0.5929
  O  O223  1  0.923900  0.040500  0.169500  1.0  -0.6074
  O  O224  1  0.880100  0.981700  0.232200  1.0  -0.7552
  O  O225  1  0.172000  0.832000  0.564000  1.0  -0.5951
  O  O226  1  0.164900  0.720600  0.551600  1.0  -0.5694
  O  O227  1  0.038100  0.936400  0.705300  1.0  -0.7668
  O  O228  1  0.983900  0.870400  0.759300  1.0  -0.593
  O  O229  1  0.040500  0.576100  0.669500  1.0  -0.6065
  O  O230  1  0.981700  0.619900  0.732200  1.0  -0.7529
  O  O231  1  0.328000  0.668000  0.564000  1.0  -0.5972
  O  O232  1  0.335100  0.779400  0.551600  1.0  -0.5706
  O  O233  1  0.461900  0.563600  0.705300  1.0  -0.7672
  O  O234  1  0.516100  0.629600  0.759300  1.0  -0.5933
  O  O235  1  0.459500  0.923900  0.669500  1.0  -0.6094
  O  O236  1  0.518300  0.880100  0.732200  1.0  -0.7536
  O  O237  1  0.168000  0.828000  0.436000  1.0  -0.6027
  O  O238  1  0.279400  0.835100  0.448400  1.0  -0.5667
  O  O239  1  0.063600  0.961900  0.294700  1.0  -0.7661
  O  O240  1  0.129600  0.016100  0.240700  1.0  -0.5948
  O  O241  1  0.423900  0.959500  0.330500  1.0  -0.6047
  O  O242  1  0.380100  0.018300  0.267800  1.0  -0.7545
  O  O243  1  0.332000  0.672000  0.436000  1.0  -0.604
  O  O244  1  0.220600  0.664900  0.448400  1.0  -0.5665
  O  O245  1  0.436400  0.538100  0.294700  1.0  -0.7667
  O  O246  1  0.370400  0.483900  0.240700  1.0  -0.5937
  O  O247  1  0.076100  0.540500  0.330500  1.0  -0.6055
  O  O248  1  0.119900  0.481700  0.267800  1.0  -0.7541
  O  O249  1  0.828000  0.332000  0.936000  1.0  -0.5953
  O  O250  1  0.835100  0.220600  0.948400  1.0  -0.5674
  O  O251  1  0.961900  0.436400  0.794700  1.0  -0.7668
  O  O252  1  0.016100  0.370400  0.740700  1.0  -0.594
  O  O253  1  0.959500  0.076100  0.830500  1.0  -0.6068
  O  O254  1  0.018300  0.119900  0.767800  1.0  -0.7525
  O  O255  1  0.672000  0.168000  0.936000  1.0  -0.5969
  O  O256  1  0.664900  0.279400  0.948400  1.0  -0.5691
  O  O257  1  0.538100  0.063600  0.794700  1.0  -0.7662
  O  O258  1  0.483900  0.129600  0.740700  1.0  -0.5945
  O  O259  1  0.540500  0.423900  0.830500  1.0  -0.6058
  O  O260  1  0.481700  0.380100  0.767800  1.0  -0.7526
  O  O261  1  0.168000  0.672000  0.936000  1.0  -0.6027
  O  O262  1  0.279400  0.664900  0.948400  1.0  -0.5664
  O  O263  1  0.063600  0.538100  0.794700  1.0  -0.7665
  O  O264  1  0.129600  0.483900  0.740700  1.0  -0.5931
  O  O265  1  0.423900  0.540500  0.830500  1.0  -0.6053
  O  O266  1  0.380100  0.481700  0.767800  1.0  -0.7549
  O  O267  1  0.332000  0.828000  0.936000  1.0  -0.6039
  O  O268  1  0.220600  0.835100  0.948400  1.0  -0.5668
  O  O269  1  0.436400  0.961900  0.794700  1.0  -0.7663
  O  O270  1  0.370400  0.016100  0.740700  1.0  -0.5953
  O  O271  1  0.076100  0.959500  0.830500  1.0  -0.6051
  O  O272  1  0.119900  0.018300  0.767800  1.0  -0.7537
  O  O273  1  0.828000  0.168000  0.436000  1.0  -0.5975
  O  O274  1  0.835100  0.279400  0.448400  1.0  -0.5694
  O  O275  1  0.961900  0.063600  0.294700  1.0  -0.7663
  O  O276  1  0.016100  0.129600  0.240700  1.0  -0.5946
  O  O277  1  0.959500  0.423900  0.330500  1.0  -0.6075
  O  O278  1  0.018300  0.380100  0.267800  1.0  -0.7529
  O  O279  1  0.672000  0.332000  0.436000  1.0  -0.5947
  O  O280  1  0.664900  0.220600  0.448400  1.0  -0.5663
  O  O281  1  0.538100  0.436400  0.294700  1.0  -0.7665
  O  O282  1  0.483900  0.370400  0.240700  1.0  -0.5926
  O  O283  1  0.540500  0.076100  0.330500  1.0  -0.6061
  O  O284  1  0.481700  0.119900  0.267800  1.0  -0.7521
  O  O285  1  0.832000  0.172000  0.564000  1.0  -0.6033
  O  O286  1  0.720600  0.164900  0.551600  1.0  -0.5678
  O  O287  1  0.936400  0.038100  0.705300  1.0  -0.7664
  O  O288  1  0.870400  0.983900  0.759300  1.0  -0.5929
  O  O289  1  0.576100  0.040500  0.669500  1.0  -0.6066
  O  O290  1  0.619900  0.981700  0.732200  1.0  -0.7553
  O  O291  1  0.668000  0.328000  0.564000  1.0  -0.6036
  O  O292  1  0.779400  0.335100  0.551600  1.0  -0.5681
  O  O293  1  0.563600  0.461900  0.705300  1.0  -0.767
  O  O294  1  0.629600  0.516100  0.759300  1.0  -0.5912
  O  O295  1  0.923900  0.459500  0.669500  1.0  -0.6067
  O  O296  1  0.880100  0.518300  0.732200  1.0  -0.7562
  O  O297  1  0.172000  0.668000  0.064000  1.0  -0.5963
  O  O298  1  0.164900  0.779400  0.051600  1.0  -0.5707
  O  O299  1  0.038100  0.563600  0.205300  1.0  -0.7669
  O  O300  1  0.983900  0.629600  0.259300  1.0  -0.5924
  O  O301  1  0.040500  0.923900  0.169500  1.0  -0.6079
  O  O302  1  0.981700  0.880100  0.232200  1.0  -0.7533
  O  O303  1  0.328000  0.832000  0.064000  1.0  -0.5954
  O  O304  1  0.335100  0.720600  0.051600  1.0  -0.5697
  O  O305  1  0.461900  0.936400  0.205300  1.0  -0.767
  O  O306  1  0.516100  0.870400  0.259300  1.0  -0.5933
  O  O307  1  0.459500  0.576100  0.169500  1.0  -0.6076
  O  O308  1  0.518300  0.619900  0.232200  1.0  -0.7541
