# generated using pymatgen
data_Sm2Cd3H12(C3O2)12
_symmetry_space_group_name_H-M   'P 1'
_cell_length_a   19.48760000
_cell_length_b   19.48760000
_cell_length_c   26.37700000
_cell_angle_alpha   90.00000000
_cell_angle_beta   90.00000000
_cell_angle_gamma   90.00000000
_symmetry_Int_Tables_number   1
_chemical_formula_structural   Sm2Cd3H12(C3O2)12
_chemical_formula_sum   'Sm8 Cd12 H48 C144 O96'
_cell_volume   10017.10238853
_cell_formula_units_Z   4
loop_
 _symmetry_equiv_pos_site_id
 _symmetry_equiv_pos_as_xyz
  1  'x, y, z'
loop_
 _atom_site_type_symbol
 _atom_site_label
 _atom_site_symmetry_multiplicity
 _atom_site_fract_x
 _atom_site_fract_y
 _atom_site_fract_z
 _atom_site_occupancy
 _atom_site_charge
  Sm  Sm1  1  0.441010  0.058990  0.802870  1.0  1.9136
  Sm  Sm2  1  0.058990  0.441010  0.802870  1.0  1.9138
  Sm  Sm3  1  0.441010  0.441010  0.302870  1.0  1.9047
  Sm  Sm4  1  0.058990  0.058990  0.302870  1.0  1.908
  Sm  Sm5  1  0.558990  0.558990  0.697130  1.0  1.92
  Sm  Sm6  1  0.941010  0.941010  0.697130  1.0  1.9195
  Sm  Sm7  1  0.558990  0.941010  0.197130  1.0  1.9277
  Sm  Sm8  1  0.941010  0.558990  0.197130  1.0  1.9275
  Cd  Cd9  1  0.529900  0.970100  0.696070  1.0  1.0662
  Cd  Cd10  1  0.970100  0.529900  0.696070  1.0  1.0647
  Cd  Cd11  1  0.529900  0.529900  0.196070  1.0  1.0642
  Cd  Cd12  1  0.970100  0.970100  0.196070  1.0  1.0668
  Cd  Cd13  1  0.470100  0.470100  0.803930  1.0  1.0632
  Cd  Cd14  1  0.029900  0.029900  0.803930  1.0  1.0639
  Cd  Cd15  1  0.470100  0.029900  0.303930  1.0  1.0624
  Cd  Cd16  1  0.029900  0.470100  0.303930  1.0  1.0644
  Cd  Cd17  1  0.750000  0.250000  0.500000  1.0  1.0155
  Cd  Cd18  1  0.250000  0.750000  0.000000  1.0  1.0155
  Cd  Cd19  1  0.250000  0.750000  0.500000  1.0  1.0155
  Cd  Cd20  1  0.750000  0.250000  0.000000  1.0  1.0155
  H  H21  1  0.487300  0.251200  0.730800  1.0  0.1163
  H  H22  1  0.590000  0.167100  0.615100  1.0  0.1175
  H  H23  1  0.595500  0.370400  0.635700  1.0  0.1193
  H  H24  1  0.012700  0.248800  0.730800  1.0  0.1162
  H  H25  1  0.910000  0.332900  0.615100  1.0  0.118
  H  H26  1  0.904500  0.129600  0.635700  1.0  0.1193
  H  H27  1  0.248800  0.487300  0.230800  1.0  0.1166
  H  H28  1  0.332900  0.590000  0.115100  1.0  0.1173
  H  H29  1  0.129600  0.595500  0.135700  1.0  0.1186
  H  H30  1  0.251200  0.012700  0.230800  1.0  0.1165
  H  H31  1  0.167100  0.910000  0.115100  1.0  0.1173
  H  H32  1  0.370400  0.904500  0.135700  1.0  0.1185
  H  H33  1  0.512700  0.751200  0.769200  1.0  0.1159
  H  H34  1  0.410000  0.667100  0.884900  1.0  0.1179
  H  H35  1  0.404500  0.870400  0.864300  1.0  0.1195
  H  H36  1  0.987300  0.748800  0.769200  1.0  0.116
  H  H37  1  0.090000  0.832900  0.884900  1.0  0.1179
  H  H38  1  0.095500  0.629600  0.864300  1.0  0.1194
  H  H39  1  0.751200  0.987300  0.269200  1.0  0.1162
  H  H40  1  0.667100  0.090000  0.384900  1.0  0.1173
  H  H41  1  0.870400  0.095500  0.364300  1.0  0.1191
  H  H42  1  0.748800  0.512700  0.269200  1.0  0.1164
  H  H43  1  0.832900  0.410000  0.384900  1.0  0.1172
  H  H44  1  0.629600  0.404500  0.364300  1.0  0.1187
  H  H45  1  0.512700  0.748800  0.269200  1.0  0.116
  H  H46  1  0.410000  0.832900  0.384900  1.0  0.1181
  H  H47  1  0.404500  0.629600  0.364300  1.0  0.1194
  H  H48  1  0.987300  0.751200  0.269200  1.0  0.1159
  H  H49  1  0.090000  0.667100  0.384900  1.0  0.1176
  H  H50  1  0.095500  0.870400  0.364300  1.0  0.1197
  H  H51  1  0.751200  0.512700  0.769200  1.0  0.1165
  H  H52  1  0.667100  0.410000  0.884900  1.0  0.1174
  H  H53  1  0.870400  0.404500  0.864300  1.0  0.1188
  H  H54  1  0.748800  0.987300  0.769200  1.0  0.1161
  H  H55  1  0.832900  0.090000  0.884900  1.0  0.1171
  H  H56  1  0.629600  0.095500  0.864300  1.0  0.1187
  H  H57  1  0.487300  0.248800  0.230800  1.0  0.1163
  H  H58  1  0.590000  0.332900  0.115100  1.0  0.1177
  H  H59  1  0.595500  0.129600  0.135700  1.0  0.1192
  H  H60  1  0.012700  0.251200  0.230800  1.0  0.1163
  H  H61  1  0.910000  0.167100  0.115100  1.0  0.1177
  H  H62  1  0.904500  0.370400  0.135700  1.0  0.1193
  H  H63  1  0.248800  0.012700  0.730800  1.0  0.1166
  H  H64  1  0.332900  0.910000  0.615100  1.0  0.1173
  H  H65  1  0.129600  0.904500  0.635700  1.0  0.1186
  H  H66  1  0.251200  0.487300  0.730800  1.0  0.1166
  H  H67  1  0.167100  0.590000  0.615100  1.0  0.1174
  H  H68  1  0.370400  0.595500  0.635700  1.0  0.1189
  C  C69  1  0.516400  0.128600  0.693600  1.0  0.7515
  C  C70  1  0.538000  0.320300  0.688100  1.0  -0.1578
  C  C71  1  0.647600  0.275000  0.574500  1.0  0.6963
  C  C72  1  0.534700  0.199100  0.675400  1.0  -0.1583
  C  C73  1  0.598800  0.269600  0.618400  1.0  -0.1494
  C  C74  1  0.515500  0.255900  0.702600  1.0  0.0204
  C  C75  1  0.576800  0.205800  0.633200  1.0  0.0301
  C  C76  1  0.580100  0.327300  0.645600  1.0  0.0388
  C  C77  1  0.519500  0.381800  0.719700  1.0  0.7354
  C  C78  1  0.983600  0.371400  0.693600  1.0  0.752
  C  C79  1  0.962000  0.179700  0.688100  1.0  -0.1579
  C  C80  1  0.852400  0.225000  0.574500  1.0  0.6958
  C  C81  1  0.965300  0.300900  0.675400  1.0  -0.1575
  C  C82  1  0.901200  0.230400  0.618400  1.0  -0.1496
  C  C83  1  0.984500  0.244100  0.702600  1.0  0.0202
  C  C84  1  0.923200  0.294200  0.633200  1.0  0.0293
  C  C85  1  0.919900  0.172700  0.645600  1.0  0.0398
  C  C86  1  0.980500  0.118200  0.719700  1.0  0.7352
  C  C87  1  0.371400  0.516400  0.193600  1.0  0.7524
  C  C88  1  0.179700  0.538000  0.188100  1.0  -0.1586
  C  C89  1  0.225000  0.647600  0.074500  1.0  0.6987
  C  C90  1  0.300900  0.534700  0.175400  1.0  -0.1577
  C  C91  1  0.230400  0.598800  0.118400  1.0  -0.1491
  C  C92  1  0.244100  0.515500  0.202600  1.0  0.0207
  C  C93  1  0.294200  0.576800  0.133200  1.0  0.0289
  C  C94  1  0.172700  0.580100  0.145600  1.0  0.0375
  C  C95  1  0.118200  0.519500  0.219700  1.0  0.7324
  C  C96  1  0.128600  0.983600  0.193600  1.0  0.7543
  C  C97  1  0.320300  0.962000  0.188100  1.0  -0.1579
  C  C98  1  0.275000  0.852400  0.074500  1.0  0.698
  C  C99  1  0.199100  0.965300  0.175400  1.0  -0.1582
  C  C100  1  0.269600  0.901200  0.118400  1.0  -0.1491
  C  C101  1  0.255900  0.984500  0.202600  1.0  0.0193
  C  C102  1  0.205800  0.923200  0.133200  1.0  0.0288
  C  C103  1  0.327300  0.919900  0.145600  1.0  0.0385
  C  C104  1  0.381800  0.980500  0.219700  1.0  0.734
  C  C105  1  0.483600  0.628600  0.806400  1.0  0.7523
  C  C106  1  0.462000  0.820300  0.811900  1.0  -0.1578
  C  C107  1  0.352400  0.775000  0.925500  1.0  0.6944
  C  C108  1  0.465300  0.699100  0.824600  1.0  -0.1575
  C  C109  1  0.401200  0.769600  0.881600  1.0  -0.1493
  C  C110  1  0.484500  0.755900  0.797400  1.0  0.0203
  C  C111  1  0.423200  0.705800  0.866800  1.0  0.0297
  C  C112  1  0.419900  0.827300  0.854400  1.0  0.039
  C  C113  1  0.480500  0.881800  0.780300  1.0  0.7354
  C  C114  1  0.016400  0.871400  0.806400  1.0  0.7523
  C  C115  1  0.038000  0.679700  0.811900  1.0  -0.1579
  C  C116  1  0.147600  0.725000  0.925500  1.0  0.6953
  C  C117  1  0.034700  0.800900  0.824600  1.0  -0.158
  C  C118  1  0.098800  0.730400  0.881600  1.0  -0.1494
  C  C119  1  0.015500  0.744100  0.797400  1.0  0.0198
  C  C120  1  0.076800  0.794200  0.866800  1.0  0.0295
  C  C121  1  0.080100  0.672700  0.854400  1.0  0.0396
  C  C122  1  0.019500  0.618200  0.780300  1.0  0.7352
  C  C123  1  0.628600  0.016400  0.306400  1.0  0.7546
  C  C124  1  0.820300  0.038000  0.311900  1.0  -0.1577
  C  C125  1  0.775000  0.147600  0.425500  1.0  0.6973
  C  C126  1  0.699100  0.034700  0.324600  1.0  -0.159
  C  C127  1  0.769600  0.098800  0.381600  1.0  -0.1489
  C  C128  1  0.755900  0.015500  0.297400  1.0  0.02
  C  C129  1  0.705800  0.076800  0.366800  1.0  0.0276
  C  C130  1  0.827300  0.080100  0.354400  1.0  0.0382
  C  C131  1  0.881800  0.019500  0.280300  1.0  0.7338
  C  C132  1  0.871400  0.483600  0.306400  1.0  0.7528
  C  C133  1  0.679700  0.462000  0.311900  1.0  -0.1585
  C  C134  1  0.725000  0.352400  0.425500  1.0  0.6972
  C  C135  1  0.800900  0.465300  0.324600  1.0  -0.1579
  C  C136  1  0.730400  0.401200  0.381600  1.0  -0.1488
  C  C137  1  0.744100  0.484500  0.297400  1.0  0.0194
  C  C138  1  0.794200  0.423200  0.366800  1.0  0.0291
  C  C139  1  0.672700  0.419900  0.354400  1.0  0.0372
  C  C140  1  0.618200  0.480500  0.280300  1.0  0.7325
  C  C141  1  0.483600  0.871400  0.306400  1.0  0.7523
  C  C142  1  0.462000  0.679700  0.311900  1.0  -0.1578
  C  C143  1  0.352400  0.725000  0.425500  1.0  0.6944
  C  C144  1  0.465300  0.800900  0.324600  1.0  -0.1578
  C  C145  1  0.401200  0.730400  0.381600  1.0  -0.1493
  C  C146  1  0.484500  0.744100  0.297400  1.0  0.0203
  C  C147  1  0.423200  0.794200  0.366800  1.0  0.0289
  C  C148  1  0.419900  0.672700  0.354400  1.0  0.0393
  C  C149  1  0.480500  0.618200  0.280300  1.0  0.7353
  C  C150  1  0.016400  0.628600  0.306400  1.0  0.7519
  C  C151  1  0.038000  0.820300  0.311900  1.0  -0.1577
  C  C152  1  0.147600  0.775000  0.425500  1.0  0.6952
  C  C153  1  0.034700  0.699100  0.324600  1.0  -0.1584
  C  C154  1  0.098800  0.769600  0.381600  1.0  -0.1496
  C  C155  1  0.015500  0.755900  0.297400  1.0  0.0197
  C  C156  1  0.076800  0.705800  0.366800  1.0  0.0304
  C  C157  1  0.080100  0.827300  0.354400  1.0  0.0391
  C  C158  1  0.019500  0.881800  0.280300  1.0  0.7354
  C  C159  1  0.628600  0.483600  0.806400  1.0  0.7546
  C  C160  1  0.820300  0.462000  0.811900  1.0  -0.1578
  C  C161  1  0.775000  0.352400  0.925500  1.0  0.6972
  C  C162  1  0.699100  0.465300  0.824600  1.0  -0.1583
  C  C163  1  0.769600  0.401200  0.881600  1.0  -0.1485
  C  C164  1  0.755900  0.484500  0.797400  1.0  0.0192
  C  C165  1  0.705800  0.423200  0.866800  1.0  0.0282
  C  C166  1  0.827300  0.419900  0.854400  1.0  0.0381
  C  C167  1  0.881800  0.480500  0.780300  1.0  0.7342
  C  C168  1  0.871400  0.016400  0.806400  1.0  0.7527
  C  C169  1  0.679700  0.038000  0.811900  1.0  -0.1586
  C  C170  1  0.725000  0.147600  0.925500  1.0  0.697
  C  C171  1  0.800900  0.034700  0.824600  1.0  -0.158
  C  C172  1  0.730400  0.098800  0.881600  1.0  -0.149
  C  C173  1  0.744100  0.015500  0.797400  1.0  0.0198
  C  C174  1  0.794200  0.076800  0.866800  1.0  0.0286
  C  C175  1  0.672700  0.080100  0.854400  1.0  0.0378
  C  C176  1  0.618200  0.019500  0.780300  1.0  0.7324
  C  C177  1  0.516400  0.371400  0.193600  1.0  0.7518
  C  C178  1  0.538000  0.179700  0.188100  1.0  -0.1579
  C  C179  1  0.647600  0.225000  0.074500  1.0  0.6957
  C  C180  1  0.534700  0.300900  0.175400  1.0  -0.1577
  C  C181  1  0.598800  0.230400  0.118400  1.0  -0.1495
  C  C182  1  0.515500  0.244100  0.202600  1.0  0.0203
  C  C183  1  0.576800  0.294200  0.133200  1.0  0.0296
  C  C184  1  0.580100  0.172700  0.145600  1.0  0.0401
  C  C185  1  0.519500  0.118200  0.219700  1.0  0.7351
  C  C186  1  0.983600  0.128600  0.193600  1.0  0.752
  C  C187  1  0.962000  0.320300  0.188100  1.0  -0.158
  C  C188  1  0.852400  0.275000  0.074500  1.0  0.6964
  C  C189  1  0.965300  0.199100  0.175400  1.0  -0.1573
  C  C190  1  0.901200  0.269600  0.118400  1.0  -0.1493
  C  C191  1  0.984500  0.255900  0.202600  1.0  0.0202
  C  C192  1  0.923200  0.205800  0.133200  1.0  0.0296
  C  C193  1  0.919900  0.327300  0.145600  1.0  0.0387
  C  C194  1  0.980500  0.381800  0.219700  1.0  0.7354
  C  C195  1  0.371400  0.983600  0.693600  1.0  0.7525
  C  C196  1  0.179700  0.962000  0.688100  1.0  -0.1585
  C  C197  1  0.225000  0.852400  0.574500  1.0  0.6985
  C  C198  1  0.300900  0.965300  0.675400  1.0  -0.1576
  C  C199  1  0.230400  0.901200  0.618400  1.0  -0.1495
  C  C200  1  0.244100  0.984500  0.702600  1.0  0.0195
  C  C201  1  0.294200  0.923200  0.633200  1.0  0.0294
  C  C202  1  0.172700  0.919900  0.645600  1.0  0.037
  C  C203  1  0.118200  0.980500  0.719700  1.0  0.7322
  C  C204  1  0.128600  0.516400  0.693600  1.0  0.7545
  C  C205  1  0.320300  0.538000  0.688100  1.0  -0.1579
  C  C206  1  0.275000  0.647600  0.574500  1.0  0.6984
  C  C207  1  0.199100  0.534700  0.675400  1.0  -0.1588
  C  C208  1  0.269600  0.598800  0.618400  1.0  -0.1487
  C  C209  1  0.255900  0.515500  0.702600  1.0  0.0208
  C  C210  1  0.205800  0.576800  0.633200  1.0  0.0283
  C  C211  1  0.327300  0.580100  0.645600  1.0  0.0386
  C  C212  1  0.381800  0.519500  0.719700  1.0  0.7338
  O  O213  1  0.479100  0.123300  0.732500  1.0  -0.7682
  O  O214  1  0.539700  0.437700  0.706000  1.0  -0.7601
  O  O215  1  0.663500  0.221400  0.551100  1.0  -0.5765
  O  O216  1  0.672800  0.332300  0.563900  1.0  -0.6063
  O  O217  1  0.537700  0.078700  0.669800  1.0  -0.5954
  O  O218  1  0.486800  0.373600  0.759800  1.0  -0.5907
  O  O219  1  0.020900  0.376700  0.732500  1.0  -0.7693
  O  O220  1  0.960300  0.062300  0.706000  1.0  -0.7602
  O  O221  1  0.836500  0.278600  0.551100  1.0  -0.5781
  O  O222  1  0.827200  0.167700  0.563900  1.0  -0.6101
  O  O223  1  0.962300  0.421300  0.669800  1.0  -0.5984
  O  O224  1  0.013200  0.126400  0.759800  1.0  -0.5901
  O  O225  1  0.376700  0.479100  0.232500  1.0  -0.7701
  O  O226  1  0.062300  0.539700  0.206000  1.0  -0.7603
  O  O227  1  0.278600  0.663500  0.051100  1.0  -0.574
  O  O228  1  0.167700  0.672800  0.063900  1.0  -0.6124
  O  O229  1  0.421300  0.537700  0.169800  1.0  -0.5973
  O  O230  1  0.126400  0.486800  0.259800  1.0  -0.5894
  O  O231  1  0.123300  0.020900  0.232500  1.0  -0.7711
  O  O232  1  0.437700  0.960300  0.206000  1.0  -0.7596
  O  O233  1  0.221400  0.836500  0.051100  1.0  -0.5745
  O  O234  1  0.332300  0.827200  0.063900  1.0  -0.6133
  O  O235  1  0.078700  0.962300  0.169800  1.0  -0.5963
  O  O236  1  0.373600  0.013200  0.259800  1.0  -0.5894
  O  O237  1  0.520900  0.623300  0.767500  1.0  -0.7696
  O  O238  1  0.460300  0.937700  0.794000  1.0  -0.7597
  O  O239  1  0.336500  0.721400  0.948900  1.0  -0.577
  O  O240  1  0.327200  0.832300  0.936100  1.0  -0.6071
  O  O241  1  0.462300  0.578700  0.830200  1.0  -0.5945
  O  O242  1  0.513200  0.873600  0.740200  1.0  -0.5925
  O  O243  1  0.979100  0.876700  0.767500  1.0  -0.7693
  O  O244  1  0.039700  0.562300  0.794000  1.0  -0.7599
  O  O245  1  0.163500  0.778600  0.948900  1.0  -0.5794
  O  O246  1  0.172800  0.667700  0.936100  1.0  -0.6096
  O  O247  1  0.037700  0.921300  0.830200  1.0  -0.5937
  O  O248  1  0.986800  0.626400  0.740200  1.0  -0.5939
  O  O249  1  0.623300  0.979100  0.267500  1.0  -0.7705
  O  O250  1  0.937700  0.039700  0.294000  1.0  -0.7595
  O  O251  1  0.721400  0.163500  0.448900  1.0  -0.575
  O  O252  1  0.832300  0.172800  0.436100  1.0  -0.6126
  O  O253  1  0.578700  0.037700  0.330200  1.0  -0.5947
  O  O254  1  0.873600  0.986800  0.240200  1.0  -0.5929
  O  O255  1  0.876700  0.520900  0.267500  1.0  -0.7716
  O  O256  1  0.562300  0.460300  0.294000  1.0  -0.7594
  O  O257  1  0.778600  0.336500  0.448900  1.0  -0.5754
  O  O258  1  0.667700  0.327200  0.436100  1.0  -0.6131
  O  O259  1  0.921300  0.462300  0.330200  1.0  -0.5937
  O  O260  1  0.626400  0.513200  0.240200  1.0  -0.5928
  O  O261  1  0.520900  0.876700  0.267500  1.0  -0.77
  O  O262  1  0.460300  0.562300  0.294000  1.0  -0.7594
  O  O263  1  0.336500  0.778600  0.448900  1.0  -0.578
  O  O264  1  0.327200  0.667700  0.436100  1.0  -0.6105
  O  O265  1  0.462300  0.921300  0.330200  1.0  -0.5951
  O  O266  1  0.513200  0.626400  0.240200  1.0  -0.5938
  O  O267  1  0.979100  0.623300  0.267500  1.0  -0.7686
  O  O268  1  0.039700  0.937700  0.294000  1.0  -0.76
  O  O269  1  0.163500  0.721400  0.448900  1.0  -0.5759
  O  O270  1  0.172800  0.832300  0.436100  1.0  -0.6062
  O  O271  1  0.037700  0.578700  0.330200  1.0  -0.5937
  O  O272  1  0.986800  0.873600  0.240200  1.0  -0.5925
  O  O273  1  0.623300  0.520900  0.767500  1.0  -0.771
  O  O274  1  0.937700  0.460300  0.794000  1.0  -0.7589
  O  O275  1  0.721400  0.336500  0.948900  1.0  -0.5746
  O  O276  1  0.832300  0.327200  0.936100  1.0  -0.6139
  O  O277  1  0.578700  0.462300  0.830200  1.0  -0.5944
  O  O278  1  0.873600  0.513200  0.740200  1.0  -0.5939
  O  O279  1  0.876700  0.979100  0.767500  1.0  -0.771
  O  O280  1  0.562300  0.039700  0.794000  1.0  -0.76
  O  O281  1  0.778600  0.163500  0.948900  1.0  -0.5739
  O  O282  1  0.667700  0.172800  0.936100  1.0  -0.6119
  O  O283  1  0.921300  0.037700  0.830200  1.0  -0.594
  O  O284  1  0.626400  0.986800  0.740200  1.0  -0.5921
  O  O285  1  0.479100  0.376700  0.232500  1.0  -0.7684
  O  O286  1  0.539700  0.062300  0.206000  1.0  -0.7606
  O  O287  1  0.663500  0.278600  0.051100  1.0  -0.5798
  O  O288  1  0.672800  0.167700  0.063900  1.0  -0.6093
  O  O289  1  0.537700  0.421300  0.169800  1.0  -0.5974
  O  O290  1  0.486800  0.126400  0.259800  1.0  -0.5902
  O  O291  1  0.020900  0.123300  0.232500  1.0  -0.7694
  O  O292  1  0.960300  0.437700  0.206000  1.0  -0.76
  O  O293  1  0.836500  0.221400  0.051100  1.0  -0.577
  O  O294  1  0.827200  0.332300  0.063900  1.0  -0.6073
  O  O295  1  0.962300  0.078700  0.169800  1.0  -0.5955
  O  O296  1  0.013200  0.373600  0.259800  1.0  -0.5905
  O  O297  1  0.376700  0.020900  0.732500  1.0  -0.7711
  O  O298  1  0.062300  0.960300  0.706000  1.0  -0.7609
  O  O299  1  0.278600  0.836500  0.551100  1.0  -0.575
  O  O300  1  0.167700  0.827200  0.563900  1.0  -0.6134
  O  O301  1  0.421300  0.962300  0.669800  1.0  -0.5966
  O  O302  1  0.126400  0.013200  0.759800  1.0  -0.5886
  O  O303  1  0.123300  0.479100  0.732500  1.0  -0.7702
  O  O304  1  0.437700  0.539700  0.706000  1.0  -0.7594
  O  O305  1  0.221400  0.663500  0.551100  1.0  -0.5752
  O  O306  1  0.332300  0.672800  0.563900  1.0  -0.6121
  O  O307  1  0.078700  0.537700  0.669800  1.0  -0.5965
  O  O308  1  0.373600  0.486800  0.759800  1.0  -0.5905
