# generated using pymatgen
data_Gd2Cd3H12(C3O2)12
_symmetry_space_group_name_H-M   'P 1'
_cell_length_a   19.46870000
_cell_length_b   19.46870000
_cell_length_c   26.37460000
_cell_angle_alpha   90.00000000
_cell_angle_beta   90.00000000
_cell_angle_gamma   90.00000000
_symmetry_Int_Tables_number   1
_chemical_formula_structural   Gd2Cd3H12(C3O2)12
_chemical_formula_sum   'Gd8 Cd12 H48 C144 O96'
_cell_volume   9996.77201471
_cell_formula_units_Z   4
loop_
 _symmetry_equiv_pos_site_id
 _symmetry_equiv_pos_as_xyz
  1  'x, y, z'
loop_
 _atom_site_type_symbol
 _atom_site_label
 _atom_site_symmetry_multiplicity
 _atom_site_fract_x
 _atom_site_fract_y
 _atom_site_fract_z
 _atom_site_occupancy
 _atom_site_charge
  Gd  Gd1  1  0.556140  0.556140  0.302360  1.0  1.8851
  Gd  Gd2  1  0.943860  0.943860  0.302360  1.0  1.8811
  Gd  Gd3  1  0.943860  0.556140  0.802360  1.0  1.8881
  Gd  Gd4  1  0.556140  0.943860  0.802360  1.0  1.8871
  Gd  Gd5  1  0.443860  0.056140  0.197640  1.0  1.9021
  Gd  Gd6  1  0.056140  0.443860  0.197640  1.0  1.901
  Gd  Gd7  1  0.056140  0.056140  0.697640  1.0  1.8972
  Gd  Gd8  1  0.443860  0.443860  0.697640  1.0  1.8957
  Cd  Cd9  1  0.467400  0.467400  0.195730  1.0  1.0489
  Cd  Cd10  1  0.032600  0.032600  0.195730  1.0  1.0468
  Cd  Cd11  1  0.032600  0.467400  0.695730  1.0  1.0486
  Cd  Cd12  1  0.467400  0.032600  0.695730  1.0  1.0471
  Cd  Cd13  1  0.532600  0.967400  0.304270  1.0  1.0485
  Cd  Cd14  1  0.967400  0.532600  0.304270  1.0  1.0469
  Cd  Cd15  1  0.967400  0.967400  0.804270  1.0  1.0475
  Cd  Cd16  1  0.532600  0.532600  0.804270  1.0  1.0481
  Cd  Cd17  1  0.250000  0.750000  0.000000  1.0  1.0144
  Cd  Cd18  1  0.750000  0.250000  0.500000  1.0  1.0144
  Cd  Cd19  1  0.750000  0.250000  0.000000  1.0  1.0144
  Cd  Cd20  1  0.250000  0.750000  0.500000  1.0  1.0144
  H  H21  1  0.408100  0.868800  0.135600  1.0  0.1191
  H  H22  1  0.409900  0.665500  0.116100  1.0  0.1144
  H  H23  1  0.511800  0.748200  0.231700  1.0  0.1208
  H  H24  1  0.091900  0.631200  0.135600  1.0  0.1189
  H  H25  1  0.090100  0.834500  0.116100  1.0  0.1143
  H  H26  1  0.988200  0.751800  0.231700  1.0  0.1206
  H  H27  1  0.631200  0.408100  0.635600  1.0  0.1181
  H  H28  1  0.834500  0.409900  0.616100  1.0  0.114
  H  H29  1  0.751800  0.511800  0.731700  1.0  0.1214
  H  H30  1  0.868800  0.091900  0.635600  1.0  0.1184
  H  H31  1  0.665500  0.090100  0.616100  1.0  0.1142
  H  H32  1  0.748200  0.988200  0.731700  1.0  0.1213
  H  H33  1  0.591900  0.368800  0.364400  1.0  0.119
  H  H34  1  0.590100  0.165500  0.383900  1.0  0.1142
  H  H35  1  0.488200  0.248200  0.268300  1.0  0.1202
  H  H36  1  0.908100  0.131200  0.364400  1.0  0.1191
  H  H37  1  0.909900  0.334500  0.383900  1.0  0.1147
  H  H38  1  0.011800  0.251800  0.268300  1.0  0.1206
  H  H39  1  0.368800  0.908100  0.864400  1.0  0.1182
  H  H40  1  0.165500  0.909900  0.883900  1.0  0.1141
  H  H41  1  0.248200  0.011800  0.768300  1.0  0.1211
  H  H42  1  0.131200  0.591900  0.864400  1.0  0.1179
  H  H43  1  0.334500  0.590100  0.883900  1.0  0.1137
  H  H44  1  0.251800  0.488200  0.768300  1.0  0.1209
  H  H45  1  0.591900  0.131200  0.864400  1.0  0.1188
  H  H46  1  0.590100  0.334500  0.883900  1.0  0.1144
  H  H47  1  0.488200  0.251800  0.768300  1.0  0.1204
  H  H48  1  0.908100  0.368800  0.864400  1.0  0.119
  H  H49  1  0.909900  0.165500  0.883900  1.0  0.1144
  H  H50  1  0.011800  0.248200  0.768300  1.0  0.1205
  H  H51  1  0.368800  0.591900  0.364400  1.0  0.1181
  H  H52  1  0.165500  0.590100  0.383900  1.0  0.1138
  H  H53  1  0.248200  0.488200  0.268300  1.0  0.1209
  H  H54  1  0.131200  0.908100  0.364400  1.0  0.118
  H  H55  1  0.334500  0.909900  0.383900  1.0  0.1139
  H  H56  1  0.251800  0.011800  0.268300  1.0  0.1211
  H  H57  1  0.408100  0.631200  0.635600  1.0  0.1191
  H  H58  1  0.409900  0.834500  0.616100  1.0  0.1147
  H  H59  1  0.511800  0.751800  0.731700  1.0  0.1207
  H  H60  1  0.091900  0.868800  0.635600  1.0  0.119
  H  H61  1  0.090100  0.665500  0.616100  1.0  0.1142
  H  H62  1  0.988200  0.748200  0.731700  1.0  0.1206
  H  H63  1  0.631200  0.091900  0.135600  1.0  0.118
  H  H64  1  0.834500  0.090100  0.116100  1.0  0.1141
  H  H65  1  0.751800  0.988200  0.231700  1.0  0.1214
  H  H66  1  0.868800  0.408100  0.135600  1.0  0.1184
  H  H67  1  0.665500  0.409900  0.116100  1.0  0.1142
  H  H68  1  0.748200  0.511800  0.231700  1.0  0.1212
  C  C69  1  0.483400  0.625300  0.194100  1.0  0.7682
  C  C70  1  0.421600  0.825200  0.146000  1.0  0.0302
  C  C71  1  0.423100  0.704200  0.134400  1.0  0.0334
  C  C72  1  0.400800  0.768000  0.118900  1.0  -0.1721
  C  C73  1  0.482900  0.880300  0.219100  1.0  0.7365
  C  C74  1  0.351800  0.775400  0.075700  1.0  0.71
  C  C75  1  0.462500  0.817600  0.188600  1.0  -0.1504
  C  C76  1  0.464200  0.696500  0.175900  1.0  -0.1822
  C  C77  1  0.484000  0.753300  0.203300  1.0  0.0168
  C  C78  1  0.016600  0.874700  0.194100  1.0  0.7684
  C  C79  1  0.078400  0.674800  0.146000  1.0  0.0323
  C  C80  1  0.076900  0.795800  0.134400  1.0  0.033
  C  C81  1  0.099200  0.732000  0.118900  1.0  -0.172
  C  C82  1  0.017100  0.619700  0.219100  1.0  0.736
  C  C83  1  0.148200  0.724600  0.075700  1.0  0.7085
  C  C84  1  0.037500  0.682400  0.188600  1.0  -0.1504
  C  C85  1  0.035800  0.803500  0.175900  1.0  -0.1825
  C  C86  1  0.016000  0.746700  0.203300  1.0  0.0169
  C  C87  1  0.874700  0.483400  0.694100  1.0  0.7676
  C  C88  1  0.674800  0.421600  0.646000  1.0  0.0304
  C  C89  1  0.795800  0.423100  0.634400  1.0  0.0324
  C  C90  1  0.732000  0.400800  0.618900  1.0  -0.173
  C  C91  1  0.619700  0.482900  0.719100  1.0  0.7343
  C  C92  1  0.724600  0.351800  0.575700  1.0  0.7105
  C  C93  1  0.682400  0.462500  0.688600  1.0  -0.1507
  C  C94  1  0.803500  0.464200  0.675900  1.0  -0.1824
  C  C95  1  0.746700  0.484000  0.703300  1.0  0.016
  C  C96  1  0.625300  0.016600  0.694100  1.0  0.7682
  C  C97  1  0.825200  0.078400  0.646000  1.0  0.0314
  C  C98  1  0.704200  0.076900  0.634400  1.0  0.0328
  C  C99  1  0.768000  0.099200  0.618900  1.0  -0.172
  C  C100  1  0.880300  0.017100  0.719100  1.0  0.7345
  C  C101  1  0.775400  0.148200  0.575700  1.0  0.7106
  C  C102  1  0.817600  0.037500  0.688600  1.0  -0.1499
  C  C103  1  0.696500  0.035800  0.675900  1.0  -0.1826
  C  C104  1  0.753300  0.016000  0.703300  1.0  0.0162
  C  C105  1  0.516600  0.125300  0.305900  1.0  0.7681
  C  C106  1  0.578400  0.325200  0.354000  1.0  0.0308
  C  C107  1  0.576900  0.204200  0.365600  1.0  0.0336
  C  C108  1  0.599200  0.268000  0.381100  1.0  -0.1723
  C  C109  1  0.517100  0.380300  0.280900  1.0  0.7361
  C  C110  1  0.648200  0.275400  0.424300  1.0  0.7085
  C  C111  1  0.537500  0.317600  0.311400  1.0  -0.1504
  C  C112  1  0.535800  0.196500  0.324100  1.0  -0.1824
  C  C113  1  0.516000  0.253300  0.296700  1.0  0.0173
  C  C114  1  0.983400  0.374700  0.305900  1.0  0.7686
  C  C115  1  0.921600  0.174800  0.354000  1.0  0.032
  C  C116  1  0.923100  0.295800  0.365600  1.0  0.0336
  C  C117  1  0.900800  0.232000  0.381100  1.0  -0.1727
  C  C118  1  0.982900  0.119700  0.280900  1.0  0.7359
  C  C119  1  0.851800  0.224600  0.424300  1.0  0.7093
  C  C120  1  0.962500  0.182400  0.311400  1.0  -0.15
  C  C121  1  0.964200  0.303500  0.324100  1.0  -0.1831
  C  C122  1  0.984000  0.246700  0.296700  1.0  0.0174
  C  C123  1  0.125300  0.983400  0.805900  1.0  0.7679
  C  C124  1  0.325200  0.921600  0.854000  1.0  0.0316
  C  C125  1  0.204200  0.923100  0.865600  1.0  0.0331
  C  C126  1  0.268000  0.900800  0.881100  1.0  -0.1723
  C  C127  1  0.380300  0.982900  0.780900  1.0  0.7343
  C  C128  1  0.275400  0.851800  0.924300  1.0  0.7105
  C  C129  1  0.317600  0.962500  0.811400  1.0  -0.1499
  C  C130  1  0.196500  0.964200  0.824100  1.0  -0.1827
  C  C131  1  0.253300  0.984000  0.796700  1.0  0.0167
  C  C132  1  0.374700  0.516600  0.805900  1.0  0.7676
  C  C133  1  0.174800  0.578400  0.854000  1.0  0.0309
  C  C134  1  0.295800  0.576900  0.865600  1.0  0.0329
  C  C135  1  0.232000  0.599200  0.881100  1.0  -0.1729
  C  C136  1  0.119700  0.517100  0.780900  1.0  0.7341
  C  C137  1  0.224600  0.648200  0.924300  1.0  0.7107
  C  C138  1  0.182400  0.537500  0.811400  1.0  -0.1505
  C  C139  1  0.303500  0.535800  0.824100  1.0  -0.1826
  C  C140  1  0.246700  0.516000  0.796700  1.0  0.0164
  C  C141  1  0.516600  0.374700  0.805900  1.0  0.7685
  C  C142  1  0.578400  0.174800  0.854000  1.0  0.0325
  C  C143  1  0.576900  0.295800  0.865600  1.0  0.0332
  C  C144  1  0.599200  0.232000  0.881100  1.0  -0.1725
  C  C145  1  0.517100  0.119700  0.780900  1.0  0.7359
  C  C146  1  0.648200  0.224600  0.924300  1.0  0.7086
  C  C147  1  0.537500  0.182400  0.811400  1.0  -0.1508
  C  C148  1  0.535800  0.303500  0.824100  1.0  -0.1826
  C  C149  1  0.516000  0.246700  0.796700  1.0  0.0173
  C  C150  1  0.983400  0.125300  0.805900  1.0  0.7681
  C  C151  1  0.921600  0.325200  0.854000  1.0  0.0306
  C  C152  1  0.923100  0.204200  0.865600  1.0  0.0337
  C  C153  1  0.900800  0.268000  0.881100  1.0  -0.1725
  C  C154  1  0.982900  0.380300  0.780900  1.0  0.7362
  C  C155  1  0.851800  0.275400  0.924300  1.0  0.7092
  C  C156  1  0.962500  0.317600  0.811400  1.0  -0.1501
  C  C157  1  0.964200  0.196500  0.824100  1.0  -0.1824
  C  C158  1  0.984000  0.253300  0.796700  1.0  0.0174
  C  C159  1  0.125300  0.516600  0.305900  1.0  0.768
  C  C160  1  0.325200  0.578400  0.354000  1.0  0.0315
  C  C161  1  0.204200  0.576900  0.365600  1.0  0.0328
  C  C162  1  0.268000  0.599200  0.381100  1.0  -0.1727
  C  C163  1  0.380300  0.517100  0.280900  1.0  0.7342
  C  C164  1  0.275400  0.648200  0.424300  1.0  0.7109
  C  C165  1  0.317600  0.537500  0.311400  1.0  -0.1497
  C  C166  1  0.196500  0.535800  0.324100  1.0  -0.183
  C  C167  1  0.253300  0.516000  0.296700  1.0  0.0167
  C  C168  1  0.374700  0.983400  0.305900  1.0  0.7677
  C  C169  1  0.174800  0.921600  0.354000  1.0  0.0306
  C  C170  1  0.295800  0.923100  0.365600  1.0  0.0331
  C  C171  1  0.232000  0.900800  0.381100  1.0  -0.1726
  C  C172  1  0.119700  0.982900  0.280900  1.0  0.7342
  C  C173  1  0.224600  0.851800  0.424300  1.0  0.7107
  C  C174  1  0.182400  0.962500  0.311400  1.0  -0.1507
  C  C175  1  0.303500  0.964200  0.324100  1.0  -0.1826
  C  C176  1  0.246700  0.984000  0.296700  1.0  0.0166
  C  C177  1  0.483400  0.874700  0.694100  1.0  0.7686
  C  C178  1  0.421600  0.674800  0.646000  1.0  0.0321
  C  C179  1  0.423100  0.795800  0.634400  1.0  0.0336
  C  C180  1  0.400800  0.732000  0.618900  1.0  -0.1726
  C  C181  1  0.482900  0.619700  0.719100  1.0  0.7363
  C  C182  1  0.351800  0.724600  0.575700  1.0  0.7095
  C  C183  1  0.462500  0.682400  0.688600  1.0  -0.15
  C  C184  1  0.464200  0.803500  0.675900  1.0  -0.183
  C  C185  1  0.484000  0.746700  0.703300  1.0  0.0168
  C  C186  1  0.016600  0.625300  0.694100  1.0  0.7682
  C  C187  1  0.078400  0.825200  0.646000  1.0  0.0303
  C  C188  1  0.076900  0.704200  0.634400  1.0  0.033
  C  C189  1  0.099200  0.768000  0.618900  1.0  -0.1716
  C  C190  1  0.017100  0.880300  0.719100  1.0  0.7362
  C  C191  1  0.148200  0.775400  0.575700  1.0  0.709
  C  C192  1  0.037500  0.817600  0.688600  1.0  -0.1504
  C  C193  1  0.035800  0.696500  0.675900  1.0  -0.1821
  C  C194  1  0.016000  0.753300  0.703300  1.0  0.0168
  C  C195  1  0.874700  0.016600  0.194100  1.0  0.7675
  C  C196  1  0.674800  0.078400  0.146000  1.0  0.0306
  C  C197  1  0.795800  0.076900  0.134400  1.0  0.0324
  C  C198  1  0.732000  0.099200  0.118900  1.0  -0.1722
  C  C199  1  0.619700  0.017100  0.219100  1.0  0.7344
  C  C200  1  0.724600  0.148200  0.075700  1.0  0.7109
  C  C201  1  0.682400  0.037500  0.188600  1.0  -0.1504
  C  C202  1  0.803500  0.035800  0.175900  1.0  -0.1823
  C  C203  1  0.746700  0.016000  0.203300  1.0  0.0162
  C  C204  1  0.625300  0.483400  0.194100  1.0  0.7681
  C  C205  1  0.825200  0.421600  0.146000  1.0  0.0316
  C  C206  1  0.704200  0.423100  0.134400  1.0  0.033
  C  C207  1  0.768000  0.400800  0.118900  1.0  -0.1726
  C  C208  1  0.880300  0.482900  0.219100  1.0  0.7346
  C  C209  1  0.775400  0.351800  0.075700  1.0  0.71
  C  C210  1  0.817600  0.462500  0.188600  1.0  -0.1502
  C  C211  1  0.696500  0.464200  0.175900  1.0  -0.1823
  C  C212  1  0.753300  0.484000  0.203300  1.0  0.0159
  O  O213  1  0.460800  0.575600  0.169300  1.0  -0.6068
  O  O214  1  0.518100  0.620000  0.232600  1.0  -0.7462
  O  O215  1  0.335100  0.720600  0.051600  1.0  -0.5794
  O  O216  1  0.461500  0.937300  0.205600  1.0  -0.7882
  O  O217  1  0.517000  0.869700  0.259300  1.0  -0.6126
  O  O218  1  0.328500  0.831800  0.064100  1.0  -0.5314
  O  O219  1  0.039200  0.924400  0.169300  1.0  -0.6071
  O  O220  1  0.981900  0.880000  0.232600  1.0  -0.7453
  O  O221  1  0.164900  0.779400  0.051600  1.0  -0.5823
  O  O222  1  0.038500  0.562700  0.205600  1.0  -0.7886
  O  O223  1  0.983000  0.630300  0.259300  1.0  -0.6127
  O  O224  1  0.171500  0.668200  0.064100  1.0  -0.5326
  O  O225  1  0.924400  0.460800  0.669300  1.0  -0.6058
  O  O226  1  0.880000  0.518100  0.732600  1.0  -0.7475
  O  O227  1  0.779400  0.335100  0.551600  1.0  -0.5775
  O  O228  1  0.562700  0.461500  0.705600  1.0  -0.7873
  O  O229  1  0.630300  0.517000  0.759300  1.0  -0.6109
  O  O230  1  0.668200  0.328500  0.564100  1.0  -0.5385
  O  O231  1  0.575600  0.039200  0.669300  1.0  -0.6052
  O  O232  1  0.620000  0.981900  0.732600  1.0  -0.748
  O  O233  1  0.720600  0.164900  0.551600  1.0  -0.5774
  O  O234  1  0.937300  0.038500  0.705600  1.0  -0.7879
  O  O235  1  0.869700  0.983000  0.759300  1.0  -0.6129
  O  O236  1  0.831800  0.171500  0.564100  1.0  -0.5371
  O  O237  1  0.539200  0.075600  0.330700  1.0  -0.6059
  O  O238  1  0.481900  0.120000  0.267400  1.0  -0.7442
  O  O239  1  0.664900  0.220600  0.448400  1.0  -0.5772
  O  O240  1  0.538500  0.437300  0.294400  1.0  -0.7882
  O  O241  1  0.483000  0.369700  0.240700  1.0  -0.6122
  O  O242  1  0.671500  0.331800  0.435900  1.0  -0.5308
  O  O243  1  0.960800  0.424400  0.330700  1.0  -0.6058
  O  O244  1  0.018100  0.380000  0.267400  1.0  -0.7454
  O  O245  1  0.835100  0.279400  0.448400  1.0  -0.5808
  O  O246  1  0.961500  0.062700  0.294400  1.0  -0.7887
  O  O247  1  0.017000  0.130300  0.240700  1.0  -0.6138
  O  O248  1  0.828500  0.168200  0.435900  1.0  -0.533
  O  O249  1  0.075600  0.960800  0.830700  1.0  -0.6038
  O  O250  1  0.120000  0.018100  0.767400  1.0  -0.7457
  O  O251  1  0.220600  0.835100  0.948400  1.0  -0.5769
  O  O252  1  0.437300  0.961500  0.794400  1.0  -0.7875
  O  O253  1  0.369700  0.017000  0.740700  1.0  -0.6141
  O  O254  1  0.331800  0.828500  0.935900  1.0  -0.5376
  O  O255  1  0.424400  0.539200  0.830700  1.0  -0.6044
  O  O256  1  0.380000  0.481900  0.767400  1.0  -0.7468
  O  O257  1  0.279400  0.664900  0.948400  1.0  -0.5766
  O  O258  1  0.062700  0.538500  0.794400  1.0  -0.7883
  O  O259  1  0.130300  0.483000  0.740700  1.0  -0.6131
  O  O260  1  0.168200  0.671500  0.935900  1.0  -0.5382
  O  O261  1  0.539200  0.424400  0.830700  1.0  -0.6057
  O  O262  1  0.481900  0.380000  0.767400  1.0  -0.7447
  O  O263  1  0.664900  0.279400  0.948400  1.0  -0.5809
  O  O264  1  0.538500  0.062700  0.794400  1.0  -0.7885
  O  O265  1  0.483000  0.130300  0.740700  1.0  -0.6131
  O  O266  1  0.671500  0.168200  0.935900  1.0  -0.5324
  O  O267  1  0.960800  0.075600  0.830700  1.0  -0.6055
  O  O268  1  0.018100  0.120000  0.767400  1.0  -0.7449
  O  O269  1  0.835100  0.220600  0.948400  1.0  -0.5784
  O  O270  1  0.961500  0.437300  0.794400  1.0  -0.7886
  O  O271  1  0.017000  0.369700  0.740700  1.0  -0.6143
  O  O272  1  0.828500  0.331800  0.935900  1.0  -0.5312
  O  O273  1  0.075600  0.539200  0.330700  1.0  -0.6041
  O  O274  1  0.120000  0.481900  0.267400  1.0  -0.7467
  O  O275  1  0.220600  0.664900  0.448400  1.0  -0.5765
  O  O276  1  0.437300  0.538500  0.294400  1.0  -0.7884
  O  O277  1  0.369700  0.483000  0.240700  1.0  -0.613
  O  O278  1  0.331800  0.671500  0.435900  1.0  -0.5377
  O  O279  1  0.424400  0.960800  0.330700  1.0  -0.6041
  O  O280  1  0.380000  0.018100  0.267400  1.0  -0.7462
  O  O281  1  0.279400  0.835100  0.448400  1.0  -0.5771
  O  O282  1  0.062700  0.961500  0.294400  1.0  -0.7871
  O  O283  1  0.130300  0.017000  0.240700  1.0  -0.6138
  O  O284  1  0.168200  0.828500  0.435900  1.0  -0.5377
  O  O285  1  0.460800  0.924400  0.669300  1.0  -0.6079
  O  O286  1  0.518100  0.880000  0.732600  1.0  -0.7464
  O  O287  1  0.335100  0.779400  0.551600  1.0  -0.5819
  O  O288  1  0.461500  0.562700  0.705600  1.0  -0.7887
  O  O289  1  0.517000  0.630300  0.759300  1.0  -0.6115
  O  O290  1  0.328500  0.668200  0.564100  1.0  -0.5332
  O  O291  1  0.039200  0.575600  0.669300  1.0  -0.606
  O  O292  1  0.981900  0.620000  0.732600  1.0  -0.7451
  O  O293  1  0.164900  0.720600  0.551600  1.0  -0.579
  O  O294  1  0.038500  0.937300  0.705600  1.0  -0.7881
  O  O295  1  0.983000  0.869700  0.759300  1.0  -0.6135
  O  O296  1  0.171500  0.831800  0.564100  1.0  -0.5311
  O  O297  1  0.924400  0.039200  0.169300  1.0  -0.6062
  O  O298  1  0.880000  0.981900  0.232600  1.0  -0.7477
  O  O299  1  0.779400  0.164900  0.051600  1.0  -0.5776
  O  O300  1  0.562700  0.038500  0.205600  1.0  -0.7878
  O  O301  1  0.630300  0.983000  0.259300  1.0  -0.6124
  O  O302  1  0.668200  0.171500  0.064100  1.0  -0.539
  O  O303  1  0.575600  0.460800  0.169300  1.0  -0.6049
  O  O304  1  0.620000  0.518100  0.232600  1.0  -0.7471
  O  O305  1  0.720600  0.335100  0.051600  1.0  -0.5773
  O  O306  1  0.937300  0.461500  0.205600  1.0  -0.7876
  O  O307  1  0.869700  0.517000  0.259300  1.0  -0.6125
  O  O308  1  0.831800  0.328500  0.064100  1.0  -0.5371
