# generated using pymatgen
data_PrH5(CO)6
_symmetry_space_group_name_H-M   'P 1'
_cell_length_a   7.87700000
_cell_length_b   12.06000000
_cell_length_c   12.27500000
_cell_angle_alpha   112.12000000
_cell_angle_beta   89.98000000
_cell_angle_gamma   99.95000000
_symmetry_Int_Tables_number   1
_chemical_formula_structural   PrH5(CO)6
_chemical_formula_sum   'Pr4 H20 C24 O24'
_cell_volume   1061.32897298
_cell_formula_units_Z   4
loop_
 _symmetry_equiv_pos_site_id
 _symmetry_equiv_pos_as_xyz
  1  'x, y, z'
loop_
 _atom_site_type_symbol
 _atom_site_label
 _atom_site_symmetry_multiplicity
 _atom_site_fract_x
 _atom_site_fract_y
 _atom_site_fract_z
 _atom_site_occupancy
 _atom_site_charge
  Pr  Pr1  1  0.990880  0.145570  0.854260  1.0  2.2492
  Pr  Pr2  1  0.490830  0.145160  0.751990  1.0  2.2366
  Pr  Pr3  1  0.009120  0.854430  0.145740  1.0  2.2486
  Pr  Pr4  1  0.509170  0.854840  0.248010  1.0  2.2377
  H  H5  1  0.533400  0.101400  0.155800  1.0  0.1089
  H  H6  1  0.565500  0.240300  0.178700  1.0  0.1136
  H  H7  1  0.867300  0.247500  0.207500  1.0  0.1255
  H  H8  1  0.758800  0.221200  0.304700  1.0  0.1085
  H  H9  1  0.627700  0.752900  0.526100  1.0  0.1347
  H  H10  1  0.734900  0.776100  0.642600  1.0  0.1286
  H  H11  1  0.120800  0.450200  0.849200  1.0  0.1231
  H  H12  1  0.289100  0.523900  0.823100  1.0  0.1255
  H  H13  1  0.979200  0.899300  0.576000  1.0  0.0961
  H  H14  1  0.948700  0.759100  0.498600  1.0  0.108
  H  H15  1  0.466600  0.898600  0.844200  1.0  0.1087
  H  H16  1  0.434500  0.759700  0.821300  1.0  0.1131
  H  H17  1  0.132700  0.752500  0.792500  1.0  0.1263
  H  H18  1  0.241200  0.778800  0.695300  1.0  0.1084
  H  H19  1  0.372300  0.247100  0.473900  1.0  0.1351
  H  H20  1  0.265100  0.223900  0.357400  1.0  0.1282
  H  H21  1  0.879200  0.549800  0.150800  1.0  0.1233
  H  H22  1  0.710900  0.476100  0.176900  1.0  0.1264
  H  H23  1  0.020800  0.100700  0.424000  1.0  0.0969
  H  H24  1  0.051300  0.240900  0.501400  1.0  0.1085
  C  C25  1  0.638000  0.138000  0.021400  1.0  0.7596
  C  C26  1  0.615000  0.167000  0.148000  1.0  -0.2969
  C  C27  1  0.782000  0.187300  0.222100  1.0  -0.3085
  C  C28  1  0.857000  0.078000  0.201000  1.0  0.7436
  C  C29  1  0.645000  0.930000  0.648000  1.0  0.7409
  C  C30  1  0.715000  0.811000  0.585000  1.0  -0.325
  C  C31  1  0.245000  0.473000  0.866000  1.0  -0.3744
  C  C32  1  0.320000  0.363000  0.823000  1.0  0.7259
  C  C33  1  0.863000  0.855000  0.421000  1.0  0.6716
  C  C34  1  0.898000  0.831000  0.521100  1.0  -0.2472
  C  C35  1  0.285000  0.544000  0.996000  1.0  0.0035
  C  C36  1  0.183000  0.641000  0.045000  1.0  0.6263
  C  C37  1  0.362000  0.862000  0.978600  1.0  0.7573
  C  C38  1  0.385000  0.833000  0.852000  1.0  -0.2978
  C  C39  1  0.218000  0.812700  0.777900  1.0  -0.3074
  C  C40  1  0.143000  0.922000  0.799000  1.0  0.7462
  C  C41  1  0.355000  0.070000  0.352000  1.0  0.7406
  C  C42  1  0.285000  0.189000  0.415000  1.0  -0.3255
  C  C43  1  0.755000  0.527000  0.134000  1.0  -0.3737
  C  C44  1  0.680000  0.637000  0.177000  1.0  0.7268
  C  C45  1  0.137000  0.145000  0.579000  1.0  0.6693
  C  C46  1  0.102000  0.169000  0.478900  1.0  -0.2499
  C  C47  1  0.715000  0.456000  0.004000  1.0  0.0059
  C  C48  1  0.817000  0.359000  0.955000  1.0  0.6272
  O  O49  1  0.226900  0.721700  0.154100  1.0  -0.806
  O  O50  1  0.052000  0.647200  0.995100  1.0  -0.6351
  O  O51  1  0.762000  0.982200  0.208700  1.0  -0.8338
  O  O52  1  0.010000  0.073600  0.178400  1.0  -0.6565
  O  O53  1  0.453000  0.358300  0.755200  1.0  -0.6817
  O  O54  1  0.273500  0.277700  0.855300  1.0  -0.7188
  O  O55  1  0.511000  0.148800  0.964300  1.0  -0.6611
  O  O56  1  0.771400  0.102400  0.980000  1.0  -0.6826
  O  O57  1  0.989700  0.844900  0.349000  1.0  -0.6697
  O  O58  1  0.724000  0.890500  0.399800  1.0  -0.6573
  O  O59  1  0.736000  0.017300  0.721100  1.0  -0.7017
  O  O60  1  0.490000  0.927500  0.619900  1.0  -0.6736
  O  O61  1  0.773100  0.278300  0.845900  1.0  -0.8113
  O  O62  1  0.948000  0.352800  0.004900  1.0  -0.6351
  O  O63  1  0.238000  0.017800  0.791300  1.0  -0.8334
  O  O64  1  0.990000  0.926400  0.821600  1.0  -0.6571
  O  O65  1  0.547000  0.641700  0.244800  1.0  -0.6811
  O  O66  1  0.726500  0.722300  0.144700  1.0  -0.7169
  O  O67  1  0.489000  0.851200  0.035700  1.0  -0.6615
  O  O68  1  0.228600  0.897600  0.020000  1.0  -0.6825
  O  O69  1  0.010300  0.155100  0.651000  1.0  -0.668
  O  O70  1  0.276000  0.109500  0.600200  1.0  -0.6583
  O  O71  1  0.264000  0.982700  0.278900  1.0  -0.7011
  O  O72  1  0.510000  0.072500  0.380100  1.0  -0.6734
