# generated using pymatgen
data_Fe2Ag3C12(SN)12
_symmetry_space_group_name_H-M   'P 1'
_cell_length_a   19.60650000
_cell_length_b   19.60650000
_cell_length_c   22.18080000
_cell_angle_alpha   90.00000000
_cell_angle_beta   90.00000000
_cell_angle_gamma   90.00000000
_symmetry_Int_Tables_number   1
_chemical_formula_structural   Fe2Ag3C12(SN)12
_chemical_formula_sum   'Fe8 Ag12 C48 S48 N48'
_cell_volume   8526.62873298
_cell_formula_units_Z   4
loop_
 _symmetry_equiv_pos_site_id
 _symmetry_equiv_pos_as_xyz
  1  'x, y, z'
loop_
 _atom_site_type_symbol
 _atom_site_label
 _atom_site_symmetry_multiplicity
 _atom_site_fract_x
 _atom_site_fract_y
 _atom_site_fract_z
 _atom_site_occupancy
 _atom_site_charge
  Fe  Fe1  1  0.000000  0.000000  0.247280  1.0  0.8745
  Fe  Fe2  1  0.500000  0.500000  0.747280  1.0  0.8745
  Fe  Fe3  1  0.000000  0.000000  0.752720  1.0  0.8727
  Fe  Fe4  1  0.500000  0.500000  0.252720  1.0  0.8727
  Fe  Fe5  1  0.500000  0.000000  0.502720  1.0  0.8727
  Fe  Fe6  1  0.000000  0.500000  0.002720  1.0  0.8727
  Fe  Fe7  1  0.500000  0.000000  0.997280  1.0  0.8745
  Fe  Fe8  1  0.000000  0.500000  0.497280  1.0  0.8745
  Ag  Ag9  1  0.000000  0.000000  0.500000  1.0  0.3807
  Ag  Ag10  1  0.500000  0.500000  0.000000  1.0  0.3807
  Ag  Ag11  1  0.500000  0.000000  0.250000  1.0  0.3807
  Ag  Ag12  1  0.000000  0.500000  0.750000  1.0  0.3807
  Ag  Ag13  1  0.013640  0.750000  0.125000  1.0  0.436
  Ag  Ag14  1  0.986360  0.250000  0.125000  1.0  0.4361
  Ag  Ag15  1  0.750000  0.986360  0.875000  1.0  0.4359
  Ag  Ag16  1  0.250000  0.486360  0.375000  1.0  0.4359
  Ag  Ag17  1  0.250000  0.013640  0.875000  1.0  0.4344
  Ag  Ag18  1  0.750000  0.513640  0.375000  1.0  0.4344
  Ag  Ag19  1  0.486360  0.750000  0.625000  1.0  0.4361
  Ag  Ag20  1  0.513640  0.250000  0.625000  1.0  0.436
  C  C21  1  0.082650  0.968450  0.368500  1.0  0.3192
  C  C22  1  0.081490  0.909410  0.153370  1.0  0.4206
  C  C23  1  0.058130  0.151840  0.229980  1.0  0.3477
  C  C24  1  0.582650  0.468450  0.868500  1.0  0.3192
  C  C25  1  0.581490  0.409410  0.653370  1.0  0.4206
  C  C26  1  0.558130  0.651840  0.729980  1.0  0.3477
  C  C27  1  0.917350  0.031550  0.368500  1.0  0.3183
  C  C28  1  0.918510  0.090590  0.153370  1.0  0.4213
  C  C29  1  0.941870  0.848160  0.229980  1.0  0.3483
  C  C30  1  0.417350  0.531550  0.868500  1.0  0.3183
  C  C31  1  0.418510  0.590590  0.653370  1.0  0.4213
  C  C32  1  0.441870  0.348160  0.729980  1.0  0.3483
  C  C33  1  0.968450  0.917350  0.631500  1.0  0.318
  C  C34  1  0.909410  0.918510  0.846630  1.0  0.4222
  C  C35  1  0.151840  0.941870  0.770020  1.0  0.3488
  C  C36  1  0.468450  0.417350  0.131500  1.0  0.318
  C  C37  1  0.409410  0.418510  0.346630  1.0  0.4222
  C  C38  1  0.651840  0.441870  0.270020  1.0  0.3488
  C  C39  1  0.031550  0.082650  0.631500  1.0  0.3185
  C  C40  1  0.090590  0.081490  0.846630  1.0  0.4216
  C  C41  1  0.848160  0.058130  0.770020  1.0  0.3503
  C  C42  1  0.531550  0.582650  0.131500  1.0  0.3185
  C  C43  1  0.590590  0.581490  0.346630  1.0  0.4216
  C  C44  1  0.348160  0.558130  0.270020  1.0  0.3503
  C  C45  1  0.417350  0.968450  0.381500  1.0  0.3186
  C  C46  1  0.418510  0.909410  0.596630  1.0  0.4221
  C  C47  1  0.441870  0.151840  0.520020  1.0  0.3487
  C  C48  1  0.917350  0.468450  0.881500  1.0  0.3186
  C  C49  1  0.918510  0.409410  0.096630  1.0  0.4221
  C  C50  1  0.941870  0.651840  0.020020  1.0  0.3487
  C  C51  1  0.582650  0.031550  0.381500  1.0  0.3183
  C  C52  1  0.581490  0.090590  0.596630  1.0  0.4216
  C  C53  1  0.558130  0.848160  0.520020  1.0  0.3485
  C  C54  1  0.082650  0.531550  0.881500  1.0  0.3183
  C  C55  1  0.081490  0.590590  0.096630  1.0  0.4216
  C  C56  1  0.058130  0.348160  0.020020  1.0  0.3485
  C  C57  1  0.531550  0.917350  0.118500  1.0  0.3193
  C  C58  1  0.590590  0.918510  0.903370  1.0  0.4199
  C  C59  1  0.348160  0.941870  0.979980  1.0  0.3495
  C  C60  1  0.031550  0.417350  0.618500  1.0  0.3193
  C  C61  1  0.090590  0.418510  0.403370  1.0  0.4199
  C  C62  1  0.848160  0.441870  0.479980  1.0  0.3495
  C  C63  1  0.468450  0.082650  0.118500  1.0  0.3183
  C  C64  1  0.409410  0.081490  0.903370  1.0  0.4212
  C  C65  1  0.651840  0.058130  0.979980  1.0  0.3483
  C  C66  1  0.968450  0.582650  0.618500  1.0  0.3183
  C  C67  1  0.909410  0.581490  0.403370  1.0  0.4212
  C  C68  1  0.151840  0.558130  0.479980  1.0  0.3483
  S  S69  1  0.107390  0.961190  0.438580  1.0  -0.1493
  S  S70  1  0.106790  0.844150  0.113170  1.0  -0.1466
  S  S71  1  0.074770  0.230830  0.211850  1.0  -0.1438
  S  S72  1  0.607390  0.461190  0.938580  1.0  -0.1493
  S  S73  1  0.606790  0.344150  0.613170  1.0  -0.1466
  S  S74  1  0.574770  0.730830  0.711850  1.0  -0.1438
  S  S75  1  0.892610  0.038810  0.438580  1.0  -0.1492
  S  S76  1  0.893210  0.155850  0.113170  1.0  -0.1463
  S  S77  1  0.925230  0.769170  0.211850  1.0  -0.1434
  S  S78  1  0.392610  0.538810  0.938580  1.0  -0.1492
  S  S79  1  0.393210  0.655850  0.613170  1.0  -0.1463
  S  S80  1  0.425230  0.269170  0.711850  1.0  -0.1434
  S  S81  1  0.961190  0.892610  0.561420  1.0  -0.1471
  S  S82  1  0.844150  0.893210  0.886830  1.0  -0.1461
  S  S83  1  0.230830  0.925230  0.788150  1.0  -0.1427
  S  S84  1  0.461190  0.392610  0.061420  1.0  -0.1471
  S  S85  1  0.344150  0.393210  0.386830  1.0  -0.1461
  S  S86  1  0.730830  0.425230  0.288150  1.0  -0.1427
  S  S87  1  0.038810  0.107390  0.561420  1.0  -0.1472
  S  S88  1  0.155850  0.106790  0.886830  1.0  -0.1448
  S  S89  1  0.769170  0.074770  0.788150  1.0  -0.1421
  S  S90  1  0.538810  0.607390  0.061420  1.0  -0.1472
  S  S91  1  0.655850  0.606790  0.386830  1.0  -0.1448
  S  S92  1  0.269170  0.574770  0.288150  1.0  -0.1421
  S  S93  1  0.392610  0.961190  0.311420  1.0  -0.147
  S  S94  1  0.393210  0.844150  0.636830  1.0  -0.1482
  S  S95  1  0.425230  0.230830  0.538150  1.0  -0.1435
  S  S96  1  0.892610  0.461190  0.811420  1.0  -0.147
  S  S97  1  0.893210  0.344150  0.136830  1.0  -0.1482
  S  S98  1  0.925230  0.730830  0.038150  1.0  -0.1435
  S  S99  1  0.607390  0.038810  0.311420  1.0  -0.1468
  S  S100  1  0.606790  0.155850  0.636830  1.0  -0.1476
  S  S101  1  0.574770  0.769170  0.538150  1.0  -0.1435
  S  S102  1  0.107390  0.538810  0.811420  1.0  -0.1468
  S  S103  1  0.106790  0.655850  0.136830  1.0  -0.1476
  S  S104  1  0.074770  0.269170  0.038150  1.0  -0.1435
  S  S105  1  0.538810  0.892610  0.188580  1.0  -0.1499
  S  S106  1  0.655850  0.893210  0.863170  1.0  -0.1434
  S  S107  1  0.269170  0.925230  0.961850  1.0  -0.1443
  S  S108  1  0.038810  0.392610  0.688580  1.0  -0.1499
  S  S109  1  0.155850  0.393210  0.363170  1.0  -0.1434
  S  S110  1  0.769170  0.425230  0.461850  1.0  -0.1443
  S  S111  1  0.461190  0.107390  0.188580  1.0  -0.1492
  S  S112  1  0.344150  0.106790  0.863170  1.0  -0.144
  S  S113  1  0.730830  0.074770  0.961850  1.0  -0.1421
  S  S114  1  0.961190  0.607390  0.688580  1.0  -0.1492
  S  S115  1  0.844150  0.606790  0.363170  1.0  -0.144
  S  S116  1  0.230830  0.574770  0.461850  1.0  -0.1421
  N  N117  1  0.065560  0.971370  0.318350  1.0  -0.4875
  N  N118  1  0.065500  0.956400  0.181580  1.0  -0.4106
  N  N119  1  0.047500  0.095960  0.243540  1.0  -0.5038
  N  N120  1  0.565560  0.471370  0.818350  1.0  -0.4875
  N  N121  1  0.565500  0.456400  0.681580  1.0  -0.4106
  N  N122  1  0.547500  0.595960  0.743540  1.0  -0.5038
  N  N123  1  0.934440  0.028630  0.318350  1.0  -0.4874
  N  N124  1  0.934500  0.043600  0.181580  1.0  -0.4128
  N  N125  1  0.952500  0.904040  0.243540  1.0  -0.5011
  N  N126  1  0.434440  0.528630  0.818350  1.0  -0.4874
  N  N127  1  0.434500  0.543600  0.681580  1.0  -0.4128
  N  N128  1  0.452500  0.404040  0.743540  1.0  -0.5011
  N  N129  1  0.971370  0.934440  0.681650  1.0  -0.4881
  N  N130  1  0.956400  0.934500  0.818420  1.0  -0.4084
  N  N131  1  0.095960  0.952500  0.756460  1.0  -0.5023
  N  N132  1  0.471370  0.434440  0.181650  1.0  -0.4881
  N  N133  1  0.456400  0.434500  0.318420  1.0  -0.4084
  N  N134  1  0.595960  0.452500  0.256460  1.0  -0.5023
  N  N135  1  0.028630  0.065560  0.681650  1.0  -0.4891
  N  N136  1  0.043600  0.065500  0.818420  1.0  -0.4121
  N  N137  1  0.904040  0.047500  0.756460  1.0  -0.5013
  N  N138  1  0.528630  0.565560  0.181650  1.0  -0.4891
  N  N139  1  0.543600  0.565500  0.318420  1.0  -0.4121
  N  N140  1  0.404040  0.547500  0.256460  1.0  -0.5013
  N  N141  1  0.434440  0.971370  0.431650  1.0  -0.4886
  N  N142  1  0.434500  0.956400  0.568420  1.0  -0.4119
  N  N143  1  0.452500  0.095960  0.506460  1.0  -0.5044
  N  N144  1  0.934440  0.471370  0.931650  1.0  -0.4886
  N  N145  1  0.934500  0.456400  0.068420  1.0  -0.4119
  N  N146  1  0.952500  0.595960  0.006460  1.0  -0.5044
  N  N147  1  0.565560  0.028630  0.431650  1.0  -0.4874
  N  N148  1  0.565500  0.043600  0.568420  1.0  -0.4102
  N  N149  1  0.547500  0.904040  0.506460  1.0  -0.5007
  N  N150  1  0.065560  0.528630  0.931650  1.0  -0.4874
  N  N151  1  0.065500  0.543600  0.068420  1.0  -0.4102
  N  N152  1  0.047500  0.404040  0.006460  1.0  -0.5007
  N  N153  1  0.528630  0.934440  0.068350  1.0  -0.4876
  N  N154  1  0.543600  0.934500  0.931580  1.0  -0.4093
  N  N155  1  0.404040  0.952500  0.993540  1.0  -0.5034
  N  N156  1  0.028630  0.434440  0.568350  1.0  -0.4876
  N  N157  1  0.043600  0.434500  0.431580  1.0  -0.4093
  N  N158  1  0.904040  0.452500  0.493540  1.0  -0.5034
  N  N159  1  0.471370  0.065560  0.068350  1.0  -0.4882
  N  N160  1  0.456400  0.065500  0.931580  1.0  -0.4126
  N  N161  1  0.595960  0.047500  0.993540  1.0  -0.5004
  N  N162  1  0.971370  0.565560  0.568350  1.0  -0.4882
  N  N163  1  0.956400  0.565500  0.431580  1.0  -0.4126
  N  N164  1  0.095960  0.547500  0.493540  1.0  -0.5004
