# generated using pymatgen
data_Co3H38C48(N2O3)4
_symmetry_space_group_name_H-M   'P 1'
_cell_length_a   9.14100000
_cell_length_b   9.66700000
_cell_length_c   13.85500000
_cell_angle_alpha   100.83000000
_cell_angle_beta   90.81000000
_cell_angle_gamma   100.94000000
_symmetry_Int_Tables_number   1
_chemical_formula_structural   Co3H38C48(N2O3)4
_chemical_formula_sum   'Co3 H38 C48 N8 O12'
_cell_volume   1179.07650123
_cell_formula_units_Z   1
loop_
 _symmetry_equiv_pos_site_id
 _symmetry_equiv_pos_as_xyz
  1  'x, y, z'
loop_
 _atom_site_type_symbol
 _atom_site_label
 _atom_site_symmetry_multiplicity
 _atom_site_fract_x
 _atom_site_fract_y
 _atom_site_fract_z
 _atom_site_occupancy
 _atom_site_charge
  Co  Co1  1  0.849450  0.039440  0.267530  1.0  0.983
  Co  Co2  1  0.150550  0.960560  0.732470  1.0  0.9834
  Co  Co3  1  0.000000  0.000000  0.500000  1.0  0.9932
  H  H4  1  0.459600  0.202700  0.197000  1.0  0.1427
  H  H5  1  0.589400  0.316200  0.168000  1.0  0.1241
  H  H6  1  0.163100  0.066100  0.151600  1.0  0.1012
  H  H7  1  0.200100  0.899400  0.001500  1.0  0.1442
  H  H8  1  0.799100  0.769500  0.096300  1.0  0.1083
  H  H9  1  0.736200  0.656900  0.931000  1.0  0.1247
  H  H10  1  0.682700  0.443600  0.815900  1.0  0.1178
  H  H11  1  0.118300  0.428600  0.813300  1.0  0.114
  H  H12  1  0.171200  0.639600  0.930500  1.0  0.1167
  H  H13  1  0.651600  0.178800  0.766100  1.0  0.1411
  H  H14  1  0.683300  0.986400  0.631100  1.0  0.1057
  H  H15  1  0.041600  0.286300  0.653300  1.0  0.0936
  H  H16  1  0.674700  0.780600  0.486000  1.0  0.1349
  H  H17  1  0.537600  0.842400  0.457700  1.0  0.1481
  H  H18  1  0.687100  0.548800  0.331400  1.0  0.0996
  H  H19  1  0.311600  0.259300  0.318400  1.0  0.1051
  H  H20  1  0.326600  0.665000  0.451000  1.0  0.1135
  H  H21  1  0.126100  0.463700  0.483800  1.0  0.1322
  H  H22  1  0.074800  0.470500  0.376800  1.0  0.1252
  H  H23  1  0.540400  0.797300  0.803000  1.0  0.1426
  H  H24  1  0.410600  0.683800  0.832000  1.0  0.1249
  H  H25  1  0.836900  0.933900  0.848400  1.0  0.1018
  H  H26  1  0.799900  0.100600  0.998500  1.0  0.1444
  H  H27  1  0.200900  0.230500  0.903700  1.0  0.1088
  H  H28  1  0.263800  0.343100  0.069000  1.0  0.1247
  H  H29  1  0.317300  0.556400  0.184100  1.0  0.1189
  H  H30  1  0.881700  0.571400  0.186700  1.0  0.1128
  H  H31  1  0.828800  0.360400  0.069500  1.0  0.1162
  H  H32  1  0.348400  0.821200  0.233900  1.0  0.1413
  H  H33  1  0.316700  0.013600  0.368900  1.0  0.1056
  H  H34  1  0.958400  0.713700  0.346700  1.0  0.094
  H  H35  1  0.325300  0.219400  0.514000  1.0  0.1349
  H  H36  1  0.462400  0.157600  0.542300  1.0  0.1476
  H  H37  1  0.312900  0.451200  0.668600  1.0  0.099
  H  H38  1  0.688400  0.740700  0.681600  1.0  0.106
  H  H39  1  0.673400  0.335000  0.549000  1.0  0.1137
  H  H40  1  0.873900  0.536300  0.516200  1.0  0.1328
  H  H41  1  0.925200  0.529500  0.623200  1.0  0.1254
  C  C42  1  0.547800  0.272900  0.221000  1.0  -0.3331
  C  C43  1  0.094400  0.985000  0.121600  1.0  0.0493
  C  C44  1  0.115800  0.893500  0.038600  1.0  -0.1411
  C  C45  1  0.894000  0.822700  0.091900  1.0  0.1478
  C  C46  1  0.957300  0.665500  0.943000  1.0  0.1287
  C  C47  1  0.812400  0.609700  0.908300  1.0  -0.1365
  C  C48  1  0.780600  0.482600  0.839200  1.0  -0.1181
  C  C49  1  0.894700  0.414400  0.805100  1.0  0.1319
  C  C50  1  0.041600  0.473500  0.838000  1.0  -0.1449
  C  C51  1  0.073300  0.599600  0.907700  1.0  -0.1204
  C  C52  1  0.733800  0.177100  0.727400  1.0  -0.1491
  C  C53  1  0.752100  0.071300  0.652600  1.0  0.0483
  C  C54  1  0.948600  0.234900  0.664300  1.0  0.1521
  C  C55  1  0.697400  0.853900  0.358600  1.0  0.7197
  C  C56  1  0.607500  0.782500  0.431700  1.0  -0.3668
  C  C57  1  0.520900  0.632600  0.395900  1.0  0.1556
  C  C58  1  0.587200  0.526400  0.345700  1.0  -0.1839
  C  C59  1  0.510400  0.388600  0.316100  1.0  0.1041
  C  C60  1  0.363700  0.353300  0.338000  1.0  -0.1958
  C  C61  1  0.293600  0.455900  0.388600  1.0  0.1429
  C  C62  1  0.373700  0.594900  0.416800  1.0  -0.239
  C  C63  1  0.132700  0.423200  0.414800  1.0  -0.3759
  C  C64  1  0.064000  0.265300  0.396800  1.0  0.7473
  C  C65  1  0.660300  0.202000  0.262900  1.0  0.601
  C  C66  1  0.452200  0.727100  0.779000  1.0  -0.3332
  C  C67  1  0.905600  0.015000  0.878400  1.0  0.0497
  C  C68  1  0.884200  0.106500  0.961400  1.0  -0.1417
  C  C69  1  0.106000  0.177300  0.908100  1.0  0.1473
  C  C70  1  0.042700  0.334500  0.057000  1.0  0.1295
  C  C71  1  0.187600  0.390300  0.091700  1.0  -0.1361
  C  C72  1  0.219400  0.517400  0.160800  1.0  -0.1187
  C  C73  1  0.105300  0.585600  0.194900  1.0  0.1313
  C  C74  1  0.958400  0.526500  0.162000  1.0  -0.1452
  C  C75  1  0.926700  0.400400  0.092300  1.0  -0.1189
  C  C76  1  0.266200  0.822900  0.272600  1.0  -0.1492
  C  C77  1  0.247900  0.928700  0.347400  1.0  0.0465
  C  C78  1  0.051400  0.765100  0.335700  1.0  0.152
  C  C79  1  0.302600  0.146100  0.641400  1.0  0.7186
  C  C80  1  0.392500  0.217500  0.568300  1.0  -0.3703
  C  C81  1  0.479100  0.367400  0.604100  1.0  0.1573
  C  C82  1  0.412800  0.473600  0.654300  1.0  -0.1853
  C  C83  1  0.489600  0.611400  0.683900  1.0  0.1021
  C  C84  1  0.636300  0.646700  0.662000  1.0  -0.1983
  C  C85  1  0.706400  0.544100  0.611400  1.0  0.1418
  C  C86  1  0.626300  0.405100  0.583200  1.0  -0.237
  C  C87  1  0.867300  0.576800  0.585200  1.0  -0.3751
  C  C88  1  0.936000  0.734700  0.603200  1.0  0.7456
  C  C89  1  0.339700  0.798000  0.737100  1.0  0.6049
  N  N90  1  0.955100  0.939800  0.154800  1.0  -0.4079
  N  N91  1  0.987400  0.789800  0.020100  1.0  0.0304
  N  N92  1  0.860200  0.281600  0.735300  1.0  0.0391
  N  N93  1  0.887900  0.108100  0.612700  1.0  -0.4009
  N  N94  1  0.044900  0.060200  0.845200  1.0  -0.4074
  N  N95  1  0.012600  0.210200  0.979900  1.0  0.0296
  N  N96  1  0.139800  0.718400  0.264700  1.0  0.0392
  N  N97  1  0.112100  0.891900  0.387300  1.0  -0.3996
  O  O98  1  0.806000  0.959900  0.392000  1.0  -0.6721
  O  O99  1  0.669200  0.819000  0.269200  1.0  -0.5966
  O  O100  1  0.074600  0.199400  0.465000  1.0  -0.6108
  O  O101  1  0.002400  0.211500  0.313900  1.0  -0.6151
  O  O102  1  0.689000  0.092000  0.181900  1.0  -0.6857
  O  O103  1  0.700300  0.225300  0.345300  1.0  -0.4767
  O  O104  1  0.194000  0.040100  0.608000  1.0  -0.6722
  O  O105  1  0.330800  0.181000  0.730800  1.0  -0.597
  O  O106  1  0.925400  0.800600  0.535000  1.0  -0.6105
  O  O107  1  0.997600  0.788500  0.686100  1.0  -0.6135
  O  O108  1  0.311000  0.908000  0.818100  1.0  -0.6851
  O  O109  1  0.299700  0.774700  0.654700  1.0  -0.4771
