# generated using pymatgen
data_DyH3(C5O4)2
_symmetry_space_group_name_H-M   'P 1'
_cell_length_a   7.14910000
_cell_length_b   10.70630000
_cell_length_c   17.11970000
_cell_angle_alpha   97.09700000
_cell_angle_beta   90.00000000
_cell_angle_gamma   90.00000000
_symmetry_Int_Tables_number   1
_chemical_formula_structural   DyH3(C5O4)2
_chemical_formula_sum   'Dy4 H12 C40 O32'
_cell_volume   1300.30948775
_cell_formula_units_Z   4
loop_
 _symmetry_equiv_pos_site_id
 _symmetry_equiv_pos_as_xyz
  1  'x, y, z'
loop_
 _atom_site_type_symbol
 _atom_site_label
 _atom_site_symmetry_multiplicity
 _atom_site_fract_x
 _atom_site_fract_y
 _atom_site_fract_z
 _atom_site_occupancy
 _atom_site_charge
  Dy  Dy1  1  0.020160  0.176320  0.746670  1.0  2.3092
  Dy  Dy2  1  0.520160  0.323680  0.753330  1.0  2.3087
  Dy  Dy3  1  0.979840  0.823680  0.253330  1.0  2.3079
  Dy  Dy4  1  0.479840  0.676320  0.246670  1.0  2.3085
  H  H5  1  0.179200  0.995000  0.521900  1.0  0.1117
  H  H6  1  0.461600  0.692500  0.563400  1.0  0.411
  H  H7  1  0.159900  0.337200  0.551700  1.0  0.111
  H  H8  1  0.679200  0.505000  0.978100  1.0  0.1118
  H  H9  1  0.961600  0.807500  0.936600  1.0  0.411
  H  H10  1  0.659900  0.162800  0.948300  1.0  0.1101
  H  H11  1  0.820800  0.005000  0.478100  1.0  0.1125
  H  H12  1  0.538400  0.307500  0.436600  1.0  0.4086
  H  H13  1  0.840100  0.662800  0.448300  1.0  0.1106
  H  H14  1  0.320800  0.495000  0.021900  1.0  0.1125
  H  H15  1  0.038400  0.192500  0.063400  1.0  0.4092
  H  H16  1  0.340100  0.837200  0.051700  1.0  0.1111
  C  C17  1  0.326200  0.085000  0.649090  1.0  0.7231
  C  C18  1  0.425100  0.042700  0.573640  1.0  -0.0419
  C  C19  1  0.309500  0.994100  0.512040  1.0  -0.0476
  C  C20  1  0.752300  0.096100  0.625820  1.0  0.7235
  C  C21  1  0.618000  0.048600  0.561960  1.0  -0.1054
  C  C22  1  0.852400  0.390900  0.634800  1.0  0.7649
  C  C23  1  0.927600  0.452600  0.566950  1.0  -0.0833
  C  C24  1  0.839500  0.553200  0.536990  1.0  -0.0686
  C  C25  1  0.679200  0.621600  0.579110  1.0  0.6353
  C  C26  1  0.089200  0.401400  0.529720  1.0  -0.069
  C  C27  1  0.826200  0.415000  0.850910  1.0  0.7236
  C  C28  1  0.925100  0.457300  0.926360  1.0  -0.0415
  C  C29  1  0.809500  0.505900  0.987960  1.0  -0.0465
  C  C30  1  0.252300  0.403900  0.874180  1.0  0.7223
  C  C31  1  0.118000  0.451400  0.938040  1.0  -0.1055
  C  C32  1  0.352400  0.109100  0.865200  1.0  0.7657
  C  C33  1  0.427600  0.047400  0.933050  1.0  -0.083
  C  C34  1  0.339500  0.946800  0.963010  1.0  -0.0692
  C  C35  1  0.179200  0.878400  0.920890  1.0  0.6356
  C  C36  1  0.589200  0.098600  0.970280  1.0  -0.0687
  C  C37  1  0.673800  0.915000  0.350910  1.0  0.724
  C  C38  1  0.574900  0.957300  0.426360  1.0  -0.041
  C  C39  1  0.690500  0.005900  0.487960  1.0  -0.0464
  C  C40  1  0.247700  0.903900  0.374180  1.0  0.7209
  C  C41  1  0.382000  0.951400  0.438040  1.0  -0.106
  C  C42  1  0.147600  0.609100  0.365200  1.0  0.7645
  C  C43  1  0.072400  0.547400  0.433050  1.0  -0.0827
  C  C44  1  0.160500  0.446800  0.463010  1.0  -0.069
  C  C45  1  0.320800  0.378400  0.420890  1.0  0.636
  C  C46  1  0.910800  0.598600  0.470280  1.0  -0.069
  C  C47  1  0.173800  0.585000  0.149090  1.0  0.7238
  C  C48  1  0.074900  0.542700  0.073640  1.0  -0.0415
  C  C49  1  0.190500  0.494100  0.012040  1.0  -0.0473
  C  C50  1  0.747700  0.596100  0.125820  1.0  0.7224
  C  C51  1  0.882000  0.548600  0.061960  1.0  -0.1058
  C  C52  1  0.647600  0.890900  0.134800  1.0  0.7636
  C  C53  1  0.572400  0.952600  0.066950  1.0  -0.0828
  C  C54  1  0.660500  0.053200  0.036990  1.0  -0.0686
  C  C55  1  0.820800  0.121600  0.079110  1.0  0.6361
  C  C56  1  0.410800  0.901400  0.029720  1.0  -0.0696
  O  O57  1  0.970400  0.344740  0.676640  1.0  -0.707
  O  O58  1  0.307700  0.203490  0.670920  1.0  -0.8576
  O  O59  1  0.690000  0.145030  0.692700  1.0  -0.8246
  O  O60  1  0.245500  0.006450  0.685090  1.0  -0.596
  O  O61  1  0.922700  0.084830  0.614110  1.0  -0.631
  O  O62  1  0.678400  0.386620  0.643990  1.0  -0.7372
  O  O63  1  0.680200  0.652530  0.650100  1.0  -0.5072
  O  O64  1  0.545000  0.648600  0.532770  1.0  -0.5111
  O  O65  1  0.470400  0.155260  0.823360  1.0  -0.7078
  O  O66  1  0.807700  0.296510  0.829080  1.0  -0.8581
  O  O67  1  0.190000  0.354970  0.807300  1.0  -0.8229
  O  O68  1  0.745500  0.493550  0.814910  1.0  -0.5962
  O  O69  1  0.422700  0.415170  0.885890  1.0  -0.631
  O  O70  1  0.178400  0.113380  0.856010  1.0  -0.7386
  O  O71  1  0.180200  0.847470  0.849900  1.0  -0.5058
  O  O72  1  0.045000  0.851400  0.967230  1.0  -0.5105
  O  O73  1  0.029600  0.655260  0.323360  1.0  -0.7081
  O  O74  1  0.692300  0.796510  0.329080  1.0  -0.8575
  O  O75  1  0.310000  0.854970  0.307300  1.0  -0.8242
  O  O76  1  0.754500  0.993550  0.314910  1.0  -0.5966
  O  O77  1  0.077300  0.915170  0.385890  1.0  -0.6313
  O  O78  1  0.321600  0.613380  0.356010  1.0  -0.7405
  O  O79  1  0.319800  0.347470  0.349900  1.0  -0.5048
  O  O80  1  0.455000  0.351400  0.467230  1.0  -0.5108
  O  O81  1  0.529600  0.844740  0.176640  1.0  -0.7075
  O  O82  1  0.192300  0.703490  0.170920  1.0  -0.8567
  O  O83  1  0.810000  0.645030  0.192700  1.0  -0.8255
  O  O84  1  0.254500  0.506450  0.185090  1.0  -0.5964
  O  O85  1  0.577300  0.584830  0.114110  1.0  -0.6312
  O  O86  1  0.821600  0.886620  0.143990  1.0  -0.7392
  O  O87  1  0.819800  0.152530  0.150100  1.0  -0.5067
  O  O88  1  0.955000  0.148600  0.032770  1.0  -0.5112
