# generated using pymatgen
data_ZnH6(CN2)4
_symmetry_space_group_name_H-M   'P 1'
_cell_length_a   10.78680000
_cell_length_b   13.98060000
_cell_length_c   17.90660000
_cell_angle_alpha   111.60500000
_cell_angle_beta   90.00000000
_cell_angle_gamma   90.00000000
_symmetry_Int_Tables_number   1
_chemical_formula_structural   ZnH6(CN2)4
_chemical_formula_sum   'Zn8 H48 C32 N64'
_cell_volume   2510.70172202
_cell_formula_units_Z   8
loop_
 _symmetry_equiv_pos_site_id
 _symmetry_equiv_pos_as_xyz
  1  'x, y, z'
loop_
 _atom_site_type_symbol
 _atom_site_label
 _atom_site_symmetry_multiplicity
 _atom_site_fract_x
 _atom_site_fract_y
 _atom_site_fract_z
 _atom_site_occupancy
 _atom_site_charge
  Zn  Zn1  1  0.721890  0.269420  0.176310  1.0  0.7859
  Zn  Zn2  1  0.766950  0.759250  0.330530  1.0  0.8192
  Zn  Zn3  1  0.221890  0.230580  0.323690  1.0  0.7876
  Zn  Zn4  1  0.266950  0.740750  0.169470  1.0  0.8178
  Zn  Zn5  1  0.278110  0.730580  0.823690  1.0  0.7877
  Zn  Zn6  1  0.233050  0.240750  0.669470  1.0  0.8166
  Zn  Zn7  1  0.778110  0.769420  0.676310  1.0  0.7864
  Zn  Zn8  1  0.733050  0.259250  0.830530  1.0  0.818
  H  H9  1  0.964200  0.559700  0.270400  1.0  0.134
  H  H10  1  0.944000  0.453100  0.196700  1.0  0.1342
  H  H11  1  0.952500  0.454800  0.286400  1.0  0.1322
  H  H12  1  0.492400  0.367200  0.385700  1.0  0.1491
  H  H13  1  0.625400  0.322200  0.350400  1.0  0.1436
  H  H14  1  0.531100  0.253600  0.378400  1.0  0.1517
  H  H15  1  0.945500  0.735600  0.132000  1.0  0.1524
  H  H16  1  0.873300  0.651200  0.156200  1.0  0.1421
  H  H17  1  0.008300  0.626300  0.116700  1.0  0.1405
  H  H18  1  0.671500  0.084400  0.943900  1.0  0.142
  H  H19  1  0.569800  0.157000  0.926600  1.0  0.1388
  H  H20  1  0.576400  0.147800  0.013000  1.0  0.1348
  H  H21  1  0.464200  0.940300  0.229600  1.0  0.1334
  H  H22  1  0.444000  0.046900  0.303300  1.0  0.1341
  H  H23  1  0.452500  0.045200  0.213600  1.0  0.132
  H  H24  1  0.992400  0.132800  0.114300  1.0  0.1483
  H  H25  1  0.125400  0.177800  0.149600  1.0  0.1445
  H  H26  1  0.031100  0.246400  0.121600  1.0  0.1509
  H  H27  1  0.445500  0.764400  0.368000  1.0  0.1533
  H  H28  1  0.373300  0.848800  0.343800  1.0  0.1423
  H  H29  1  0.508300  0.873700  0.383300  1.0  0.1414
  H  H30  1  0.171500  0.415600  0.556100  1.0  0.142
  H  H31  1  0.069800  0.343000  0.573400  1.0  0.1383
  H  H32  1  0.076400  0.352200  0.487000  1.0  0.1348
  H  H33  1  0.035800  0.440300  0.729600  1.0  0.1336
  H  H34  1  0.056000  0.546900  0.803300  1.0  0.1345
  H  H35  1  0.047500  0.545200  0.713600  1.0  0.1322
  H  H36  1  0.507600  0.632800  0.614300  1.0  0.1489
  H  H37  1  0.374600  0.677800  0.649600  1.0  0.1447
  H  H38  1  0.468900  0.746400  0.621600  1.0  0.1503
  H  H39  1  0.054500  0.264400  0.868000  1.0  0.1535
  H  H40  1  0.126700  0.348800  0.843800  1.0  0.1416
  H  H41  1  0.991700  0.373700  0.883300  1.0  0.1415
  H  H42  1  0.328500  0.915600  0.056100  1.0  0.1422
  H  H43  1  0.430200  0.843000  0.073400  1.0  0.1381
  H  H44  1  0.423600  0.852200  0.987000  1.0  0.1352
  H  H45  1  0.535800  0.059700  0.770400  1.0  0.1346
  H  H46  1  0.556000  0.953100  0.696700  1.0  0.1344
  H  H47  1  0.547500  0.954800  0.786400  1.0  0.132
  H  H48  1  0.007600  0.867200  0.885700  1.0  0.149
  H  H49  1  0.874600  0.822200  0.850400  1.0  0.1441
  H  H50  1  0.968900  0.753600  0.878400  1.0  0.1516
  H  H51  1  0.554500  0.235600  0.632000  1.0  0.1531
  H  H52  1  0.626700  0.151200  0.656200  1.0  0.1431
  H  H53  1  0.491700  0.126300  0.616700  1.0  0.1406
  H  H54  1  0.828500  0.584400  0.443900  1.0  0.1414
  H  H55  1  0.930200  0.657000  0.426600  1.0  0.1378
  H  H56  1  0.923600  0.647800  0.513000  1.0  0.1346
  C  C57  1  0.786560  0.506730  0.261770  1.0  0.4164
  C  C58  1  0.923580  0.492360  0.253080  1.0  -0.4333
  C  C59  1  0.484590  0.262720  0.271040  1.0  0.4302
  C  C60  1  0.537910  0.305050  0.353420  1.0  -0.4553
  C  C61  1  0.011630  0.722010  0.233810  1.0  0.4333
  C  C62  1  0.954880  0.680230  0.152800  1.0  -0.4647
  C  C63  1  0.713810  0.236790  0.994890  1.0  0.4375
  C  C64  1  0.625330  0.148980  0.967240  1.0  -0.4468
  C  C65  1  0.286560  0.993270  0.238230  1.0  0.4162
  C  C66  1  0.423580  0.007640  0.246920  1.0  -0.4332
  C  C67  1  0.984590  0.237280  0.228960  1.0  0.4294
  C  C68  1  0.037910  0.194950  0.146580  1.0  -0.4563
  C  C69  1  0.511630  0.777990  0.266190  1.0  0.4338
  C  C70  1  0.454880  0.819770  0.347200  1.0  -0.4665
  C  C71  1  0.213810  0.263210  0.505110  1.0  0.438
  C  C72  1  0.125330  0.351020  0.532760  1.0  -0.4462
  C  C73  1  0.213440  0.493270  0.738230  1.0  0.4155
  C  C74  1  0.076420  0.507640  0.746920  1.0  -0.4319
  C  C75  1  0.515410  0.737280  0.728960  1.0  0.429
  C  C76  1  0.462090  0.694950  0.646580  1.0  -0.4552
  C  C77  1  0.988370  0.277990  0.766190  1.0  0.4344
  C  C78  1  0.045120  0.319770  0.847200  1.0  -0.4661
  C  C79  1  0.286190  0.763210  0.005110  1.0  0.4382
  C  C80  1  0.374670  0.851020  0.032760  1.0  -0.4473
  C  C81  1  0.713440  0.006730  0.761770  1.0  0.4154
  C  C82  1  0.576420  0.992360  0.753080  1.0  -0.4322
  C  C83  1  0.015410  0.762720  0.771040  1.0  0.4299
  C  C84  1  0.962090  0.805050  0.853420  1.0  -0.4554
  C  C85  1  0.488370  0.222010  0.733810  1.0  0.4339
  C  C86  1  0.545120  0.180230  0.652800  1.0  -0.4656
  C  C87  1  0.786190  0.736790  0.494890  1.0  0.4374
  C  C88  1  0.874670  0.648980  0.467240  1.0  -0.4475
  N  N89  1  0.728710  0.597150  0.293650  1.0  -0.3399
  N  N90  1  0.605920  0.574680  0.293860  1.0  -0.0998
  N  N91  1  0.591250  0.475380  0.262930  1.0  -0.1066
  N  N92  1  0.703790  0.429850  0.241660  1.0  -0.3172
  N  N93  1  0.547990  0.239040  0.202410  1.0  -0.312
  N  N94  1  0.463880  0.202120  0.141890  1.0  -0.0865
  N  N95  1  0.354740  0.202830  0.172870  1.0  -0.0725
  N  N96  1  0.365360  0.240680  0.254240  1.0  -0.3089
  N  N97  1  0.949810  0.751100  0.303020  1.0  -0.3042
  N  N98  1  0.036200  0.784490  0.362180  1.0  -0.1062
  N  N99  1  0.145530  0.775470  0.329350  1.0  -0.0672
  N  N100  1  0.132650  0.736030  0.248280  1.0  -0.31
  N  N101  1  0.755960  0.282680  0.069710  1.0  -0.326
  N  N102  1  0.834240  0.358500  0.068420  1.0  -0.0564
  N  N103  1  0.838570  0.358630  0.996130  1.0  -0.0933
  N  N104  1  0.762970  0.282700  0.948170  1.0  -0.3093
  N  N105  1  0.228710  0.902850  0.206350  1.0  -0.3385
  N  N106  1  0.105920  0.925320  0.206140  1.0  -0.1007
  N  N107  1  0.091250  0.024620  0.237070  1.0  -0.1042
  N  N108  1  0.203790  0.070150  0.258340  1.0  -0.3174
  N  N109  1  0.047990  0.260960  0.297590  1.0  -0.312
  N  N110  1  0.963880  0.297880  0.358110  1.0  -0.0895
  N  N111  1  0.854740  0.297170  0.327130  1.0  -0.0733
  N  N112  1  0.865360  0.259320  0.245760  1.0  -0.3006
  N  N113  1  0.449810  0.748900  0.196980  1.0  -0.3072
  N  N114  1  0.536200  0.715510  0.137820  1.0  -0.1076
  N  N115  1  0.645530  0.724530  0.170650  1.0  -0.0677
  N  N116  1  0.632650  0.763970  0.251720  1.0  -0.3105
  N  N117  1  0.255960  0.217320  0.430290  1.0  -0.3253
  N  N118  1  0.334240  0.141500  0.431580  1.0  -0.0555
  N  N119  1  0.338570  0.141370  0.503870  1.0  -0.0938
  N  N120  1  0.262970  0.217300  0.551830  1.0  -0.3106
  N  N121  1  0.271290  0.402850  0.706350  1.0  -0.3389
  N  N122  1  0.394080  0.425320  0.706140  1.0  -0.1035
  N  N123  1  0.408750  0.524620  0.737070  1.0  -0.1069
  N  N124  1  0.296210  0.570150  0.758340  1.0  -0.3176
  N  N125  1  0.452010  0.760960  0.797590  1.0  -0.3138
  N  N126  1  0.536120  0.797880  0.858110  1.0  -0.0872
  N  N127  1  0.645260  0.797170  0.827130  1.0  -0.0738
  N  N128  1  0.634640  0.759320  0.745760  1.0  -0.2995
  N  N129  1  0.050190  0.248900  0.696980  1.0  -0.3026
  N  N130  1  0.963800  0.215510  0.637820  1.0  -0.108
  N  N131  1  0.854470  0.224530  0.670650  1.0  -0.0671
  N  N132  1  0.867350  0.263970  0.751720  1.0  -0.3108
  N  N133  1  0.244040  0.717320  0.930290  1.0  -0.326
  N  N134  1  0.165760  0.641500  0.931580  1.0  -0.0564
  N  N135  1  0.161430  0.641370  0.003870  1.0  -0.0942
  N  N136  1  0.237030  0.717300  0.051830  1.0  -0.3106
  N  N137  1  0.771290  0.097150  0.793650  1.0  -0.34
  N  N138  1  0.894080  0.074680  0.793860  1.0  -0.1033
  N  N139  1  0.908750  0.975380  0.762930  1.0  -0.1063
  N  N140  1  0.796210  0.929850  0.741660  1.0  -0.3187
  N  N141  1  0.952010  0.739040  0.702410  1.0  -0.3135
  N  N142  1  0.036120  0.702120  0.641890  1.0  -0.0862
  N  N143  1  0.145260  0.702830  0.672870  1.0  -0.0754
  N  N144  1  0.134640  0.740680  0.754240  1.0  -0.3072
  N  N145  1  0.550190  0.251100  0.803020  1.0  -0.2991
  N  N146  1  0.463800  0.284490  0.862180  1.0  -0.107
  N  N147  1  0.354470  0.275470  0.829350  1.0  -0.0678
  N  N148  1  0.367350  0.236030  0.748280  1.0  -0.3103
  N  N149  1  0.744040  0.782680  0.569710  1.0  -0.3267
  N  N150  1  0.665760  0.858500  0.568420  1.0  -0.0566
  N  N151  1  0.661430  0.858630  0.496130  1.0  -0.0931
  N  N152  1  0.737030  0.782700  0.448170  1.0  -0.3093
