# generated using pymatgen
data_CuH32(C5N3)4
_symmetry_space_group_name_H-M   'P 1'
_cell_length_a   16.02100000
_cell_length_b   19.24700000
_cell_length_c   22.48200000
_cell_angle_alpha   90.00000000
_cell_angle_beta   90.00000000
_cell_angle_gamma   90.43000000
_symmetry_Int_Tables_number   1
_chemical_formula_structural   CuH32(C5N3)4
_chemical_formula_sum   'Cu8 H256 C160 N96'
_cell_volume   6932.26856583
_cell_formula_units_Z   8
loop_
 _symmetry_equiv_pos_site_id
 _symmetry_equiv_pos_as_xyz
  1  'x, y, z'
loop_
 _atom_site_type_symbol
 _atom_site_label
 _atom_site_symmetry_multiplicity
 _atom_site_fract_x
 _atom_site_fract_y
 _atom_site_fract_z
 _atom_site_occupancy
 _atom_site_charge
  Cu  Cu1  1  0.753100  0.995930  0.248920  1.0  0.4991
  Cu  Cu2  1  0.757000  0.499090  0.249870  1.0  0.4799
  Cu  Cu3  1  0.746900  0.004070  0.748920  1.0  0.4978
  Cu  Cu4  1  0.743000  0.500910  0.749870  1.0  0.4785
  Cu  Cu5  1  0.246900  0.004070  0.751080  1.0  0.4975
  Cu  Cu6  1  0.243000  0.500910  0.750130  1.0  0.4784
  Cu  Cu7  1  0.253100  0.995930  0.251080  1.0  0.4988
  Cu  Cu8  1  0.257000  0.499090  0.250130  1.0  0.4796
  H  H9  1  0.671400  0.686400  0.067100  1.0  0.0755
  H  H10  1  0.701800  0.755700  0.097100  1.0  0.0713
  H  H11  1  0.811200  0.665200  0.034100  1.0  0.0539
  H  H12  1  0.840100  0.735600  0.062900  1.0  0.0465
  H  H13  1  0.761400  0.796800  0.998000  1.0  0.0543
  H  H14  1  0.722100  0.728600  0.972300  1.0  0.0526
  H  H15  1  0.885500  0.765800  0.959800  1.0  0.0379
  H  H16  1  0.842400  0.700200  0.931500  1.0  0.0417
  H  H17  1  0.789800  0.834500  0.906200  1.0  0.0637
  H  H18  1  0.857700  0.797900  0.867800  1.0  0.0648
  H  H19  1  0.727800  0.792400  0.821100  1.0  0.0685
  H  H20  1  0.690600  0.751900  0.875700  1.0  0.0625
  H  H21  1  0.886500  0.612400  0.753800  1.0  0.074
  H  H22  1  0.670600  0.626400  0.832400  1.0  0.0846
  H  H23  1  0.689900  0.519800  0.382400  1.0  0.0634
  H  H24  1  0.585200  0.580100  0.237300  1.0  0.0868
  H  H25  1  0.430900  0.607600  0.342800  1.0  0.0614
  H  H26  1  0.454000  0.634400  0.278800  1.0  0.0601
  H  H27  1  0.439100  0.726300  0.339100  1.0  0.0486
  H  H28  1  0.500900  0.694800  0.385500  1.0  0.067
  H  H29  1  0.610700  0.712600  0.322500  1.0  0.0581
  H  H30  1  0.565000  0.782600  0.335200  1.0  0.0707
  H  H31  1  0.604800  0.771700  0.236700  1.0  0.0561
  H  H32  1  0.546200  0.706700  0.230300  1.0  0.0617
  H  H33  1  0.475000  0.833100  0.263000  1.0  0.0606
  H  H34  1  0.430300  0.770200  0.232400  1.0  0.0562
  H  H35  1  0.499200  0.800000  0.143200  1.0  0.0768
  H  H36  1  0.435100  0.856000  0.164900  1.0  0.067
  H  H37  1  0.585900  0.906200  0.261200  1.0  0.0908
  H  H38  1  0.685600  0.975600  0.115700  1.0  0.074
  H  H39  1  0.611900  0.108600  0.247800  1.0  0.0791
  H  H40  1  0.828700  0.124900  0.175100  1.0  0.0702
  H  H41  1  0.769100  0.291000  0.186100  1.0  0.0779
  H  H42  1  0.815300  0.251100  0.135300  1.0  0.0625
  H  H43  1  0.724600  0.328300  0.093600  1.0  0.0484
  H  H44  1  0.650100  0.297200  0.130300  1.0  0.0653
  H  H45  1  0.623300  0.229500  0.061800  1.0  0.0463
  H  H46  1  0.709700  0.194200  0.070800  1.0  0.0609
  H  H47  1  0.683400  0.302500  0.999200  1.0  0.0572
  H  H48  1  0.765700  0.260400  0.005700  1.0  0.0677
  H  H49  1  0.638100  0.233600  0.929100  1.0  0.0606
  H  H50  1  0.658500  0.166100  0.966500  1.0  0.0661
  H  H51  1  0.799300  0.178300  0.946400  1.0  0.0619
  H  H52  1  0.784800  0.250600  0.916000  1.0  0.077
  H  H53  1  0.722500  0.170400  0.732400  1.0  0.0585
  H  H54  1  0.761000  0.067700  0.879100  1.0  0.1045
  H  H55  1  0.796100  0.078200  0.366500  1.0  0.0922
  H  H56  1  0.952300  0.015300  0.247700  1.0  0.0566
  H  H57  1  0.974900  0.167200  0.402600  1.0  0.0797
  H  H58  1  0.899300  0.135800  0.438000  1.0  0.0624
  H  H59  1  0.026500  0.113700  0.487300  1.0  0.0578
  H  H60  1  0.058200  0.072300  0.431800  1.0  0.0563
  H  H61  1  0.955600  0.987000  0.447200  1.0  0.0573
  H  H62  1  0.919900  0.029200  0.501200  1.0  0.0571
  H  H63  1  0.799900  0.432900  0.124200  1.0  0.0958
  H  H64  1  0.952700  0.465700  0.255200  1.0  0.075
  H  H65  1  0.968000  0.327000  0.090200  1.0  0.0808
  H  H66  1  0.893900  0.361700  0.056100  1.0  0.0652
  H  H67  1  0.021200  0.384800  0.007800  1.0  0.0663
  H  H68  1  0.055300  0.421300  0.065200  1.0  0.055
  H  H69  1  0.918800  0.471100  0.000600  1.0  0.062
  H  H70  1  0.959600  0.508800  0.055200  1.0  0.051
  H  H71  1  0.777700  0.662000  0.269900  1.0  0.0765
  H  H72  1  0.735100  0.568200  0.119900  1.0  0.088
  H  H73  1  0.828600  0.313600  0.567100  1.0  0.0739
  H  H74  1  0.798200  0.244300  0.597100  1.0  0.0713
  H  H75  1  0.688800  0.334800  0.534100  1.0  0.0542
  H  H76  1  0.659900  0.264400  0.562900  1.0  0.047
  H  H77  1  0.738600  0.203200  0.498000  1.0  0.0537
  H  H78  1  0.777900  0.271400  0.472300  1.0  0.055
  H  H79  1  0.614500  0.234200  0.459800  1.0  0.0383
  H  H80  1  0.657600  0.299800  0.431500  1.0  0.0405
  H  H81  1  0.710200  0.165500  0.406200  1.0  0.0663
  H  H82  1  0.642300  0.202100  0.367800  1.0  0.0654
  H  H83  1  0.772200  0.207600  0.321100  1.0  0.0682
  H  H84  1  0.809400  0.248100  0.375700  1.0  0.0627
  H  H85  1  0.613500  0.387600  0.253800  1.0  0.0741
  H  H86  1  0.829400  0.373600  0.332400  1.0  0.0805
  H  H87  1  0.810100  0.480200  0.882400  1.0  0.0638
  H  H88  1  0.914800  0.419900  0.737300  1.0  0.0873
  H  H89  1  0.069100  0.392400  0.842800  1.0  0.0611
  H  H90  1  0.046000  0.365600  0.778800  1.0  0.0577
  H  H91  1  0.060900  0.273700  0.839100  1.0  0.0499
  H  H92  1  0.999100  0.305200  0.885500  1.0  0.0672
  H  H93  1  0.889300  0.287400  0.822500  1.0  0.0567
  H  H94  1  0.935000  0.217400  0.835200  1.0  0.0753
  H  H95  1  0.895200  0.228300  0.736700  1.0  0.0513
  H  H96  1  0.953800  0.293300  0.730300  1.0  0.0623
  H  H97  1  0.025000  0.166900  0.763000  1.0  0.0629
  H  H98  1  0.069700  0.229800  0.732400  1.0  0.0566
  H  H99  1  0.000800  0.200000  0.643200  1.0  0.0762
  H  H100  1  0.064900  0.144000  0.664900  1.0  0.067
  H  H101  1  0.914100  0.093800  0.761200  1.0  0.0914
  H  H102  1  0.814400  0.024400  0.615700  1.0  0.0782
  H  H103  1  0.888100  0.891400  0.747800  1.0  0.0796
  H  H104  1  0.671300  0.875100  0.675100  1.0  0.0699
  H  H105  1  0.730900  0.709000  0.686100  1.0  0.0786
  H  H106  1  0.684700  0.748900  0.635300  1.0  0.064
  H  H107  1  0.775400  0.671700  0.593600  1.0  0.049
  H  H108  1  0.849900  0.702800  0.630300  1.0  0.0623
  H  H109  1  0.876700  0.770500  0.561800  1.0  0.0467
  H  H110  1  0.790300  0.805800  0.570800  1.0  0.0609
  H  H111  1  0.816600  0.697500  0.499200  1.0  0.0521
  H  H112  1  0.734300  0.739600  0.505700  1.0  0.063
  H  H113  1  0.861900  0.766400  0.429100  1.0  0.0603
  H  H114  1  0.841500  0.833900  0.466500  1.0  0.065
  H  H115  1  0.700700  0.821700  0.446400  1.0  0.061
  H  H116  1  0.715200  0.749400  0.416000  1.0  0.0775
  H  H117  1  0.777500  0.829600  0.232400  1.0  0.0596
  H  H118  1  0.739000  0.932300  0.379100  1.0  0.1026
  H  H119  1  0.703900  0.921800  0.866500  1.0  0.0926
  H  H120  1  0.547700  0.984700  0.747700  1.0  0.0525
  H  H121  1  0.525100  0.832800  0.902600  1.0  0.0775
  H  H122  1  0.600700  0.864200  0.938000  1.0  0.0647
  H  H123  1  0.473500  0.886300  0.987300  1.0  0.0586
  H  H124  1  0.441800  0.927700  0.931800  1.0  0.0569
  H  H125  1  0.544400  0.013000  0.947200  1.0  0.0568
  H  H126  1  0.580100  0.970800  0.001200  1.0  0.0569
  H  H127  1  0.700100  0.567100  0.624200  1.0  0.0955
  H  H128  1  0.547300  0.534300  0.755200  1.0  0.0753
  H  H129  1  0.532000  0.673000  0.590200  1.0  0.0812
  H  H130  1  0.606100  0.638300  0.556100  1.0  0.0681
  H  H131  1  0.478800  0.615200  0.507800  1.0  0.0683
  H  H132  1  0.444700  0.578700  0.565200  1.0  0.0572
  H  H133  1  0.581200  0.528900  0.500600  1.0  0.0629
  H  H134  1  0.540400  0.491200  0.555200  1.0  0.0524
  H  H135  1  0.722300  0.338000  0.769900  1.0  0.0761
  H  H136  1  0.764900  0.431800  0.619900  1.0  0.0868
  H  H137  1  0.328600  0.313600  0.932900  1.0  0.073
  H  H138  1  0.298200  0.244300  0.902900  1.0  0.0715
  H  H139  1  0.188800  0.334800  0.965900  1.0  0.0542
  H  H140  1  0.159900  0.264400  0.937100  1.0  0.0468
  H  H141  1  0.238600  0.203200  0.002000  1.0  0.0534
  H  H142  1  0.277900  0.271400  0.027700  1.0  0.0558
  H  H143  1  0.114500  0.234200  0.040200  1.0  0.0366
  H  H144  1  0.157600  0.299800  0.068500  1.0  0.0401
  H  H145  1  0.210200  0.165500  0.093800  1.0  0.0654
  H  H146  1  0.142300  0.202100  0.132200  1.0  0.0658
  H  H147  1  0.272200  0.207600  0.178900  1.0  0.0683
  H  H148  1  0.309400  0.248100  0.124300  1.0  0.0624
  H  H149  1  0.113500  0.387600  0.246200  1.0  0.0745
  H  H150  1  0.329400  0.373600  0.167600  1.0  0.0826
  H  H151  1  0.310100  0.480200  0.617600  1.0  0.0627
  H  H152  1  0.414800  0.419900  0.762700  1.0  0.0848
  H  H153  1  0.569100  0.392400  0.657200  1.0  0.0615
  H  H154  1  0.546000  0.365600  0.721200  1.0  0.0611
  H  H155  1  0.560900  0.273700  0.660900  1.0  0.049
  H  H156  1  0.499100  0.305200  0.614500  1.0  0.0688
  H  H157  1  0.389300  0.287400  0.677500  1.0  0.0581
  H  H158  1  0.435000  0.217400  0.664800  1.0  0.0746
  H  H159  1  0.395200  0.228300  0.763300  1.0  0.0511
  H  H160  1  0.453800  0.293300  0.769700  1.0  0.0615
  H  H161  1  0.525000  0.166900  0.737000  1.0  0.0626
  H  H162  1  0.569700  0.229800  0.767600  1.0  0.0564
  H  H163  1  0.500800  0.200000  0.856800  1.0  0.0741
  H  H164  1  0.564900  0.144000  0.835100  1.0  0.0673
  H  H165  1  0.414100  0.093800  0.738800  1.0  0.0915
  H  H166  1  0.314400  0.024400  0.884300  1.0  0.0785
  H  H167  1  0.388100  0.891400  0.752200  1.0  0.0789
  H  H168  1  0.171300  0.875100  0.824900  1.0  0.0694
  H  H169  1  0.230900  0.709000  0.813900  1.0  0.0789
  H  H170  1  0.184700  0.748900  0.864700  1.0  0.0629
  H  H171  1  0.275400  0.671700  0.906400  1.0  0.0485
  H  H172  1  0.349900  0.702800  0.869700  1.0  0.0621
  H  H173  1  0.376700  0.770500  0.938200  1.0  0.0468
  H  H174  1  0.290300  0.805800  0.929200  1.0  0.0609
  H  H175  1  0.316600  0.697500  0.000800  1.0  0.053
  H  H176  1  0.234300  0.739600  0.994300  1.0  0.0633
  H  H177  1  0.361900  0.766400  0.070900  1.0  0.0604
  H  H178  1  0.341500  0.833900  0.033500  1.0  0.0652
  H  H179  1  0.200700  0.821700  0.053600  1.0  0.0614
  H  H180  1  0.215200  0.749400  0.084000  1.0  0.0785
  H  H181  1  0.277500  0.829600  0.267600  1.0  0.0587
  H  H182  1  0.239000  0.932300  0.120900  1.0  0.1049
  H  H183  1  0.203900  0.921800  0.633500  1.0  0.0928
  H  H184  1  0.047700  0.984700  0.752300  1.0  0.0541
  H  H185  1  0.025100  0.832800  0.597400  1.0  0.0785
  H  H186  1  0.100700  0.864200  0.562000  1.0  0.0636
  H  H187  1  0.973500  0.886300  0.512700  1.0  0.0587
  H  H188  1  0.941800  0.927700  0.568200  1.0  0.0564
  H  H189  1  0.044400  0.013000  0.552800  1.0  0.0571
  H  H190  1  0.080100  0.970800  0.498800  1.0  0.0572
  H  H191  1  0.200100  0.567100  0.875800  1.0  0.0956
  H  H192  1  0.047300  0.534300  0.744800  1.0  0.0742
  H  H193  1  0.032000  0.673000  0.909800  1.0  0.0812
  H  H194  1  0.106100  0.638300  0.943900  1.0  0.0685
  H  H195  1  0.978800  0.615200  0.992200  1.0  0.0658
  H  H196  1  0.944700  0.578700  0.934800  1.0  0.0576
  H  H197  1  0.081200  0.528900  0.999400  1.0  0.0629
  H  H198  1  0.040400  0.491200  0.944800  1.0  0.0516
  H  H199  1  0.222300  0.338000  0.730100  1.0  0.0778
  H  H200  1  0.264900  0.431800  0.880100  1.0  0.0861
  H  H201  1  0.171400  0.686400  0.432900  1.0  0.0757
  H  H202  1  0.201800  0.755700  0.402900  1.0  0.073
  H  H203  1  0.311200  0.665200  0.465900  1.0  0.0547
  H  H204  1  0.340100  0.735600  0.437100  1.0  0.0461
  H  H205  1  0.261400  0.796800  0.502000  1.0  0.0559
  H  H206  1  0.222100  0.728600  0.527700  1.0  0.0533
  H  H207  1  0.385500  0.765800  0.540200  1.0  0.0403
  H  H208  1  0.342400  0.700200  0.568500  1.0  0.042
  H  H209  1  0.289800  0.834500  0.593800  1.0  0.0643
  H  H210  1  0.357700  0.797900  0.632200  1.0  0.0644
  H  H211  1  0.227800  0.792400  0.678900  1.0  0.0683
  H  H212  1  0.190600  0.751900  0.624300  1.0  0.062
  H  H213  1  0.386500  0.612400  0.746200  1.0  0.0749
  H  H214  1  0.170600  0.626400  0.667600  1.0  0.0875
  H  H215  1  0.189900  0.519800  0.117600  1.0  0.0631
  H  H216  1  0.085200  0.580100  0.262700  1.0  0.087
  H  H217  1  0.930900  0.607600  0.157200  1.0  0.0608
  H  H218  1  0.954000  0.634400  0.221200  1.0  0.0619
  H  H219  1  0.939100  0.726300  0.160900  1.0  0.05
  H  H220  1  0.000900  0.694800  0.114500  1.0  0.0692
  H  H221  1  0.110700  0.712600  0.177500  1.0  0.0576
  H  H222  1  0.065000  0.782600  0.164800  1.0  0.074
  H  H223  1  0.104800  0.771700  0.263300  1.0  0.0554
  H  H224  1  0.046200  0.706700  0.269700  1.0  0.0635
  H  H225  1  0.975000  0.833100  0.237000  1.0  0.062
  H  H226  1  0.930300  0.770200  0.267600  1.0  0.0562
  H  H227  1  0.999200  0.800000  0.356800  1.0  0.0763
  H  H228  1  0.935100  0.856000  0.335100  1.0  0.067
  H  H229  1  0.085900  0.906200  0.238800  1.0  0.0919
  H  H230  1  0.185600  0.975600  0.384300  1.0  0.0735
  H  H231  1  0.111900  0.108600  0.252200  1.0  0.0783
  H  H232  1  0.328700  0.124900  0.324900  1.0  0.0702
  H  H233  1  0.269100  0.291000  0.313900  1.0  0.0784
  H  H234  1  0.315300  0.251100  0.364700  1.0  0.0625
  H  H235  1  0.224600  0.328300  0.406400  1.0  0.0479
  H  H236  1  0.150100  0.297200  0.369700  1.0  0.0651
  H  H237  1  0.123300  0.229500  0.438200  1.0  0.0464
  H  H238  1  0.209700  0.194200  0.429200  1.0  0.0609
  H  H239  1  0.183400  0.302500  0.500800  1.0  0.057
  H  H240  1  0.265700  0.260400  0.494300  1.0  0.0675
  H  H241  1  0.138100  0.233600  0.570900  1.0  0.0604
  H  H242  1  0.158500  0.166100  0.533500  1.0  0.0659
  H  H243  1  0.299300  0.178300  0.553600  1.0  0.0609
  H  H244  1  0.284800  0.250600  0.584000  1.0  0.0774
  H  H245  1  0.222500  0.170400  0.767600  1.0  0.0581
  H  H246  1  0.261000  0.067700  0.620900  1.0  0.1049
  H  H247  1  0.296100  0.078200  0.133500  1.0  0.092
  H  H248  1  0.452300  0.015300  0.252300  1.0  0.0577
  H  H249  1  0.474900  0.167200  0.097400  1.0  0.0795
  H  H250  1  0.399300  0.135800  0.062000  1.0  0.0627
  H  H251  1  0.526500  0.113700  0.012700  1.0  0.0591
  H  H252  1  0.558200  0.072300  0.068200  1.0  0.0562
  H  H253  1  0.455600  0.987000  0.052800  1.0  0.058
  H  H254  1  0.419900  0.029200  0.998800  1.0  0.0562
  H  H255  1  0.299900  0.432900  0.375800  1.0  0.0953
  H  H256  1  0.452700  0.465700  0.244800  1.0  0.0743
  H  H257  1  0.468000  0.327000  0.409800  1.0  0.0804
  H  H258  1  0.393900  0.361700  0.443900  1.0  0.0665
  H  H259  1  0.521200  0.384800  0.492200  1.0  0.0658
  H  H260  1  0.555300  0.421300  0.434800  1.0  0.0547
  H  H261  1  0.418800  0.471100  0.499400  1.0  0.0624
  H  H262  1  0.459600  0.508800  0.444800  1.0  0.0523
  H  H263  1  0.277700  0.662000  0.230100  1.0  0.0777
  H  H264  1  0.235100  0.568200  0.380100  1.0  0.092
  C  C265  1  0.718300  0.708900  0.086800  1.0  -0.0522
  C  C266  1  0.793800  0.712000  0.043600  1.0  -0.1275
  C  C267  1  0.773000  0.748700  0.988200  1.0  -0.1646
  C  C268  1  0.833300  0.747800  0.943900  1.0  -0.1238
  C  C269  1  0.808500  0.789700  0.892000  1.0  -0.1463
  C  C270  1  0.740700  0.759400  0.852300  1.0  -0.0236
  C  C271  1  0.841400  0.629800  0.775000  1.0  0.2555
  C  C272  1  0.723300  0.636300  0.817100  1.0  0.0877
  C  C273  1  0.652300  0.539500  0.355800  1.0  0.2236
  C  C274  1  0.596600  0.571200  0.277100  1.0  0.1287
  C  C275  1  0.473700  0.630800  0.319500  1.0  0.0097
  C  C276  1  0.489500  0.699100  0.343300  1.0  -0.1649
  C  C277  1  0.559600  0.738000  0.315300  1.0  -0.1576
  C  C278  1  0.552900  0.750900  0.250400  1.0  -0.1408
  C  C279  1  0.481100  0.797900  0.232500  1.0  -0.1357
  C  C280  1  0.487600  0.833700  0.174200  1.0  -0.0999
  C  C281  1  0.598000  0.914400  0.221300  1.0  0.1164
  C  C282  1  0.651200  0.951500  0.142000  1.0  0.2595
  C  C283  1  0.657700  0.126000  0.227100  1.0  0.259
  C  C284  1  0.774700  0.133500  0.188200  1.0  0.1173
  C  C285  1  0.761600  0.257400  0.154400  1.0  -0.0051
  C  C286  1  0.701700  0.285700  0.110100  1.0  -0.1449
  C  C287  1  0.683000  0.238000  0.061800  1.0  -0.1789
  C  C288  1  0.705000  0.256300  0.006300  1.0  -0.1782
  C  C289  1  0.679700  0.211000  0.953600  1.0  -0.1417
  C  C290  1  0.760900  0.204700  0.922000  1.0  -0.0385
  C  C291  1  0.731500  0.160200  0.772300  1.0  0.1922
  C  C292  1  0.751900  0.102900  0.851600  1.0  0.1127
  C  C293  1  0.844800  0.068400  0.345700  1.0  0.1196
  C  C294  1  0.930900  0.034500  0.282400  1.0  0.2729
  C  C295  1  0.948300  0.124100  0.414900  1.0  -0.0692
  C  C296  1  0.009000  0.084000  0.454700  1.0  -0.1178
  C  C297  1  0.970500  0.017900  0.479700  1.0  -0.1545
  C  C298  1  0.847100  0.433000  0.148300  1.0  0.106
  C  C299  1  0.931100  0.450900  0.218900  1.0  0.2294
  C  C300  1  0.943400  0.371200  0.079600  1.0  -0.059
  C  C301  1  0.005400  0.412400  0.041900  1.0  -0.1235
  C  C302  1  0.971300  0.479900  0.020900  1.0  -0.1374
  C  C303  1  0.765700  0.654600  0.229900  1.0  0.2123
  C  C304  1  0.742500  0.601900  0.149100  1.0  0.1098
  C  C305  1  0.781700  0.291100  0.586800  1.0  -0.051
  C  C306  1  0.706200  0.288000  0.543600  1.0  -0.1245
  C  C307  1  0.727000  0.251300  0.488200  1.0  -0.1638
  C  C308  1  0.666667  0.252200  0.443900  1.0  -0.1269
  C  C309  1  0.691500  0.210300  0.392000  1.0  -0.1463
  C  C310  1  0.759300  0.240600  0.352300  1.0  -0.023
  C  C311  1  0.658600  0.370200  0.275000  1.0  0.2545
  C  C312  1  0.776700  0.363700  0.317100  1.0  0.0889
  C  C313  1  0.847700  0.460500  0.855800  1.0  0.222
  C  C314  1  0.903400  0.428800  0.777100  1.0  0.1277
  C  C315  1  0.026300  0.369200  0.819500  1.0  0.0113
  C  C316  1  0.010500  0.300900  0.843300  1.0  -0.1634
  C  C317  1  0.940400  0.262000  0.815300  1.0  -0.1572
  C  C318  1  0.947100  0.249100  0.750400  1.0  -0.1395
  C  C319  1  0.018900  0.202100  0.732500  1.0  -0.1357
  C  C320  1  0.012400  0.166300  0.674200  1.0  -0.1006
  C  C321  1  0.902000  0.085600  0.721300  1.0  0.116
  C  C322  1  0.848800  0.048500  0.642000  1.0  0.2601
  C  C323  1  0.842300  0.874000  0.727100  1.0  0.2588
  C  C324  1  0.725300  0.866500  0.688200  1.0  0.1187
  C  C325  1  0.738400  0.742600  0.654400  1.0  -0.0086
  C  C326  1  0.798300  0.714300  0.610100  1.0  -0.1454
  C  C327  1  0.817000  0.762000  0.561800  1.0  -0.1778
  C  C328  1  0.795000  0.743700  0.506300  1.0  -0.1767
  C  C329  1  0.820300  0.789000  0.453600  1.0  -0.1496
  C  C330  1  0.739100  0.795300  0.422000  1.0  -0.0405
  C  C331  1  0.768500  0.839800  0.272300  1.0  0.1923
  C  C332  1  0.748100  0.897100  0.351600  1.0  0.1127
  C  C333  1  0.655200  0.931600  0.845700  1.0  0.1203
  C  C334  1  0.569100  0.965500  0.782400  1.0  0.2768
  C  C335  1  0.551700  0.875900  0.914900  1.0  -0.0693
  C  C336  1  0.491000  0.916000  0.954700  1.0  -0.1174
  C  C337  1  0.529500  0.982100  0.979700  1.0  -0.1613
  C  C338  1  0.652900  0.567000  0.648300  1.0  0.1051
  C  C339  1  0.568900  0.549100  0.718900  1.0  0.2308
  C  C340  1  0.556600  0.628800  0.579600  1.0  -0.0594
  C  C341  1  0.494600  0.587600  0.541900  1.0  -0.119
  C  C342  1  0.528700  0.520100  0.520900  1.0  -0.1463
  C  C343  1  0.734300  0.345400  0.729900  1.0  0.2119
  C  C344  1  0.757500  0.398100  0.649100  1.0  0.1105
  C  C345  1  0.281700  0.291100  0.913200  1.0  -0.0499
  C  C346  1  0.206200  0.288000  0.956400  1.0  -0.1237
  C  C347  1  0.227000  0.251300  0.011800  1.0  -0.1625
  C  C348  1  0.166700  0.252200  0.056100  1.0  -0.1272
  C  C349  1  0.191500  0.210300  0.108000  1.0  -0.1484
  C  C350  1  0.259300  0.240600  0.147700  1.0  -0.0232
  C  C351  1  0.158600  0.370200  0.225000  1.0  0.254
  C  C352  1  0.276700  0.363700  0.182900  1.0  0.0888
  C  C353  1  0.347700  0.460500  0.644200  1.0  0.2236
  C  C354  1  0.403400  0.428800  0.722900  1.0  0.1274
  C  C355  1  0.526300  0.369200  0.680500  1.0  0.012
  C  C356  1  0.510500  0.300900  0.656700  1.0  -0.1617
  C  C357  1  0.440400  0.262000  0.684700  1.0  -0.1569
  C  C358  1  0.447100  0.249100  0.749600  1.0  -0.1418
  C  C359  1  0.518900  0.202100  0.767500  1.0  -0.1353
  C  C360  1  0.512400  0.166300  0.825800  1.0  -0.0996
  C  C361  1  0.402000  0.085600  0.778700  1.0  0.1153
  C  C362  1  0.348800  0.048500  0.858000  1.0  0.2608
  C  C363  1  0.342300  0.874000  0.772900  1.0  0.2588
  C  C364  1  0.225300  0.866500  0.811800  1.0  0.1185
  C  C365  1  0.238400  0.742600  0.845600  1.0  -0.007
  C  C366  1  0.298300  0.714300  0.889900  1.0  -0.1446
  C  C367  1  0.317000  0.762000  0.938200  1.0  -0.177
  C  C368  1  0.295000  0.743700  0.993700  1.0  -0.1783
  C  C369  1  0.320300  0.789000  0.046400  1.0  -0.1486
  C  C370  1  0.239100  0.795300  0.078000  1.0  -0.0391
  C  C371  1  0.268500  0.839800  0.227700  1.0  0.1922
  C  C372  1  0.248100  0.897100  0.148400  1.0  0.1121
  C  C373  1  0.155200  0.931600  0.654300  1.0  0.1202
  C  C374  1  0.069100  0.965500  0.717600  1.0  0.2773
  C  C375  1  0.051700  0.875900  0.585100  1.0  -0.0694
  C  C376  1  0.991000  0.916000  0.545300  1.0  -0.1086
  C  C377  1  0.029500  0.982100  0.520300  1.0  -0.162
  C  C378  1  0.152900  0.567000  0.851700  1.0  0.1055
  C  C379  1  0.068900  0.549100  0.781100  1.0  0.2307
  C  C380  1  0.056600  0.628800  0.920400  1.0  -0.0592
  C  C381  1  0.994600  0.587600  0.958100  1.0  -0.1177
  C  C382  1  0.028700  0.520100  0.979100  1.0  -0.1464
  C  C383  1  0.234300  0.345400  0.770100  1.0  0.2117
  C  C384  1  0.257500  0.398100  0.850900  1.0  0.111
  C  C385  1  0.218300  0.708900  0.413200  1.0  -0.0521
  C  C386  1  0.293800  0.712000  0.456400  1.0  -0.1282
  C  C387  1  0.273000  0.748700  0.511800  1.0  -0.1628
  C  C388  1  0.333333  0.747800  0.556100  1.0  -0.124
  C  C389  1  0.308500  0.789700  0.608000  1.0  -0.1481
  C  C390  1  0.240700  0.759400  0.647700  1.0  -0.0229
  C  C391  1  0.341400  0.629800  0.725000  1.0  0.2558
  C  C392  1  0.223300  0.636300  0.682900  1.0  0.0861
  C  C393  1  0.152300  0.539500  0.144200  1.0  0.2237
  C  C394  1  0.096600  0.571200  0.222900  1.0  0.129
  C  C395  1  0.973700  0.630800  0.180500  1.0  0.0103
  C  C396  1  0.989500  0.699100  0.156700  1.0  -0.1601
  C  C397  1  0.059600  0.738000  0.184700  1.0  -0.1575
  C  C398  1  0.052900  0.750900  0.249600  1.0  -0.1403
  C  C399  1  0.981100  0.797900  0.267500  1.0  -0.1353
  C  C400  1  0.987600  0.833700  0.325800  1.0  -0.1001
  C  C401  1  0.098000  0.914400  0.278700  1.0  0.116
  C  C402  1  0.151200  0.951500  0.358000  1.0  0.2603
  C  C403  1  0.157700  0.126000  0.272900  1.0  0.2585
  C  C404  1  0.274700  0.133500  0.311800  1.0  0.1177
  C  C405  1  0.261600  0.257400  0.345600  1.0  -0.0045
  C  C406  1  0.201700  0.285700  0.389900  1.0  -0.1441
  C  C407  1  0.183000  0.238000  0.438200  1.0  -0.1784
  C  C408  1  0.205000  0.256300  0.493700  1.0  -0.1794
  C  C409  1  0.179700  0.211000  0.546400  1.0  -0.1427
  C  C410  1  0.260900  0.204700  0.578000  1.0  -0.037
  C  C411  1  0.231500  0.160200  0.727700  1.0  0.192
  C  C412  1  0.251900  0.102900  0.648400  1.0  0.1117
  C  C413  1  0.344800  0.068400  0.154300  1.0  0.1197
  C  C414  1  0.430900  0.034500  0.217600  1.0  0.2747
  C  C415  1  0.448300  0.124100  0.085100  1.0  -0.069
  C  C416  1  0.509000  0.084000  0.045300  1.0  -0.1086
  C  C417  1  0.470500  0.017900  0.020300  1.0  -0.1616
  C  C418  1  0.347100  0.433000  0.351700  1.0  0.1061
  C  C419  1  0.431100  0.450900  0.281100  1.0  0.2272
  C  C420  1  0.443400  0.371200  0.420400  1.0  -0.0585
  C  C421  1  0.505400  0.412400  0.458100  1.0  -0.1242
  C  C422  1  0.471300  0.479900  0.479100  1.0  -0.136
  C  C423  1  0.265700  0.654600  0.270100  1.0  0.2115
  C  C424  1  0.242500  0.601900  0.350900  1.0  0.111
  N  N425  1  0.758800  0.589700  0.205200  1.0  -0.4067
  N  N426  1  0.753800  0.705700  0.191400  1.0  -0.3931
  N  N427  1  0.738300  0.671000  0.140500  1.0  0.141
  N  N428  1  0.841100  0.690600  0.800500  1.0  -0.386
  N  N429  1  0.766100  0.694000  0.825600  1.0  0.162
  N  N430  1  0.768100  0.594600  0.783000  1.0  -0.4016
  N  N431  1  0.662400  0.536900  0.297100  1.0  -0.4002
  N  N432  1  0.550900  0.590200  0.321100  1.0  0.135
  N  N433  1  0.586600  0.571400  0.372700  1.0  -0.3756
  N  N434  1  0.660000  0.955700  0.201700  1.0  -0.4389
  N  N435  1  0.590300  0.910800  0.124000  1.0  -0.3926
  N  N436  1  0.556800  0.887400  0.176600  1.0  0.09
  N  N437  1  0.727300  0.088500  0.218100  1.0  -0.4116
  N  N438  1  0.734500  0.191700  0.179900  1.0  0.1043
  N  N439  1  0.659100  0.188600  0.204600  1.0  -0.4086
  N  N440  1  0.750200  0.169600  0.863300  1.0  0.1338
  N  N441  1  0.738800  0.206400  0.812700  1.0  -0.3848
  N  N442  1  0.738400  0.094100  0.794000  1.0  -0.4059
  N  N443  1  0.848800  0.034800  0.295300  1.0  -0.3976
  N  N444  1  0.977000  0.063100  0.322300  1.0  -0.3849
  N  N445  1  0.922100  0.086500  0.362400  1.0  0.1421
  N  N446  1  0.851500  0.458900  0.202500  1.0  -0.3859
  N  N447  1  0.975300  0.419900  0.177800  1.0  -0.3866
  N  N448  1  0.919100  0.407800  0.134100  1.0  0.1434
  N  N449  1  0.741200  0.410300  0.705200  1.0  -0.4085
  N  N450  1  0.746200  0.294300  0.691400  1.0  -0.4012
  N  N451  1  0.761700  0.329000  0.640500  1.0  0.1401
  N  N452  1  0.658900  0.309400  0.300500  1.0  -0.4001
  N  N453  1  0.733900  0.306000  0.325600  1.0  0.1631
  N  N454  1  0.731900  0.405400  0.283000  1.0  -0.4015
  N  N455  1  0.837600  0.463100  0.797100  1.0  -0.4013
  N  N456  1  0.949100  0.409800  0.821100  1.0  0.1337
  N  N457  1  0.913400  0.428600  0.872700  1.0  -0.3746
  N  N458  1  0.840000  0.044300  0.701700  1.0  -0.4383
  N  N459  1  0.909700  0.089200  0.624000  1.0  -0.391
  N  N460  1  0.943200  0.112600  0.676600  1.0  0.0905
  N  N461  1  0.772700  0.911500  0.718100  1.0  -0.4138
  N  N462  1  0.765500  0.808300  0.679900  1.0  0.0979
  N  N463  1  0.840900  0.811400  0.704600  1.0  -0.41
  N  N464  1  0.749800  0.830400  0.363300  1.0  0.1338
  N  N465  1  0.761200  0.793600  0.312700  1.0  -0.3843
  N  N466  1  0.761600  0.905900  0.294000  1.0  -0.4069
  N  N467  1  0.651200  0.965200  0.795300  1.0  -0.3954
  N  N468  1  0.523000  0.936900  0.822300  1.0  -0.3861
  N  N469  1  0.577900  0.913500  0.862400  1.0  0.1427
  N  N470  1  0.648500  0.541100  0.702500  1.0  -0.384
  N  N471  1  0.524700  0.580100  0.677800  1.0  -0.3875
  N  N472  1  0.580900  0.592200  0.634100  1.0  0.1436
  N  N473  1  0.241200  0.410300  0.794800  1.0  -0.4085
  N  N474  1  0.246200  0.294300  0.808600  1.0  -0.4012
  N  N475  1  0.261700  0.329000  0.859500  1.0  0.1407
  N  N476  1  0.158900  0.309400  0.199500  1.0  -0.3966
  N  N477  1  0.233900  0.306000  0.174400  1.0  0.1628
  N  N478  1  0.231900  0.405400  0.217000  1.0  -0.4008
  N  N479  1  0.337600  0.463100  0.702900  1.0  -0.4012
  N  N480  1  0.449100  0.409800  0.678900  1.0  0.1334
  N  N481  1  0.413400  0.428600  0.627300  1.0  -0.3746
  N  N482  1  0.340000  0.044300  0.798300  1.0  -0.439
  N  N483  1  0.409700  0.089200  0.876000  1.0  -0.3924
  N  N484  1  0.443200  0.112600  0.823400  1.0  0.0952
  N  N485  1  0.272700  0.911500  0.781900  1.0  -0.4136
  N  N486  1  0.265500  0.808300  0.820100  1.0  0.0981
  N  N487  1  0.340900  0.811400  0.795400  1.0  -0.4094
  N  N488  1  0.249800  0.830400  0.136700  1.0  0.1333
  N  N489  1  0.261200  0.793600  0.187300  1.0  -0.3844
  N  N490  1  0.261600  0.905900  0.206000  1.0  -0.4071
  N  N491  1  0.151200  0.965200  0.704700  1.0  -0.3946
  N  N492  1  0.023000  0.936900  0.677700  1.0  -0.3858
  N  N493  1  0.077900  0.913500  0.637600  1.0  0.1442
  N  N494  1  0.148500  0.541100  0.797500  1.0  -0.3848
  N  N495  1  0.024700  0.580100  0.822200  1.0  -0.3861
  N  N496  1  0.080900  0.592200  0.865900  1.0  0.1434
  N  N497  1  0.258800  0.589700  0.294800  1.0  -0.4071
  N  N498  1  0.253800  0.705700  0.308600  1.0  -0.3927
  N  N499  1  0.238300  0.671000  0.359500  1.0  0.142
  N  N500  1  0.341100  0.690600  0.699500  1.0  -0.3858
  N  N501  1  0.266100  0.694000  0.674400  1.0  0.1615
  N  N502  1  0.268100  0.594600  0.717000  1.0  -0.4012
  N  N503  1  0.162400  0.536900  0.202900  1.0  -0.3999
  N  N504  1  0.050900  0.590200  0.178900  1.0  0.1346
  N  N505  1  0.086600  0.571400  0.127300  1.0  -0.3745
  N  N506  1  0.160000  0.955700  0.298300  1.0  -0.4399
  N  N507  1  0.090300  0.910800  0.376000  1.0  -0.3933
  N  N508  1  0.056800  0.887400  0.323400  1.0  0.0916
  N  N509  1  0.227300  0.088500  0.281900  1.0  -0.4121
  N  N510  1  0.234500  0.191700  0.320100  1.0  0.1042
  N  N511  1  0.159100  0.188600  0.295400  1.0  -0.4065
  N  N512  1  0.250200  0.169600  0.636700  1.0  0.1324
  N  N513  1  0.238800  0.206400  0.687300  1.0  -0.3847
  N  N514  1  0.238400  0.094100  0.706000  1.0  -0.4057
  N  N515  1  0.348800  0.034800  0.204700  1.0  -0.3961
  N  N516  1  0.477000  0.063100  0.177700  1.0  -0.3848
  N  N517  1  0.422100  0.086500  0.137600  1.0  0.1433
  N  N518  1  0.351500  0.458900  0.297500  1.0  -0.3852
  N  N519  1  0.475300  0.419900  0.322200  1.0  -0.3868
  N  N520  1  0.419100  0.407800  0.365900  1.0  0.1418
