# generated using pymatgen
data_CaH2(C3O2)2
_symmetry_space_group_name_H-M   'P 1'
_cell_length_a   9.92610000
_cell_length_b   9.92610000
_cell_length_c   18.28730000
_cell_angle_alpha   84.22290000
_cell_angle_beta   76.68680000
_cell_angle_gamma   112.97400000
_symmetry_Int_Tables_number   1
_chemical_formula_structural   CaH2(C3O2)2
_chemical_formula_sum   'Ca6 H12 C36 O24'
_cell_volume   1577.37693292
_cell_formula_units_Z   6
loop_
 _symmetry_equiv_pos_site_id
 _symmetry_equiv_pos_as_xyz
  1  'x, y, z'
loop_
 _atom_site_type_symbol
 _atom_site_label
 _atom_site_symmetry_multiplicity
 _atom_site_fract_x
 _atom_site_fract_y
 _atom_site_fract_z
 _atom_site_occupancy
 _atom_site_charge
  Ca  Ca1  1  0.401560  0.741360  0.048720  1.0  1.5593
  Ca  Ca2  1  0.290080  0.450280  0.451280  1.0  1.561
  Ca  Ca3  1  0.598440  0.258640  0.951280  1.0  1.5604
  Ca  Ca4  1  0.709920  0.549720  0.548720  1.0  1.5597
  Ca  Ca5  1  0.206260  0.456260  0.250000  1.0  1.6701
  Ca  Ca6  1  0.793740  0.543740  0.750000  1.0  1.6702
  H  H7  1  0.544600  0.610400  0.275200  1.0  0.0865
  H  H8  1  0.869200  0.678800  0.080000  1.0  0.108
  H  H9  1  0.952000  0.627400  0.283600  1.0  0.092
  H  H10  1  0.385600  0.819800  0.224800  1.0  0.0887
  H  H11  1  0.258800  0.949200  0.420000  1.0  0.1086
  H  H12  1  0.411000  0.235600  0.216400  1.0  0.0909
  H  H13  1  0.455400  0.389600  0.724800  1.0  0.0879
  H  H14  1  0.130800  0.321200  0.920000  1.0  0.1084
  H  H15  1  0.048000  0.372600  0.716400  1.0  0.0917
  H  H16  1  0.614400  0.180200  0.775200  1.0  0.0887
  H  H17  1  0.741200  0.050800  0.580000  1.0  0.108
  H  H18  1  0.589000  0.764400  0.783600  1.0  0.091
  C  C19  1  0.642630  0.622100  0.250270  1.0  0.0278
  C  C20  1  0.690230  0.643800  0.170770  1.0  -0.1692
  C  C21  1  0.934770  0.654360  0.175870  1.0  -0.1794
  C  C22  1  0.582700  0.652400  0.126300  1.0  0.7378
  C  C23  1  0.836570  0.661860  0.133370  1.0  0.0239
  C  C24  1  0.092380  0.673600  0.134620  1.0  0.7478
  C  C25  1  0.685540  0.593100  0.379360  1.0  0.7573
  C  C26  1  0.886750  0.632400  0.255250  1.0  0.0167
  C  C27  1  0.741070  0.617800  0.292930  1.0  -0.1743
  C  C28  1  0.372370  0.892900  0.249730  1.0  0.0281
  C  C29  1  0.314570  0.861000  0.329230  1.0  -0.1658
  C  C30  1  0.330230  0.110640  0.324130  1.0  -0.1793
  C  C31  1  0.278700  0.709000  0.373700  1.0  0.7319
  C  C32  1  0.295230  0.969940  0.366630  1.0  0.0254
  C  C33  1  0.308220  0.227000  0.365380  1.0  0.749
  C  C34  1  0.472460  0.064900  0.120640  1.0  0.7542
  C  C35  1  0.387650  0.142000  0.244750  1.0  0.0192
  C  C36  1  0.410730  0.034000  0.207070  1.0  -0.1745
  C  C37  1  0.357370  0.377900  0.749730  1.0  0.0306
  C  C38  1  0.309770  0.356200  0.829230  1.0  -0.1691
  C  C39  1  0.065230  0.345640  0.824130  1.0  -0.1791
  C  C40  1  0.417300  0.347600  0.873700  1.0  0.7391
  C  C41  1  0.163430  0.338140  0.866630  1.0  0.0251
  C  C42  1  0.907620  0.326400  0.865380  1.0  0.7483
  C  C43  1  0.314460  0.406900  0.620640  1.0  0.7584
  C  C44  1  0.113250  0.367600  0.744750  1.0  0.0167
  C  C45  1  0.258930  0.382200  0.707070  1.0  -0.1745
  C  C46  1  0.627630  0.107100  0.750270  1.0  0.028
  C  C47  1  0.685430  0.139000  0.670770  1.0  -0.166
  C  C48  1  0.669770  0.889360  0.675870  1.0  -0.1805
  C  C49  1  0.721300  0.291000  0.626300  1.0  0.73
  C  C50  1  0.704770  0.030060  0.633370  1.0  0.0239
  C  C51  1  0.691780  0.773000  0.634620  1.0  0.7492
  C  C52  1  0.527540  0.935100  0.879360  1.0  0.7543
  C  C53  1  0.612350  0.858000  0.755250  1.0  0.0198
  C  C54  1  0.589270  0.966000  0.792930  1.0  -0.1756
  O  O55  1  0.442920  0.606400  0.161480  1.0  -0.8287
  O  O56  1  0.635960  0.708810  0.055030  1.0  -0.6634
  O  O57  1  0.162810  0.623870  0.171520  1.0  -0.8676
  O  O58  1  0.151100  0.738570  0.065330  1.0  -0.6407
  O  O59  1  0.779640  0.596200  0.415760  1.0  -0.721
  O  O60  1  0.549830  0.571990  0.409780  1.0  -0.7517
  O  O61  1  0.267880  0.604400  0.338520  1.0  -0.8316
  O  O62  1  0.263840  0.690990  0.444970  1.0  -0.6642
  O  O63  1  0.295390  0.334330  0.328480  1.0  -0.8604
  O  O64  1  0.303900  0.216430  0.434670  1.0  -0.639
  O  O65  1  0.511960  0.195400  0.084240  1.0  -0.7196
  O  O66  1  0.481770  0.959610  0.090220  1.0  -0.7546
  O  O67  1  0.557080  0.393600  0.838520  1.0  -0.8288
  O  O68  1  0.364040  0.291190  0.944970  1.0  -0.6639
  O  O69  1  0.837190  0.376130  0.828480  1.0  -0.8669
  O  O70  1  0.848900  0.261430  0.934670  1.0  -0.6437
  O  O71  1  0.220360  0.403800  0.584240  1.0  -0.7197
  O  O72  1  0.450170  0.428010  0.590220  1.0  -0.7502
  O  O73  1  0.732120  0.395600  0.661480  1.0  -0.8314
  O  O74  1  0.736160  0.309010  0.555030  1.0  -0.6634
  O  O75  1  0.704610  0.665670  0.671520  1.0  -0.8666
  O  O76  1  0.696100  0.783570  0.565330  1.0  -0.6382
  O  O77  1  0.488040  0.804600  0.915760  1.0  -0.718
  O  O78  1  0.518230  0.040390  0.909780  1.0  -0.7531
