# generated using pymatgen
data_Ca3H18C22(SO7)2
_symmetry_space_group_name_H-M   'P 1'
_cell_length_a   10.33220000
_cell_length_b   10.33220000
_cell_length_c   18.98100000
_cell_angle_alpha   81.09000000
_cell_angle_beta   81.09000000
_cell_angle_gamma   82.41010000
_symmetry_Int_Tables_number   1
_chemical_formula_structural   Ca3H18C22(SO7)2
_chemical_formula_sum   'Ca6 H36 C44 S4 O28'
_cell_volume   1965.52992968
_cell_formula_units_Z   2
loop_
 _symmetry_equiv_pos_site_id
 _symmetry_equiv_pos_as_xyz
  1  'x, y, z'
loop_
 _atom_site_type_symbol
 _atom_site_label
 _atom_site_symmetry_multiplicity
 _atom_site_fract_x
 _atom_site_fract_y
 _atom_site_fract_z
 _atom_site_occupancy
 _atom_site_charge
  Ca  Ca1  1  0.076770  0.852350  0.065950  1.0  1.5672
  Ca  Ca2  1  0.147650  0.923230  0.434050  1.0  1.5665
  Ca  Ca3  1  0.923230  0.147650  0.934050  1.0  1.5682
  Ca  Ca4  1  0.852350  0.076770  0.565950  1.0  1.5656
  Ca  Ca5  1  0.198070  0.801930  0.250000  1.0  1.5612
  Ca  Ca6  1  0.801930  0.198070  0.750000  1.0  1.559
  H  H7  1  0.635900  0.818900  0.228600  1.0  0.0949
  H  H8  1  0.559900  0.883900  0.434800  1.0  0.1089
  H  H9  1  0.380200  0.131600  0.154800  1.0  0.1568
  H  H10  1  0.526900  0.080500  0.128700  1.0  0.1623
  H  H11  1  0.446100  0.000100  0.193800  1.0  0.155
  H  H12  1  0.919900  0.927300  0.322000  1.0  0.084
  H  H13  1  0.506200  0.779600  0.134700  1.0  0.1778
  H  H14  1  0.596100  0.863100  0.075500  1.0  0.1545
  H  H15  1  0.500200  0.776200  0.053000  1.0  0.1729
  H  H16  1  0.181100  0.364100  0.271400  1.0  0.095
  H  H17  1  0.116100  0.440100  0.065200  1.0  0.1089
  H  H18  1  0.868400  0.619800  0.345200  1.0  0.1575
  H  H19  1  0.919500  0.473100  0.371300  1.0  0.1619
  H  H20  1  0.999900  0.553900  0.306200  1.0  0.1584
  H  H21  1  0.072700  0.080100  0.178000  1.0  0.0847
  H  H22  1  0.220400  0.493800  0.365300  1.0  0.1778
  H  H23  1  0.136900  0.403900  0.424500  1.0  0.1564
  H  H24  1  0.223800  0.499800  0.447000  1.0  0.1728
  H  H25  1  0.364100  0.181100  0.771400  1.0  0.0949
  H  H26  1  0.440100  0.116100  0.565200  1.0  0.1086
  H  H27  1  0.619800  0.868400  0.845200  1.0  0.1555
  H  H28  1  0.473100  0.919500  0.871300  1.0  0.1641
  H  H29  1  0.553900  0.999900  0.806200  1.0  0.1574
  H  H30  1  0.080100  0.072700  0.678000  1.0  0.0837
  H  H31  1  0.493800  0.220400  0.865300  1.0  0.1776
  H  H32  1  0.403900  0.136900  0.924500  1.0  0.155
  H  H33  1  0.499800  0.223800  0.947000  1.0  0.1735
  H  H34  1  0.818900  0.635900  0.728600  1.0  0.0948
  H  H35  1  0.883900  0.559900  0.934800  1.0  0.1091
  H  H36  1  0.131600  0.380200  0.654800  1.0  0.1549
  H  H37  1  0.080500  0.526900  0.628700  1.0  0.1617
  H  H38  1  0.000100  0.446100  0.693800  1.0  0.1584
  H  H39  1  0.927300  0.919900  0.822000  1.0  0.0848
  H  H40  1  0.779600  0.506200  0.634700  1.0  0.1782
  H  H41  1  0.863100  0.596100  0.575500  1.0  0.1575
  H  H42  1  0.776200  0.500200  0.553000  1.0  0.1718
  C  C43  1  0.884400  0.871000  0.193500  1.0  0.732
  C  C44  1  0.664000  0.842400  0.268700  1.0  0.0024
  C  C45  1  0.436400  0.814200  0.335400  1.0  0.7517
  C  C46  1  0.748500  0.910100  0.388700  1.0  -0.1719
  C  C47  1  0.577000  0.844000  0.331900  1.0  -0.1802
  C  C48  1  0.791700  0.874500  0.263200  1.0  -0.1574
  C  C49  1  0.618200  0.880000  0.392400  1.0  0.0229
  C  C50  1  0.441200  0.054600  0.148200  1.0  -0.423
  C  C51  1  0.834000  0.907200  0.324400  1.0  -0.0056
  C  C52  1  0.793300  0.948900  0.453900  1.0  0.7188
  C  C53  1  0.511500  0.830700  0.087700  1.0  -0.4504
  C  C54  1  0.129000  0.115600  0.306500  1.0  0.7313
  C  C55  1  0.157600  0.336000  0.231300  1.0  0.003
  C  C56  1  0.185800  0.563600  0.164600  1.0  0.7515
  C  C57  1  0.089900  0.251500  0.111300  1.0  -0.1685
  C  C58  1  0.156000  0.423000  0.168100  1.0  -0.1783
  C  C59  1  0.125500  0.208300  0.236800  1.0  -0.1586
  C  C60  1  0.120000  0.381800  0.107600  1.0  0.0254
  C  C61  1  0.945400  0.558800  0.351800  1.0  -0.4245
  C  C62  1  0.092800  0.166000  0.175600  1.0  -0.0045
  C  C63  1  0.051100  0.206700  0.046100  1.0  0.7199
  C  C64  1  0.169300  0.488500  0.412300  1.0  -0.449
  C  C65  1  0.115600  0.129000  0.806500  1.0  0.7309
  C  C66  1  0.336000  0.157600  0.731300  1.0  0.0031
  C  C67  1  0.563600  0.185800  0.664600  1.0  0.7505
  C  C68  1  0.251500  0.089900  0.611300  1.0  -0.1704
  C  C69  1  0.423000  0.156000  0.668100  1.0  -0.1786
  C  C70  1  0.208300  0.125500  0.736800  1.0  -0.1569
  C  C71  1  0.381800  0.120000  0.607600  1.0  0.024
  C  C72  1  0.558800  0.945400  0.851800  1.0  -0.4242
  C  C73  1  0.166000  0.092800  0.675600  1.0  -0.0059
  C  C74  1  0.206700  0.051100  0.546100  1.0  0.7192
  C  C75  1  0.488500  0.169300  0.912300  1.0  -0.4512
  C  C76  1  0.871000  0.884400  0.693500  1.0  0.7337
  C  C77  1  0.842400  0.664000  0.768700  1.0  0.0025
  C  C78  1  0.814200  0.436400  0.835400  1.0  0.7506
  C  C79  1  0.910100  0.748500  0.888700  1.0  -0.1723
  C  C80  1  0.844000  0.577000  0.831900  1.0  -0.179
  C  C81  1  0.874500  0.791700  0.763200  1.0  -0.1555
  C  C82  1  0.880000  0.618200  0.892400  1.0  0.0255
  C  C83  1  0.054600  0.441200  0.648200  1.0  -0.4226
  C  C84  1  0.907200  0.834000  0.824400  1.0  -0.0073
  C  C85  1  0.948900  0.793300  0.953900  1.0  0.7217
  C  C86  1  0.830700  0.511500  0.587700  1.0  -0.4501
  S  S87  1  0.386700  0.964560  0.087820  1.0  0.5845
  S  S88  1  0.035440  0.613300  0.412180  1.0  0.584
  S  S89  1  0.613300  0.035440  0.912180  1.0  0.5842
  S  S90  1  0.964560  0.386700  0.587820  1.0  0.584
  O  O91  1  0.007000  0.849400  0.196980  1.0  -0.7808
  O  O92  1  0.915100  0.952900  0.454260  1.0  -0.8092
  O  O93  1  0.265000  0.904600  0.129150  1.0  -0.7114
  O  O94  1  0.358800  0.823400  0.392100  1.0  -0.7283
  O  O95  1  0.708400  0.977800  0.505000  1.0  -0.6414
  O  O96  1  0.840000  0.887400  0.134410  1.0  -0.6704
  O  O97  1  0.407600  0.782600  0.278200  1.0  -0.7034
  O  O98  1  0.150600  0.993000  0.303020  1.0  -0.7806
  O  O99  1  0.047100  0.084900  0.045740  1.0  -0.8112
  O  O100  1  0.095400  0.735000  0.370850  1.0  -0.7117
  O  O101  1  0.176600  0.641200  0.107900  1.0  -0.7307
  O  O102  1  0.022200  0.291600  0.995000  1.0  -0.6426
  O  O103  1  0.112600  0.160000  0.365590  1.0  -0.6685
  O  O104  1  0.217400  0.592400  0.221800  1.0  -0.6944
  O  O105  1  0.993000  0.150600  0.803020  1.0  -0.7792
  O  O106  1  0.084900  0.047100  0.545740  1.0  -0.8078
  O  O107  1  0.735000  0.095400  0.870850  1.0  -0.712
  O  O108  1  0.641200  0.176600  0.607900  1.0  -0.7286
  O  O109  1  0.291600  0.022200  0.495000  1.0  -0.642
  O  O110  1  0.160000  0.112600  0.865590  1.0  -0.6701
  O  O111  1  0.592400  0.217400  0.721800  1.0  -0.7018
  O  O112  1  0.849400  0.007000  0.696980  1.0  -0.7808
  O  O113  1  0.952900  0.915100  0.954260  1.0  -0.8133
  O  O114  1  0.904600  0.265000  0.629150  1.0  -0.7144
  O  O115  1  0.823400  0.358800  0.892100  1.0  -0.7314
  O  O116  1  0.977800  0.708400  0.005000  1.0  -0.6414
  O  O117  1  0.887400  0.840000  0.634410  1.0  -0.6678
  O  O118  1  0.782600  0.407600  0.778200  1.0  -0.706
