# generated using pymatgen
data_ZnH14C16(NO3)2
_symmetry_space_group_name_H-M   'P 1'
_cell_length_a   10.18410000
_cell_length_b   12.03860000
_cell_length_c   18.83000000
_cell_angle_alpha   90.00000000
_cell_angle_beta   99.15900000
_cell_angle_gamma   90.00000000
_symmetry_Int_Tables_number   1
_chemical_formula_structural   ZnH14C16(NO3)2
_chemical_formula_sum   'Zn4 H56 C64 N8 O24'
_cell_volume   2279.16773038
_cell_formula_units_Z   4
loop_
 _symmetry_equiv_pos_site_id
 _symmetry_equiv_pos_as_xyz
  1  'x, y, z'
loop_
 _atom_site_type_symbol
 _atom_site_label
 _atom_site_symmetry_multiplicity
 _atom_site_fract_x
 _atom_site_fract_y
 _atom_site_fract_z
 _atom_site_occupancy
 _atom_site_charge
  Zn  Zn1  1  0.879390  0.899210  0.673540  1.0  0.9535
  Zn  Zn2  1  0.620610  0.399210  0.826460  1.0  0.956
  Zn  Zn3  1  0.120610  0.100790  0.326460  1.0  0.9559
  Zn  Zn4  1  0.379390  0.600790  0.173540  1.0  0.954
  H  H5  1  0.291200  0.196600  0.738500  1.0  0.1044
  H  H6  1  0.067500  0.115500  0.550500  1.0  0.1098
  H  H7  1  0.378200  0.321800  0.554600  1.0  0.1102
  H  H8  1  0.638000  0.981000  0.916000  1.0  0.0855
  H  H9  1  0.526500  0.890100  0.903100  1.0  0.0793
  H  H10  1  0.595900  0.775200  0.667200  1.0  0.1182
  H  H11  1  0.487900  0.101900  0.962400  1.0  0.0751
  H  H12  1  0.379500  0.008400  0.951500  1.0  0.0757
  H  H13  1  0.398500  0.008900  0.819400  1.0  0.0981
  H  H14  1  0.514800  0.095800  0.830600  1.0  0.0908
  H  H15  1  0.435200  0.825500  0.744900  1.0  0.1342
  H  H16  1  0.840800  0.079100  0.767000  1.0  0.1475
  H  H17  1  0.753000  0.099700  0.826900  1.0  0.1449
  H  H18  1  0.712500  0.152500  0.750500  1.0  0.1447
  H  H19  1  0.208800  0.696600  0.761500  1.0  0.1051
  H  H20  1  0.432500  0.615500  0.949500  1.0  0.1108
  H  H21  1  0.121800  0.821800  0.945400  1.0  0.1097
  H  H22  1  0.862000  0.481000  0.584000  1.0  0.0859
  H  H23  1  0.973500  0.390100  0.596900  1.0  0.0784
  H  H24  1  0.904100  0.275200  0.832800  1.0  0.1179
  H  H25  1  0.012100  0.601900  0.537600  1.0  0.0746
  H  H26  1  0.120500  0.508400  0.548500  1.0  0.0754
  H  H27  1  0.101500  0.508900  0.680600  1.0  0.0985
  H  H28  1  0.985200  0.595800  0.669400  1.0  0.0906
  H  H29  1  0.064800  0.325500  0.755100  1.0  0.1346
  H  H30  1  0.659200  0.579100  0.733000  1.0  0.1451
  H  H31  1  0.747000  0.599700  0.673100  1.0  0.1525
  H  H32  1  0.787500  0.652500  0.749500  1.0  0.1442
  H  H33  1  0.708800  0.803400  0.261500  1.0  0.105
  H  H34  1  0.932500  0.884500  0.449500  1.0  0.1115
  H  H35  1  0.621800  0.678200  0.445400  1.0  0.1097
  H  H36  1  0.362000  0.019000  0.084000  1.0  0.0857
  H  H37  1  0.473500  0.109900  0.096900  1.0  0.079
  H  H38  1  0.404100  0.224800  0.332800  1.0  0.1181
  H  H39  1  0.512100  0.898100  0.037600  1.0  0.0745
  H  H40  1  0.620500  0.991600  0.048500  1.0  0.0756
  H  H41  1  0.601500  0.991100  0.180600  1.0  0.0987
  H  H42  1  0.485200  0.904200  0.169400  1.0  0.0929
  H  H43  1  0.564800  0.174500  0.255100  1.0  0.1346
  H  H44  1  0.159200  0.920900  0.233000  1.0  0.1455
  H  H45  1  0.247000  0.900300  0.173100  1.0  0.1527
  H  H46  1  0.287500  0.847500  0.249500  1.0  0.1443
  H  H47  1  0.791200  0.303400  0.238500  1.0  0.1043
  H  H48  1  0.567500  0.384500  0.050500  1.0  0.1105
  H  H49  1  0.878200  0.178200  0.054600  1.0  0.11
  H  H50  1  0.138000  0.519000  0.416000  1.0  0.0855
  H  H51  1  0.026500  0.609900  0.403100  1.0  0.0781
  H  H52  1  0.095900  0.724800  0.167200  1.0  0.1182
  H  H53  1  0.987900  0.398100  0.462400  1.0  0.0744
  H  H54  1  0.879500  0.491600  0.451500  1.0  0.0758
  H  H55  1  0.898500  0.491100  0.319400  1.0  0.0978
  H  H56  1  0.014800  0.404200  0.330600  1.0  0.0909
  H  H57  1  0.935200  0.674500  0.244900  1.0  0.1344
  H  H58  1  0.340800  0.420900  0.267000  1.0  0.1471
  H  H59  1  0.253000  0.400300  0.326900  1.0  0.1447
  H  H60  1  0.212500  0.347500  0.250500  1.0  0.1426
  C  C61  1  0.074800  0.080100  0.692000  1.0  0.6516
  C  C62  1  0.477100  0.323600  0.694200  1.0  0.6488
  C  C63  1  0.272600  0.203300  0.688730  1.0  0.0052
  C  C64  1  0.138600  0.154300  0.576180  1.0  0.0297
  C  C65  1  0.220400  0.218000  0.539750  1.0  -0.1647
  C  C66  1  0.162700  0.148400  0.651130  1.0  -0.1671
  C  C67  1  0.355100  0.267900  0.653290  1.0  -0.1564
  C  C68  1  0.672600  0.989400  0.752610  1.0  0.4086
  C  C69  1  0.326100  0.276400  0.578810  1.0  0.0212
  C  C70  1  0.542700  0.969500  0.904130  1.0  -0.1443
  C  C71  1  0.704400  0.280900  0.958270  1.0  0.6713
  C  C72  1  0.601200  0.836900  0.697160  1.0  0.072
  C  C73  1  0.474400  0.022100  0.962640  1.0  -0.0959
  C  C74  1  0.494400  0.017100  0.830490  1.0  -0.0106
  C  C75  1  0.512000  0.864500  0.739820  1.0  -0.1038
  C  C76  1  0.751600  0.088800  0.776300  1.0  -0.4572
  C  C77  1  0.425200  0.580100  0.808000  1.0  0.6517
  C  C78  1  0.022900  0.823600  0.805800  1.0  0.6489
  C  C79  1  0.227400  0.703300  0.811270  1.0  0.0047
  C  C80  1  0.361400  0.654300  0.923820  1.0  0.0306
  C  C81  1  0.279600  0.718000  0.960250  1.0  -0.1644
  C  C82  1  0.337300  0.648400  0.848870  1.0  -0.1662
  C  C83  1  0.144900  0.767900  0.846710  1.0  -0.1568
  C  C84  1  0.827400  0.489400  0.747390  1.0  0.4103
  C  C85  1  0.173900  0.776400  0.921190  1.0  0.0212
  C  C86  1  0.957300  0.469500  0.595870  1.0  -0.1418
  C  C87  1  0.795600  0.780900  0.541730  1.0  0.667
  C  C88  1  0.898800  0.336900  0.802840  1.0  0.0704
  C  C89  1  0.025600  0.522100  0.537360  1.0  -0.0972
  C  C90  1  0.005600  0.517100  0.669510  1.0  -0.0104
  C  C91  1  0.988000  0.364500  0.760180  1.0  -0.1024
  C  C92  1  0.748400  0.588800  0.723700  1.0  -0.4551
  C  C93  1  0.925200  0.919900  0.308000  1.0  0.6508
  C  C94  1  0.522900  0.676400  0.305800  1.0  0.649
  C  C95  1  0.727400  0.796700  0.311270  1.0  0.0041
  C  C96  1  0.861400  0.845700  0.423820  1.0  0.0303
  C  C97  1  0.779600  0.782000  0.460250  1.0  -0.1638
  C  C98  1  0.837300  0.851600  0.348870  1.0  -0.165
  C  C99  1  0.644900  0.732100  0.346710  1.0  -0.1568
  C  C100  1  0.327400  0.010600  0.247390  1.0  0.4102
  C  C101  1  0.673900  0.723600  0.421190  1.0  0.0211
  C  C102  1  0.457300  0.030500  0.095870  1.0  -0.1384
  C  C103  1  0.295600  0.719100  0.041730  1.0  0.6652
  C  C104  1  0.398800  0.163100  0.302840  1.0  0.0698
  C  C105  1  0.525600  0.977900  0.037360  1.0  -0.0975
  C  C106  1  0.505600  0.982900  0.169510  1.0  -0.011
  C  C107  1  0.488000  0.135500  0.260180  1.0  -0.1027
  C  C108  1  0.248400  0.911200  0.223700  1.0  -0.456
  C  C109  1  0.574800  0.419900  0.192000  1.0  0.6508
  C  C110  1  0.977100  0.176400  0.194200  1.0  0.6486
  C  C111  1  0.772600  0.296700  0.188730  1.0  0.0049
  C  C112  1  0.638600  0.345700  0.076180  1.0  0.0296
  C  C113  1  0.720400  0.282000  0.039750  1.0  -0.1644
  C  C114  1  0.662700  0.351600  0.151130  1.0  -0.1653
  C  C115  1  0.855100  0.232100  0.153290  1.0  -0.1563
  C  C116  1  0.172600  0.510600  0.252610  1.0  0.4093
  C  C117  1  0.826100  0.223600  0.078810  1.0  0.0211
  C  C118  1  0.042700  0.530500  0.404130  1.0  -0.1424
  C  C119  1  0.204400  0.219100  0.458270  1.0  0.669
  C  C120  1  0.101200  0.663100  0.197160  1.0  0.0707
  C  C121  1  0.974400  0.477900  0.462640  1.0  -0.0959
  C  C122  1  0.994400  0.482900  0.330490  1.0  -0.0115
  C  C123  1  0.012000  0.635500  0.239820  1.0  -0.1031
  C  C124  1  0.251600  0.411200  0.276300  1.0  -0.4571
  N  N125  1  0.701400  0.914770  0.705020  1.0  -0.4855
  N  N126  1  0.556300  0.961440  0.774400  1.0  -0.0089
  N  N127  1  0.798600  0.414770  0.794980  1.0  -0.4882
  N  N128  1  0.943700  0.461440  0.725600  1.0  -0.0093
  N  N129  1  0.298600  0.085230  0.294980  1.0  -0.4883
  N  N130  1  0.443700  0.038560  0.225600  1.0  -0.0095
  N  N131  1  0.201400  0.585230  0.205020  1.0  -0.4854
  N  N132  1  0.056300  0.538560  0.274400  1.0  -0.009
  O  O133  1  0.972450  0.037710  0.654490  1.0  -0.5773
  O  O134  1  0.494040  0.308150  0.763090  1.0  -0.6033
  O  O135  1  0.625150  0.353530  0.926830  1.0  -0.5742
  O  O136  1  0.107100  0.068950  0.757950  1.0  -0.4672
  O  O137  1  0.769300  0.215700  0.928380  1.0  -0.4965
  O  O138  1  0.051250  0.122930  0.161500  1.0  -0.4703
  O  O139  1  0.527550  0.537710  0.845510  1.0  -0.5774
  O  O140  1  0.005960  0.808150  0.736910  1.0  -0.6024
  O  O141  1  0.874850  0.853530  0.573170  1.0  -0.5745
  O  O142  1  0.392900  0.568950  0.742050  1.0  -0.4681
  O  O143  1  0.730700  0.715700  0.571620  1.0  -0.4974
  O  O144  1  0.448750  0.622930  0.338500  1.0  -0.4683
  O  O145  1  0.027550  0.962290  0.345510  1.0  -0.5776
  O  O146  1  0.505960  0.691850  0.236910  1.0  -0.6024
  O  O147  1  0.374850  0.646470  0.073170  1.0  -0.5764
  O  O148  1  0.892900  0.931050  0.242050  1.0  -0.467
  O  O149  1  0.230700  0.784300  0.071620  1.0  -0.4967
  O  O150  1  0.948750  0.877070  0.838500  1.0  -0.4683
  O  O151  1  0.472450  0.462290  0.154490  1.0  -0.5771
  O  O152  1  0.994040  0.191850  0.263090  1.0  -0.603
  O  O153  1  0.125150  0.146470  0.426830  1.0  -0.5765
  O  O154  1  0.607100  0.431050  0.257950  1.0  -0.4674
  O  O155  1  0.269300  0.284300  0.428380  1.0  -0.4962
  O  O156  1  0.551250  0.377070  0.661500  1.0  -0.4699
