# generated using pymatgen
data_Co3H33C35O12
_symmetry_space_group_name_H-M   'P 1'
_cell_length_a   16.22440000
_cell_length_b   20.98690000
_cell_length_c   12.84910000
_cell_angle_alpha   90.00000000
_cell_angle_beta   90.00000000
_cell_angle_gamma   90.00000000
_symmetry_Int_Tables_number   1
_chemical_formula_structural   Co3H33C35O12
_chemical_formula_sum   'Co12 H132 C140 O48'
_cell_volume   4375.11675575
_cell_formula_units_Z   4
loop_
 _symmetry_equiv_pos_site_id
 _symmetry_equiv_pos_as_xyz
  1  'x, y, z'
loop_
 _atom_site_type_symbol
 _atom_site_label
 _atom_site_symmetry_multiplicity
 _atom_site_fract_x
 _atom_site_fract_y
 _atom_site_fract_z
 _atom_site_occupancy
 _atom_site_charge
  Co  Co1  1  0.669230  0.196860  0.025820  1.0  1.0166
  Co  Co2  1  0.830770  0.803140  0.025820  1.0  1.0179
  Co  Co3  1  0.830770  0.696860  0.474180  1.0  1.0171
  Co  Co4  1  0.669230  0.303140  0.474180  1.0  1.0174
  Co  Co5  1  0.330770  0.803140  0.974180  1.0  1.0178
  Co  Co6  1  0.169230  0.196860  0.974180  1.0  1.0166
  Co  Co7  1  0.169230  0.303140  0.525820  1.0  1.0165
  Co  Co8  1  0.330770  0.696860  0.525820  1.0  1.0172
  Co  Co9  1  0.232910  0.250000  0.250000  1.0  0.9848
  Co  Co10  1  0.267090  0.750000  0.250000  1.0  0.9855
  Co  Co11  1  0.767090  0.750000  0.750000  1.0  0.9855
  Co  Co12  1  0.732910  0.250000  0.750000  1.0  0.9848
  H  H13  1  0.923100  0.248600  0.063600  1.0  0.1234
  H  H14  1  0.054700  0.369900  0.242300  1.0  0.1197
  H  H15  1  0.806900  0.375000  0.250600  1.0  0.1282
  H  H16  1  0.947600  0.441100  0.493500  1.0  0.106
  H  H17  1  0.996600  0.382900  0.442200  1.0  0.1144
  H  H18  1  0.898700  0.379200  0.455300  1.0  0.1136
  H  H19  1  0.849900  0.496100  0.273400  1.0  0.1141
  H  H20  1  0.863000  0.507100  0.395600  1.0  0.1087
  H  H21  1  0.811300  0.447000  0.355300  1.0  0.1081
  H  H22  1  0.999900  0.499200  0.249700  1.0  0.1119
  H  H23  1  0.056700  0.453700  0.319500  1.0  0.1019
  H  H24  1  0.007800  0.511600  0.372200  1.0  0.11
  H  H25  1  0.230300  0.094800  0.322900  1.0  0.1133
  H  H26  1  0.230500  0.049600  0.584900  1.0  0.1228
  H  H27  1  0.172200  0.065900  0.488000  1.0  0.1302
  H  H28  1  0.266400  0.088300  0.487700  1.0  0.1121
  H  H29  1  0.576900  0.751400  0.063600  1.0  0.1234
  H  H30  1  0.445300  0.630100  0.242300  1.0  0.1195
  H  H31  1  0.693100  0.625000  0.250600  1.0  0.1288
  H  H32  1  0.552400  0.558900  0.493500  1.0  0.1057
  H  H33  1  0.503400  0.617100  0.442200  1.0  0.1114
  H  H34  1  0.601300  0.620800  0.455300  1.0  0.1124
  H  H35  1  0.650100  0.503900  0.273400  1.0  0.1141
  H  H36  1  0.637000  0.492900  0.395600  1.0  0.109
  H  H37  1  0.688700  0.553000  0.355300  1.0  0.1102
  H  H38  1  0.500100  0.500800  0.249700  1.0  0.1112
  H  H39  1  0.443300  0.546300  0.319500  1.0  0.1021
  H  H40  1  0.492200  0.488400  0.372200  1.0  0.1101
  H  H41  1  0.269700  0.905200  0.322900  1.0  0.1141
  H  H42  1  0.269500  0.950400  0.584900  1.0  0.1231
  H  H43  1  0.327800  0.934100  0.488000  1.0  0.1307
  H  H44  1  0.233600  0.911700  0.487700  1.0  0.1109
  H  H45  1  0.576900  0.748600  0.436400  1.0  0.1232
  H  H46  1  0.445300  0.869900  0.257700  1.0  0.1191
  H  H47  1  0.693100  0.875000  0.249400  1.0  0.1291
  H  H48  1  0.552400  0.941100  0.006500  1.0  0.1046
  H  H49  1  0.503400  0.882900  0.057800  1.0  0.1118
  H  H50  1  0.601300  0.879200  0.044700  1.0  0.113
  H  H51  1  0.650100  0.996100  0.226600  1.0  0.1136
  H  H52  1  0.637000  0.007100  0.104400  1.0  0.1093
  H  H53  1  0.688700  0.947000  0.144700  1.0  0.1098
  H  H54  1  0.500100  0.999200  0.250300  1.0  0.1109
  H  H55  1  0.443300  0.953700  0.180500  1.0  0.1022
  H  H56  1  0.492200  0.011600  0.127800  1.0  0.1111
  H  H57  1  0.269700  0.594800  0.177100  1.0  0.1142
  H  H58  1  0.269500  0.549600  0.915100  1.0  0.1226
  H  H59  1  0.327800  0.565900  0.012000  1.0  0.1316
  H  H60  1  0.233600  0.588300  0.012300  1.0  0.1124
  H  H61  1  0.923100  0.251400  0.436400  1.0  0.1231
  H  H62  1  0.054700  0.130100  0.257700  1.0  0.1194
  H  H63  1  0.806900  0.125000  0.249400  1.0  0.1291
  H  H64  1  0.947600  0.058900  0.006500  1.0  0.1049
  H  H65  1  0.996600  0.117100  0.057800  1.0  0.1143
  H  H66  1  0.898700  0.120800  0.044700  1.0  0.1129
  H  H67  1  0.849900  0.003900  0.226600  1.0  0.1136
  H  H68  1  0.863000  0.992900  0.104400  1.0  0.1092
  H  H69  1  0.811300  0.053000  0.144700  1.0  0.108
  H  H70  1  0.999900  0.000800  0.250300  1.0  0.112
  H  H71  1  0.056700  0.046300  0.180500  1.0  0.1025
  H  H72  1  0.007800  0.988400  0.127800  1.0  0.1112
  H  H73  1  0.230300  0.405200  0.177100  1.0  0.1136
  H  H74  1  0.230500  0.450400  0.915100  1.0  0.1217
  H  H75  1  0.172200  0.434100  0.012000  1.0  0.1298
  H  H76  1  0.266400  0.411700  0.012300  1.0  0.1115
  H  H77  1  0.076900  0.751400  0.936400  1.0  0.1232
  H  H78  1  0.945300  0.630100  0.757700  1.0  0.1192
  H  H79  1  0.193100  0.625000  0.749400  1.0  0.1291
  H  H80  1  0.052400  0.558900  0.506500  1.0  0.1049
  H  H81  1  0.003400  0.617100  0.557800  1.0  0.1119
  H  H82  1  0.101300  0.620800  0.544700  1.0  0.1134
  H  H83  1  0.150100  0.503900  0.726600  1.0  0.1138
  H  H84  1  0.137000  0.492900  0.604400  1.0  0.109
  H  H85  1  0.188700  0.553000  0.644700  1.0  0.1097
  H  H86  1  0.000100  0.500800  0.750300  1.0  0.1117
  H  H87  1  0.943300  0.546300  0.680500  1.0  0.1028
  H  H88  1  0.992200  0.488400  0.627800  1.0  0.1113
  H  H89  1  0.769700  0.905200  0.677100  1.0  0.1138
  H  H90  1  0.769500  0.950400  0.415100  1.0  0.1219
  H  H91  1  0.827800  0.934100  0.512000  1.0  0.1311
  H  H92  1  0.733600  0.911700  0.512300  1.0  0.1115
  H  H93  1  0.423100  0.248600  0.936400  1.0  0.1231
  H  H94  1  0.554700  0.369900  0.757700  1.0  0.1194
  H  H95  1  0.306900  0.375000  0.749400  1.0  0.1289
  H  H96  1  0.447600  0.441100  0.506500  1.0  0.1047
  H  H97  1  0.496600  0.382900  0.557800  1.0  0.1145
  H  H98  1  0.398700  0.379200  0.544700  1.0  0.1123
  H  H99  1  0.349900  0.496100  0.726600  1.0  0.1131
  H  H100  1  0.363000  0.507100  0.604400  1.0  0.1094
  H  H101  1  0.311300  0.447000  0.644700  1.0  0.1078
  H  H102  1  0.499900  0.499200  0.750300  1.0  0.1114
  H  H103  1  0.556700  0.453700  0.680500  1.0  0.1022
  H  H104  1  0.507800  0.511600  0.627800  1.0  0.1111
  H  H105  1  0.730300  0.094800  0.677100  1.0  0.1137
  H  H106  1  0.730500  0.049600  0.415100  1.0  0.1217
  H  H107  1  0.672200  0.065900  0.512000  1.0  0.1297
  H  H108  1  0.766400  0.088300  0.512300  1.0  0.1121
  H  H109  1  0.423100  0.251400  0.563600  1.0  0.1235
  H  H110  1  0.554700  0.130100  0.742300  1.0  0.1195
  H  H111  1  0.306900  0.125000  0.750600  1.0  0.1283
  H  H112  1  0.447600  0.058900  0.993500  1.0  0.1057
  H  H113  1  0.496600  0.117100  0.942200  1.0  0.1131
  H  H114  1  0.398700  0.120800  0.955300  1.0  0.1118
  H  H115  1  0.349900  0.003900  0.773400  1.0  0.1138
  H  H116  1  0.363000  0.992900  0.895600  1.0  0.1093
  H  H117  1  0.311300  0.053000  0.855300  1.0  0.1084
  H  H118  1  0.499900  0.000800  0.749700  1.0  0.1108
  H  H119  1  0.556700  0.046300  0.819500  1.0  0.1017
  H  H120  1  0.507800  0.988400  0.872200  1.0  0.1104
  H  H121  1  0.730300  0.405200  0.822900  1.0  0.1138
  H  H122  1  0.730500  0.450400  0.084900  1.0  0.1238
  H  H123  1  0.672200  0.434100  0.988000  1.0  0.1302
  H  H124  1  0.766400  0.411700  0.987700  1.0  0.1111
  H  H125  1  0.076900  0.748600  0.563600  1.0  0.1233
  H  H126  1  0.945300  0.869900  0.742300  1.0  0.1198
  H  H127  1  0.193100  0.875000  0.750600  1.0  0.1288
  H  H128  1  0.052400  0.941100  0.993500  1.0  0.106
  H  H129  1  0.003400  0.882900  0.942200  1.0  0.1123
  H  H130  1  0.101300  0.879200  0.955300  1.0  0.1143
  H  H131  1  0.150100  0.996100  0.773400  1.0  0.1146
  H  H132  1  0.137000  0.007100  0.895600  1.0  0.1085
  H  H133  1  0.188700  0.947000  0.855300  1.0  0.1103
  H  H134  1  0.000100  0.999200  0.749700  1.0  0.1119
  H  H135  1  0.943300  0.953700  0.819500  1.0  0.1018
  H  H136  1  0.992200  0.011600  0.872200  1.0  0.1095
  H  H137  1  0.769700  0.594800  0.822900  1.0  0.1139
  H  H138  1  0.769500  0.549600  0.084900  1.0  0.1215
  H  H139  1  0.827800  0.565900  0.988000  1.0  0.1312
  H  H140  1  0.733600  0.588300  0.987700  1.0  0.1122
  H  H141  1  0.250000  0.000000  0.051300  1.0  0.1206
  H  H142  1  0.250000  0.500000  0.448700  1.0  0.1206
  H  H143  1  0.750000  0.000000  0.948700  1.0  0.1206
  H  H144  1  0.750000  0.500000  0.551300  1.0  0.1206
  C  C145  1  0.771600  0.282600  0.118600  1.0  0.6711
  C  C146  1  0.852900  0.308810  0.151600  1.0  -0.1268
  C  C147  1  0.925400  0.282310  0.112900  1.0  -0.0233
  C  C148  1  0.000500  0.305270  0.146600  1.0  -0.1185
  C  C149  1  0.002800  0.354600  0.218900  1.0  -0.1307
  C  C150  1  0.931500  0.382200  0.257700  1.0  0.016
  C  C151  1  0.856600  0.357700  0.223700  1.0  -0.1326
  C  C152  1  0.078000  0.276800  0.107000  1.0  0.6993
  C  C153  1  0.934700  0.436600  0.336700  1.0  0.2183
  C  C154  1  0.945300  0.407500  0.440700  1.0  -0.3668
  C  C155  1  0.858300  0.474900  0.340600  1.0  -0.3842
  C  C156  1  0.005700  0.478800  0.318000  1.0  -0.3782
  C  C157  1  0.220200  0.116440  0.121400  1.0  0.6794
  C  C158  1  0.238000  0.055920  0.179100  1.0  -0.1069
  C  C159  1  0.238300  0.055900  0.286600  1.0  -0.131
  C  C160  1  0.228300  0.054500  0.509100  1.0  -0.3574
  C  C161  1  0.728400  0.717400  0.118600  1.0  0.6718
  C  C162  1  0.647100  0.691190  0.151600  1.0  -0.125
  C  C163  1  0.574600  0.717690  0.112900  1.0  -0.0229
  C  C164  1  0.499500  0.694730  0.146600  1.0  -0.1193
  C  C165  1  0.497200  0.645400  0.218900  1.0  -0.1298
  C  C166  1  0.568500  0.617800  0.257700  1.0  0.0152
  C  C167  1  0.643400  0.642300  0.223700  1.0  -0.1325
  C  C168  1  0.422000  0.723200  0.107000  1.0  0.7001
  C  C169  1  0.565300  0.563400  0.336700  1.0  0.2189
  C  C170  1  0.554700  0.592500  0.440700  1.0  -0.3666
  C  C171  1  0.641700  0.525100  0.340600  1.0  -0.3868
  C  C172  1  0.494300  0.521200  0.318000  1.0  -0.3776
  C  C173  1  0.279800  0.883560  0.121400  1.0  0.6789
  C  C174  1  0.262000  0.944080  0.179100  1.0  -0.1055
  C  C175  1  0.261700  0.944100  0.286600  1.0  -0.1312
  C  C176  1  0.271700  0.945500  0.509100  1.0  -0.3585
  C  C177  1  0.728400  0.782600  0.381400  1.0  0.6723
  C  C178  1  0.647100  0.808810  0.348400  1.0  -0.1257
  C  C179  1  0.574600  0.782310  0.387100  1.0  -0.0247
  C  C180  1  0.499500  0.805270  0.353400  1.0  -0.1199
  C  C181  1  0.497200  0.854600  0.281100  1.0  -0.1284
  C  C182  1  0.568500  0.882200  0.242300  1.0  0.0165
  C  C183  1  0.643400  0.857700  0.276300  1.0  -0.1324
  C  C184  1  0.422000  0.776800  0.393000  1.0  0.6982
  C  C185  1  0.565300  0.936600  0.163300  1.0  0.2217
  C  C186  1  0.554700  0.907500  0.059300  1.0  -0.3667
  C  C187  1  0.641700  0.974900  0.159400  1.0  -0.3841
  C  C188  1  0.494300  0.978800  0.182000  1.0  -0.3792
  C  C189  1  0.279800  0.616440  0.378600  1.0  0.6797
  C  C190  1  0.262000  0.555920  0.320900  1.0  -0.1064
  C  C191  1  0.261700  0.555900  0.213400  1.0  -0.1301
  C  C192  1  0.271700  0.554500  0.990900  1.0  -0.3586
  C  C193  1  0.771600  0.217400  0.381400  1.0  0.6716
  C  C194  1  0.852900  0.191190  0.348400  1.0  -0.1264
  C  C195  1  0.925400  0.217690  0.387100  1.0  -0.0244
  C  C196  1  0.000500  0.194730  0.353400  1.0  -0.1197
  C  C197  1  0.002800  0.145400  0.281100  1.0  -0.1271
  C  C198  1  0.931500  0.117800  0.242300  1.0  0.0163
  C  C199  1  0.856600  0.142300  0.276300  1.0  -0.1327
  C  C200  1  0.078000  0.223200  0.393000  1.0  0.7019
  C  C201  1  0.934700  0.063400  0.163300  1.0  0.2222
  C  C202  1  0.945300  0.092500  0.059300  1.0  -0.3663
  C  C203  1  0.858300  0.025100  0.159400  1.0  -0.3844
  C  C204  1  0.005700  0.021200  0.182000  1.0  -0.3778
  C  C205  1  0.220200  0.383560  0.378600  1.0  0.6801
  C  C206  1  0.238000  0.444080  0.320900  1.0  -0.1058
  C  C207  1  0.238300  0.444100  0.213400  1.0  -0.1299
  C  C208  1  0.228300  0.445500  0.990900  1.0  -0.357
  C  C209  1  0.228400  0.717400  0.881400  1.0  0.6723
  C  C210  1  0.147100  0.691190  0.848400  1.0  -0.1257
  C  C211  1  0.074600  0.717690  0.887100  1.0  -0.0242
  C  C212  1  0.999500  0.694730  0.853400  1.0  -0.1199
  C  C213  1  0.997200  0.645400  0.781100  1.0  -0.1287
  C  C214  1  0.068500  0.617800  0.742300  1.0  0.0165
  C  C215  1  0.143400  0.642300  0.776300  1.0  -0.1324
  C  C216  1  0.922000  0.723200  0.893000  1.0  0.6989
  C  C217  1  0.065300  0.563400  0.663300  1.0  0.2223
  C  C218  1  0.054700  0.592500  0.559300  1.0  -0.3661
  C  C219  1  0.141700  0.525100  0.659400  1.0  -0.3856
  C  C220  1  0.994300  0.521200  0.682000  1.0  -0.3782
  C  C221  1  0.779800  0.883560  0.878600  1.0  0.6794
  C  C222  1  0.762000  0.944080  0.820900  1.0  -0.1059
  C  C223  1  0.761700  0.944100  0.713400  1.0  -0.1306
  C  C224  1  0.771700  0.945500  0.490900  1.0  -0.3593
  C  C225  1  0.271600  0.282600  0.881400  1.0  0.6714
  C  C226  1  0.352900  0.308810  0.848400  1.0  -0.1265
  C  C227  1  0.425400  0.282310  0.887100  1.0  -0.0247
  C  C228  1  0.500500  0.305270  0.853400  1.0  -0.1199
  C  C229  1  0.502800  0.354600  0.781100  1.0  -0.1272
  C  C230  1  0.431500  0.382200  0.742300  1.0  0.0163
  C  C231  1  0.356600  0.357700  0.776300  1.0  -0.1323
  C  C232  1  0.578000  0.276800  0.893000  1.0  0.7012
  C  C233  1  0.434700  0.436600  0.663300  1.0  0.2217
  C  C234  1  0.445300  0.407500  0.559300  1.0  -0.3671
  C  C235  1  0.358300  0.474900  0.659400  1.0  -0.3833
  C  C236  1  0.505700  0.478800  0.682000  1.0  -0.3776
  C  C237  1  0.720200  0.116440  0.878600  1.0  0.6797
  C  C238  1  0.738000  0.055920  0.820900  1.0  -0.1066
  C  C239  1  0.738300  0.055900  0.713400  1.0  -0.1302
  C  C240  1  0.728300  0.054500  0.490900  1.0  -0.3567
  C  C241  1  0.271600  0.217400  0.618600  1.0  0.6713
  C  C242  1  0.352900  0.191190  0.651600  1.0  -0.1262
  C  C243  1  0.425400  0.217690  0.612900  1.0  -0.0229
  C  C244  1  0.500500  0.194730  0.646600  1.0  -0.1187
  C  C245  1  0.502800  0.145400  0.718900  1.0  -0.1309
  C  C246  1  0.431500  0.117800  0.757700  1.0  0.015
  C  C247  1  0.356600  0.142300  0.723700  1.0  -0.1325
  C  C248  1  0.578000  0.223200  0.607000  1.0  0.6993
  C  C249  1  0.434700  0.063400  0.836700  1.0  0.2187
  C  C250  1  0.445300  0.092500  0.940700  1.0  -0.3663
  C  C251  1  0.358300  0.025100  0.840600  1.0  -0.3851
  C  C252  1  0.505700  0.021200  0.818000  1.0  -0.3785
  C  C253  1  0.720200  0.383560  0.621400  1.0  0.6794
  C  C254  1  0.738000  0.444080  0.679100  1.0  -0.1062
  C  C255  1  0.738300  0.444100  0.786600  1.0  -0.1304
  C  C256  1  0.728300  0.445500  0.009100  1.0  -0.3572
  C  C257  1  0.228400  0.782600  0.618600  1.0  0.6717
  C  C258  1  0.147100  0.808810  0.651600  1.0  -0.1253
  C  C259  1  0.074600  0.782310  0.612900  1.0  -0.0232
  C  C260  1  0.999500  0.805270  0.646600  1.0  -0.1186
  C  C261  1  0.997200  0.854600  0.718900  1.0  -0.1298
  C  C262  1  0.068500  0.882200  0.757700  1.0  0.0162
  C  C263  1  0.143400  0.857700  0.723700  1.0  -0.1329
  C  C264  1  0.922000  0.776800  0.607000  1.0  0.7
  C  C265  1  0.065300  0.936600  0.836700  1.0  0.2185
  C  C266  1  0.054700  0.907500  0.940700  1.0  -0.367
  C  C267  1  0.141700  0.974900  0.840600  1.0  -0.3849
  C  C268  1  0.994300  0.978800  0.818000  1.0  -0.3785
  C  C269  1  0.779800  0.616440  0.621400  1.0  0.6796
  C  C270  1  0.762000  0.555920  0.679100  1.0  -0.1058
  C  C271  1  0.761700  0.555900  0.786600  1.0  -0.131
  C  C272  1  0.771700  0.554500  0.009100  1.0  -0.3581
  C  C273  1  0.250000  0.000000  0.342700  1.0  0.0384
  C  C274  1  0.250000  0.000000  0.463900  1.0  0.3368
  C  C275  1  0.250000  0.000000  0.125300  1.0  -0.0307
  C  C276  1  0.250000  0.500000  0.157300  1.0  0.0379
  C  C277  1  0.250000  0.500000  0.036100  1.0  0.3362
  C  C278  1  0.250000  0.500000  0.374700  1.0  -0.0312
  C  C279  1  0.750000  0.000000  0.657300  1.0  0.0379
  C  C280  1  0.750000  0.000000  0.536100  1.0  0.3362
  C  C281  1  0.750000  0.000000  0.874700  1.0  -0.0312
  C  C282  1  0.750000  0.500000  0.842700  1.0  0.0384
  C  C283  1  0.750000  0.500000  0.963900  1.0  0.3368
  C  C284  1  0.750000  0.500000  0.625300  1.0  -0.0307
  O  O285  1  0.706500  0.300490  0.158700  1.0  -0.5455
  O  O286  1  0.773640  0.240840  0.046200  1.0  -0.5989
  O  O287  1  0.071990  0.240250  0.027900  1.0  -0.5896
  O  O288  1  0.144300  0.288890  0.151100  1.0  -0.5969
  O  O289  1  0.194300  0.112260  0.030200  1.0  -0.5806
  O  O290  1  0.231400  0.168180  0.164200  1.0  -0.7022
  O  O291  1  0.793500  0.699510  0.158700  1.0  -0.5436
  O  O292  1  0.726360  0.759160  0.046200  1.0  -0.5988
  O  O293  1  0.428010  0.759750  0.027900  1.0  -0.5893
  O  O294  1  0.355700  0.711110  0.151100  1.0  -0.5975
  O  O295  1  0.305700  0.887740  0.030200  1.0  -0.5809
  O  O296  1  0.268600  0.831820  0.164200  1.0  -0.7013
  O  O297  1  0.793500  0.800490  0.341300  1.0  -0.5438
  O  O298  1  0.726360  0.740840  0.453800  1.0  -0.597
  O  O299  1  0.428010  0.740250  0.472100  1.0  -0.5898
  O  O300  1  0.355700  0.788890  0.348900  1.0  -0.5973
  O  O301  1  0.305700  0.612260  0.469800  1.0  -0.5802
  O  O302  1  0.268600  0.668180  0.335800  1.0  -0.704
  O  O303  1  0.706500  0.199510  0.341300  1.0  -0.5461
  O  O304  1  0.773640  0.259160  0.453800  1.0  -0.5976
  O  O305  1  0.071990  0.259750  0.472100  1.0  -0.59
  O  O306  1  0.144300  0.211110  0.348900  1.0  -0.597
  O  O307  1  0.194300  0.387740  0.469800  1.0  -0.5788
  O  O308  1  0.231400  0.331820  0.335800  1.0  -0.7006
  O  O309  1  0.293500  0.699510  0.841300  1.0  -0.5433
  O  O310  1  0.226360  0.759160  0.953800  1.0  -0.597
  O  O311  1  0.928010  0.759750  0.972100  1.0  -0.5893
  O  O312  1  0.855700  0.711110  0.848900  1.0  -0.5973
  O  O313  1  0.805700  0.887740  0.969800  1.0  -0.579
  O  O314  1  0.768600  0.831820  0.835800  1.0  -0.7026
  O  O315  1  0.206500  0.300490  0.841300  1.0  -0.5462
  O  O316  1  0.273640  0.240840  0.953800  1.0  -0.5977
  O  O317  1  0.571990  0.240250  0.972100  1.0  -0.5901
  O  O318  1  0.644300  0.288890  0.848900  1.0  -0.5969
  O  O319  1  0.694300  0.112260  0.969800  1.0  -0.5795
  O  O320  1  0.731400  0.168180  0.835800  1.0  -0.7015
  O  O321  1  0.206500  0.199510  0.658700  1.0  -0.5449
  O  O322  1  0.273640  0.259160  0.546200  1.0  -0.5992
  O  O323  1  0.571990  0.259750  0.527900  1.0  -0.5892
  O  O324  1  0.644300  0.211110  0.651100  1.0  -0.597
  O  O325  1  0.694300  0.387740  0.530200  1.0  -0.5803
  O  O326  1  0.731400  0.331820  0.664200  1.0  -0.7005
  O  O327  1  0.293500  0.800490  0.658700  1.0  -0.5444
  O  O328  1  0.226360  0.740840  0.546200  1.0  -0.5984
  O  O329  1  0.928010  0.740250  0.527900  1.0  -0.5898
  O  O330  1  0.855700  0.788890  0.651100  1.0  -0.5975
  O  O331  1  0.805700  0.612260  0.530200  1.0  -0.5816
  O  O332  1  0.768600  0.668180  0.664200  1.0  -0.7037
