# generated using pymatgen
data_InH3C10(NO2)4
_symmetry_space_group_name_H-M   'P 1'
_cell_length_a   26.90070000
_cell_length_b   26.90070000
_cell_length_c   26.90070000
_cell_angle_alpha   109.47100000
_cell_angle_beta   109.47100000
_cell_angle_gamma   109.47100000
_symmetry_Int_Tables_number   1
_chemical_formula_structural   InH3C10(NO2)4
_chemical_formula_sum   'In24 H72 C240 N96 O192'
_cell_volume   14985.54011033
_cell_formula_units_Z   24
loop_
 _symmetry_equiv_pos_site_id
 _symmetry_equiv_pos_as_xyz
  1  'x, y, z'
loop_
 _atom_site_type_symbol
 _atom_site_label
 _atom_site_symmetry_multiplicity
 _atom_site_fract_x
 _atom_site_fract_y
 _atom_site_fract_z
 _atom_site_occupancy
 _atom_site_charge
  In  In1  1  0.354420  0.854420  0.708840  1.0  1.4126
  In  In2  1  0.145580  0.645580  0.291160  1.0  1.4134
  In  In3  1  0.854420  0.145580  0.500000  1.0  1.4082
  In  In4  1  0.645580  0.354420  0.500000  1.0  1.4082
  In  In5  1  0.500000  0.854420  0.145580  1.0  1.4128
  In  In6  1  0.500000  0.645580  0.354420  1.0  1.4131
  In  In7  1  0.708840  0.354420  0.854420  1.0  1.4078
  In  In8  1  0.291160  0.145580  0.645580  1.0  1.4089
  In  In9  1  0.645580  0.291160  0.145580  1.0  1.4134
  In  In10  1  0.854420  0.708840  0.354420  1.0  1.4132
  In  In11  1  0.354420  0.500000  0.645580  1.0  1.4129
  In  In12  1  0.145580  0.500000  0.854420  1.0  1.4132
  In  In13  1  0.645580  0.145580  0.291160  1.0  1.4134
  In  In14  1  0.854420  0.354420  0.708840  1.0  1.4126
  In  In15  1  0.145580  0.854420  0.500000  1.0  1.4082
  In  In16  1  0.354420  0.645580  0.500000  1.0  1.4082
  In  In17  1  0.500000  0.145580  0.854420  1.0  1.4131
  In  In18  1  0.500000  0.354420  0.645580  1.0  1.4128
  In  In19  1  0.291160  0.645580  0.145580  1.0  1.4089
  In  In20  1  0.708840  0.854420  0.354420  1.0  1.4078
  In  In21  1  0.354420  0.708840  0.854420  1.0  1.4132
  In  In22  1  0.145580  0.291160  0.645580  1.0  1.4134
  In  In23  1  0.645580  0.500000  0.354420  1.0  1.4132
  In  In24  1  0.854420  0.500000  0.145580  1.0  1.4129
  H  H25  1  0.377200  0.000000  0.781600  1.0  0.0904
  H  H26  1  0.218400  0.595600  0.218400  1.0  0.0926
  H  H27  1  0.781600  0.000000  0.377200  1.0  0.0923
  H  H28  1  0.622800  0.404400  0.622800  1.0  0.0895
  H  H29  1  0.377200  0.781600  0.000000  1.0  0.0899
  H  H30  1  0.622800  0.622800  0.404400  1.0  0.0902
  H  H31  1  0.781600  0.377200  0.000000  1.0  0.0898
  H  H32  1  0.218400  0.218400  0.595600  1.0  0.0929
  H  H33  1  0.595600  0.218400  0.218400  1.0  0.0915
  H  H34  1  0.000000  0.781600  0.377200  1.0  0.0913
  H  H35  1  0.404400  0.622800  0.622800  1.0  0.0886
  H  H36  1  0.000000  0.377200  0.781600  1.0  0.0914
  H  H37  1  0.000000  0.622800  0.218400  1.0  0.0906
  H  H38  1  0.404400  0.781600  0.781600  1.0  0.0925
  H  H39  1  0.000000  0.218400  0.622800  1.0  0.0906
  H  H40  1  0.595600  0.377200  0.377200  1.0  0.0886
  H  H41  1  0.218400  0.622800  0.000000  1.0  0.0896
  H  H42  1  0.377200  0.377200  0.595600  1.0  0.0897
  H  H43  1  0.622800  0.218400  0.000000  1.0  0.0909
  H  H44  1  0.781600  0.781600  0.404400  1.0  0.0922
  H  H45  1  0.781600  0.404400  0.781600  1.0  0.0918
  H  H46  1  0.218400  0.000000  0.622800  1.0  0.0913
  H  H47  1  0.377200  0.595600  0.377200  1.0  0.0886
  H  H48  1  0.622800  0.000000  0.218400  1.0  0.0901
  H  H49  1  0.182700  0.626400  0.556300  1.0  0.4459
  H  H50  1  0.410800  0.781000  0.629800  1.0  0.1171
  H  H51  1  0.070100  0.626400  0.443700  1.0  0.4503
  H  H52  1  0.151200  0.781000  0.370200  1.0  0.1165
  H  H53  1  0.929900  0.373600  0.556300  1.0  0.4536
  H  H54  1  0.848800  0.219000  0.629800  1.0  0.1182
  H  H55  1  0.817300  0.373600  0.443700  1.0  0.4497
  H  H56  1  0.589200  0.219000  0.370200  1.0  0.1161
  H  H57  1  0.556300  0.929900  0.373600  1.0  0.4523
  H  H58  1  0.629800  0.848800  0.219000  1.0  0.1158
  H  H59  1  0.443700  0.817300  0.373600  1.0  0.4459
  H  H60  1  0.370200  0.589200  0.219000  1.0  0.1197
  H  H61  1  0.556300  0.182700  0.626400  1.0  0.4443
  H  H62  1  0.629800  0.410800  0.781000  1.0  0.1191
  H  H63  1  0.443700  0.070100  0.626400  1.0  0.4536
  H  H64  1  0.370200  0.151200  0.781000  1.0  0.1174
  H  H65  1  0.626400  0.443700  0.070100  1.0  0.4547
  H  H66  1  0.781000  0.370200  0.151200  1.0  0.1165
  H  H67  1  0.626400  0.556300  0.182700  1.0  0.4498
  H  H68  1  0.781000  0.629800  0.410800  1.0  0.1174
  H  H69  1  0.373600  0.443700  0.817300  1.0  0.4494
  H  H70  1  0.219000  0.370200  0.589200  1.0  0.1158
  H  H71  1  0.373600  0.556300  0.929900  1.0  0.4536
  H  H72  1  0.219000  0.629800  0.848800  1.0  0.1169
  H  H73  1  0.373600  0.817300  0.443700  1.0  0.4451
  H  H74  1  0.219000  0.589200  0.370200  1.0  0.1195
  H  H75  1  0.373600  0.929900  0.556300  1.0  0.4552
  H  H76  1  0.219000  0.848800  0.629800  1.0  0.1171
  H  H77  1  0.626400  0.070100  0.443700  1.0  0.4513
  H  H78  1  0.781000  0.151200  0.370200  1.0  0.1162
  H  H79  1  0.626400  0.182700  0.556300  1.0  0.445
  H  H80  1  0.781000  0.410800  0.629800  1.0  0.1195
  H  H81  1  0.070100  0.443700  0.626400  1.0  0.456
  H  H82  1  0.151200  0.370200  0.781000  1.0  0.1176
  H  H83  1  0.182700  0.556300  0.626400  1.0  0.4474
  H  H84  1  0.410800  0.629800  0.781000  1.0  0.1161
  H  H85  1  0.817300  0.443700  0.373600  1.0  0.4504
  H  H86  1  0.589200  0.370200  0.219000  1.0  0.1167
  H  H87  1  0.929900  0.556300  0.373600  1.0  0.4529
  H  H88  1  0.848800  0.629800  0.219000  1.0  0.1168
  H  H89  1  0.556300  0.373600  0.929900  1.0  0.4507
  H  H90  1  0.629800  0.219000  0.848800  1.0  0.1176
  H  H91  1  0.443700  0.373600  0.817300  1.0  0.4475
  H  H92  1  0.370200  0.219000  0.589200  1.0  0.1156
  H  H93  1  0.556300  0.626400  0.182700  1.0  0.4459
  H  H94  1  0.629800  0.781000  0.410800  1.0  0.1172
  H  H95  1  0.443700  0.626400  0.070100  1.0  0.4522
  H  H96  1  0.370200  0.781000  0.151200  1.0  0.1166
  C  C97  1  0.495700  0.918900  0.786800  1.0  0.6148
  C  C98  1  0.475500  0.966600  0.798900  1.0  0.0534
  C  C99  1  0.235100  0.721700  0.623800  1.0  0.6796
  C  C100  1  0.283000  0.718300  0.607500  1.0  0.0679
  C  C101  1  0.132100  0.708900  0.213200  1.0  0.6084
  C  C102  1  0.167700  0.676600  0.201100  1.0  0.0519
  C  C103  1  0.097900  0.611300  0.376200  1.0  0.6519
  C  C104  1  0.110800  0.675500  0.392500  1.0  0.067
  C  C105  1  0.867900  0.081100  0.576800  1.0  0.6073
  C  C106  1  0.832300  0.033400  0.508900  1.0  0.0503
  C  C107  1  0.902100  0.278300  0.513400  1.0  0.6563
  C  C108  1  0.889200  0.281700  0.564700  1.0  0.0667
  C  C109  1  0.504300  0.291100  0.423200  1.0  0.6146
  C  C110  1  0.524500  0.323400  0.491100  1.0  0.06
  C  C111  1  0.764900  0.388700  0.486600  1.0  0.6783
  C  C112  1  0.717000  0.324500  0.435300  1.0  0.0724
  C  C113  1  0.576800  0.867900  0.081100  1.0  0.6018
  C  C114  1  0.508900  0.832300  0.033400  1.0  0.0535
  C  C115  1  0.513400  0.902100  0.278300  1.0  0.6535
  C  C116  1  0.564700  0.889200  0.281700  1.0  0.0649
  C  C117  1  0.423200  0.504300  0.291100  1.0  0.6155
  C  C118  1  0.491100  0.524500  0.323400  1.0  0.0605
  C  C119  1  0.486600  0.764900  0.388700  1.0  0.6774
  C  C120  1  0.435300  0.717000  0.324500  1.0  0.0722
  C  C121  1  0.786800  0.495700  0.918900  1.0  0.6144
  C  C122  1  0.798900  0.475500  0.966600  1.0  0.0538
  C  C123  1  0.623800  0.235100  0.721700  1.0  0.6799
  C  C124  1  0.607500  0.283000  0.718300  1.0  0.0709
  C  C125  1  0.213200  0.132100  0.708900  1.0  0.6123
  C  C126  1  0.201100  0.167700  0.676600  1.0  0.0493
  C  C127  1  0.376200  0.097900  0.611300  1.0  0.6536
  C  C128  1  0.392500  0.110800  0.675500  1.0  0.0659
  C  C129  1  0.708900  0.213200  0.132100  1.0  0.6104
  C  C130  1  0.676600  0.201100  0.167700  1.0  0.0525
  C  C131  1  0.611300  0.376200  0.097900  1.0  0.6517
  C  C132  1  0.675500  0.392500  0.110800  1.0  0.0645
  C  C133  1  0.918900  0.786800  0.495700  1.0  0.6145
  C  C134  1  0.966600  0.798900  0.475500  1.0  0.0528
  C  C135  1  0.721700  0.623800  0.235100  1.0  0.6831
  C  C136  1  0.718300  0.607500  0.283000  1.0  0.0694
  C  C137  1  0.291100  0.423200  0.504300  1.0  0.6146
  C  C138  1  0.323400  0.491100  0.524500  1.0  0.0588
  C  C139  1  0.388700  0.486600  0.764900  1.0  0.6796
  C  C140  1  0.324500  0.435300  0.717000  1.0  0.0719
  C  C141  1  0.081100  0.576800  0.867900  1.0  0.6037
  C  C142  1  0.033400  0.508900  0.832300  1.0  0.0519
  C  C143  1  0.278300  0.513400  0.902100  1.0  0.6562
  C  C144  1  0.281700  0.564700  0.889200  1.0  0.0669
  C  C145  1  0.081100  0.504300  0.213200  1.0  0.617
  C  C146  1  0.033400  0.524500  0.201100  1.0  0.053
  C  C147  1  0.278300  0.764900  0.376200  1.0  0.6801
  C  C148  1  0.281700  0.717000  0.392500  1.0  0.071
  C  C149  1  0.291100  0.867900  0.786800  1.0  0.6085
  C  C150  1  0.323400  0.832300  0.798900  1.0  0.0526
  C  C151  1  0.388700  0.902100  0.623800  1.0  0.654
  C  C152  1  0.324500  0.889200  0.607500  1.0  0.0633
  C  C153  1  0.918900  0.132100  0.423200  1.0  0.6076
  C  C154  1  0.966600  0.167700  0.491100  1.0  0.0508
  C  C155  1  0.721700  0.097900  0.486600  1.0  0.6548
  C  C156  1  0.718300  0.110800  0.435300  1.0  0.0664
  C  C157  1  0.708900  0.495700  0.576800  1.0  0.6153
  C  C158  1  0.676600  0.475500  0.508900  1.0  0.059
  C  C159  1  0.611300  0.235100  0.513400  1.0  0.6785
  C  C160  1  0.675500  0.283000  0.564700  1.0  0.0723
  C  C161  1  0.132100  0.423200  0.918900  1.0  0.6016
  C  C162  1  0.167700  0.491100  0.966600  1.0  0.0513
  C  C163  1  0.097900  0.486600  0.721700  1.0  0.6562
  C  C164  1  0.110800  0.435300  0.718300  1.0  0.0659
  C  C165  1  0.495700  0.576800  0.708900  1.0  0.6126
  C  C166  1  0.475500  0.508900  0.676600  1.0  0.0584
  C  C167  1  0.235100  0.513400  0.611300  1.0  0.6806
  C  C168  1  0.283000  0.564700  0.675500  1.0  0.0726
  C  C169  1  0.504300  0.213200  0.081100  1.0  0.6164
  C  C170  1  0.524500  0.201100  0.033400  1.0  0.0547
  C  C171  1  0.764900  0.376200  0.278300  1.0  0.6805
  C  C172  1  0.717000  0.392500  0.281700  1.0  0.0674
  C  C173  1  0.867900  0.786800  0.291100  1.0  0.6121
  C  C174  1  0.832300  0.798900  0.323400  1.0  0.0509
  C  C175  1  0.902100  0.623800  0.388700  1.0  0.6567
  C  C176  1  0.889200  0.607500  0.324500  1.0  0.0663
  C  C177  1  0.786800  0.291100  0.867900  1.0  0.6125
  C  C178  1  0.798900  0.323400  0.832300  1.0  0.051
  C  C179  1  0.623800  0.388700  0.902100  1.0  0.6562
  C  C180  1  0.607500  0.324500  0.889200  1.0  0.0667
  C  C181  1  0.213200  0.081100  0.504300  1.0  0.6202
  C  C182  1  0.201100  0.033400  0.524500  1.0  0.0524
  C  C183  1  0.376200  0.278300  0.764900  1.0  0.6819
  C  C184  1  0.392500  0.281700  0.717000  1.0  0.0701
  C  C185  1  0.576800  0.708900  0.495700  1.0  0.6123
  C  C186  1  0.508900  0.676600  0.475500  1.0  0.0603
  C  C187  1  0.513400  0.611300  0.235100  1.0  0.6778
  C  C188  1  0.564700  0.675500  0.283000  1.0  0.0719
  C  C189  1  0.423200  0.918900  0.132100  1.0  0.6062
  C  C190  1  0.491100  0.966600  0.167700  1.0  0.0481
  C  C191  1  0.486600  0.721700  0.097900  1.0  0.6551
  C  C192  1  0.435300  0.718300  0.110800  1.0  0.0664
  C  C193  1  0.504300  0.081100  0.213200  1.0  0.6195
  C  C194  1  0.524500  0.033400  0.201100  1.0  0.0496
  C  C195  1  0.764900  0.278300  0.376200  1.0  0.6808
  C  C196  1  0.717000  0.281700  0.392500  1.0  0.0708
  C  C197  1  0.867900  0.291100  0.786800  1.0  0.612
  C  C198  1  0.832300  0.323400  0.798900  1.0  0.0519
  C  C199  1  0.902100  0.388700  0.623800  1.0  0.6558
  C  C200  1  0.889200  0.324500  0.607500  1.0  0.0664
  C  C201  1  0.132100  0.918900  0.423200  1.0  0.6117
  C  C202  1  0.167700  0.966600  0.491100  1.0  0.0508
  C  C203  1  0.097900  0.721700  0.486600  1.0  0.6569
  C  C204  1  0.110800  0.718300  0.435300  1.0  0.0661
  C  C205  1  0.495700  0.708900  0.576800  1.0  0.6169
  C  C206  1  0.475500  0.676600  0.508900  1.0  0.0595
  C  C207  1  0.235100  0.611300  0.513400  1.0  0.6767
  C  C208  1  0.283000  0.675500  0.564700  1.0  0.0725
  C  C209  1  0.423200  0.132100  0.918900  1.0  0.6045
  C  C210  1  0.491100  0.167700  0.966600  1.0  0.0526
  C  C211  1  0.486600  0.097900  0.721700  1.0  0.655
  C  C212  1  0.435300  0.110800  0.718300  1.0  0.0633
  C  C213  1  0.576800  0.495700  0.708900  1.0  0.6171
  C  C214  1  0.508900  0.475500  0.676600  1.0  0.0592
  C  C215  1  0.513400  0.235100  0.611300  1.0  0.6781
  C  C216  1  0.564700  0.283000  0.675500  1.0  0.0722
  C  C217  1  0.213200  0.504300  0.081100  1.0  0.62
  C  C218  1  0.201100  0.524500  0.033400  1.0  0.0529
  C  C219  1  0.376200  0.764900  0.278300  1.0  0.6789
  C  C220  1  0.392500  0.717000  0.281700  1.0  0.0706
  C  C221  1  0.786800  0.867900  0.291100  1.0  0.6136
  C  C222  1  0.798900  0.832300  0.323400  1.0  0.0507
  C  C223  1  0.623800  0.902100  0.388700  1.0  0.654
  C  C224  1  0.607500  0.889200  0.324500  1.0  0.066
  C  C225  1  0.291100  0.786800  0.867900  1.0  0.614
  C  C226  1  0.323400  0.798900  0.832300  1.0  0.0527
  C  C227  1  0.388700  0.623800  0.902100  1.0  0.6536
  C  C228  1  0.324500  0.607500  0.889200  1.0  0.0632
  C  C229  1  0.081100  0.213200  0.504300  1.0  0.6193
  C  C230  1  0.033400  0.201100  0.524500  1.0  0.0524
  C  C231  1  0.278300  0.376200  0.764900  1.0  0.6826
  C  C232  1  0.281700  0.392500  0.717000  1.0  0.0698
  C  C233  1  0.708900  0.576800  0.495700  1.0  0.6139
  C  C234  1  0.676600  0.508900  0.475500  1.0  0.059
  C  C235  1  0.611300  0.513400  0.235100  1.0  0.6798
  C  C236  1  0.675500  0.564700  0.283000  1.0  0.0711
  C  C237  1  0.918900  0.423200  0.132100  1.0  0.6084
  C  C238  1  0.966600  0.491100  0.167700  1.0  0.0516
  C  C239  1  0.721700  0.486600  0.097900  1.0  0.6578
  C  C240  1  0.718300  0.435300  0.110800  1.0  0.0667
  C  C241  1  0.918900  0.495700  0.786800  1.0  0.6169
  C  C242  1  0.966600  0.475500  0.798900  1.0  0.0539
  C  C243  1  0.721700  0.235100  0.623800  1.0  0.6794
  C  C244  1  0.718300  0.283000  0.607500  1.0  0.0701
  C  C245  1  0.708900  0.132100  0.213200  1.0  0.6122
  C  C246  1  0.676600  0.167700  0.201100  1.0  0.0526
  C  C247  1  0.611300  0.097900  0.376200  1.0  0.6527
  C  C248  1  0.675500  0.110800  0.392500  1.0  0.064
  C  C249  1  0.081100  0.867900  0.576800  1.0  0.607
  C  C250  1  0.033400  0.832300  0.508900  1.0  0.05
  C  C251  1  0.278300  0.902100  0.513400  1.0  0.6542
  C  C252  1  0.281700  0.889200  0.564700  1.0  0.0659
  C  C253  1  0.291100  0.504300  0.423200  1.0  0.6194
  C  C254  1  0.323400  0.524500  0.491100  1.0  0.0596
  C  C255  1  0.388700  0.764900  0.486600  1.0  0.6779
  C  C256  1  0.324500  0.717000  0.435300  1.0  0.0727
  C  C257  1  0.867900  0.576800  0.081100  1.0  0.606
  C  C258  1  0.832300  0.508900  0.033400  1.0  0.0512
  C  C259  1  0.902100  0.513400  0.278300  1.0  0.6547
  C  C260  1  0.889200  0.564700  0.281700  1.0  0.0666
  C  C261  1  0.504300  0.423200  0.291100  1.0  0.6188
  C  C262  1  0.524500  0.491100  0.323400  1.0  0.0602
  C  C263  1  0.764900  0.486600  0.388700  1.0  0.6804
  C  C264  1  0.717000  0.435300  0.324500  1.0  0.0718
  C  C265  1  0.495700  0.786800  0.918900  1.0  0.6183
  C  C266  1  0.475500  0.798900  0.966600  1.0  0.0552
  C  C267  1  0.235100  0.623800  0.721700  1.0  0.6779
  C  C268  1  0.283000  0.607500  0.718300  1.0  0.068
  C  C269  1  0.132100  0.213200  0.708900  1.0  0.614
  C  C270  1  0.167700  0.201100  0.676600  1.0  0.0493
  C  C271  1  0.097900  0.376200  0.611300  1.0  0.6564
  C  C272  1  0.110800  0.392500  0.675500  1.0  0.0655
  C  C273  1  0.213200  0.708900  0.132100  1.0  0.6135
  C  C274  1  0.201100  0.676600  0.167700  1.0  0.0517
  C  C275  1  0.376200  0.611300  0.097900  1.0  0.6537
  C  C276  1  0.392500  0.675500  0.110800  1.0  0.0674
  C  C277  1  0.786800  0.918900  0.495700  1.0  0.6209
  C  C278  1  0.798900  0.966600  0.475500  1.0  0.0531
  C  C279  1  0.623800  0.721700  0.235100  1.0  0.6825
  C  C280  1  0.607500  0.718300  0.283000  1.0  0.0703
  C  C281  1  0.423200  0.291100  0.504300  1.0  0.6164
  C  C282  1  0.491100  0.323400  0.524500  1.0  0.0585
  C  C283  1  0.486600  0.388700  0.764900  1.0  0.6777
  C  C284  1  0.435300  0.324500  0.717000  1.0  0.0714
  C  C285  1  0.576800  0.081100  0.867900  1.0  0.6082
  C  C286  1  0.508900  0.033400  0.832300  1.0  0.052
  C  C287  1  0.513400  0.278300  0.902100  1.0  0.6528
  C  C288  1  0.564700  0.281700  0.889200  1.0  0.0653
  C  C289  1  0.414700  0.000000  0.792300  1.0  0.2884
  C  C290  1  0.207700  0.622400  0.207700  1.0  0.2854
  C  C291  1  0.792300  0.000000  0.414700  1.0  0.2882
  C  C292  1  0.585300  0.377600  0.585300  1.0  0.2845
  C  C293  1  0.414700  0.792300  0.000000  1.0  0.2885
  C  C294  1  0.585300  0.585300  0.377600  1.0  0.2853
  C  C295  1  0.792300  0.414700  0.000000  1.0  0.2895
  C  C296  1  0.207700  0.207700  0.622400  1.0  0.285
  C  C297  1  0.622400  0.207700  0.207700  1.0  0.2868
  C  C298  1  0.000000  0.792300  0.414700  1.0  0.2864
  C  C299  1  0.377600  0.585300  0.585300  1.0  0.2866
  C  C300  1  0.000000  0.414700  0.792300  1.0  0.288
  C  C301  1  0.000000  0.585300  0.207700  1.0  0.286
  C  C302  1  0.377600  0.792300  0.792300  1.0  0.2866
  C  C303  1  0.000000  0.207700  0.585300  1.0  0.2873
  C  C304  1  0.622400  0.414700  0.414700  1.0  0.2864
  C  C305  1  0.207700  0.585300  0.000000  1.0  0.2875
  C  C306  1  0.414700  0.414700  0.622400  1.0  0.2851
  C  C307  1  0.585300  0.207700  0.000000  1.0  0.2892
  C  C308  1  0.792300  0.792300  0.377600  1.0  0.2845
  C  C309  1  0.792300  0.377600  0.792300  1.0  0.284
  C  C310  1  0.207700  0.000000  0.585300  1.0  0.2879
  C  C311  1  0.414700  0.622400  0.414700  1.0  0.2844
  C  C312  1  0.585300  0.000000  0.207700  1.0  0.2896
  C  C313  1  0.369600  0.753900  0.615700  1.0  0.2806
  C  C314  1  0.138200  0.753900  0.384300  1.0  0.2799
  C  C315  1  0.861800  0.246100  0.615700  1.0  0.2815
  C  C316  1  0.630400  0.246100  0.384300  1.0  0.2809
  C  C317  1  0.615700  0.861800  0.246100  1.0  0.2803
  C  C318  1  0.384300  0.630400  0.246100  1.0  0.2763
  C  C319  1  0.615700  0.369600  0.753900  1.0  0.2763
  C  C320  1  0.384300  0.138200  0.753900  1.0  0.2819
  C  C321  1  0.753900  0.384300  0.138200  1.0  0.2812
  C  C322  1  0.753900  0.615700  0.369600  1.0  0.2796
  C  C323  1  0.246100  0.384300  0.630400  1.0  0.2807
  C  C324  1  0.246100  0.615700  0.861800  1.0  0.2794
  C  C325  1  0.246100  0.630400  0.384300  1.0  0.2762
  C  C326  1  0.246100  0.861800  0.615700  1.0  0.2818
  C  C327  1  0.753900  0.138200  0.384300  1.0  0.2799
  C  C328  1  0.753900  0.369600  0.615700  1.0  0.2764
  C  C329  1  0.138200  0.384300  0.753900  1.0  0.2804
  C  C330  1  0.369600  0.615700  0.753900  1.0  0.2809
  C  C331  1  0.630400  0.384300  0.246100  1.0  0.28
  C  C332  1  0.861800  0.615700  0.246100  1.0  0.2802
  C  C333  1  0.615700  0.246100  0.861800  1.0  0.2813
  C  C334  1  0.384300  0.246100  0.630400  1.0  0.2805
  C  C335  1  0.615700  0.753900  0.369600  1.0  0.2808
  C  C336  1  0.384300  0.753900  0.138200  1.0  0.2801
  N  N337  1  0.415000  0.948800  0.774200  1.0  -0.4008
  N  N338  1  0.339400  0.770400  0.641800  1.0  -0.4743
  N  N339  1  0.174600  0.640800  0.225800  1.0  -0.4038
  N  N340  1  0.128600  0.697600  0.358200  1.0  -0.475
  N  N341  1  0.825400  0.051200  0.466200  1.0  -0.4006
  N  N342  1  0.871400  0.229600  0.569000  1.0  -0.4725
  N  N343  1  0.585000  0.359200  0.533800  1.0  -0.403
  N  N344  1  0.660600  0.302400  0.431000  1.0  -0.4742
  N  N345  1  0.466200  0.825400  0.051200  1.0  -0.4025
  N  N346  1  0.569000  0.871400  0.229600  1.0  -0.4766
  N  N347  1  0.533800  0.585000  0.359200  1.0  -0.4023
  N  N348  1  0.431000  0.660600  0.302400  1.0  -0.4731
  N  N349  1  0.774200  0.415000  0.948800  1.0  -0.402
  N  N350  1  0.641800  0.339400  0.770400  1.0  -0.4737
  N  N351  1  0.225800  0.174600  0.640800  1.0  -0.4009
  N  N352  1  0.358200  0.128600  0.697600  1.0  -0.4765
  N  N353  1  0.640800  0.225800  0.174600  1.0  -0.4056
  N  N354  1  0.697600  0.358200  0.128600  1.0  -0.4722
  N  N355  1  0.948800  0.774200  0.415000  1.0  -0.4042
  N  N356  1  0.770400  0.641800  0.339400  1.0  -0.4749
  N  N357  1  0.359200  0.533800  0.585000  1.0  -0.4012
  N  N358  1  0.302400  0.431000  0.660600  1.0  -0.4725
  N  N359  1  0.051200  0.466200  0.825400  1.0  -0.4038
  N  N360  1  0.229600  0.569000  0.871400  1.0  -0.4743
  N  N361  1  0.051200  0.585000  0.225800  1.0  -0.4007
  N  N362  1  0.229600  0.660600  0.358200  1.0  -0.4749
  N  N363  1  0.359200  0.825400  0.774200  1.0  -0.4006
  N  N364  1  0.302400  0.871400  0.641800  1.0  -0.4739
  N  N365  1  0.948800  0.174600  0.533800  1.0  -0.4013
  N  N366  1  0.770400  0.128600  0.431000  1.0  -0.4744
  N  N367  1  0.640800  0.415000  0.466200  1.0  -0.402
  N  N368  1  0.697600  0.339400  0.569000  1.0  -0.4754
  N  N369  1  0.174600  0.533800  0.948800  1.0  -0.4019
  N  N370  1  0.128600  0.431000  0.770400  1.0  -0.4719
  N  N371  1  0.415000  0.466200  0.640800  1.0  -0.4031
  N  N372  1  0.339400  0.569000  0.697600  1.0  -0.4731
  N  N373  1  0.585000  0.225800  0.051200  1.0  -0.4019
  N  N374  1  0.660600  0.358200  0.229600  1.0  -0.4727
  N  N375  1  0.825400  0.774200  0.359200  1.0  -0.402
  N  N376  1  0.871400  0.641800  0.302400  1.0  -0.4752
  N  N377  1  0.774200  0.359200  0.825400  1.0  -0.4037
  N  N378  1  0.641800  0.302400  0.871400  1.0  -0.4728
  N  N379  1  0.225800  0.051200  0.585000  1.0  -0.4021
  N  N380  1  0.358200  0.229600  0.660600  1.0  -0.4745
  N  N381  1  0.466200  0.640800  0.415000  1.0  -0.4007
  N  N382  1  0.569000  0.697600  0.339400  1.0  -0.4726
  N  N383  1  0.533800  0.948800  0.174600  1.0  -0.4017
  N  N384  1  0.431000  0.770400  0.128600  1.0  -0.4748
  N  N385  1  0.585000  0.051200  0.225800  1.0  -0.4014
  N  N386  1  0.660600  0.229600  0.358200  1.0  -0.4748
  N  N387  1  0.825400  0.359200  0.774200  1.0  -0.4007
  N  N388  1  0.871400  0.302400  0.641800  1.0  -0.4735
  N  N389  1  0.174600  0.948800  0.533800  1.0  -0.4015
  N  N390  1  0.128600  0.770400  0.431000  1.0  -0.4759
  N  N391  1  0.415000  0.640800  0.466200  1.0  -0.4038
  N  N392  1  0.339400  0.697600  0.569000  1.0  -0.474
  N  N393  1  0.533800  0.174600  0.948800  1.0  -0.4002
  N  N394  1  0.431000  0.128600  0.770400  1.0  -0.4745
  N  N395  1  0.466200  0.415000  0.640800  1.0  -0.4011
  N  N396  1  0.569000  0.339400  0.697600  1.0  -0.4757
  N  N397  1  0.225800  0.585000  0.051200  1.0  -0.4021
  N  N398  1  0.358200  0.660600  0.229600  1.0  -0.4755
  N  N399  1  0.774200  0.825400  0.359200  1.0  -0.4018
  N  N400  1  0.641800  0.871400  0.302400  1.0  -0.4755
  N  N401  1  0.359200  0.774200  0.825400  1.0  -0.4025
  N  N402  1  0.302400  0.641800  0.871400  1.0  -0.4745
  N  N403  1  0.051200  0.225800  0.585000  1.0  -0.402
  N  N404  1  0.229600  0.358200  0.660600  1.0  -0.4745
  N  N405  1  0.640800  0.466200  0.415000  1.0  -0.4017
  N  N406  1  0.697600  0.569000  0.339400  1.0  -0.4732
  N  N407  1  0.948800  0.533800  0.174600  1.0  -0.4034
  N  N408  1  0.770400  0.431000  0.128600  1.0  -0.4732
  N  N409  1  0.948800  0.415000  0.774200  1.0  -0.4027
  N  N410  1  0.770400  0.339400  0.641800  1.0  -0.4746
  N  N411  1  0.640800  0.174600  0.225800  1.0  -0.402
  N  N412  1  0.697600  0.128600  0.358200  1.0  -0.477
  N  N413  1  0.051200  0.825400  0.466200  1.0  -0.4014
  N  N414  1  0.229600  0.871400  0.569000  1.0  -0.4774
  N  N415  1  0.359200  0.585000  0.533800  1.0  -0.4016
  N  N416  1  0.302400  0.660600  0.431000  1.0  -0.474
  N  N417  1  0.825400  0.466200  0.051200  1.0  -0.4011
  N  N418  1  0.871400  0.569000  0.229600  1.0  -0.4745
  N  N419  1  0.585000  0.533800  0.359200  1.0  -0.4037
  N  N420  1  0.660600  0.431000  0.302400  1.0  -0.4743
  N  N421  1  0.415000  0.774200  0.948800  1.0  -0.4055
  N  N422  1  0.339400  0.641800  0.770400  1.0  -0.4743
  N  N423  1  0.174600  0.225800  0.640800  1.0  -0.4037
  N  N424  1  0.128600  0.358200  0.697600  1.0  -0.4741
  N  N425  1  0.225800  0.640800  0.174600  1.0  -0.4035
  N  N426  1  0.358200  0.697600  0.128600  1.0  -0.4753
  N  N427  1  0.774200  0.948800  0.415000  1.0  -0.4016
  N  N428  1  0.641800  0.770400  0.339400  1.0  -0.4738
  N  N429  1  0.533800  0.359200  0.585000  1.0  -0.4036
  N  N430  1  0.431000  0.302400  0.660600  1.0  -0.4747
  N  N431  1  0.466200  0.051200  0.825400  1.0  -0.4001
  N  N432  1  0.569000  0.229600  0.871400  1.0  -0.4742
  O  O433  1  0.458700  0.866990  0.755290  1.0  -0.5507
  O  O434  1  0.556500  0.942220  0.813320  1.0  -0.3775
  O  O435  1  0.245930  0.769180  0.661550  1.0  -0.5412
  O  O436  1  0.182770  0.670670  0.592100  1.0  -0.3668
  O  O437  1  0.111700  0.703410  0.244710  1.0  -0.5404
  O  O438  1  0.128900  0.743180  0.186680  1.0  -0.3849
  O  O439  1  0.107630  0.584380  0.338450  1.0  -0.5492
  O  O440  1  0.078570  0.590670  0.407900  1.0  -0.3732
  O  O441  1  0.888300  0.133010  0.591710  1.0  -0.552
  O  O442  1  0.871100  0.057780  0.614280  1.0  -0.3876
  O  O443  1  0.892370  0.230820  0.476750  1.0  -0.545
  O  O444  1  0.921430  0.329330  0.512100  1.0  -0.3686
  O  O445  1  0.541300  0.296590  0.408290  1.0  -0.554
  O  O446  1  0.443500  0.256820  0.385720  1.0  -0.3752
  O  O447  1  0.754070  0.415620  0.523250  1.0  -0.5429
  O  O448  1  0.817230  0.409330  0.487900  1.0  -0.3698
  O  O449  1  0.591710  0.888300  0.133010  1.0  -0.553
  O  O450  1  0.614280  0.871100  0.057780  1.0  -0.3921
  O  O451  1  0.476750  0.892370  0.230820  1.0  -0.5411
  O  O452  1  0.512100  0.921430  0.329330  1.0  -0.368
  O  O453  1  0.408290  0.541300  0.296590  1.0  -0.5541
  O  O454  1  0.385720  0.443500  0.256820  1.0  -0.3706
  O  O455  1  0.523250  0.754070  0.415620  1.0  -0.5408
  O  O456  1  0.487900  0.817230  0.409330  1.0  -0.3644
  O  O457  1  0.755290  0.458700  0.866990  1.0  -0.5504
  O  O458  1  0.813320  0.556500  0.942220  1.0  -0.3778
  O  O459  1  0.661550  0.245930  0.769180  1.0  -0.5434
  O  O460  1  0.592100  0.182770  0.670670  1.0  -0.3692
  O  O461  1  0.244710  0.111700  0.703410  1.0  -0.5404
  O  O462  1  0.186680  0.128900  0.743180  1.0  -0.3822
  O  O463  1  0.338450  0.107630  0.584380  1.0  -0.5506
  O  O464  1  0.407900  0.078570  0.590670  1.0  -0.3678
  O  O465  1  0.703410  0.244710  0.111700  1.0  -0.5417
  O  O466  1  0.743180  0.186680  0.128900  1.0  -0.3793
  O  O467  1  0.584380  0.338450  0.107630  1.0  -0.5494
  O  O468  1  0.590670  0.407900  0.078570  1.0  -0.3741
  O  O469  1  0.866990  0.755290  0.458700  1.0  -0.5526
  O  O470  1  0.942220  0.813320  0.556500  1.0  -0.3787
  O  O471  1  0.769180  0.661550  0.245930  1.0  -0.5454
  O  O472  1  0.670670  0.592100  0.182770  1.0  -0.3661
  O  O473  1  0.296590  0.408290  0.541300  1.0  -0.553
  O  O474  1  0.256820  0.385720  0.443500  1.0  -0.3777
  O  O475  1  0.415620  0.523250  0.754070  1.0  -0.5406
  O  O476  1  0.409330  0.487900  0.817230  1.0  -0.3691
  O  O477  1  0.133010  0.591710  0.888300  1.0  -0.5573
  O  O478  1  0.057780  0.614280  0.871100  1.0  -0.392
  O  O479  1  0.230820  0.476750  0.892370  1.0  -0.5457
  O  O480  1  0.329330  0.512100  0.921430  1.0  -0.3672
  O  O481  1  0.133010  0.541300  0.244710  1.0  -0.555
  O  O482  1  0.057780  0.443500  0.186680  1.0  -0.3747
  O  O483  1  0.230820  0.754070  0.338450  1.0  -0.5427
  O  O484  1  0.329330  0.817230  0.407900  1.0  -0.3656
  O  O485  1  0.296590  0.888300  0.755290  1.0  -0.5394
  O  O486  1  0.256820  0.871100  0.813320  1.0  -0.383
  O  O487  1  0.415620  0.892370  0.661550  1.0  -0.5474
  O  O488  1  0.409330  0.921430  0.592100  1.0  -0.3743
  O  O489  1  0.866990  0.111700  0.408290  1.0  -0.5553
  O  O490  1  0.942220  0.128900  0.385720  1.0  -0.388
  O  O491  1  0.769180  0.107630  0.523250  1.0  -0.5451
  O  O492  1  0.670670  0.078570  0.487900  1.0  -0.3636
  O  O493  1  0.703410  0.458700  0.591710  1.0  -0.5499
  O  O494  1  0.743180  0.556500  0.614280  1.0  -0.3713
  O  O495  1  0.584380  0.245930  0.476750  1.0  -0.541
  O  O496  1  0.590670  0.182770  0.512100  1.0  -0.3688
  O  O497  1  0.111700  0.408290  0.866990  1.0  -0.5542
  O  O498  1  0.128900  0.385720  0.942220  1.0  -0.3936
  O  O499  1  0.107630  0.523250  0.769180  1.0  -0.5433
  O  O500  1  0.078570  0.487900  0.670670  1.0  -0.3664
  O  O501  1  0.458700  0.591710  0.703410  1.0  -0.5557
  O  O502  1  0.556500  0.614280  0.743180  1.0  -0.3721
  O  O503  1  0.245930  0.476750  0.584380  1.0  -0.5405
  O  O504  1  0.182770  0.512100  0.590670  1.0  -0.3666
  O  O505  1  0.541300  0.244710  0.133010  1.0  -0.5553
  O  O506  1  0.443500  0.186680  0.057780  1.0  -0.3789
  O  O507  1  0.754070  0.338450  0.230820  1.0  -0.5422
  O  O508  1  0.817230  0.407900  0.329330  1.0  -0.3785
  O  O509  1  0.888300  0.755290  0.296590  1.0  -0.5381
  O  O510  1  0.871100  0.813320  0.256820  1.0  -0.3783
  O  O511  1  0.892370  0.661550  0.415620  1.0  -0.5513
  O  O512  1  0.921430  0.592100  0.409330  1.0  -0.365
  O  O513  1  0.755290  0.296590  0.888300  1.0  -0.5404
  O  O514  1  0.813320  0.256820  0.871100  1.0  -0.3793
  O  O515  1  0.661550  0.415620  0.892370  1.0  -0.5529
  O  O516  1  0.592100  0.409330  0.921430  1.0  -0.3734
  O  O517  1  0.244710  0.133010  0.541300  1.0  -0.5505
  O  O518  1  0.186680  0.057780  0.443500  1.0  -0.378
  O  O519  1  0.338450  0.230820  0.754070  1.0  -0.5438
  O  O520  1  0.407900  0.329330  0.817230  1.0  -0.3621
  O  O521  1  0.591710  0.703410  0.458700  1.0  -0.5533
  O  O522  1  0.614280  0.743180  0.556500  1.0  -0.3761
  O  O523  1  0.476750  0.584380  0.245930  1.0  -0.5393
  O  O524  1  0.512100  0.590670  0.182770  1.0  -0.3653
  O  O525  1  0.408290  0.866990  0.111700  1.0  -0.5508
  O  O526  1  0.385720  0.942220  0.128900  1.0  -0.3893
  O  O527  1  0.523250  0.769180  0.107630  1.0  -0.5429
  O  O528  1  0.487900  0.670670  0.078570  1.0  -0.3699
  O  O529  1  0.541300  0.133010  0.244710  1.0  -0.5519
  O  O530  1  0.443500  0.057780  0.186680  1.0  -0.3791
  O  O531  1  0.754070  0.230820  0.338450  1.0  -0.5426
  O  O532  1  0.817230  0.329330  0.407900  1.0  -0.37
  O  O533  1  0.888300  0.296590  0.755290  1.0  -0.54
  O  O534  1  0.871100  0.256820  0.813320  1.0  -0.382
  O  O535  1  0.892370  0.415620  0.661550  1.0  -0.5493
  O  O536  1  0.921430  0.409330  0.592100  1.0  -0.3697
  O  O537  1  0.111700  0.866990  0.408290  1.0  -0.5509
  O  O538  1  0.128900  0.942220  0.385720  1.0  -0.3898
  O  O539  1  0.107630  0.769180  0.523250  1.0  -0.5451
  O  O540  1  0.078570  0.670670  0.487900  1.0  -0.3623
  O  O541  1  0.458700  0.703410  0.591710  1.0  -0.5536
  O  O542  1  0.556500  0.743180  0.614280  1.0  -0.3725
  O  O543  1  0.245930  0.584380  0.476750  1.0  -0.5423
  O  O544  1  0.182770  0.590670  0.512100  1.0  -0.3701
  O  O545  1  0.408290  0.111700  0.866990  1.0  -0.5532
  O  O546  1  0.385720  0.128900  0.942220  1.0  -0.3917
  O  O547  1  0.523250  0.107630  0.769180  1.0  -0.5418
  O  O548  1  0.487900  0.078570  0.670670  1.0  -0.3701
  O  O549  1  0.591710  0.458700  0.703410  1.0  -0.552
  O  O550  1  0.614280  0.556500  0.743180  1.0  -0.3712
  O  O551  1  0.476750  0.245930  0.584380  1.0  -0.5401
  O  O552  1  0.512100  0.182770  0.590670  1.0  -0.364
  O  O553  1  0.244710  0.541300  0.133010  1.0  -0.5524
  O  O554  1  0.186680  0.443500  0.057780  1.0  -0.3752
  O  O555  1  0.338450  0.754070  0.230820  1.0  -0.5435
  O  O556  1  0.407900  0.817230  0.329330  1.0  -0.3668
  O  O557  1  0.755290  0.888300  0.296590  1.0  -0.5405
  O  O558  1  0.813320  0.871100  0.256820  1.0  -0.3782
  O  O559  1  0.661550  0.892370  0.415620  1.0  -0.5512
  O  O560  1  0.592100  0.921430  0.409330  1.0  -0.3663
  O  O561  1  0.296590  0.755290  0.888300  1.0  -0.542
  O  O562  1  0.256820  0.813320  0.871100  1.0  -0.381
  O  O563  1  0.415620  0.661550  0.892370  1.0  -0.55
  O  O564  1  0.409330  0.592100  0.921430  1.0  -0.381
  O  O565  1  0.133010  0.244710  0.541300  1.0  -0.5507
  O  O566  1  0.057780  0.186680  0.443500  1.0  -0.377
  O  O567  1  0.230820  0.338450  0.754070  1.0  -0.5436
  O  O568  1  0.329330  0.407900  0.817230  1.0  -0.3621
  O  O569  1  0.703410  0.591710  0.458700  1.0  -0.5511
  O  O570  1  0.743180  0.614280  0.556500  1.0  -0.376
  O  O571  1  0.584380  0.476750  0.245930  1.0  -0.5397
  O  O572  1  0.590670  0.512100  0.182770  1.0  -0.366
  O  O573  1  0.866990  0.408290  0.111700  1.0  -0.5576
  O  O574  1  0.942220  0.385720  0.128900  1.0  -0.3894
  O  O575  1  0.769180  0.523250  0.107630  1.0  -0.5448
  O  O576  1  0.670670  0.487900  0.078570  1.0  -0.3674
  O  O577  1  0.866990  0.458700  0.755290  1.0  -0.5528
  O  O578  1  0.942220  0.556500  0.813320  1.0  -0.3777
  O  O579  1  0.769180  0.245930  0.661550  1.0  -0.5431
  O  O580  1  0.670670  0.182770  0.592100  1.0  -0.3683
  O  O581  1  0.703410  0.111700  0.244710  1.0  -0.539
  O  O582  1  0.743180  0.128900  0.186680  1.0  -0.382
  O  O583  1  0.584380  0.107630  0.338450  1.0  -0.5466
  O  O584  1  0.590670  0.078570  0.407900  1.0  -0.3726
  O  O585  1  0.133010  0.888300  0.591710  1.0  -0.5564
  O  O586  1  0.057780  0.871100  0.614280  1.0  -0.3901
  O  O587  1  0.230820  0.892370  0.476750  1.0  -0.5443
  O  O588  1  0.329330  0.921430  0.512100  1.0  -0.3676
  O  O589  1  0.296590  0.541300  0.408290  1.0  -0.5521
  O  O590  1  0.256820  0.443500  0.385720  1.0  -0.3704
  O  O591  1  0.415620  0.754070  0.523250  1.0  -0.5416
  O  O592  1  0.409330  0.817230  0.487900  1.0  -0.3694
  O  O593  1  0.888300  0.591710  0.133010  1.0  -0.5532
  O  O594  1  0.871100  0.614280  0.057780  1.0  -0.396
  O  O595  1  0.892370  0.476750  0.230820  1.0  -0.5443
  O  O596  1  0.921430  0.512100  0.329330  1.0  -0.3693
  O  O597  1  0.541300  0.408290  0.296590  1.0  -0.5583
  O  O598  1  0.443500  0.385720  0.256820  1.0  -0.3745
  O  O599  1  0.754070  0.523250  0.415620  1.0  -0.5413
  O  O600  1  0.817230  0.487900  0.409330  1.0  -0.3668
  O  O601  1  0.458700  0.755290  0.866990  1.0  -0.555
  O  O602  1  0.556500  0.813320  0.942220  1.0  -0.3765
  O  O603  1  0.245930  0.661550  0.769180  1.0  -0.5426
  O  O604  1  0.182770  0.592100  0.670670  1.0  -0.3687
  O  O605  1  0.111700  0.244710  0.703410  1.0  -0.5384
  O  O606  1  0.128900  0.186680  0.743180  1.0  -0.3811
  O  O607  1  0.107630  0.338450  0.584380  1.0  -0.5527
  O  O608  1  0.078570  0.407900  0.590670  1.0  -0.3691
  O  O609  1  0.244710  0.703410  0.111700  1.0  -0.5418
  O  O610  1  0.186680  0.743180  0.128900  1.0  -0.3808
  O  O611  1  0.338450  0.584380  0.107630  1.0  -0.5518
  O  O612  1  0.407900  0.590670  0.078570  1.0  -0.3742
  O  O613  1  0.755290  0.866990  0.458700  1.0  -0.55
  O  O614  1  0.813320  0.942220  0.556500  1.0  -0.3775
  O  O615  1  0.661550  0.769180  0.245930  1.0  -0.5437
  O  O616  1  0.592100  0.670670  0.182770  1.0  -0.3675
  O  O617  1  0.408290  0.296590  0.541300  1.0  -0.5529
  O  O618  1  0.385720  0.256820  0.443500  1.0  -0.3782
  O  O619  1  0.523250  0.415620  0.754070  1.0  -0.5399
  O  O620  1  0.487900  0.409330  0.817230  1.0  -0.3672
  O  O621  1  0.591710  0.133010  0.888300  1.0  -0.5512
  O  O622  1  0.614280  0.057780  0.871100  1.0  -0.3905
  O  O623  1  0.476750  0.230820  0.892370  1.0  -0.5426
  O  O624  1  0.512100  0.329330  0.921430  1.0  -0.3663
