# generated using pymatgen
data_InH2C10(NO2)4
_symmetry_space_group_name_H-M   'P 1'
_cell_length_a   25.48660000
_cell_length_b   25.48660000
_cell_length_c   25.48660000
_cell_angle_alpha   60.00000000
_cell_angle_beta   60.00000000
_cell_angle_gamma   60.00000000
_symmetry_Int_Tables_number   1
_chemical_formula_structural   InH2C10(NO2)4
_chemical_formula_sum   'In24 H48 C240 N96 O192'
_cell_volume   11706.32860864
_cell_formula_units_Z   24
loop_
 _symmetry_equiv_pos_site_id
 _symmetry_equiv_pos_as_xyz
  1  'x, y, z'
loop_
 _atom_site_type_symbol
 _atom_site_label
 _atom_site_symmetry_multiplicity
 _atom_site_fract_x
 _atom_site_fract_y
 _atom_site_fract_z
 _atom_site_occupancy
 _atom_site_charge
  In  In1  1  0.250000  0.250000  0.986040  1.0  1.4816
  In  In2  1  0.750000  0.750000  0.513960  1.0  1.4817
  In  In3  1  0.486040  0.513960  0.750000  1.0  1.4783
  In  In4  1  0.013960  0.986040  0.250000  1.0  1.4803
  In  In5  1  0.250000  0.986040  0.513960  1.0  1.4806
  In  In6  1  0.750000  0.513960  0.986040  1.0  1.4799
  In  In7  1  0.486040  0.750000  0.250000  1.0  1.4796
  In  In8  1  0.013960  0.250000  0.750000  1.0  1.4785
  In  In9  1  0.250000  0.513960  0.250000  1.0  1.4799
  In  In10  1  0.750000  0.986040  0.750000  1.0  1.4807
  In  In11  1  0.486040  0.250000  0.513960  1.0  1.4794
  In  In12  1  0.013960  0.750000  0.986040  1.0  1.4785
  In  In13  1  0.750000  0.750000  0.013960  1.0  1.4817
  In  In14  1  0.250000  0.250000  0.486040  1.0  1.4816
  In  In15  1  0.513960  0.486040  0.250000  1.0  1.4803
  In  In16  1  0.986040  0.013960  0.750000  1.0  1.4783
  In  In17  1  0.750000  0.013960  0.486040  1.0  1.4799
  In  In18  1  0.250000  0.486040  0.013960  1.0  1.4806
  In  In19  1  0.513960  0.250000  0.750000  1.0  1.4785
  In  In20  1  0.986040  0.750000  0.250000  1.0  1.4796
  In  In21  1  0.750000  0.486040  0.750000  1.0  1.4807
  In  In22  1  0.250000  0.013960  0.250000  1.0  1.4799
  In  In23  1  0.513960  0.750000  0.486040  1.0  1.4785
  In  In24  1  0.986040  0.250000  0.013960  1.0  1.4794
  H  H25  1  0.142800  0.254600  0.945400  1.0  0.1258
  H  H26  1  0.754600  0.642800  0.657200  1.0  0.1254
  H  H27  1  0.445400  0.657200  0.642800  1.0  0.1239
  H  H28  1  0.157200  0.945400  0.254600  1.0  0.1256
  H  H29  1  0.142800  0.945400  0.657200  1.0  0.1254
  H  H30  1  0.754600  0.657200  0.945400  1.0  0.1256
  H  H31  1  0.445400  0.642800  0.254600  1.0  0.1242
  H  H32  1  0.157200  0.254600  0.642800  1.0  0.1257
  H  H33  1  0.142800  0.657200  0.254600  1.0  0.1246
  H  H34  1  0.754600  0.945400  0.642800  1.0  0.1251
  H  H35  1  0.445400  0.254600  0.657200  1.0  0.1242
  H  H36  1  0.157200  0.642800  0.945400  1.0  0.1246
  H  H37  1  0.745400  0.857200  0.554600  1.0  0.1257
  H  H38  1  0.357200  0.245400  0.842800  1.0  0.1254
  H  H39  1  0.342800  0.554600  0.857200  1.0  0.1264
  H  H40  1  0.054600  0.842800  0.245400  1.0  0.1243
  H  H41  1  0.054600  0.857200  0.842800  1.0  0.1239
  H  H42  1  0.342800  0.245400  0.554600  1.0  0.1257
  H  H43  1  0.357200  0.554600  0.245400  1.0  0.1257
  H  H44  1  0.745400  0.842800  0.857200  1.0  0.1254
  H  H45  1  0.342800  0.857200  0.245400  1.0  0.1236
  H  H46  1  0.054600  0.245400  0.857200  1.0  0.125
  H  H47  1  0.745400  0.554600  0.842800  1.0  0.1265
  H  H48  1  0.357200  0.842800  0.554600  1.0  0.1243
  H  H49  1  0.857200  0.745400  0.054600  1.0  0.1258
  H  H50  1  0.245400  0.357200  0.342800  1.0  0.1254
  H  H51  1  0.554600  0.342800  0.357200  1.0  0.124
  H  H52  1  0.842800  0.054600  0.745400  1.0  0.1263
  H  H53  1  0.857200  0.054600  0.342800  1.0  0.126
  H  H54  1  0.245400  0.342800  0.054600  1.0  0.1257
  H  H55  1  0.554600  0.357200  0.745400  1.0  0.1242
  H  H56  1  0.842800  0.745400  0.357200  1.0  0.1255
  H  H57  1  0.857200  0.342800  0.745400  1.0  0.1237
  H  H58  1  0.245400  0.054600  0.357200  1.0  0.1266
  H  H59  1  0.554600  0.745400  0.342800  1.0  0.1249
  H  H60  1  0.842800  0.357200  0.054600  1.0  0.1242
  H  H61  1  0.254600  0.142800  0.445400  1.0  0.1253
  H  H62  1  0.642800  0.754600  0.157200  1.0  0.126
  H  H63  1  0.657200  0.445400  0.142800  1.0  0.1259
  H  H64  1  0.945400  0.157200  0.754600  1.0  0.1242
  H  H65  1  0.945400  0.142800  0.157200  1.0  0.1238
  H  H66  1  0.657200  0.754600  0.445400  1.0  0.1258
  H  H67  1  0.642800  0.445400  0.754600  1.0  0.1251
  H  H68  1  0.254600  0.157200  0.142800  1.0  0.1254
  H  H69  1  0.657200  0.142800  0.754600  1.0  0.1245
  H  H70  1  0.945400  0.754600  0.142800  1.0  0.1241
  H  H71  1  0.254600  0.445400  0.157200  1.0  0.1251
  H  H72  1  0.642800  0.157200  0.445400  1.0  0.1249
  C  C73  1  0.100000  0.271000  0.073200  1.0  0.0379
  C  C74  1  0.115200  0.277200  0.119400  1.0  0.6286
  C  C75  1  0.121200  0.260000  0.985400  1.0  0.306
  C  C76  1  0.046100  0.269900  0.074700  1.0  0.0569
  C  C77  1  0.978300  0.276100  0.122300  1.0  0.6805
  C  C78  1  0.771000  0.600000  0.555800  1.0  0.038
  C  C79  1  0.777200  0.615200  0.488200  1.0  0.6308
  C  C80  1  0.760000  0.621200  0.633400  1.0  0.3058
  C  C81  1  0.769900  0.546100  0.609300  1.0  0.0591
  C  C82  1  0.776100  0.478300  0.623300  1.0  0.6846
  C  C83  1  0.573200  0.555800  0.600000  1.0  0.0364
  C  C84  1  0.619400  0.488200  0.615200  1.0  0.6242
  C  C85  1  0.485400  0.633400  0.621200  1.0  0.3053
  C  C86  1  0.574700  0.609300  0.546100  1.0  0.0594
  C  C87  1  0.622300  0.623300  0.478300  1.0  0.6868
  C  C88  1  0.055800  0.073200  0.271000  1.0  0.0376
  C  C89  1  0.988200  0.119400  0.277200  1.0  0.6244
  C  C90  1  0.133400  0.985400  0.260000  1.0  0.3023
  C  C91  1  0.109300  0.074700  0.269900  1.0  0.0565
  C  C92  1  0.123300  0.122300  0.276100  1.0  0.6828
  C  C93  1  0.100000  0.073200  0.555800  1.0  0.0369
  C  C94  1  0.115200  0.119400  0.488200  1.0  0.6287
  C  C95  1  0.121200  0.985400  0.633400  1.0  0.3026
  C  C96  1  0.046100  0.074700  0.609300  1.0  0.0574
  C  C97  1  0.978300  0.122300  0.623300  1.0  0.6817
  C  C98  1  0.771000  0.555800  0.073200  1.0  0.037
  C  C99  1  0.777200  0.488200  0.119400  1.0  0.6249
  C  C100  1  0.760000  0.633400  0.985400  1.0  0.3061
  C  C101  1  0.769900  0.609300  0.074700  1.0  0.0596
  C  C102  1  0.776100  0.623300  0.122300  1.0  0.6883
  C  C103  1  0.573200  0.600000  0.271000  1.0  0.0382
  C  C104  1  0.619400  0.615200  0.277200  1.0  0.6293
  C  C105  1  0.485400  0.621200  0.260000  1.0  0.3046
  C  C106  1  0.574700  0.546100  0.269900  1.0  0.0597
  C  C107  1  0.622300  0.478300  0.276100  1.0  0.6822
  C  C108  1  0.055800  0.271000  0.600000  1.0  0.0361
  C  C109  1  0.988200  0.277200  0.615200  1.0  0.6285
  C  C110  1  0.133400  0.260000  0.621200  1.0  0.3057
  C  C111  1  0.109300  0.269900  0.546100  1.0  0.0571
  C  C112  1  0.123300  0.276100  0.478300  1.0  0.6909
  C  C113  1  0.100000  0.555800  0.271000  1.0  0.0354
  C  C114  1  0.115200  0.488200  0.277200  1.0  0.629
  C  C115  1  0.121200  0.633400  0.260000  1.0  0.3045
  C  C116  1  0.046100  0.609300  0.269900  1.0  0.0562
  C  C117  1  0.978300  0.623300  0.276100  1.0  0.6844
  C  C118  1  0.771000  0.073200  0.600000  1.0  0.0358
  C  C119  1  0.777200  0.119400  0.615200  1.0  0.6299
  C  C120  1  0.760000  0.985400  0.621200  1.0  0.3035
  C  C121  1  0.769900  0.074700  0.546100  1.0  0.058
  C  C122  1  0.776100  0.122300  0.478300  1.0  0.687
  C  C123  1  0.573200  0.271000  0.555800  1.0  0.037
  C  C124  1  0.619400  0.277200  0.488200  1.0  0.6296
  C  C125  1  0.485400  0.260000  0.633400  1.0  0.3047
  C  C126  1  0.574700  0.269900  0.609300  1.0  0.0577
  C  C127  1  0.622300  0.276100  0.623300  1.0  0.6865
  C  C128  1  0.055800  0.600000  0.073200  1.0  0.0371
  C  C129  1  0.988200  0.615200  0.119400  1.0  0.6281
  C  C130  1  0.133400  0.621200  0.985400  1.0  0.3041
  C  C131  1  0.109300  0.546100  0.074700  1.0  0.0587
  C  C132  1  0.123300  0.478300  0.122300  1.0  0.6866
  C  C133  1  0.729000  0.900000  0.426800  1.0  0.0374
  C  C134  1  0.722800  0.884800  0.380600  1.0  0.6345
  C  C135  1  0.740000  0.878800  0.514600  1.0  0.3059
  C  C136  1  0.730100  0.953900  0.425300  1.0  0.0583
  C  C137  1  0.723900  0.021700  0.377700  1.0  0.6874
  C  C138  1  0.400000  0.229000  0.944200  1.0  0.0383
  C  C139  1  0.384800  0.222800  0.011800  1.0  0.6281
  C  C140  1  0.378800  0.240000  0.866600  1.0  0.3071
  C  C141  1  0.453900  0.230100  0.890700  1.0  0.0589
  C  C142  1  0.521700  0.223900  0.876700  1.0  0.6858
  C  C143  1  0.444200  0.426800  0.900000  1.0  0.037
  C  C144  1  0.511800  0.380600  0.884800  1.0  0.6252
  C  C145  1  0.366600  0.514600  0.878800  1.0  0.3026
  C  C146  1  0.390700  0.425300  0.953900  1.0  0.0607
  C  C147  1  0.376700  0.377700  0.021700  1.0  0.6844
  C  C148  1  0.926800  0.944200  0.229000  1.0  0.0367
  C  C149  1  0.880600  0.011800  0.222800  1.0  0.6271
  C  C150  1  0.014600  0.866600  0.240000  1.0  0.3041
  C  C151  1  0.925300  0.890700  0.230100  1.0  0.0574
  C  C152  1  0.877700  0.876700  0.223900  1.0  0.6865
  C  C153  1  0.926800  0.900000  0.944200  1.0  0.0384
  C  C154  1  0.880600  0.884800  0.011800  1.0  0.6281
  C  C155  1  0.014600  0.878800  0.866600  1.0  0.3036
  C  C156  1  0.925300  0.953900  0.890700  1.0  0.0574
  C  C157  1  0.877700  0.021700  0.876700  1.0  0.6826
  C  C158  1  0.444200  0.229000  0.426800  1.0  0.036
  C  C159  1  0.511800  0.222800  0.380600  1.0  0.6263
  C  C160  1  0.366600  0.240000  0.514600  1.0  0.307
  C  C161  1  0.390700  0.230100  0.425300  1.0  0.0578
  C  C162  1  0.376700  0.223900  0.377700  1.0  0.6902
  C  C163  1  0.400000  0.426800  0.229000  1.0  0.0371
  C  C164  1  0.384800  0.380600  0.222800  1.0  0.6275
  C  C165  1  0.378800  0.514600  0.240000  1.0  0.3024
  C  C166  1  0.453900  0.425300  0.230100  1.0  0.0586
  C  C167  1  0.521700  0.377700  0.223900  1.0  0.68
  C  C168  1  0.729000  0.944200  0.900000  1.0  0.0363
  C  C169  1  0.722800  0.011800  0.884800  1.0  0.6247
  C  C170  1  0.740000  0.866600  0.878800  1.0  0.3062
  C  C171  1  0.730100  0.890700  0.953900  1.0  0.0586
  C  C172  1  0.723900  0.876700  0.021700  1.0  0.6862
  C  C173  1  0.444200  0.900000  0.229000  1.0  0.0364
  C  C174  1  0.511800  0.884800  0.222800  1.0  0.6276
  C  C175  1  0.366600  0.878800  0.240000  1.0  0.3042
  C  C176  1  0.390700  0.953900  0.230100  1.0  0.0578
  C  C177  1  0.376700  0.021700  0.223900  1.0  0.6879
  C  C178  1  0.926800  0.229000  0.900000  1.0  0.037
  C  C179  1  0.880600  0.222800  0.884800  1.0  0.631
  C  C180  1  0.014600  0.240000  0.878800  1.0  0.304
  C  C181  1  0.925300  0.230100  0.953900  1.0  0.056
  C  C182  1  0.877700  0.223900  0.021700  1.0  0.6843
  C  C183  1  0.729000  0.426800  0.944200  1.0  0.0372
  C  C184  1  0.722800  0.380600  0.011800  1.0  0.631
  C  C185  1  0.740000  0.514600  0.866600  1.0  0.3018
  C  C186  1  0.730100  0.425300  0.890700  1.0  0.0579
  C  C187  1  0.723900  0.377700  0.876700  1.0  0.6858
  C  C188  1  0.400000  0.944200  0.426800  1.0  0.0359
  C  C189  1  0.384800  0.011800  0.380600  1.0  0.6294
  C  C190  1  0.378800  0.866600  0.514600  1.0  0.3049
  C  C191  1  0.453900  0.890700  0.425300  1.0  0.0578
  C  C192  1  0.521700  0.876700  0.377700  1.0  0.6861
  C  C193  1  0.900000  0.729000  0.926800  1.0  0.0373
  C  C194  1  0.884800  0.722800  0.880600  1.0  0.6295
  C  C195  1  0.878800  0.740000  0.014600  1.0  0.3071
  C  C196  1  0.953900  0.730100  0.925300  1.0  0.0586
  C  C197  1  0.021700  0.723900  0.877700  1.0  0.6849
  C  C198  1  0.229000  0.400000  0.444200  1.0  0.0385
  C  C199  1  0.222800  0.384800  0.511800  1.0  0.6303
  C  C200  1  0.240000  0.378800  0.366600  1.0  0.3054
  C  C201  1  0.230100  0.453900  0.390700  1.0  0.0578
  C  C202  1  0.223900  0.521700  0.376700  1.0  0.6837
  C  C203  1  0.426800  0.444200  0.400000  1.0  0.0376
  C  C204  1  0.380600  0.511800  0.384800  1.0  0.6248
  C  C205  1  0.514600  0.366600  0.378800  1.0  0.304
  C  C206  1  0.425300  0.390700  0.453900  1.0  0.0579
  C  C207  1  0.377700  0.376700  0.521700  1.0  0.6815
  C  C208  1  0.944200  0.926800  0.729000  1.0  0.0369
  C  C209  1  0.011800  0.880600  0.722800  1.0  0.6246
  C  C210  1  0.866600  0.014600  0.740000  1.0  0.3024
  C  C211  1  0.890700  0.925300  0.730100  1.0  0.0591
  C  C212  1  0.876700  0.877700  0.723900  1.0  0.6856
  C  C213  1  0.900000  0.926800  0.444200  1.0  0.0384
  C  C214  1  0.884800  0.880600  0.511800  1.0  0.6268
  C  C215  1  0.878800  0.014600  0.366600  1.0  0.3026
  C  C216  1  0.953900  0.925300  0.390700  1.0  0.0593
  C  C217  1  0.021700  0.877700  0.376700  1.0  0.6814
  C  C218  1  0.229000  0.444200  0.926800  1.0  0.0357
  C  C219  1  0.222800  0.511800  0.880600  1.0  0.6275
  C  C220  1  0.240000  0.366600  0.014600  1.0  0.3063
  C  C221  1  0.230100  0.390700  0.925300  1.0  0.0576
  C  C222  1  0.223900  0.376700  0.877700  1.0  0.6916
  C  C223  1  0.426800  0.400000  0.729000  1.0  0.0373
  C  C224  1  0.380600  0.384800  0.722800  1.0  0.632
  C  C225  1  0.514600  0.378800  0.740000  1.0  0.3037
  C  C226  1  0.425300  0.453900  0.730100  1.0  0.0575
  C  C227  1  0.377700  0.521700  0.723900  1.0  0.6854
  C  C228  1  0.944200  0.729000  0.400000  1.0  0.0368
  C  C229  1  0.011800  0.722800  0.384800  1.0  0.6262
  C  C230  1  0.866600  0.740000  0.378800  1.0  0.307
  C  C231  1  0.890700  0.730100  0.453900  1.0  0.0589
  C  C232  1  0.876700  0.723900  0.521700  1.0  0.6876
  C  C233  1  0.900000  0.444200  0.729000  1.0  0.0357
  C  C234  1  0.884800  0.511800  0.722800  1.0  0.6299
  C  C235  1  0.878800  0.366600  0.740000  1.0  0.3051
  C  C236  1  0.953900  0.390700  0.730100  1.0  0.0581
  C  C237  1  0.021700  0.376700  0.723900  1.0  0.6861
  C  C238  1  0.229000  0.926800  0.400000  1.0  0.0376
  C  C239  1  0.222800  0.880600  0.384800  1.0  0.6304
  C  C240  1  0.240000  0.014600  0.378800  1.0  0.302
  C  C241  1  0.230100  0.925300  0.453900  1.0  0.0582
  C  C242  1  0.223900  0.877700  0.521700  1.0  0.6862
  C  C243  1  0.426800  0.729000  0.444200  1.0  0.0368
  C  C244  1  0.380600  0.722800  0.511800  1.0  0.6313
  C  C245  1  0.514600  0.740000  0.366600  1.0  0.3038
  C  C246  1  0.425300  0.730100  0.390700  1.0  0.0558
  C  C247  1  0.377700  0.723900  0.376700  1.0  0.6839
  C  C248  1  0.944200  0.400000  0.926800  1.0  0.0363
  C  C249  1  0.011800  0.384800  0.880600  1.0  0.6273
  C  C250  1  0.866600  0.378800  0.014600  1.0  0.304
  C  C251  1  0.890700  0.453900  0.925300  1.0  0.0576
  C  C252  1  0.876700  0.521700  0.877700  1.0  0.688
  C  C253  1  0.271000  0.100000  0.573200  1.0  0.0384
  C  C254  1  0.277200  0.115200  0.619400  1.0  0.6305
  C  C255  1  0.260000  0.121200  0.485400  1.0  0.306
  C  C256  1  0.269900  0.046100  0.574700  1.0  0.0602
  C  C257  1  0.276100  0.978300  0.622300  1.0  0.6851
  C  C258  1  0.600000  0.771000  0.055800  1.0  0.0368
  C  C259  1  0.615200  0.777200  0.988200  1.0  0.6312
  C  C260  1  0.621200  0.760000  0.133400  1.0  0.3059
  C  C261  1  0.546100  0.769900  0.109300  1.0  0.0563
  C  C262  1  0.478300  0.776100  0.123300  1.0  0.6843
  C  C263  1  0.555800  0.573200  0.100000  1.0  0.0374
  C  C264  1  0.488200  0.619400  0.115200  1.0  0.6268
  C  C265  1  0.633400  0.485400  0.121200  1.0  0.3023
  C  C266  1  0.609300  0.574700  0.046100  1.0  0.057
  C  C267  1  0.623300  0.622300  0.978300  1.0  0.6876
  C  C268  1  0.073200  0.055800  0.771000  1.0  0.0366
  C  C269  1  0.119400  0.988200  0.777200  1.0  0.6242
  C  C270  1  0.985400  0.133400  0.760000  1.0  0.305
  C  C271  1  0.074700  0.109300  0.769900  1.0  0.0606
  C  C272  1  0.122300  0.123300  0.776100  1.0  0.6864
  C  C273  1  0.073200  0.100000  0.055800  1.0  0.0376
  C  C274  1  0.119400  0.115200  0.988200  1.0  0.6289
  C  C275  1  0.985400  0.121200  0.133400  1.0  0.3047
  C  C276  1  0.074700  0.046100  0.109300  1.0  0.059
  C  C277  1  0.122300  0.978300  0.123300  1.0  0.681
  C  C278  1  0.555800  0.771000  0.573200  1.0  0.0372
  C  C279  1  0.488200  0.777200  0.619400  1.0  0.6252
  C  C280  1  0.633400  0.760000  0.485400  1.0  0.3059
  C  C281  1  0.609300  0.769900  0.574700  1.0  0.0585
  C  C282  1  0.623300  0.776100  0.622300  1.0  0.6853
  C  C283  1  0.600000  0.573200  0.771000  1.0  0.0366
  C  C284  1  0.615200  0.619400  0.777200  1.0  0.6266
  C  C285  1  0.621200  0.485400  0.760000  1.0  0.3025
  C  C286  1  0.546100  0.574700  0.769900  1.0  0.0571
  C  C287  1  0.478300  0.622300  0.776100  1.0  0.6792
  C  C288  1  0.271000  0.055800  0.100000  1.0  0.0357
  C  C289  1  0.277200  0.988200  0.115200  1.0  0.625
  C  C290  1  0.260000  0.133400  0.121200  1.0  0.3061
  C  C291  1  0.269900  0.109300  0.046100  1.0  0.0582
  C  C292  1  0.276100  0.123300  0.978300  1.0  0.6902
  C  C293  1  0.555800  0.100000  0.771000  1.0  0.037
  C  C294  1  0.488200  0.115200  0.777200  1.0  0.6279
  C  C295  1  0.633400  0.121200  0.760000  1.0  0.304
  C  C296  1  0.609300  0.046100  0.769900  1.0  0.0576
  C  C297  1  0.623300  0.978300  0.776100  1.0  0.6863
  C  C298  1  0.073200  0.771000  0.100000  1.0  0.0367
  C  C299  1  0.119400  0.777200  0.115200  1.0  0.6307
  C  C300  1  0.985400  0.760000  0.121200  1.0  0.3046
  C  C301  1  0.074700  0.769900  0.046100  1.0  0.0577
  C  C302  1  0.122300  0.776100  0.978300  1.0  0.6859
  C  C303  1  0.271000  0.573200  0.055800  1.0  0.0369
  C  C304  1  0.277200  0.619400  0.988200  1.0  0.6296
  C  C305  1  0.260000  0.485400  0.133400  1.0  0.3038
  C  C306  1  0.269900  0.574700  0.109300  1.0  0.0576
  C  C307  1  0.276100  0.622300  0.123300  1.0  0.6871
  C  C308  1  0.600000  0.055800  0.573200  1.0  0.0355
  C  C309  1  0.615200  0.988200  0.619400  1.0  0.6294
  C  C310  1  0.621200  0.133400  0.485400  1.0  0.3046
  C  C311  1  0.546100  0.109300  0.574700  1.0  0.0571
  C  C312  1  0.478300  0.123300  0.622300  1.0  0.6847
  N  N313  1  0.147600  0.265200  0.016000  1.0  -0.4443
  N  N314  1  0.060500  0.263500  0.019500  1.0  -0.2773
  N  N315  1  0.765200  0.647600  0.571200  1.0  -0.4425
  N  N316  1  0.763500  0.560500  0.656500  1.0  -0.2765
  N  N317  1  0.516000  0.571200  0.647600  1.0  -0.4444
  N  N318  1  0.519500  0.656500  0.560500  1.0  -0.2765
  N  N319  1  0.071200  0.016000  0.265200  1.0  -0.4459
  N  N320  1  0.156500  0.019500  0.263500  1.0  -0.2788
  N  N321  1  0.147600  0.016000  0.571200  1.0  -0.444
  N  N322  1  0.060500  0.019500  0.656500  1.0  -0.2789
  N  N323  1  0.765200  0.571200  0.016000  1.0  -0.443
  N  N324  1  0.763500  0.656500  0.019500  1.0  -0.2763
  N  N325  1  0.516000  0.647600  0.265200  1.0  -0.4439
  N  N326  1  0.519500  0.560500  0.263500  1.0  -0.2774
  N  N327  1  0.071200  0.265200  0.647600  1.0  -0.4437
  N  N328  1  0.156500  0.263500  0.560500  1.0  -0.279
  N  N329  1  0.147600  0.571200  0.265200  1.0  -0.4451
  N  N330  1  0.060500  0.656500  0.263500  1.0  -0.2784
  N  N331  1  0.765200  0.016000  0.647600  1.0  -0.4425
  N  N332  1  0.763500  0.019500  0.560500  1.0  -0.2759
  N  N333  1  0.516000  0.265200  0.571200  1.0  -0.4414
  N  N334  1  0.519500  0.263500  0.656500  1.0  -0.276
  N  N335  1  0.071200  0.647600  0.016000  1.0  -0.4435
  N  N336  1  0.156500  0.560500  0.019500  1.0  -0.2787
  N  N337  1  0.734800  0.852400  0.484000  1.0  -0.442
  N  N338  1  0.736500  0.939500  0.480500  1.0  -0.2768
  N  N339  1  0.352400  0.234800  0.928800  1.0  -0.4439
  N  N340  1  0.439500  0.236500  0.843500  1.0  -0.2784
  N  N341  1  0.428800  0.484000  0.852400  1.0  -0.445
  N  N342  1  0.343500  0.480500  0.939500  1.0  -0.2785
  N  N343  1  0.984000  0.928800  0.234800  1.0  -0.4436
  N  N344  1  0.980500  0.843500  0.236500  1.0  -0.2763
  N  N345  1  0.984000  0.852400  0.928800  1.0  -0.4422
  N  N346  1  0.980500  0.939500  0.843500  1.0  -0.276
  N  N347  1  0.428800  0.234800  0.484000  1.0  -0.444
  N  N348  1  0.343500  0.236500  0.480500  1.0  -0.2782
  N  N349  1  0.352400  0.484000  0.234800  1.0  -0.4428
  N  N350  1  0.439500  0.480500  0.236500  1.0  -0.2791
  N  N351  1  0.734800  0.928800  0.852400  1.0  -0.443
  N  N352  1  0.736500  0.843500  0.939500  1.0  -0.2761
  N  N353  1  0.428800  0.852400  0.234800  1.0  -0.4427
  N  N354  1  0.343500  0.939500  0.236500  1.0  -0.2774
  N  N355  1  0.984000  0.234800  0.852400  1.0  -0.4403
  N  N356  1  0.980500  0.236500  0.939500  1.0  -0.275
  N  N357  1  0.734800  0.484000  0.928800  1.0  -0.4435
  N  N358  1  0.736500  0.480500  0.843500  1.0  -0.2769
  N  N359  1  0.352400  0.928800  0.484000  1.0  -0.4444
  N  N360  1  0.439500  0.843500  0.480500  1.0  -0.2759
  N  N361  1  0.852400  0.734800  0.984000  1.0  -0.4432
  N  N362  1  0.939500  0.736500  0.980500  1.0  -0.2773
  N  N363  1  0.234800  0.352400  0.428800  1.0  -0.4426
  N  N364  1  0.236500  0.439500  0.343500  1.0  -0.2775
  N  N365  1  0.484000  0.428800  0.352400  1.0  -0.4429
  N  N366  1  0.480500  0.343500  0.439500  1.0  -0.2766
  N  N367  1  0.928800  0.984000  0.734800  1.0  -0.4454
  N  N368  1  0.843500  0.980500  0.736500  1.0  -0.2772
  N  N369  1  0.852400  0.984000  0.428800  1.0  -0.4434
  N  N370  1  0.939500  0.980500  0.343500  1.0  -0.2789
  N  N371  1  0.234800  0.428800  0.984000  1.0  -0.4441
  N  N372  1  0.236500  0.343500  0.980500  1.0  -0.2758
  N  N373  1  0.484000  0.352400  0.734800  1.0  -0.4424
  N  N374  1  0.480500  0.439500  0.736500  1.0  -0.2763
  N  N375  1  0.928800  0.734800  0.352400  1.0  -0.4431
  N  N376  1  0.843500  0.736500  0.439500  1.0  -0.2784
  N  N377  1  0.852400  0.428800  0.734800  1.0  -0.4441
  N  N378  1  0.939500  0.343500  0.736500  1.0  -0.2758
  N  N379  1  0.234800  0.984000  0.352400  1.0  -0.4421
  N  N380  1  0.236500  0.980500  0.439500  1.0  -0.2763
  N  N381  1  0.484000  0.734800  0.428800  1.0  -0.4415
  N  N382  1  0.480500  0.736500  0.343500  1.0  -0.276
  N  N383  1  0.928800  0.352400  0.984000  1.0  -0.4424
  N  N384  1  0.843500  0.439500  0.980500  1.0  -0.2782
  N  N385  1  0.265200  0.147600  0.516000  1.0  -0.4431
  N  N386  1  0.263500  0.060500  0.519500  1.0  -0.2773
  N  N387  1  0.647600  0.765200  0.071200  1.0  -0.4436
  N  N388  1  0.560500  0.763500  0.156500  1.0  -0.277
  N  N389  1  0.571200  0.516000  0.147600  1.0  -0.4468
  N  N390  1  0.656500  0.519500  0.060500  1.0  -0.2785
  N  N391  1  0.016000  0.071200  0.765200  1.0  -0.444
  N  N392  1  0.019500  0.156500  0.763500  1.0  -0.278
  N  N393  1  0.016000  0.147600  0.071200  1.0  -0.443
  N  N394  1  0.019500  0.060500  0.156500  1.0  -0.2777
  N  N395  1  0.571200  0.765200  0.516000  1.0  -0.4432
  N  N396  1  0.656500  0.763500  0.519500  1.0  -0.2792
  N  N397  1  0.647600  0.516000  0.765200  1.0  -0.4441
  N  N398  1  0.560500  0.519500  0.763500  1.0  -0.2784
  N  N399  1  0.265200  0.071200  0.147600  1.0  -0.4436
  N  N400  1  0.263500  0.156500  0.060500  1.0  -0.276
  N  N401  1  0.571200  0.147600  0.765200  1.0  -0.4442
  N  N402  1  0.656500  0.060500  0.763500  1.0  -0.2785
  N  N403  1  0.016000  0.765200  0.147600  1.0  -0.4425
  N  N404  1  0.019500  0.763500  0.060500  1.0  -0.2769
  N  N405  1  0.265200  0.516000  0.071200  1.0  -0.4413
  N  N406  1  0.263500  0.519500  0.156500  1.0  -0.2749
  N  N407  1  0.647600  0.071200  0.516000  1.0  -0.4451
  N  N408  1  0.560500  0.156500  0.519500  1.0  -0.2777
  O  O409  1  0.168800  0.271000  0.110200  1.0  -0.4701
  O  O410  1  0.063400  0.290000  0.169200  1.0  -0.4144
  O  O411  1  0.943100  0.267100  0.109700  1.0  -0.5579
  O  O412  1  0.966300  0.288500  0.168500  1.0  -0.4191
  O  O413  1  0.771000  0.668800  0.450000  1.0  -0.4668
  O  O414  1  0.790000  0.563400  0.477400  1.0  -0.4119
  O  O415  1  0.767100  0.443100  0.680100  1.0  -0.5583
  O  O416  1  0.788500  0.466300  0.576700  1.0  -0.4193
  O  O417  1  0.610200  0.450000  0.668800  1.0  -0.4668
  O  O418  1  0.669200  0.477400  0.563400  1.0  -0.4125
  O  O419  1  0.609700  0.680100  0.443100  1.0  -0.5619
  O  O420  1  0.668500  0.576700  0.466300  1.0  -0.4186
  O  O421  1  0.950000  0.110200  0.271000  1.0  -0.4672
  O  O422  1  0.977400  0.169200  0.290000  1.0  -0.413
  O  O423  1  0.180100  0.109700  0.267100  1.0  -0.5587
  O  O424  1  0.076700  0.168500  0.288500  1.0  -0.4179
  O  O425  1  0.168800  0.110200  0.450000  1.0  -0.4692
  O  O426  1  0.063400  0.169200  0.477400  1.0  -0.4104
  O  O427  1  0.943100  0.109700  0.680100  1.0  -0.5578
  O  O428  1  0.966300  0.168500  0.576700  1.0  -0.4205
  O  O429  1  0.771000  0.450000  0.110200  1.0  -0.466
  O  O430  1  0.790000  0.477400  0.169200  1.0  -0.4175
  O  O431  1  0.767100  0.680100  0.109700  1.0  -0.5572
  O  O432  1  0.788500  0.576700  0.168500  1.0  -0.4196
  O  O433  1  0.610200  0.668800  0.271000  1.0  -0.4688
  O  O434  1  0.669200  0.563400  0.290000  1.0  -0.4121
  O  O435  1  0.609700  0.443100  0.267100  1.0  -0.5583
  O  O436  1  0.668500  0.466300  0.288500  1.0  -0.4227
  O  O437  1  0.950000  0.271000  0.668800  1.0  -0.4682
  O  O438  1  0.977400  0.290000  0.563400  1.0  -0.4163
  O  O439  1  0.180100  0.267100  0.443100  1.0  -0.559
  O  O440  1  0.076700  0.288500  0.466300  1.0  -0.4228
  O  O441  1  0.168800  0.450000  0.271000  1.0  -0.4673
  O  O442  1  0.063400  0.477400  0.290000  1.0  -0.4119
  O  O443  1  0.943100  0.680100  0.267100  1.0  -0.5583
  O  O444  1  0.966300  0.576700  0.288500  1.0  -0.4209
  O  O445  1  0.771000  0.110200  0.668800  1.0  -0.4638
  O  O446  1  0.790000  0.169200  0.563400  1.0  -0.4085
  O  O447  1  0.767100  0.109700  0.443100  1.0  -0.5569
  O  O448  1  0.788500  0.168500  0.466300  1.0  -0.4199
  O  O449  1  0.610200  0.271000  0.450000  1.0  -0.4584
  O  O450  1  0.669200  0.290000  0.477400  1.0  -0.4113
  O  O451  1  0.609700  0.267100  0.680100  1.0  -0.5557
  O  O452  1  0.668500  0.288500  0.576700  1.0  -0.4223
  O  O453  1  0.950000  0.668800  0.110200  1.0  -0.4665
  O  O454  1  0.977400  0.563400  0.169200  1.0  -0.4092
  O  O455  1  0.180100  0.443100  0.109700  1.0  -0.5589
  O  O456  1  0.076700  0.466300  0.168500  1.0  -0.422
  O  O457  1  0.729000  0.831200  0.389800  1.0  -0.4672
  O  O458  1  0.710000  0.936600  0.330800  1.0  -0.4139
  O  O459  1  0.732900  0.056900  0.390300  1.0  -0.5582
  O  O460  1  0.711500  0.033700  0.331500  1.0  -0.4199
  O  O461  1  0.331200  0.229000  0.050000  1.0  -0.469
  O  O462  1  0.436600  0.210000  0.022600  1.0  -0.4168
  O  O463  1  0.556900  0.232900  0.819900  1.0  -0.56
  O  O464  1  0.533700  0.211500  0.923300  1.0  -0.419
  O  O465  1  0.550000  0.389800  0.831200  1.0  -0.4653
  O  O466  1  0.522600  0.330800  0.936600  1.0  -0.4133
  O  O467  1  0.319900  0.390300  0.056900  1.0  -0.5575
  O  O468  1  0.423300  0.331500  0.033700  1.0  -0.4189
  O  O469  1  0.889800  0.050000  0.229000  1.0  -0.4683
  O  O470  1  0.830800  0.022600  0.210000  1.0  -0.4139
  O  O471  1  0.890300  0.819900  0.232900  1.0  -0.5604
  O  O472  1  0.831500  0.923300  0.211500  1.0  -0.4197
  O  O473  1  0.889800  0.831200  0.050000  1.0  -0.4698
  O  O474  1  0.830800  0.936600  0.022600  1.0  -0.4107
  O  O475  1  0.890300  0.056900  0.819900  1.0  -0.5611
  O  O476  1  0.831500  0.033700  0.923300  1.0  -0.4211
  O  O477  1  0.550000  0.229000  0.389800  1.0  -0.4685
  O  O478  1  0.522600  0.210000  0.330800  1.0  -0.4149
  O  O479  1  0.319900  0.232900  0.390300  1.0  -0.5568
  O  O480  1  0.423300  0.211500  0.331500  1.0  -0.421
  O  O481  1  0.331200  0.389800  0.229000  1.0  -0.4665
  O  O482  1  0.436600  0.330800  0.210000  1.0  -0.4075
  O  O483  1  0.556900  0.390300  0.232900  1.0  -0.5597
  O  O484  1  0.533700  0.331500  0.211500  1.0  -0.4207
  O  O485  1  0.729000  0.050000  0.831200  1.0  -0.4662
  O  O486  1  0.710000  0.022600  0.936600  1.0  -0.4173
  O  O487  1  0.732900  0.819900  0.056900  1.0  -0.5581
  O  O488  1  0.711500  0.923300  0.033700  1.0  -0.4198
  O  O489  1  0.550000  0.831200  0.229000  1.0  -0.4672
  O  O490  1  0.522600  0.936600  0.210000  1.0  -0.41
  O  O491  1  0.319900  0.056900  0.232900  1.0  -0.5574
  O  O492  1  0.423300  0.033700  0.211500  1.0  -0.4226
  O  O493  1  0.889800  0.229000  0.831200  1.0  -0.4579
  O  O494  1  0.830800  0.210000  0.936600  1.0  -0.4111
  O  O495  1  0.890300  0.232900  0.056900  1.0  -0.554
  O  O496  1  0.831500  0.211500  0.033700  1.0  -0.4202
  O  O497  1  0.729000  0.389800  0.050000  1.0  -0.4616
  O  O498  1  0.710000  0.330800  0.022600  1.0  -0.4089
  O  O499  1  0.732900  0.390300  0.819900  1.0  -0.5597
  O  O500  1  0.711500  0.331500  0.923300  1.0  -0.4197
  O  O501  1  0.331200  0.050000  0.389800  1.0  -0.4675
  O  O502  1  0.436600  0.022600  0.330800  1.0  -0.4109
  O  O503  1  0.556900  0.819900  0.390300  1.0  -0.5587
  O  O504  1  0.533700  0.923300  0.331500  1.0  -0.4209
  O  O505  1  0.831200  0.729000  0.889800  1.0  -0.4696
  O  O506  1  0.936600  0.710000  0.830800  1.0  -0.4121
  O  O507  1  0.056900  0.732900  0.890300  1.0  -0.5597
  O  O508  1  0.033700  0.711500  0.831500  1.0  -0.4191
  O  O509  1  0.229000  0.331200  0.550000  1.0  -0.4664
  O  O510  1  0.210000  0.436600  0.522600  1.0  -0.4147
  O  O511  1  0.232900  0.556900  0.319900  1.0  -0.5579
  O  O512  1  0.211500  0.533700  0.423300  1.0  -0.4189
  O  O513  1  0.389800  0.550000  0.331200  1.0  -0.4681
  O  O514  1  0.330800  0.522600  0.436600  1.0  -0.4132
  O  O515  1  0.390300  0.319900  0.556900  1.0  -0.5597
  O  O516  1  0.331500  0.423300  0.533700  1.0  -0.4179
  O  O517  1  0.050000  0.889800  0.729000  1.0  -0.4659
  O  O518  1  0.022600  0.830800  0.710000  1.0  -0.4107
  O  O519  1  0.819900  0.890300  0.732900  1.0  -0.5591
  O  O520  1  0.923300  0.831500  0.711500  1.0  -0.4184
  O  O521  1  0.831200  0.889800  0.550000  1.0  -0.4663
  O  O522  1  0.936600  0.830800  0.522600  1.0  -0.411
  O  O523  1  0.056900  0.890300  0.319900  1.0  -0.5591
  O  O524  1  0.033700  0.831500  0.423300  1.0  -0.4202
  O  O525  1  0.229000  0.550000  0.889800  1.0  -0.4664
  O  O526  1  0.210000  0.522600  0.830800  1.0  -0.4165
  O  O527  1  0.232900  0.319900  0.890300  1.0  -0.5589
  O  O528  1  0.211500  0.423300  0.831500  1.0  -0.4214
  O  O529  1  0.389800  0.331200  0.729000  1.0  -0.4696
  O  O530  1  0.330800  0.436600  0.710000  1.0  -0.4106
  O  O531  1  0.390300  0.556900  0.732900  1.0  -0.5615
  O  O532  1  0.331500  0.533700  0.711500  1.0  -0.4224
  O  O533  1  0.050000  0.729000  0.331200  1.0  -0.4681
  O  O534  1  0.022600  0.710000  0.436600  1.0  -0.4172
  O  O535  1  0.819900  0.732900  0.556900  1.0  -0.5555
  O  O536  1  0.923300  0.711500  0.533700  1.0  -0.4222
  O  O537  1  0.831200  0.550000  0.729000  1.0  -0.4677
  O  O538  1  0.936600  0.522600  0.710000  1.0  -0.4121
  O  O539  1  0.056900  0.319900  0.732900  1.0  -0.5582
  O  O540  1  0.033700  0.423300  0.711500  1.0  -0.4221
  O  O541  1  0.229000  0.889800  0.331200  1.0  -0.4598
  O  O542  1  0.210000  0.830800  0.436600  1.0  -0.4087
  O  O543  1  0.232900  0.890300  0.556900  1.0  -0.5571
  O  O544  1  0.211500  0.831500  0.533700  1.0  -0.4195
  O  O545  1  0.389800  0.729000  0.550000  1.0  -0.4603
  O  O546  1  0.330800  0.710000  0.522600  1.0  -0.4111
  O  O547  1  0.390300  0.732900  0.319900  1.0  -0.5554
  O  O548  1  0.331500  0.711500  0.423300  1.0  -0.4208
  O  O549  1  0.050000  0.331200  0.889800  1.0  -0.4669
  O  O550  1  0.022600  0.436600  0.830800  1.0  -0.4088
  O  O551  1  0.819900  0.556900  0.890300  1.0  -0.5572
  O  O552  1  0.923300  0.533700  0.831500  1.0  -0.4215
  O  O553  1  0.271000  0.168800  0.610200  1.0  -0.4649
  O  O554  1  0.290000  0.063400  0.669200  1.0  -0.4159
  O  O555  1  0.267100  0.943100  0.609700  1.0  -0.5579
  O  O556  1  0.288500  0.966300  0.668500  1.0  -0.419
  O  O557  1  0.668800  0.771000  0.950000  1.0  -0.4714
  O  O558  1  0.563400  0.790000  0.977400  1.0  -0.4141
  O  O559  1  0.443100  0.767100  0.180100  1.0  -0.5575
  O  O560  1  0.466300  0.788500  0.076700  1.0  -0.4198
  O  O561  1  0.450000  0.610200  0.168800  1.0  -0.4677
  O  O562  1  0.477400  0.669200  0.063400  1.0  -0.4135
  O  O563  1  0.680100  0.609700  0.943100  1.0  -0.5604
  O  O564  1  0.576700  0.668500  0.966300  1.0  -0.4193
  O  O565  1  0.110200  0.950000  0.771000  1.0  -0.466
  O  O566  1  0.169200  0.977400  0.790000  1.0  -0.4151
  O  O567  1  0.109700  0.180100  0.767100  1.0  -0.5603
  O  O568  1  0.168500  0.076700  0.788500  1.0  -0.4198
  O  O569  1  0.110200  0.168800  0.950000  1.0  -0.4694
  O  O570  1  0.169200  0.063400  0.977400  1.0  -0.4088
  O  O571  1  0.109700  0.943100  0.180100  1.0  -0.5595
  O  O572  1  0.168500  0.966300  0.076700  1.0  -0.4218
  O  O573  1  0.450000  0.771000  0.610200  1.0  -0.4685
  O  O574  1  0.477400  0.790000  0.669200  1.0  -0.417
  O  O575  1  0.680100  0.767100  0.609700  1.0  -0.558
  O  O576  1  0.576700  0.788500  0.668500  1.0  -0.4206
  O  O577  1  0.668800  0.610200  0.771000  1.0  -0.4674
  O  O578  1  0.563400  0.669200  0.790000  1.0  -0.4101
  O  O579  1  0.443100  0.609700  0.767100  1.0  -0.5581
  O  O580  1  0.466300  0.668500  0.788500  1.0  -0.42
  O  O581  1  0.271000  0.950000  0.168800  1.0  -0.4659
  O  O582  1  0.290000  0.977400  0.063400  1.0  -0.4147
  O  O583  1  0.267100  0.180100  0.943100  1.0  -0.5589
  O  O584  1  0.288500  0.076700  0.966300  1.0  -0.4211
  O  O585  1  0.450000  0.168800  0.771000  1.0  -0.4668
  O  O586  1  0.477400  0.063400  0.790000  1.0  -0.4085
  O  O587  1  0.680100  0.943100  0.767100  1.0  -0.5591
  O  O588  1  0.576700  0.966300  0.788500  1.0  -0.4223
  O  O589  1  0.110200  0.771000  0.168800  1.0  -0.4623
  O  O590  1  0.169200  0.790000  0.063400  1.0  -0.4112
  O  O591  1  0.109700  0.767100  0.943100  1.0  -0.5558
  O  O592  1  0.168500  0.788500  0.966300  1.0  -0.423
  O  O593  1  0.271000  0.610200  0.950000  1.0  -0.46
  O  O594  1  0.290000  0.669200  0.977400  1.0  -0.4087
  O  O595  1  0.267100  0.609700  0.180100  1.0  -0.5569
  O  O596  1  0.288500  0.668500  0.076700  1.0  -0.4192
  O  O597  1  0.668800  0.950000  0.610200  1.0  -0.4676
  O  O598  1  0.563400  0.977400  0.669200  1.0  -0.4127
  O  O599  1  0.443100  0.180100  0.609700  1.0  -0.5575
  O  O600  1  0.466300  0.076700  0.668500  1.0  -0.4205
