# generated using pymatgen
data_Nd2H6Ru3(C4N3)6
_symmetry_space_group_name_H-M   'P 1'
_cell_length_a   8.77310000
_cell_length_b   11.03300000
_cell_length_c   25.68900000
_cell_angle_alpha   90.00000000
_cell_angle_beta   90.00000000
_cell_angle_gamma   101.83400000
_symmetry_Int_Tables_number   1
_chemical_formula_structural   Nd2H6Ru3(C4N3)6
_chemical_formula_sum   'Nd4 H12 Ru6 C48 N36'
_cell_volume   2433.68204110
_cell_formula_units_Z   2
loop_
 _symmetry_equiv_pos_site_id
 _symmetry_equiv_pos_as_xyz
  1  'x, y, z'
loop_
 _atom_site_type_symbol
 _atom_site_label
 _atom_site_symmetry_multiplicity
 _atom_site_fract_x
 _atom_site_fract_y
 _atom_site_fract_z
 _atom_site_occupancy
 _atom_site_charge
  Nd  Nd1  1  0.696310  0.686730  0.589760  1.0  2.2278
  Nd  Nd2  1  0.303690  0.313270  0.089760  1.0  2.2275
  Nd  Nd3  1  0.303690  0.313270  0.410240  1.0  2.2282
  Nd  Nd4  1  0.696310  0.686730  0.910240  1.0  2.2285
  H  H5  1  0.322800  0.159100  0.582500  1.0  0.1027
  H  H6  1  0.453100  0.030500  0.626900  1.0  0.1103
  H  H7  1  0.972800  0.517300  0.704500  1.0  0.1005
  H  H8  1  0.677200  0.840900  0.082500  1.0  0.1033
  H  H9  1  0.546900  0.969500  0.126900  1.0  0.112
  H  H10  1  0.027200  0.482700  0.204500  1.0  0.1008
  H  H11  1  0.677200  0.840900  0.417500  1.0  0.1028
  H  H12  1  0.546900  0.969500  0.373100  1.0  0.1125
  H  H13  1  0.027200  0.482700  0.295500  1.0  0.1007
  H  H14  1  0.322800  0.159100  0.917500  1.0  0.102
  H  H15  1  0.453100  0.030500  0.873100  1.0  0.1112
  H  H16  1  0.972800  0.517300  0.795500  1.0  0.1
  Ru  Ru17  1  0.115710  0.364600  0.614070  1.0  -0.3147
  Ru  Ru18  1  0.884290  0.635400  0.114070  1.0  -0.3135
  Ru  Ru19  1  0.884290  0.635400  0.385930  1.0  -0.3117
  Ru  Ru20  1  0.115710  0.364600  0.885930  1.0  -0.3141
  Ru  Ru21  1  0.504740  0.970720  0.750000  1.0  -0.2537
  Ru  Ru22  1  0.495260  0.029280  0.250000  1.0  -0.2565
  C  C23  1  0.250800  0.235100  0.695200  1.0  0.0791
  C  C24  1  0.322400  0.160900  0.618700  1.0  0.0688
  C  C25  1  0.401300  0.081700  0.645800  1.0  0.0702
  C  C26  1  0.328300  0.157300  0.722500  1.0  0.0858
  C  C27  1  0.170400  0.315100  0.722800  1.0  0.0843
  C  C28  1  0.024100  0.463800  0.722200  1.0  0.1064
  C  C29  1  0.586200  0.880500  0.693700  1.0  0.3177
  C  C30  1  0.920800  0.227800  0.609000  1.0  0.1154
  C  C31  1  0.986000  0.486500  0.597500  1.0  0.301
  C  C32  1  0.846700  0.672700  0.459400  1.0  0.3016
  C  C33  1  0.303300  0.502100  0.611500  1.0  0.2666
  C  C34  1  0.749200  0.764900  0.195200  1.0  0.0791
  C  C35  1  0.677600  0.839100  0.118700  1.0  0.07
  C  C36  1  0.598700  0.918300  0.145800  1.0  0.0736
  C  C37  1  0.671700  0.842700  0.222500  1.0  0.0878
  C  C38  1  0.829600  0.684900  0.222800  1.0  0.0883
  C  C39  1  0.975900  0.536200  0.222200  1.0  0.0974
  C  C40  1  0.413800  0.119500  0.193700  1.0  0.3271
  C  C41  1  0.079200  0.772200  0.109000  1.0  0.1119
  C  C42  1  0.014000  0.513500  0.097500  1.0  0.3011
  C  C43  1  0.153300  0.327300  0.959400  1.0  0.3049
  C  C44  1  0.696700  0.497900  0.111500  1.0  0.2655
  C  C45  1  0.749200  0.764900  0.304800  1.0  0.0793
  C  C46  1  0.677600  0.839100  0.381300  1.0  0.0762
  C  C47  1  0.598700  0.918300  0.354200  1.0  0.0709
  C  C48  1  0.671700  0.842700  0.277500  1.0  0.0908
  C  C49  1  0.829600  0.684900  0.277200  1.0  0.089
  C  C50  1  0.975900  0.536200  0.277800  1.0  0.0948
  C  C51  1  0.413800  0.119500  0.306300  1.0  0.3653
  C  C52  1  0.079200  0.772200  0.391000  1.0  0.112
  C  C53  1  0.014000  0.513500  0.402500  1.0  0.2993
  C  C54  1  0.153300  0.327300  0.540600  1.0  0.3394
  C  C55  1  0.696700  0.497900  0.388500  1.0  0.2653
  C  C56  1  0.250800  0.235100  0.804800  1.0  0.0793
  C  C57  1  0.322400  0.160900  0.881300  1.0  0.0705
  C  C58  1  0.401300  0.081700  0.854200  1.0  0.0698
  C  C59  1  0.328300  0.157300  0.777500  1.0  0.0887
  C  C60  1  0.170400  0.315100  0.777200  1.0  0.0852
  C  C61  1  0.024100  0.463800  0.777800  1.0  0.1046
  C  C62  1  0.586200  0.880500  0.806300  1.0  0.324
  C  C63  1  0.920800  0.227800  0.891000  1.0  0.1144
  C  C64  1  0.986000  0.486500  0.902500  1.0  0.2981
  C  C65  1  0.846700  0.672700  0.040600  1.0  0.3024
  C  C66  1  0.303300  0.502100  0.888500  1.0  0.2661
  C  C67  1  0.308000  0.836300  0.750000  1.0  0.0993
  C  C68  1  0.700200  0.104800  0.750000  1.0  0.0941
  C  C69  1  0.692000  0.163700  0.250000  1.0  0.0979
  C  C70  1  0.299800  0.895200  0.250000  1.0  0.0948
  N  N71  1  0.247600  0.238200  0.642300  1.0  -0.033
  N  N72  1  0.403900  0.077800  0.697500  1.0  -0.0131
  N  N73  1  0.095200  0.389600  0.695000  1.0  -0.0163
  N  N74  1  0.626200  0.828600  0.658300  1.0  -0.7228
  N  N75  1  0.808800  0.152800  0.601900  1.0  -0.5014
  N  N76  1  0.908000  0.558400  0.590800  1.0  -0.7394
  N  N77  1  0.824100  0.701200  0.501300  1.0  -0.7703
  N  N78  1  0.411400  0.584100  0.608800  1.0  -0.7374
  N  N79  1  0.752400  0.761800  0.142300  1.0  -0.0319
  N  N80  1  0.596100  0.922200  0.197500  1.0  -0.009
  N  N81  1  0.904800  0.610400  0.195000  1.0  -0.0287
  N  N82  1  0.373800  0.171400  0.158300  1.0  -0.7212
  N  N83  1  0.191200  0.847200  0.101900  1.0  -0.5017
  N  N84  1  0.092000  0.441600  0.090800  1.0  -0.7395
  N  N85  1  0.175900  0.298800  0.001300  1.0  -0.7687
  N  N86  1  0.588600  0.415900  0.108800  1.0  -0.7167
  N  N87  1  0.752400  0.761800  0.357700  1.0  -0.0382
  N  N88  1  0.596100  0.922200  0.302500  1.0  -0.0098
  N  N89  1  0.904800  0.610400  0.305000  1.0  -0.0159
  N  N90  1  0.373800  0.171400  0.341700  1.0  -0.7233
  N  N91  1  0.191200  0.847200  0.398100  1.0  -0.4991
  N  N92  1  0.092000  0.441600  0.409200  1.0  -0.7397
  N  N93  1  0.175900  0.298800  0.498700  1.0  -0.7699
  N  N94  1  0.588600  0.415900  0.391200  1.0  -0.7158
  N  N95  1  0.247600  0.238200  0.857700  1.0  -0.0333
  N  N96  1  0.403900  0.077800  0.802500  1.0  -0.0144
  N  N97  1  0.095200  0.389600  0.805000  1.0  -0.0183
  N  N98  1  0.626200  0.828600  0.841700  1.0  -0.7231
  N  N99  1  0.808800  0.152800  0.898100  1.0  -0.4989
  N  N100  1  0.908000  0.558400  0.909200  1.0  -0.7397
  N  N101  1  0.824100  0.701200  0.998700  1.0  -0.77
  N  N102  1  0.411400  0.584100  0.891200  1.0  -0.7381
  N  N103  1  0.198800  0.757400  0.750000  1.0  -0.5021
  N  N104  1  0.807300  0.187500  0.750000  1.0  -0.4909
  N  N105  1  0.801200  0.242600  0.250000  1.0  -0.5013
  N  N106  1  0.192700  0.812500  0.250000  1.0  -0.489
