# generated using pymatgen
data_CdH4C8ClO4
_symmetry_space_group_name_H-M   'P 1'
_cell_length_a   15.04120000
_cell_length_b   15.89190000
_cell_length_c   28.22100000
_cell_angle_alpha   90.00000000
_cell_angle_beta   90.00000000
_cell_angle_gamma   90.00000000
_symmetry_Int_Tables_number   1
_chemical_formula_structural   CdH4C8ClO4
_chemical_formula_sum   'Cd16 H64 C128 Cl16 O64'
_cell_volume   6745.75724327
_cell_formula_units_Z   16
loop_
 _symmetry_equiv_pos_site_id
 _symmetry_equiv_pos_as_xyz
  1  'x, y, z'
loop_
 _atom_site_type_symbol
 _atom_site_label
 _atom_site_symmetry_multiplicity
 _atom_site_fract_x
 _atom_site_fract_y
 _atom_site_fract_z
 _atom_site_occupancy
 _atom_site_charge
  Cd  Cd1  1  0.003100  0.125000  0.125000  1.0  0.8773
  Cd  Cd2  1  0.003100  0.625000  0.625000  1.0  0.8773
  Cd  Cd3  1  0.503100  0.125000  0.625000  1.0  0.8773
  Cd  Cd4  1  0.746900  0.625000  0.125000  1.0  0.8815
  Cd  Cd5  1  0.246900  0.625000  0.625000  1.0  0.8815
  Cd  Cd6  1  0.746900  0.125000  0.625000  1.0  0.8815
  Cd  Cd7  1  0.246900  0.125000  0.125000  1.0  0.8815
  Cd  Cd8  1  0.503100  0.625000  0.125000  1.0  0.8773
  Cd  Cd9  1  0.996900  0.875000  0.875000  1.0  0.8815
  Cd  Cd10  1  0.996900  0.375000  0.375000  1.0  0.8815
  Cd  Cd11  1  0.496900  0.875000  0.375000  1.0  0.8815
  Cd  Cd12  1  0.253100  0.375000  0.875000  1.0  0.8773
  Cd  Cd13  1  0.753100  0.375000  0.375000  1.0  0.8773
  Cd  Cd14  1  0.253100  0.875000  0.375000  1.0  0.8773
  Cd  Cd15  1  0.753100  0.875000  0.875000  1.0  0.8773
  Cd  Cd16  1  0.496900  0.375000  0.875000  1.0  0.8815
  H  H17  1  0.782500  0.326600  0.068100  1.0  0.1428
  H  H18  1  0.830900  0.129900  0.982100  1.0  0.1511
  H  H19  1  0.782500  0.826600  0.568100  1.0  0.1428
  H  H20  1  0.830900  0.629900  0.482100  1.0  0.1511
  H  H21  1  0.282500  0.326600  0.568100  1.0  0.1428
  H  H22  1  0.330900  0.129900  0.482100  1.0  0.1511
  H  H23  1  0.282500  0.826600  0.068100  1.0  0.1428
  H  H24  1  0.330900  0.629900  0.982100  1.0  0.1511
  H  H25  1  0.967500  0.423400  0.068100  1.0  0.143
  H  H26  1  0.919100  0.620100  0.982100  1.0  0.1514
  H  H27  1  0.967500  0.923400  0.568100  1.0  0.143
  H  H28  1  0.919100  0.120100  0.482100  1.0  0.1514
  H  H29  1  0.467500  0.423400  0.568100  1.0  0.143
  H  H30  1  0.419100  0.620100  0.482100  1.0  0.1514
  H  H31  1  0.467500  0.923400  0.068100  1.0  0.143
  H  H32  1  0.419100  0.120100  0.982100  1.0  0.1514
  H  H33  1  0.967500  0.326600  0.681900  1.0  0.1425
  H  H34  1  0.919100  0.129900  0.767900  1.0  0.1504
  H  H35  1  0.967500  0.826600  0.181900  1.0  0.1425
  H  H36  1  0.919100  0.629900  0.267900  1.0  0.1504
  H  H37  1  0.467500  0.326600  0.181900  1.0  0.1425
  H  H38  1  0.419100  0.129900  0.267900  1.0  0.1504
  H  H39  1  0.467500  0.826600  0.681900  1.0  0.1425
  H  H40  1  0.419100  0.629900  0.767900  1.0  0.1504
  H  H41  1  0.782500  0.423400  0.681900  1.0  0.1427
  H  H42  1  0.830900  0.620100  0.767900  1.0  0.1505
  H  H43  1  0.782500  0.923400  0.181900  1.0  0.1427
  H  H44  1  0.830900  0.120100  0.267900  1.0  0.1505
  H  H45  1  0.282500  0.423400  0.181900  1.0  0.1427
  H  H46  1  0.330900  0.620100  0.267900  1.0  0.1505
  H  H47  1  0.282500  0.923400  0.681900  1.0  0.1427
  H  H48  1  0.330900  0.120100  0.767900  1.0  0.1505
  H  H49  1  0.217500  0.673400  0.931900  1.0  0.1428
  H  H50  1  0.169100  0.870100  0.017900  1.0  0.1507
  H  H51  1  0.217500  0.173400  0.431900  1.0  0.1428
  H  H52  1  0.169100  0.370100  0.517900  1.0  0.1507
  H  H53  1  0.717500  0.673400  0.431900  1.0  0.1428
  H  H54  1  0.669100  0.870100  0.517900  1.0  0.1507
  H  H55  1  0.717500  0.173400  0.931900  1.0  0.1428
  H  H56  1  0.669100  0.370100  0.017900  1.0  0.1507
  H  H57  1  0.032500  0.576600  0.931900  1.0  0.1424
  H  H58  1  0.080900  0.379900  0.017900  1.0  0.1505
  H  H59  1  0.032500  0.076600  0.431900  1.0  0.1424
  H  H60  1  0.080900  0.879900  0.517900  1.0  0.1505
  H  H61  1  0.532500  0.576600  0.431900  1.0  0.1424
  H  H62  1  0.580900  0.379900  0.517900  1.0  0.1505
  H  H63  1  0.532500  0.076600  0.931900  1.0  0.1424
  H  H64  1  0.580900  0.879900  0.017900  1.0  0.1505
  H  H65  1  0.032500  0.673400  0.318100  1.0  0.1429
  H  H66  1  0.080900  0.870100  0.232100  1.0  0.1513
  H  H67  1  0.032500  0.173400  0.818100  1.0  0.1429
  H  H68  1  0.080900  0.370100  0.732100  1.0  0.1513
  H  H69  1  0.532500  0.673400  0.818100  1.0  0.1429
  H  H70  1  0.580900  0.870100  0.732100  1.0  0.1513
  H  H71  1  0.532500  0.173400  0.318100  1.0  0.1429
  H  H72  1  0.580900  0.370100  0.232100  1.0  0.1513
  H  H73  1  0.217500  0.576600  0.318100  1.0  0.1427
  H  H74  1  0.169100  0.379900  0.232100  1.0  0.1507
  H  H75  1  0.217500  0.076600  0.818100  1.0  0.1427
  H  H76  1  0.169100  0.879900  0.732100  1.0  0.1507
  H  H77  1  0.717500  0.576600  0.818100  1.0  0.1427
  H  H78  1  0.669100  0.379900  0.732100  1.0  0.1507
  H  H79  1  0.717500  0.076600  0.318100  1.0  0.1427
  H  H80  1  0.669100  0.879900  0.232100  1.0  0.1507
  C  C81  1  0.818000  0.223200  0.030520  1.0  -0.0896
  C  C82  1  0.888400  0.193600  0.063850  1.0  0.6939
  C  C83  1  0.769500  0.295700  0.040930  1.0  0.0048
  C  C84  1  0.798400  0.178000  0.989360  1.0  -0.0193
  C  C85  1  0.818000  0.723200  0.530520  1.0  -0.0896
  C  C86  1  0.888400  0.693600  0.563850  1.0  0.6939
  C  C87  1  0.769500  0.795700  0.540930  1.0  0.0048
  C  C88  1  0.798400  0.678000  0.489360  1.0  -0.0193
  C  C89  1  0.318000  0.223200  0.530520  1.0  -0.0896
  C  C90  1  0.388400  0.193600  0.563850  1.0  0.6939
  C  C91  1  0.269500  0.295700  0.540930  1.0  0.0048
  C  C92  1  0.298400  0.178000  0.489360  1.0  -0.0193
  C  C93  1  0.318000  0.723200  0.030520  1.0  -0.0896
  C  C94  1  0.388400  0.693600  0.063850  1.0  0.6939
  C  C95  1  0.269500  0.795700  0.040930  1.0  0.0048
  C  C96  1  0.298400  0.678000  0.989360  1.0  -0.0193
  C  C97  1  0.932000  0.526800  0.030520  1.0  -0.089
  C  C98  1  0.861600  0.556400  0.063850  1.0  0.6945
  C  C99  1  0.980500  0.454300  0.040930  1.0  0.0028
  C  C100  1  0.951600  0.572000  0.989360  1.0  -0.0196
  C  C101  1  0.932000  0.026800  0.530520  1.0  -0.089
  C  C102  1  0.861600  0.056400  0.563850  1.0  0.6945
  C  C103  1  0.980500  0.954300  0.540930  1.0  0.0028
  C  C104  1  0.951600  0.072000  0.489360  1.0  -0.0196
  C  C105  1  0.432000  0.526800  0.530520  1.0  -0.089
  C  C106  1  0.361600  0.556400  0.563850  1.0  0.6945
  C  C107  1  0.480500  0.454300  0.540930  1.0  0.0028
  C  C108  1  0.451600  0.572000  0.489360  1.0  -0.0196
  C  C109  1  0.432000  0.026800  0.030520  1.0  -0.089
  C  C110  1  0.361600  0.056400  0.063850  1.0  0.6945
  C  C111  1  0.480500  0.954300  0.040930  1.0  0.0028
  C  C112  1  0.451600  0.072000  0.989360  1.0  -0.0196
  C  C113  1  0.932000  0.223200  0.719480  1.0  -0.0897
  C  C114  1  0.861600  0.193600  0.686150  1.0  0.694
  C  C115  1  0.980500  0.295700  0.709070  1.0  0.0035
  C  C116  1  0.951600  0.178000  0.760640  1.0  -0.0196
  C  C117  1  0.932000  0.723200  0.219480  1.0  -0.0897
  C  C118  1  0.861600  0.693600  0.186150  1.0  0.694
  C  C119  1  0.980500  0.795700  0.209070  1.0  0.0035
  C  C120  1  0.951600  0.678000  0.260640  1.0  -0.0196
  C  C121  1  0.432000  0.223200  0.219480  1.0  -0.0897
  C  C122  1  0.361600  0.193600  0.186150  1.0  0.694
  C  C123  1  0.480500  0.295700  0.209070  1.0  0.0035
  C  C124  1  0.451600  0.178000  0.260640  1.0  -0.0196
  C  C125  1  0.432000  0.723200  0.719480  1.0  -0.0897
  C  C126  1  0.361600  0.693600  0.686150  1.0  0.694
  C  C127  1  0.480500  0.795700  0.709070  1.0  0.0035
  C  C128  1  0.451600  0.678000  0.760640  1.0  -0.0196
  C  C129  1  0.818000  0.526800  0.719480  1.0  -0.089
  C  C130  1  0.888400  0.556400  0.686150  1.0  0.693
  C  C131  1  0.769500  0.454300  0.709070  1.0  0.005
  C  C132  1  0.798400  0.572000  0.760640  1.0  -0.0211
  C  C133  1  0.818000  0.026800  0.219480  1.0  -0.089
  C  C134  1  0.888400  0.056400  0.186150  1.0  0.693
  C  C135  1  0.769500  0.954300  0.209070  1.0  0.005
  C  C136  1  0.798400  0.072000  0.260640  1.0  -0.0211
  C  C137  1  0.318000  0.526800  0.219480  1.0  -0.089
  C  C138  1  0.388400  0.556400  0.186150  1.0  0.693
  C  C139  1  0.269500  0.454300  0.209070  1.0  0.005
  C  C140  1  0.298400  0.572000  0.260640  1.0  -0.0211
  C  C141  1  0.318000  0.026800  0.719480  1.0  -0.089
  C  C142  1  0.388400  0.056400  0.686150  1.0  0.693
  C  C143  1  0.269500  0.954300  0.709070  1.0  0.005
  C  C144  1  0.298400  0.072000  0.760640  1.0  -0.0211
  C  C145  1  0.182000  0.776800  0.969480  1.0  -0.0889
  C  C146  1  0.111600  0.806400  0.936150  1.0  0.6945
  C  C147  1  0.230500  0.704300  0.959070  1.0  0.0035
  C  C148  1  0.201600  0.822000  0.010640  1.0  -0.0209
  C  C149  1  0.182000  0.276800  0.469480  1.0  -0.0889
  C  C150  1  0.111600  0.306400  0.436150  1.0  0.6945
  C  C151  1  0.230500  0.204300  0.459070  1.0  0.0035
  C  C152  1  0.201600  0.322000  0.510640  1.0  -0.0209
  C  C153  1  0.682000  0.776800  0.469480  1.0  -0.0889
  C  C154  1  0.611600  0.806400  0.436150  1.0  0.6945
  C  C155  1  0.730500  0.704300  0.459070  1.0  0.0035
  C  C156  1  0.701600  0.822000  0.510640  1.0  -0.0209
  C  C157  1  0.682000  0.276800  0.969480  1.0  -0.0889
  C  C158  1  0.611600  0.306400  0.936150  1.0  0.6945
  C  C159  1  0.730500  0.204300  0.959070  1.0  0.0035
  C  C160  1  0.701600  0.322000  0.010640  1.0  -0.0209
  C  C161  1  0.068000  0.473200  0.969480  1.0  -0.0894
  C  C162  1  0.138400  0.443600  0.936150  1.0  0.693
  C  C163  1  0.019500  0.545700  0.959070  1.0  0.0048
  C  C164  1  0.048400  0.428000  0.010640  1.0  -0.0201
  C  C165  1  0.068000  0.973200  0.469480  1.0  -0.0894
  C  C166  1  0.138400  0.943600  0.436150  1.0  0.693
  C  C167  1  0.019500  0.045700  0.459070  1.0  0.0048
  C  C168  1  0.048400  0.928000  0.510640  1.0  -0.0201
  C  C169  1  0.568000  0.473200  0.469480  1.0  -0.0894
  C  C170  1  0.638400  0.443600  0.436150  1.0  0.693
  C  C171  1  0.519500  0.545700  0.459070  1.0  0.0048
  C  C172  1  0.548400  0.428000  0.510640  1.0  -0.0201
  C  C173  1  0.568000  0.973200  0.969480  1.0  -0.0894
  C  C174  1  0.638400  0.943600  0.936150  1.0  0.693
  C  C175  1  0.519500  0.045700  0.959070  1.0  0.0048
  C  C176  1  0.548400  0.928000  0.010640  1.0  -0.0201
  C  C177  1  0.068000  0.776800  0.280520  1.0  -0.0891
  C  C178  1  0.138400  0.806400  0.313850  1.0  0.6939
  C  C179  1  0.019500  0.704300  0.290930  1.0  0.0044
  C  C180  1  0.048400  0.822000  0.239360  1.0  -0.0198
  C  C181  1  0.068000  0.276800  0.780520  1.0  -0.0891
  C  C182  1  0.138400  0.306400  0.813850  1.0  0.6939
  C  C183  1  0.019500  0.204300  0.790930  1.0  0.0044
  C  C184  1  0.048400  0.322000  0.739360  1.0  -0.0198
  C  C185  1  0.568000  0.776800  0.780520  1.0  -0.0891
  C  C186  1  0.638400  0.806400  0.813850  1.0  0.6939
  C  C187  1  0.519500  0.704300  0.790930  1.0  0.0044
  C  C188  1  0.548400  0.822000  0.739360  1.0  -0.0198
  C  C189  1  0.568000  0.276800  0.280520  1.0  -0.0891
  C  C190  1  0.638400  0.306400  0.313850  1.0  0.6939
  C  C191  1  0.519500  0.204300  0.290930  1.0  0.0044
  C  C192  1  0.548400  0.322000  0.239360  1.0  -0.0198
  C  C193  1  0.182000  0.473200  0.280520  1.0  -0.0897
  C  C194  1  0.111600  0.443600  0.313850  1.0  0.694
  C  C195  1  0.230500  0.545700  0.290930  1.0  0.0032
  C  C196  1  0.201600  0.428000  0.239360  1.0  -0.0193
  C  C197  1  0.182000  0.973200  0.780520  1.0  -0.0897
  C  C198  1  0.111600  0.943600  0.813850  1.0  0.694
  C  C199  1  0.230500  0.045700  0.790930  1.0  0.0032
  C  C200  1  0.201600  0.928000  0.739360  1.0  -0.0193
  C  C201  1  0.682000  0.473200  0.780520  1.0  -0.0897
  C  C202  1  0.611600  0.443600  0.813850  1.0  0.694
  C  C203  1  0.730500  0.545700  0.790930  1.0  0.0032
  C  C204  1  0.701600  0.428000  0.739360  1.0  -0.0193
  C  C205  1  0.682000  0.973200  0.280520  1.0  -0.0897
  C  C206  1  0.611600  0.943600  0.313850  1.0  0.694
  C  C207  1  0.730500  0.045700  0.290930  1.0  0.0032
  C  C208  1  0.701600  0.928000  0.239360  1.0  -0.0193
  Cl  Cl209  1  0.125000  0.012620  0.125000  1.0  -0.4519
  Cl  Cl210  1  0.125000  0.512620  0.625000  1.0  -0.4519
  Cl  Cl211  1  0.625000  0.012620  0.625000  1.0  -0.4519
  Cl  Cl212  1  0.625000  0.737380  0.125000  1.0  -0.4527
  Cl  Cl213  1  0.625000  0.237380  0.625000  1.0  -0.4527
  Cl  Cl214  1  0.625000  0.512620  0.125000  1.0  -0.4519
  Cl  Cl215  1  0.125000  0.737380  0.625000  1.0  -0.4527
  Cl  Cl216  1  0.125000  0.237380  0.125000  1.0  -0.4527
  Cl  Cl217  1  0.875000  0.987380  0.875000  1.0  -0.4527
  Cl  Cl218  1  0.875000  0.487380  0.375000  1.0  -0.4527
  Cl  Cl219  1  0.375000  0.987380  0.375000  1.0  -0.4527
  Cl  Cl220  1  0.375000  0.262620  0.875000  1.0  -0.4519
  Cl  Cl221  1  0.375000  0.762620  0.375000  1.0  -0.4519
  Cl  Cl222  1  0.375000  0.487380  0.875000  1.0  -0.4527
  Cl  Cl223  1  0.875000  0.262620  0.375000  1.0  -0.4519
  Cl  Cl224  1  0.875000  0.762620  0.875000  1.0  -0.4519
  O  O225  1  0.942200  0.136600  0.050000  1.0  -0.5762
  O  O226  1  0.891500  0.224300  0.104760  1.0  -0.5176
  O  O227  1  0.942200  0.636600  0.550000  1.0  -0.5762
  O  O228  1  0.891500  0.724300  0.604760  1.0  -0.5176
  O  O229  1  0.442200  0.136600  0.550000  1.0  -0.5762
  O  O230  1  0.391500  0.224300  0.604760  1.0  -0.5176
  O  O231  1  0.442200  0.636600  0.050000  1.0  -0.5762
  O  O232  1  0.391500  0.724300  0.104760  1.0  -0.5176
  O  O233  1  0.807800  0.613400  0.050000  1.0  -0.5777
  O  O234  1  0.858500  0.525700  0.104760  1.0  -0.5174
  O  O235  1  0.807800  0.113400  0.550000  1.0  -0.5777
  O  O236  1  0.858500  0.025700  0.604760  1.0  -0.5174
  O  O237  1  0.307800  0.613400  0.550000  1.0  -0.5777
  O  O238  1  0.358500  0.525700  0.604760  1.0  -0.5174
  O  O239  1  0.307800  0.113400  0.050000  1.0  -0.5777
  O  O240  1  0.358500  0.025700  0.104760  1.0  -0.5174
  O  O241  1  0.807800  0.136600  0.700000  1.0  -0.5745
  O  O242  1  0.858500  0.224300  0.645240  1.0  -0.5212
  O  O243  1  0.807800  0.636600  0.200000  1.0  -0.5745
  O  O244  1  0.858500  0.724300  0.145240  1.0  -0.5212
  O  O245  1  0.307800  0.136600  0.200000  1.0  -0.5745
  O  O246  1  0.358500  0.224300  0.145240  1.0  -0.5212
  O  O247  1  0.307800  0.636600  0.700000  1.0  -0.5745
  O  O248  1  0.358500  0.724300  0.645240  1.0  -0.5212
  O  O249  1  0.942200  0.613400  0.700000  1.0  -0.5785
  O  O250  1  0.891500  0.525700  0.645240  1.0  -0.5198
  O  O251  1  0.942200  0.113400  0.200000  1.0  -0.5785
  O  O252  1  0.891500  0.025700  0.145240  1.0  -0.5198
  O  O253  1  0.442200  0.613400  0.200000  1.0  -0.5785
  O  O254  1  0.391500  0.525700  0.145240  1.0  -0.5198
  O  O255  1  0.442200  0.113400  0.700000  1.0  -0.5785
  O  O256  1  0.391500  0.025700  0.645240  1.0  -0.5198
  O  O257  1  0.057800  0.863400  0.950000  1.0  -0.5773
  O  O258  1  0.108500  0.775700  0.895240  1.0  -0.5186
  O  O259  1  0.057800  0.363400  0.450000  1.0  -0.5773
  O  O260  1  0.108500  0.275700  0.395240  1.0  -0.5186
  O  O261  1  0.557800  0.863400  0.450000  1.0  -0.5773
  O  O262  1  0.608500  0.775700  0.395240  1.0  -0.5186
  O  O263  1  0.557800  0.363400  0.950000  1.0  -0.5773
  O  O264  1  0.608500  0.275700  0.895240  1.0  -0.5186
  O  O265  1  0.192200  0.386600  0.950000  1.0  -0.5761
  O  O266  1  0.141500  0.474300  0.895240  1.0  -0.5189
  O  O267  1  0.192200  0.886600  0.450000  1.0  -0.5761
  O  O268  1  0.141500  0.974300  0.395240  1.0  -0.5189
  O  O269  1  0.692200  0.386600  0.450000  1.0  -0.5761
  O  O270  1  0.641500  0.474300  0.395240  1.0  -0.5189
  O  O271  1  0.692200  0.886600  0.950000  1.0  -0.5761
  O  O272  1  0.641500  0.974300  0.895240  1.0  -0.5189
  O  O273  1  0.192200  0.863400  0.300000  1.0  -0.5781
  O  O274  1  0.141500  0.775700  0.354760  1.0  -0.5186
  O  O275  1  0.192200  0.363400  0.800000  1.0  -0.5781
  O  O276  1  0.141500  0.275700  0.854760  1.0  -0.5186
  O  O277  1  0.692200  0.863400  0.800000  1.0  -0.5781
  O  O278  1  0.641500  0.775700  0.854760  1.0  -0.5186
  O  O279  1  0.692200  0.363400  0.300000  1.0  -0.5781
  O  O280  1  0.641500  0.275700  0.354760  1.0  -0.5186
  O  O281  1  0.057800  0.386600  0.300000  1.0  -0.5758
  O  O282  1  0.108500  0.474300  0.354760  1.0  -0.5195
  O  O283  1  0.057800  0.886600  0.800000  1.0  -0.5758
  O  O284  1  0.108500  0.974300  0.854760  1.0  -0.5195
  O  O285  1  0.557800  0.386600  0.800000  1.0  -0.5758
  O  O286  1  0.608500  0.474300  0.854760  1.0  -0.5195
  O  O287  1  0.557800  0.886600  0.300000  1.0  -0.5758
  O  O288  1  0.608500  0.974300  0.354760  1.0  -0.5195
