# generated using pymatgen
data_EuH30C38(NO2)4
_symmetry_space_group_name_H-M   'P 1'
_cell_length_a   24.07200000
_cell_length_b   24.07200000
_cell_length_c   13.61000000
_cell_angle_alpha   90.00000000
_cell_angle_beta   90.00000000
_cell_angle_gamma   90.00000000
_symmetry_Int_Tables_number   1
_chemical_formula_structural   EuH30C38(NO2)4
_chemical_formula_sum   'Eu8 H240 C304 N32 O64'
_cell_volume   7886.46671424
_cell_formula_units_Z   8
loop_
 _symmetry_equiv_pos_site_id
 _symmetry_equiv_pos_as_xyz
  1  'x, y, z'
loop_
 _atom_site_type_symbol
 _atom_site_label
 _atom_site_symmetry_multiplicity
 _atom_site_fract_x
 _atom_site_fract_y
 _atom_site_fract_z
 _atom_site_occupancy
 _atom_site_charge
  Eu  Eu1  1  0.000000  0.750000  0.028290  1.0  2.0799
  Eu  Eu2  1  0.500000  0.250000  0.528290  1.0  2.0799
  Eu  Eu3  1  0.000000  0.250000  0.278290  1.0  2.0799
  Eu  Eu4  1  0.500000  0.750000  0.778290  1.0  2.0799
  Eu  Eu5  1  0.000000  0.250000  0.971710  1.0  2.0835
  Eu  Eu6  1  0.500000  0.750000  0.471710  1.0  2.0835
  Eu  Eu7  1  0.000000  0.750000  0.721710  1.0  2.0805
  Eu  Eu8  1  0.500000  0.250000  0.221710  1.0  2.0805
  H  H9  1  0.352000  0.687200  0.775900  1.0  0.0789
  H  H10  1  0.266100  0.657300  0.819900  1.0  0.0938
  H  H11  1  0.208000  0.699000  0.556000  1.0  0.0963
  H  H12  1  0.296200  0.726200  0.510000  1.0  0.0846
  H  H13  1  0.169400  0.655700  0.798400  1.0  0.0908
  H  H14  1  0.144300  0.690200  0.711300  1.0  0.0931
  H  H15  1  0.084500  0.634400  0.603500  1.0  0.0853
  H  H16  1  0.961500  0.654500  0.338900  1.0  0.0807
  H  H17  1  0.125100  0.555800  0.363100  1.0  0.1039
  H  H18  1  0.108400  0.609300  0.229300  1.0  0.0848
  H  H19  1  0.157000  0.486500  0.618200  1.0  0.1129
  H  H20  1  0.207700  0.551200  0.722400  1.0  0.0893
  H  H21  1  0.979100  0.600500  0.479100  1.0  0.099
  H  H22  1  0.029400  0.531200  0.558900  1.0  0.0684
  H  H23  1  0.073600  0.497100  0.499400  1.0  0.0847
  H  H24  1  0.852000  0.187200  0.275900  1.0  0.0789
  H  H25  1  0.766100  0.157300  0.319900  1.0  0.0938
  H  H26  1  0.708000  0.199000  0.056000  1.0  0.0963
  H  H27  1  0.796200  0.226200  0.010000  1.0  0.0846
  H  H28  1  0.669400  0.155700  0.298400  1.0  0.0908
  H  H29  1  0.644300  0.190200  0.211300  1.0  0.0931
  H  H30  1  0.584500  0.134400  0.103500  1.0  0.0853
  H  H31  1  0.461500  0.154500  0.838900  1.0  0.0807
  H  H32  1  0.625100  0.055800  0.863100  1.0  0.1039
  H  H33  1  0.608400  0.109300  0.729300  1.0  0.0848
  H  H34  1  0.657000  0.986500  0.118200  1.0  0.1129
  H  H35  1  0.707700  0.051200  0.222400  1.0  0.0893
  H  H36  1  0.479100  0.100500  0.979100  1.0  0.099
  H  H37  1  0.529400  0.031200  0.058900  1.0  0.0684
  H  H38  1  0.573600  0.997100  0.999400  1.0  0.0847
  H  H39  1  0.148000  0.312800  0.275900  1.0  0.079
  H  H40  1  0.233900  0.342700  0.319900  1.0  0.0939
  H  H41  1  0.292000  0.301000  0.056000  1.0  0.0961
  H  H42  1  0.203800  0.273800  0.010000  1.0  0.0849
  H  H43  1  0.330600  0.344300  0.298400  1.0  0.0904
  H  H44  1  0.355700  0.309800  0.211300  1.0  0.0928
  H  H45  1  0.415500  0.365600  0.103500  1.0  0.0857
  H  H46  1  0.538500  0.345500  0.838900  1.0  0.0807
  H  H47  1  0.374900  0.444200  0.863100  1.0  0.104
  H  H48  1  0.391600  0.390700  0.729300  1.0  0.0845
  H  H49  1  0.343000  0.513500  0.118200  1.0  0.1129
  H  H50  1  0.292300  0.448800  0.222400  1.0  0.089
  H  H51  1  0.520900  0.399500  0.979100  1.0  0.099
  H  H52  1  0.470600  0.468800  0.058900  1.0  0.0689
  H  H53  1  0.426400  0.502900  0.999400  1.0  0.0856
  H  H54  1  0.648000  0.812800  0.775900  1.0  0.079
  H  H55  1  0.733900  0.842700  0.819900  1.0  0.0939
  H  H56  1  0.792000  0.801000  0.556000  1.0  0.0961
  H  H57  1  0.703800  0.773800  0.510000  1.0  0.0849
  H  H58  1  0.830600  0.844300  0.798400  1.0  0.0904
  H  H59  1  0.855700  0.809800  0.711300  1.0  0.0928
  H  H60  1  0.915500  0.865600  0.603500  1.0  0.0857
  H  H61  1  0.038500  0.845500  0.338900  1.0  0.0807
  H  H62  1  0.874900  0.944200  0.363100  1.0  0.104
  H  H63  1  0.891600  0.890700  0.229300  1.0  0.0845
  H  H64  1  0.843000  0.013500  0.618200  1.0  0.1129
  H  H65  1  0.792300  0.948800  0.722400  1.0  0.089
  H  H66  1  0.020900  0.899500  0.479100  1.0  0.099
  H  H67  1  0.970600  0.968800  0.558900  1.0  0.0689
  H  H68  1  0.926400  0.002900  0.499400  1.0  0.0856
  H  H69  1  0.062800  0.602000  0.025900  1.0  0.0785
  H  H70  1  0.092700  0.516100  0.069900  1.0  0.0942
  H  H71  1  0.051000  0.458000  0.806000  1.0  0.0961
  H  H72  1  0.023800  0.546200  0.760000  1.0  0.085
  H  H73  1  0.094300  0.419400  0.048400  1.0  0.0909
  H  H74  1  0.059800  0.394300  0.961300  1.0  0.0928
  H  H75  1  0.115600  0.334500  0.853500  1.0  0.0848
  H  H76  1  0.095500  0.211500  0.588900  1.0  0.0803
  H  H77  1  0.194200  0.375100  0.613100  1.0  0.1032
  H  H78  1  0.140700  0.358400  0.479300  1.0  0.084
  H  H79  1  0.263500  0.407000  0.868200  1.0  0.1141
  H  H80  1  0.198800  0.457700  0.972400  1.0  0.09
  H  H81  1  0.149500  0.229100  0.729100  1.0  0.0995
  H  H82  1  0.218800  0.279400  0.808900  1.0  0.0693
  H  H83  1  0.252900  0.323600  0.749400  1.0  0.083
  H  H84  1  0.562800  0.102000  0.525900  1.0  0.0785
  H  H85  1  0.592700  0.016100  0.569900  1.0  0.0942
  H  H86  1  0.551000  0.958000  0.306000  1.0  0.0961
  H  H87  1  0.523800  0.046200  0.260000  1.0  0.085
  H  H88  1  0.594300  0.919400  0.548400  1.0  0.0909
  H  H89  1  0.559800  0.894300  0.461300  1.0  0.0928
  H  H90  1  0.615600  0.834500  0.353500  1.0  0.0848
  H  H91  1  0.595500  0.711500  0.088900  1.0  0.0803
  H  H92  1  0.694200  0.875100  0.113100  1.0  0.1032
  H  H93  1  0.640700  0.858400  0.979300  1.0  0.084
  H  H94  1  0.763500  0.907000  0.368200  1.0  0.1141
  H  H95  1  0.698800  0.957700  0.472400  1.0  0.09
  H  H96  1  0.649500  0.729100  0.229100  1.0  0.0995
  H  H97  1  0.718800  0.779400  0.308900  1.0  0.0693
  H  H98  1  0.752900  0.823600  0.249400  1.0  0.083
  H  H99  1  0.437200  0.398000  0.525900  1.0  0.0792
  H  H100  1  0.407300  0.483900  0.569900  1.0  0.0944
  H  H101  1  0.449000  0.542000  0.306000  1.0  0.0963
  H  H102  1  0.476200  0.453800  0.260000  1.0  0.0847
  H  H103  1  0.405700  0.580600  0.548400  1.0  0.0913
  H  H104  1  0.440200  0.605700  0.461300  1.0  0.0927
  H  H105  1  0.384400  0.665500  0.353500  1.0  0.0856
  H  H106  1  0.404500  0.788500  0.088900  1.0  0.0804
  H  H107  1  0.305800  0.624900  0.113100  1.0  0.1029
  H  H108  1  0.359300  0.641600  0.979300  1.0  0.0842
  H  H109  1  0.236500  0.593000  0.368200  1.0  0.1145
  H  H110  1  0.301200  0.542300  0.472400  1.0  0.0899
  H  H111  1  0.350500  0.770900  0.229100  1.0  0.1002
  H  H112  1  0.281200  0.720600  0.308900  1.0  0.0682
  H  H113  1  0.247100  0.676400  0.249400  1.0  0.0835
  H  H114  1  0.937200  0.898000  0.025900  1.0  0.0792
  H  H115  1  0.907300  0.983900  0.069900  1.0  0.0944
  H  H116  1  0.949000  0.042000  0.806000  1.0  0.0963
  H  H117  1  0.976200  0.953800  0.760000  1.0  0.0847
  H  H118  1  0.905700  0.080600  0.048400  1.0  0.0913
  H  H119  1  0.940200  0.105700  0.961300  1.0  0.0927
  H  H120  1  0.884400  0.165500  0.853500  1.0  0.0856
  H  H121  1  0.904500  0.288500  0.588900  1.0  0.0804
  H  H122  1  0.805800  0.124900  0.613100  1.0  0.1029
  H  H123  1  0.859300  0.141600  0.479300  1.0  0.0842
  H  H124  1  0.736500  0.093000  0.868200  1.0  0.1145
  H  H125  1  0.801200  0.042300  0.972400  1.0  0.0899
  H  H126  1  0.850500  0.270900  0.729100  1.0  0.1002
  H  H127  1  0.781200  0.220600  0.808900  1.0  0.0682
  H  H128  1  0.747100  0.176400  0.749400  1.0  0.0835
  H  H129  1  0.648000  0.312800  0.224100  1.0  0.0796
  H  H130  1  0.733900  0.342700  0.180100  1.0  0.0937
  H  H131  1  0.792000  0.301000  0.444000  1.0  0.0958
  H  H132  1  0.703800  0.273800  0.490000  1.0  0.0847
  H  H133  1  0.830600  0.344300  0.201600  1.0  0.0909
  H  H134  1  0.855700  0.309800  0.288700  1.0  0.0927
  H  H135  1  0.915500  0.365600  0.396500  1.0  0.0861
  H  H136  1  0.038500  0.345500  0.661100  1.0  0.0806
  H  H137  1  0.874900  0.444200  0.636900  1.0  0.1039
  H  H138  1  0.891600  0.390700  0.770700  1.0  0.0846
  H  H139  1  0.843000  0.513500  0.381800  1.0  0.1137
  H  H140  1  0.792300  0.448800  0.277600  1.0  0.0893
  H  H141  1  0.020900  0.399500  0.520900  1.0  0.099
  H  H142  1  0.970600  0.468800  0.441100  1.0  0.0698
  H  H143  1  0.926400  0.502900  0.500600  1.0  0.085
  H  H144  1  0.148000  0.812800  0.724100  1.0  0.0796
  H  H145  1  0.233900  0.842700  0.680100  1.0  0.0937
  H  H146  1  0.292000  0.801000  0.944000  1.0  0.0958
  H  H147  1  0.203800  0.773800  0.990000  1.0  0.0847
  H  H148  1  0.330600  0.844300  0.701600  1.0  0.0909
  H  H149  1  0.355700  0.809800  0.788700  1.0  0.0927
  H  H150  1  0.415500  0.865600  0.896500  1.0  0.0861
  H  H151  1  0.538500  0.845500  0.161100  1.0  0.0806
  H  H152  1  0.374900  0.944200  0.136900  1.0  0.1039
  H  H153  1  0.391600  0.890700  0.270700  1.0  0.0846
  H  H154  1  0.343000  0.013500  0.881800  1.0  0.1137
  H  H155  1  0.292300  0.948800  0.777600  1.0  0.0893
  H  H156  1  0.520900  0.899500  0.020900  1.0  0.099
  H  H157  1  0.470600  0.968800  0.941100  1.0  0.0698
  H  H158  1  0.426400  0.002900  0.000600  1.0  0.085
  H  H159  1  0.852000  0.687200  0.724100  1.0  0.0786
  H  H160  1  0.766100  0.657300  0.680100  1.0  0.0937
  H  H161  1  0.708000  0.699000  0.944000  1.0  0.0956
  H  H162  1  0.796200  0.726200  0.990000  1.0  0.0843
  H  H163  1  0.669400  0.655700  0.701600  1.0  0.0904
  H  H164  1  0.644300  0.690200  0.788700  1.0  0.0929
  H  H165  1  0.584500  0.634400  0.896500  1.0  0.0852
  H  H166  1  0.461500  0.654500  0.161100  1.0  0.0806
  H  H167  1  0.625100  0.555800  0.136900  1.0  0.104
  H  H168  1  0.608400  0.609300  0.270700  1.0  0.0848
  H  H169  1  0.657000  0.486500  0.881800  1.0  0.1131
  H  H170  1  0.707700  0.551200  0.777600  1.0  0.0894
  H  H171  1  0.479100  0.600500  0.020900  1.0  0.0993
  H  H172  1  0.529400  0.531200  0.941100  1.0  0.0692
  H  H173  1  0.573600  0.497100  0.000600  1.0  0.0852
  H  H174  1  0.352000  0.187200  0.224100  1.0  0.0786
  H  H175  1  0.266100  0.157300  0.180100  1.0  0.0937
  H  H176  1  0.208000  0.199000  0.444000  1.0  0.0956
  H  H177  1  0.296200  0.226200  0.490000  1.0  0.0843
  H  H178  1  0.169400  0.155700  0.201600  1.0  0.0904
  H  H179  1  0.144300  0.190200  0.288700  1.0  0.0929
  H  H180  1  0.084500  0.134400  0.396500  1.0  0.0852
  H  H181  1  0.961500  0.154500  0.661100  1.0  0.0806
  H  H182  1  0.125100  0.055800  0.636900  1.0  0.104
  H  H183  1  0.108400  0.109300  0.770700  1.0  0.0848
  H  H184  1  0.157000  0.986500  0.381800  1.0  0.1131
  H  H185  1  0.207700  0.051200  0.277600  1.0  0.0894
  H  H186  1  0.979100  0.100500  0.520900  1.0  0.0993
  H  H187  1  0.029400  0.031200  0.441100  1.0  0.0692
  H  H188  1  0.073600  0.997100  0.500600  1.0  0.0852
  H  H189  1  0.937200  0.398000  0.974100  1.0  0.0788
  H  H190  1  0.907300  0.483900  0.930100  1.0  0.0937
  H  H191  1  0.949000  0.542000  0.194000  1.0  0.0953
  H  H192  1  0.976200  0.453800  0.240000  1.0  0.0844
  H  H193  1  0.905700  0.580600  0.951600  1.0  0.0911
  H  H194  1  0.940200  0.605700  0.038700  1.0  0.0924
  H  H195  1  0.884400  0.665500  0.146500  1.0  0.0859
  H  H196  1  0.904500  0.788500  0.411100  1.0  0.0803
  H  H197  1  0.805800  0.624900  0.386900  1.0  0.1031
  H  H198  1  0.859300  0.641600  0.520700  1.0  0.0846
  H  H199  1  0.736500  0.593000  0.131800  1.0  0.115
  H  H200  1  0.801200  0.542300  0.027600  1.0  0.0893
  H  H201  1  0.850500  0.770900  0.270900  1.0  0.1008
  H  H202  1  0.781200  0.720600  0.191100  1.0  0.0701
  H  H203  1  0.747100  0.676400  0.250600  1.0  0.0834
  H  H204  1  0.437200  0.898000  0.474100  1.0  0.0788
  H  H205  1  0.407300  0.983900  0.430100  1.0  0.0937
  H  H206  1  0.449000  0.042000  0.694000  1.0  0.0953
  H  H207  1  0.476200  0.953800  0.740000  1.0  0.0844
  H  H208  1  0.405700  0.080600  0.451600  1.0  0.0911
  H  H209  1  0.440200  0.105700  0.538700  1.0  0.0924
  H  H210  1  0.384400  0.165500  0.646500  1.0  0.0859
  H  H211  1  0.404500  0.288500  0.911100  1.0  0.0803
  H  H212  1  0.305800  0.124900  0.886900  1.0  0.1031
  H  H213  1  0.359300  0.141600  0.020700  1.0  0.0846
  H  H214  1  0.236500  0.093000  0.631800  1.0  0.115
  H  H215  1  0.301200  0.042300  0.527600  1.0  0.0893
  H  H216  1  0.350500  0.270900  0.770900  1.0  0.1008
  H  H217  1  0.281200  0.220600  0.691100  1.0  0.0701
  H  H218  1  0.247100  0.176400  0.750600  1.0  0.0834
  H  H219  1  0.562800  0.602000  0.474100  1.0  0.0793
  H  H220  1  0.592700  0.516100  0.430100  1.0  0.0944
  H  H221  1  0.551000  0.458000  0.694000  1.0  0.0958
  H  H222  1  0.523800  0.546200  0.740000  1.0  0.0848
  H  H223  1  0.594300  0.419400  0.451600  1.0  0.0916
  H  H224  1  0.559800  0.394300  0.538700  1.0  0.0927
  H  H225  1  0.615600  0.334500  0.646500  1.0  0.0852
  H  H226  1  0.595500  0.211500  0.911100  1.0  0.0802
  H  H227  1  0.694200  0.375100  0.886900  1.0  0.103
  H  H228  1  0.640700  0.358400  0.020700  1.0  0.0843
  H  H229  1  0.763500  0.407000  0.631800  1.0  0.1145
  H  H230  1  0.698800  0.457700  0.527600  1.0  0.0904
  H  H231  1  0.649500  0.229100  0.770900  1.0  0.0996
  H  H232  1  0.718800  0.279400  0.691100  1.0  0.0694
  H  H233  1  0.752900  0.323600  0.750600  1.0  0.0827
  H  H234  1  0.062800  0.102000  0.974100  1.0  0.0793
  H  H235  1  0.092700  0.016100  0.930100  1.0  0.0944
  H  H236  1  0.051000  0.958000  0.194000  1.0  0.0958
  H  H237  1  0.023800  0.046200  0.240000  1.0  0.0848
  H  H238  1  0.094300  0.919400  0.951600  1.0  0.0916
  H  H239  1  0.059800  0.894300  0.038700  1.0  0.0927
  H  H240  1  0.115600  0.834500  0.146500  1.0  0.0852
  H  H241  1  0.095500  0.711500  0.411100  1.0  0.0802
  H  H242  1  0.194200  0.875100  0.386900  1.0  0.103
  H  H243  1  0.140700  0.858400  0.520700  1.0  0.0843
  H  H244  1  0.263500  0.907000  0.131800  1.0  0.1145
  H  H245  1  0.198800  0.957700  0.027600  1.0  0.0904
  H  H246  1  0.149500  0.729100  0.270900  1.0  0.0996
  H  H247  1  0.218800  0.779400  0.191100  1.0  0.0694
  H  H248  1  0.252900  0.823600  0.250600  1.0  0.0827
  C  C249  1  0.333333  0.707600  0.636500  1.0  -0.1726
  C  C250  1  0.323100  0.688600  0.730600  1.0  -0.0846
  C  C251  1  0.271600  0.672100  0.757600  1.0  -0.1435
  C  C252  1  0.227900  0.676700  0.695600  1.0  0.0713
  C  C253  1  0.237300  0.696500  0.600500  1.0  -0.1069
  C  C254  1  0.290100  0.712300  0.572800  1.0  -0.0254
  C  C255  1  0.392600  0.725700  0.607400  1.0  0.6935
  C  C256  1  0.022900  0.674800  0.183400  1.0  0.6712
  C  C257  1  0.170000  0.660600  0.727700  1.0  -0.0626
  C  C258  1  0.109000  0.605900  0.619300  1.0  0.0835
  C  C259  1  0.994400  0.634400  0.344400  1.0  -0.0449
  C  C260  1  0.091700  0.575200  0.358500  1.0  -0.101
  C  C261  1  0.034200  0.636700  0.269800  1.0  -0.1499
  C  C262  1  0.081900  0.607300  0.278800  1.0  -0.0659
  C  C263  1  0.149200  0.524000  0.627500  1.0  -0.1538
  C  C264  1  0.176500  0.559900  0.685100  1.0  -0.0527
  C  C265  1  0.004500  0.601700  0.427800  1.0  -0.1165
  C  C266  1  0.063600  0.534100  0.521500  1.0  -0.0525
  C  C267  1  0.053500  0.570800  0.432100  1.0  0.077
  C  C268  1  0.833300  0.207600  0.136500  1.0  -0.1742
  C  C269  1  0.823100  0.188600  0.230600  1.0  -0.0851
  C  C270  1  0.771600  0.172100  0.257600  1.0  -0.1442
  C  C271  1  0.727900  0.176700  0.195600  1.0  0.0713
  C  C272  1  0.737300  0.196500  0.100500  1.0  -0.1071
  C  C273  1  0.790100  0.212300  0.072800  1.0  -0.0239
  C  C274  1  0.892600  0.225700  0.107400  1.0  0.6935
  C  C275  1  0.522900  0.174800  0.683400  1.0  0.6712
  C  C276  1  0.670000  0.160600  0.227700  1.0  -0.0626
  C  C277  1  0.609000  0.105900  0.119300  1.0  0.0835
  C  C278  1  0.494400  0.134400  0.844400  1.0  -0.0449
  C  C279  1  0.591700  0.075200  0.858500  1.0  -0.101
  C  C280  1  0.534200  0.136700  0.769800  1.0  -0.1499
  C  C281  1  0.581900  0.107300  0.778800  1.0  -0.0659
  C  C282  1  0.649200  0.024000  0.127500  1.0  -0.1538
  C  C283  1  0.676500  0.059900  0.185100  1.0  -0.0527
  C  C284  1  0.504500  0.101700  0.927800  1.0  -0.1165
  C  C285  1  0.563600  0.034100  0.021500  1.0  -0.0525
  C  C286  1  0.553500  0.070800  0.932100  1.0  0.077
  C  C287  1  0.166700  0.292400  0.136500  1.0  -0.1752
  C  C288  1  0.176900  0.311400  0.230600  1.0  -0.0858
  C  C289  1  0.228400  0.327900  0.257600  1.0  -0.1423
  C  C290  1  0.272100  0.323300  0.195600  1.0  0.0706
  C  C291  1  0.262700  0.303500  0.100500  1.0  -0.1068
  C  C292  1  0.209900  0.287700  0.072800  1.0  -0.024
  C  C293  1  0.107400  0.274300  0.107400  1.0  0.6928
  C  C294  1  0.477100  0.325200  0.683400  1.0  0.6712
  C  C295  1  0.330000  0.339400  0.227700  1.0  -0.0639
  C  C296  1  0.391000  0.394100  0.119300  1.0  0.0834
  C  C297  1  0.505600  0.365600  0.844400  1.0  -0.0469
  C  C298  1  0.408300  0.424800  0.858500  1.0  -0.1002
  C  C299  1  0.465800  0.363300  0.769800  1.0  -0.1504
  C  C300  1  0.418100  0.392700  0.778800  1.0  -0.0648
  C  C301  1  0.350800  0.476000  0.127500  1.0  -0.1525
  C  C302  1  0.323500  0.440100  0.185100  1.0  -0.0536
  C  C303  1  0.495500  0.398300  0.927800  1.0  -0.1168
  C  C304  1  0.436400  0.465900  0.021500  1.0  -0.0521
  C  C305  1  0.446500  0.429200  0.932100  1.0  0.0769
  C  C306  1  0.666667  0.792400  0.636500  1.0  -0.1737
  C  C307  1  0.676900  0.811400  0.730600  1.0  -0.0855
  C  C308  1  0.728400  0.827900  0.757600  1.0  -0.1419
  C  C309  1  0.772100  0.823300  0.695600  1.0  0.0706
  C  C310  1  0.762700  0.803500  0.600500  1.0  -0.1066
  C  C311  1  0.709900  0.787700  0.572800  1.0  -0.0255
  C  C312  1  0.607400  0.774300  0.607400  1.0  0.6929
  C  C313  1  0.977100  0.825200  0.183400  1.0  0.6712
  C  C314  1  0.830000  0.839400  0.727700  1.0  -0.0639
  C  C315  1  0.891000  0.894100  0.619300  1.0  0.0834
  C  C316  1  0.005600  0.865600  0.344400  1.0  -0.0469
  C  C317  1  0.908300  0.924800  0.358500  1.0  -0.1002
  C  C318  1  0.965800  0.863300  0.269800  1.0  -0.1504
  C  C319  1  0.918100  0.892700  0.278800  1.0  -0.0648
  C  C320  1  0.850800  0.976000  0.627500  1.0  -0.1525
  C  C321  1  0.823500  0.940100  0.685100  1.0  -0.0536
  C  C322  1  0.995500  0.898300  0.427800  1.0  -0.1168
  C  C323  1  0.936400  0.965900  0.521500  1.0  -0.0521
  C  C324  1  0.946500  0.929200  0.432100  1.0  0.0769
  C  C325  1  0.042400  0.583300  0.886500  1.0  -0.1732
  C  C326  1  0.061400  0.573100  0.980600  1.0  -0.0842
  C  C327  1  0.077900  0.521600  0.007600  1.0  -0.1375
  C  C328  1  0.073300  0.477900  0.945600  1.0  0.0708
  C  C329  1  0.053500  0.487300  0.850500  1.0  -0.1053
  C  C330  1  0.037700  0.540100  0.822800  1.0  -0.0235
  C  C331  1  0.024300  0.642600  0.857400  1.0  0.6968
  C  C332  1  0.075200  0.272900  0.433400  1.0  0.6701
  C  C333  1  0.089400  0.420000  0.977700  1.0  -0.0634
  C  C334  1  0.144100  0.359000  0.869300  1.0  0.0832
  C  C335  1  0.115600  0.244400  0.594400  1.0  -0.0451
  C  C336  1  0.174800  0.341700  0.608500  1.0  -0.104
  C  C337  1  0.113300  0.284200  0.519800  1.0  -0.1485
  C  C338  1  0.142700  0.331900  0.528800  1.0  -0.0672
  C  C339  1  0.226000  0.399200  0.877500  1.0  -0.1509
  C  C340  1  0.190100  0.426500  0.935100  1.0  -0.0528
  C  C341  1  0.148300  0.254500  0.677800  1.0  -0.1166
  C  C342  1  0.215900  0.313600  0.771500  1.0  -0.05
  C  C343  1  0.179200  0.303500  0.682100  1.0  0.0774
  C  C344  1  0.542400  0.083300  0.386500  1.0  -0.1732
  C  C345  1  0.561400  0.073100  0.480600  1.0  -0.0842
  C  C346  1  0.577900  0.021600  0.507600  1.0  -0.1375
  C  C347  1  0.573300  0.977900  0.445600  1.0  0.0708
  C  C348  1  0.553500  0.987300  0.350500  1.0  -0.1053
  C  C349  1  0.537700  0.040100  0.322800  1.0  -0.0235
  C  C350  1  0.524300  0.142600  0.357400  1.0  0.6968
  C  C351  1  0.575200  0.772900  0.933400  1.0  0.6701
  C  C352  1  0.589400  0.920000  0.477700  1.0  -0.0634
  C  C353  1  0.644100  0.859000  0.369300  1.0  0.0832
  C  C354  1  0.615600  0.744400  0.094400  1.0  -0.0451
  C  C355  1  0.674800  0.841700  0.108500  1.0  -0.104
  C  C356  1  0.613300  0.784200  0.019800  1.0  -0.1485
  C  C357  1  0.642700  0.831900  0.028800  1.0  -0.0672
  C  C358  1  0.726000  0.899200  0.377500  1.0  -0.1509
  C  C359  1  0.690100  0.926500  0.435100  1.0  -0.0528
  C  C360  1  0.648300  0.754500  0.177800  1.0  -0.1166
  C  C361  1  0.715900  0.813600  0.271500  1.0  -0.05
  C  C362  1  0.679200  0.803500  0.182100  1.0  0.0774
  C  C363  1  0.457600  0.416700  0.386500  1.0  -0.1734
  C  C364  1  0.438600  0.426900  0.480600  1.0  -0.0841
  C  C365  1  0.422100  0.478400  0.507600  1.0  -0.1378
  C  C366  1  0.426700  0.522100  0.445600  1.0  0.0711
  C  C367  1  0.446500  0.512700  0.350500  1.0  -0.1052
  C  C368  1  0.462300  0.459900  0.322800  1.0  -0.0241
  C  C369  1  0.475700  0.357400  0.357400  1.0  0.6968
  C  C370  1  0.424800  0.727100  0.933400  1.0  0.6696
  C  C371  1  0.410600  0.580000  0.477700  1.0  -0.0616
  C  C372  1  0.355900  0.641000  0.369300  1.0  0.0845
  C  C373  1  0.384400  0.755600  0.094400  1.0  -0.0455
  C  C374  1  0.325200  0.658300  0.108500  1.0  -0.1025
  C  C375  1  0.386700  0.715800  0.019800  1.0  -0.1489
  C  C376  1  0.357300  0.668100  0.028800  1.0  -0.0665
  C  C377  1  0.274000  0.600800  0.377500  1.0  -0.15
  C  C378  1  0.309900  0.573500  0.435100  1.0  -0.0544
  C  C379  1  0.351700  0.745500  0.177800  1.0  -0.118
  C  C380  1  0.284100  0.686400  0.271500  1.0  -0.0505
  C  C381  1  0.320800  0.696500  0.182100  1.0  0.077
  C  C382  1  0.957600  0.916700  0.886500  1.0  -0.1734
  C  C383  1  0.938600  0.926900  0.980600  1.0  -0.0841
  C  C384  1  0.922100  0.978400  0.007600  1.0  -0.1378
  C  C385  1  0.926700  0.022100  0.945600  1.0  0.0711
  C  C386  1  0.946500  0.012700  0.850500  1.0  -0.1052
  C  C387  1  0.962300  0.959900  0.822800  1.0  -0.0241
  C  C388  1  0.975700  0.857400  0.857400  1.0  0.6968
  C  C389  1  0.924800  0.227100  0.433400  1.0  0.6696
  C  C390  1  0.910600  0.080000  0.977700  1.0  -0.0616
  C  C391  1  0.855900  0.141000  0.869300  1.0  0.0845
  C  C392  1  0.884400  0.255600  0.594400  1.0  -0.0455
  C  C393  1  0.825200  0.158300  0.608500  1.0  -0.1025
  C  C394  1  0.886700  0.215800  0.519800  1.0  -0.1489
  C  C395  1  0.857300  0.168100  0.528800  1.0  -0.0665
  C  C396  1  0.774000  0.100800  0.877500  1.0  -0.15
  C  C397  1  0.809900  0.073500  0.935100  1.0  -0.0544
  C  C398  1  0.851700  0.245500  0.677800  1.0  -0.118
  C  C399  1  0.784100  0.186400  0.771500  1.0  -0.0505
  C  C400  1  0.820800  0.196500  0.682100  1.0  0.077
  C  C401  1  0.666667  0.292400  0.363500  1.0  -0.1736
  C  C402  1  0.676900  0.311400  0.269400  1.0  -0.0852
  C  C403  1  0.728400  0.327900  0.242400  1.0  -0.1429
  C  C404  1  0.772100  0.323300  0.304400  1.0  0.0706
  C  C405  1  0.762700  0.303500  0.399500  1.0  -0.1074
  C  C406  1  0.709900  0.287700  0.427200  1.0  -0.0247
  C  C407  1  0.607400  0.274300  0.392600  1.0  0.6934
  C  C408  1  0.977100  0.325200  0.816600  1.0  0.6715
  C  C409  1  0.830000  0.339400  0.272300  1.0  -0.0635
  C  C410  1  0.891000  0.394100  0.380700  1.0  0.0833
  C  C411  1  0.005600  0.365600  0.655600  1.0  -0.0468
  C  C412  1  0.908300  0.424800  0.641500  1.0  -0.1004
  C  C413  1  0.965800  0.363300  0.730200  1.0  -0.15
  C  C414  1  0.918100  0.392700  0.721200  1.0  -0.0665
  C  C415  1  0.850800  0.476000  0.372500  1.0  -0.153
  C  C416  1  0.823500  0.440100  0.314900  1.0  -0.0541
  C  C417  1  0.995500  0.398300  0.572200  1.0  -0.1165
  C  C418  1  0.936400  0.465900  0.478500  1.0  -0.0519
  C  C419  1  0.946500  0.429200  0.567900  1.0  0.0773
  C  C420  1  0.166700  0.792400  0.863500  1.0  -0.1752
  C  C421  1  0.176900  0.811400  0.769400  1.0  -0.0856
  C  C422  1  0.228400  0.827900  0.742400  1.0  -0.1433
  C  C423  1  0.272100  0.823300  0.804400  1.0  0.0706
  C  C424  1  0.262700  0.803500  0.899500  1.0  -0.1076
  C  C425  1  0.209900  0.787700  0.927200  1.0  -0.023
  C  C426  1  0.107400  0.774300  0.892600  1.0  0.6933
  C  C427  1  0.477100  0.825200  0.316600  1.0  0.6715
  C  C428  1  0.330000  0.839400  0.772300  1.0  -0.0635
  C  C429  1  0.391000  0.894100  0.880700  1.0  0.0833
  C  C430  1  0.505600  0.865600  0.155600  1.0  -0.0468
  C  C431  1  0.408300  0.924800  0.141500  1.0  -0.1004
  C  C432  1  0.465800  0.863300  0.230200  1.0  -0.15
  C  C433  1  0.418100  0.892700  0.221200  1.0  -0.0665
  C  C434  1  0.350800  0.976000  0.872500  1.0  -0.153
  C  C435  1  0.323500  0.940100  0.814900  1.0  -0.0541
  C  C436  1  0.495500  0.898300  0.072200  1.0  -0.1165
  C  C437  1  0.436400  0.965900  0.978500  1.0  -0.0519
  C  C438  1  0.446500  0.929200  0.067900  1.0  0.0773
  C  C439  1  0.833300  0.707600  0.863500  1.0  -0.1744
  C  C440  1  0.823100  0.688600  0.769400  1.0  -0.0856
  C  C441  1  0.771600  0.672100  0.742400  1.0  -0.1447
  C  C442  1  0.727900  0.676700  0.804400  1.0  0.071
  C  C443  1  0.737300  0.696500  0.899500  1.0  -0.1073
  C  C444  1  0.790100  0.712300  0.927200  1.0  -0.0224
  C  C445  1  0.892600  0.725700  0.892600  1.0  0.694
  C  C446  1  0.522900  0.674800  0.316600  1.0  0.6713
  C  C447  1  0.670000  0.660600  0.772300  1.0  -0.0628
  C  C448  1  0.609000  0.605900  0.880700  1.0  0.0835
  C  C449  1  0.494400  0.634400  0.155600  1.0  -0.0448
  C  C450  1  0.591700  0.575200  0.141500  1.0  -0.1016
  C  C451  1  0.534200  0.636700  0.230200  1.0  -0.1505
  C  C452  1  0.581900  0.607300  0.221200  1.0  -0.0675
  C  C453  1  0.649200  0.524000  0.872500  1.0  -0.1537
  C  C454  1  0.676500  0.559900  0.814900  1.0  -0.0537
  C  C455  1  0.504500  0.601700  0.072200  1.0  -0.1164
  C  C456  1  0.563600  0.534100  0.978500  1.0  -0.0528
  C  C457  1  0.553500  0.570800  0.067900  1.0  0.0775
  C  C458  1  0.333333  0.207600  0.363500  1.0  -0.1728
  C  C459  1  0.323100  0.188600  0.269400  1.0  -0.085
  C  C460  1  0.271600  0.172100  0.242400  1.0  -0.144
  C  C461  1  0.227900  0.176700  0.304400  1.0  0.071
  C  C462  1  0.237300  0.196500  0.399500  1.0  -0.1071
  C  C463  1  0.290100  0.212300  0.427200  1.0  -0.024
  C  C464  1  0.392600  0.225700  0.392600  1.0  0.694
  C  C465  1  0.022900  0.174800  0.816600  1.0  0.6713
  C  C466  1  0.170000  0.160600  0.272300  1.0  -0.0629
  C  C467  1  0.109000  0.105900  0.380700  1.0  0.0835
  C  C468  1  0.994400  0.134400  0.655600  1.0  -0.0448
  C  C469  1  0.091700  0.075200  0.641500  1.0  -0.1016
  C  C470  1  0.034200  0.136700  0.730200  1.0  -0.1505
  C  C471  1  0.081900  0.107300  0.721200  1.0  -0.0675
  C  C472  1  0.149200  0.024000  0.372500  1.0  -0.1537
  C  C473  1  0.176500  0.059900  0.314900  1.0  -0.0537
  C  C474  1  0.004500  0.101700  0.572200  1.0  -0.1164
  C  C475  1  0.063600  0.034100  0.478500  1.0  -0.0528
  C  C476  1  0.053500  0.070800  0.567900  1.0  0.0775
  C  C477  1  0.957600  0.416700  0.113500  1.0  -0.1734
  C  C478  1  0.938600  0.426900  0.019400  1.0  -0.0849
  C  C479  1  0.922100  0.478400  0.992400  1.0  -0.1384
  C  C480  1  0.926700  0.522100  0.054400  1.0  0.0709
  C  C481  1  0.946500  0.512700  0.149500  1.0  -0.1047
  C  C482  1  0.962300  0.459900  0.177200  1.0  -0.0225
  C  C483  1  0.975700  0.357400  0.142600  1.0  0.6971
  C  C484  1  0.924800  0.727100  0.566600  1.0  0.67
  C  C485  1  0.910600  0.580000  0.022300  1.0  -0.0618
  C  C486  1  0.855900  0.641000  0.130700  1.0  0.0844
  C  C487  1  0.884400  0.755600  0.405600  1.0  -0.0455
  C  C488  1  0.825200  0.658300  0.391500  1.0  -0.1029
  C  C489  1  0.886700  0.715800  0.480200  1.0  -0.1492
  C  C490  1  0.857300  0.668100  0.471200  1.0  -0.0682
  C  C491  1  0.774000  0.600800  0.122500  1.0  -0.1503
  C  C492  1  0.809900  0.573500  0.064900  1.0  -0.0551
  C  C493  1  0.851700  0.745500  0.322200  1.0  -0.1175
  C  C494  1  0.784100  0.686400  0.228500  1.0  -0.0505
  C  C495  1  0.820800  0.696500  0.317900  1.0  0.0778
  C  C496  1  0.457600  0.916700  0.613500  1.0  -0.1734
  C  C497  1  0.438600  0.926900  0.519400  1.0  -0.0849
  C  C498  1  0.422100  0.978400  0.492400  1.0  -0.1384
  C  C499  1  0.426700  0.022100  0.554400  1.0  0.0709
  C  C500  1  0.446500  0.012700  0.649500  1.0  -0.1047
  C  C501  1  0.462300  0.959900  0.677200  1.0  -0.0225
  C  C502  1  0.475700  0.857400  0.642600  1.0  0.6971
  C  C503  1  0.424800  0.227100  0.066600  1.0  0.67
  C  C504  1  0.410600  0.080000  0.522300  1.0  -0.0618
  C  C505  1  0.355900  0.141000  0.630700  1.0  0.0844
  C  C506  1  0.384400  0.255600  0.905600  1.0  -0.0455
  C  C507  1  0.325200  0.158300  0.891500  1.0  -0.1029
  C  C508  1  0.386700  0.215800  0.980200  1.0  -0.1492
  C  C509  1  0.357300  0.168100  0.971200  1.0  -0.0682
  C  C510  1  0.274000  0.100800  0.622500  1.0  -0.1503
  C  C511  1  0.309900  0.073500  0.564900  1.0  -0.0551
  C  C512  1  0.351700  0.245500  0.822200  1.0  -0.1175
  C  C513  1  0.284100  0.186400  0.728500  1.0  -0.0507
  C  C514  1  0.320800  0.196500  0.817900  1.0  0.0778
  C  C515  1  0.542400  0.583300  0.613500  1.0  -0.1734
  C  C516  1  0.561400  0.573100  0.519400  1.0  -0.0837
  C  C517  1  0.577900  0.521600  0.492400  1.0  -0.1391
  C  C518  1  0.573300  0.477900  0.554400  1.0  0.0709
  C  C519  1  0.553500  0.487300  0.649500  1.0  -0.1066
  C  C520  1  0.537700  0.540100  0.677200  1.0  -0.0229
  C  C521  1  0.524300  0.642600  0.642600  1.0  0.697
  C  C522  1  0.575200  0.272900  0.066600  1.0  0.6701
  C  C523  1  0.589400  0.420000  0.522300  1.0  -0.0633
  C  C524  1  0.644100  0.359000  0.630700  1.0  0.0833
  C  C525  1  0.615600  0.244400  0.905600  1.0  -0.045
  C  C526  1  0.674800  0.341700  0.891500  1.0  -0.1036
  C  C527  1  0.613300  0.284200  0.980200  1.0  -0.1478
  C  C528  1  0.642700  0.331900  0.971200  1.0  -0.0683
  C  C529  1  0.726000  0.399200  0.622500  1.0  -0.1508
  C  C530  1  0.690100  0.426500  0.564900  1.0  -0.0537
  C  C531  1  0.648300  0.254500  0.822200  1.0  -0.1163
  C  C532  1  0.715900  0.313600  0.728500  1.0  -0.0501
  C  C533  1  0.679200  0.303500  0.817900  1.0  0.0776
  C  C534  1  0.042400  0.083300  0.113500  1.0  -0.1734
  C  C535  1  0.061400  0.073100  0.019400  1.0  -0.0837
  C  C536  1  0.077900  0.021600  0.992400  1.0  -0.1391
  C  C537  1  0.073300  0.977900  0.054400  1.0  0.0709
  C  C538  1  0.053500  0.987300  0.149500  1.0  -0.1066
  C  C539  1  0.037700  0.040100  0.177200  1.0  -0.0229
  C  C540  1  0.024300  0.142600  0.142600  1.0  0.697
  C  C541  1  0.075200  0.772900  0.566600  1.0  0.6701
  C  C542  1  0.089400  0.920000  0.022300  1.0  -0.0633
  C  C543  1  0.144100  0.859000  0.130700  1.0  0.0833
  C  C544  1  0.115600  0.744400  0.405600  1.0  -0.045
  C  C545  1  0.174800  0.841700  0.391500  1.0  -0.1036
  C  C546  1  0.113300  0.784200  0.480200  1.0  -0.1478
  C  C547  1  0.142700  0.831900  0.471200  1.0  -0.0683
  C  C548  1  0.226000  0.899200  0.122500  1.0  -0.1508
  C  C549  1  0.190100  0.926500  0.064900  1.0  -0.0537
  C  C550  1  0.148300  0.754500  0.322200  1.0  -0.1163
  C  C551  1  0.215900  0.813600  0.228500  1.0  -0.05
  C  C552  1  0.179200  0.803500  0.317900  1.0  0.0776
  N  N553  1  0.106500  0.554800  0.584200  1.0  0.0409
  N  N554  1  0.152400  0.610600  0.681400  1.0  0.0373
  N  N555  1  0.606500  0.054800  0.084200  1.0  0.0409
  N  N556  1  0.652400  0.110600  0.181400  1.0  0.0373
  N  N557  1  0.393500  0.445200  0.084200  1.0  0.0401
  N  N558  1  0.347600  0.389400  0.181400  1.0  0.0375
  N  N559  1  0.893500  0.945200  0.584200  1.0  0.0401
  N  N560  1  0.847600  0.889400  0.681400  1.0  0.0375
  N  N561  1  0.195200  0.356500  0.834200  1.0  0.0404
  N  N562  1  0.139400  0.402400  0.931400  1.0  0.037
  N  N563  1  0.695200  0.856500  0.334200  1.0  0.0404
  N  N564  1  0.639400  0.902400  0.431400  1.0  0.037
  N  N565  1  0.304800  0.643500  0.334200  1.0  0.04
  N  N566  1  0.360600  0.597600  0.431400  1.0  0.0376
  N  N567  1  0.804800  0.143500  0.834200  1.0  0.04
  N  N568  1  0.860600  0.097600  0.931400  1.0  0.0376
  N  N569  1  0.893500  0.445200  0.415800  1.0  0.04
  N  N570  1  0.847600  0.389400  0.318600  1.0  0.0371
  N  N571  1  0.393500  0.945200  0.915800  1.0  0.04
  N  N572  1  0.347600  0.889400  0.818600  1.0  0.0371
  N  N573  1  0.606500  0.554800  0.915800  1.0  0.0407
  N  N574  1  0.652400  0.610600  0.818600  1.0  0.0371
  N  N575  1  0.106500  0.054800  0.415800  1.0  0.0407
  N  N576  1  0.152400  0.110600  0.318600  1.0  0.0371
  N  N577  1  0.804800  0.643500  0.165800  1.0  0.0401
  N  N578  1  0.860600  0.597600  0.068600  1.0  0.0371
  N  N579  1  0.304800  0.143500  0.665800  1.0  0.0401
  N  N580  1  0.360600  0.097600  0.568600  1.0  0.0371
  N  N581  1  0.695200  0.356500  0.665800  1.0  0.04
  N  N582  1  0.639400  0.402400  0.568600  1.0  0.0369
  N  N583  1  0.195200  0.856500  0.165800  1.0  0.04
  N  N584  1  0.139400  0.902400  0.068600  1.0  0.0369
  O  O585  1  0.062600  0.691500  0.131700  1.0  -0.6543
  O  O586  1  0.973200  0.688700  0.162600  1.0  -0.7002
  O  O587  1  0.424900  0.736700  0.678300  1.0  -0.7235
  O  O588  1  0.405700  0.727300  0.518600  1.0  -0.6525
  O  O589  1  0.562600  0.191500  0.631700  1.0  -0.6543
  O  O590  1  0.473200  0.188700  0.662600  1.0  -0.7002
  O  O591  1  0.924900  0.236700  0.178300  1.0  -0.7248
  O  O592  1  0.905700  0.227300  0.018600  1.0  -0.6525
  O  O593  1  0.437400  0.308500  0.631700  1.0  -0.6548
  O  O594  1  0.526800  0.311300  0.662600  1.0  -0.701
  O  O595  1  0.075100  0.263300  0.178300  1.0  -0.7259
  O  O596  1  0.094300  0.272700  0.018600  1.0  -0.653
  O  O597  1  0.937400  0.808500  0.131700  1.0  -0.6548
  O  O598  1  0.026800  0.811300  0.162600  1.0  -0.701
  O  O599  1  0.575100  0.763300  0.678300  1.0  -0.7246
  O  O600  1  0.594300  0.772700  0.518600  1.0  -0.653
  O  O601  1  0.058500  0.312600  0.381700  1.0  -0.6537
  O  O602  1  0.061300  0.223200  0.412600  1.0  -0.7006
  O  O603  1  0.013300  0.674900  0.928300  1.0  -0.7246
  O  O604  1  0.022700  0.655700  0.768600  1.0  -0.6541
  O  O605  1  0.558500  0.812600  0.881700  1.0  -0.6537
  O  O606  1  0.561300  0.723200  0.912600  1.0  -0.7006
  O  O607  1  0.513300  0.174900  0.428300  1.0  -0.7245
  O  O608  1  0.522700  0.155700  0.268600  1.0  -0.6541
  O  O609  1  0.441500  0.687400  0.881700  1.0  -0.6542
  O  O610  1  0.438700  0.776800  0.912600  1.0  -0.7012
  O  O611  1  0.486700  0.325100  0.428300  1.0  -0.7238
  O  O612  1  0.477300  0.344300  0.268600  1.0  -0.6543
  O  O613  1  0.941500  0.187400  0.381700  1.0  -0.6542
  O  O614  1  0.938700  0.276800  0.412600  1.0  -0.7012
  O  O615  1  0.986700  0.825100  0.928300  1.0  -0.7239
  O  O616  1  0.977300  0.844300  0.768600  1.0  -0.6543
  O  O617  1  0.937400  0.308500  0.868300  1.0  -0.6557
  O  O618  1  0.026800  0.311300  0.837400  1.0  -0.7012
  O  O619  1  0.575100  0.263300  0.321700  1.0  -0.7246
  O  O620  1  0.594300  0.272700  0.481400  1.0  -0.653
  O  O621  1  0.437400  0.808500  0.368300  1.0  -0.6557
  O  O622  1  0.526800  0.811300  0.337400  1.0  -0.7012
  O  O623  1  0.075100  0.763300  0.821700  1.0  -0.7258
  O  O624  1  0.094300  0.772700  0.981400  1.0  -0.653
  O  O625  1  0.562600  0.691500  0.368300  1.0  -0.6552
  O  O626  1  0.473200  0.688700  0.337400  1.0  -0.7003
  O  O627  1  0.924900  0.736700  0.821700  1.0  -0.7247
  O  O628  1  0.905700  0.727300  0.981400  1.0  -0.6532
  O  O629  1  0.062600  0.191500  0.868300  1.0  -0.6552
  O  O630  1  0.973200  0.188700  0.837400  1.0  -0.7003
  O  O631  1  0.424900  0.236700  0.321700  1.0  -0.7235
  O  O632  1  0.405700  0.227300  0.481400  1.0  -0.6532
  O  O633  1  0.941500  0.687400  0.618300  1.0  -0.6538
  O  O634  1  0.938700  0.776800  0.587400  1.0  -0.7013
  O  O635  1  0.986700  0.325100  0.071700  1.0  -0.724
  O  O636  1  0.977300  0.344300  0.231400  1.0  -0.6544
  O  O637  1  0.441500  0.187400  0.118300  1.0  -0.6538
  O  O638  1  0.438700  0.276800  0.087400  1.0  -0.7013
  O  O639  1  0.486700  0.825100  0.571700  1.0  -0.7239
  O  O640  1  0.477300  0.844300  0.731400  1.0  -0.6544
  O  O641  1  0.558500  0.312600  0.118300  1.0  -0.6554
  O  O642  1  0.561300  0.223200  0.087400  1.0  -0.7005
  O  O643  1  0.513300  0.674900  0.571700  1.0  -0.7243
  O  O644  1  0.522700  0.655700  0.731400  1.0  -0.6547
  O  O645  1  0.058500  0.812600  0.618300  1.0  -0.6554
  O  O646  1  0.061300  0.723200  0.587400  1.0  -0.7005
  O  O647  1  0.013300  0.174900  0.071700  1.0  -0.7244
  O  O648  1  0.022700  0.155700  0.231400  1.0  -0.6547
