# generated using pymatgen
data_AgH12(C3N)6
_symmetry_space_group_name_H-M   'P 1'
_cell_length_a   11.08400000
_cell_length_b   24.94400000
_cell_length_c   23.28400000
_cell_angle_alpha   90.00000000
_cell_angle_beta   96.97400000
_cell_angle_gamma   90.00000000
_symmetry_Int_Tables_number   1
_chemical_formula_structural   AgH12(C3N)6
_chemical_formula_sum   'Ag12 H144 C216 N72'
_cell_volume   6389.91480656
_cell_formula_units_Z   12
loop_
 _symmetry_equiv_pos_site_id
 _symmetry_equiv_pos_as_xyz
  1  'x, y, z'
loop_
 _atom_site_type_symbol
 _atom_site_label
 _atom_site_symmetry_multiplicity
 _atom_site_fract_x
 _atom_site_fract_y
 _atom_site_fract_z
 _atom_site_occupancy
 _atom_site_charge
  Ag  Ag1  1  0.245320  0.871360  0.907300  1.0  0.2999
  Ag  Ag2  1  0.745320  0.371360  0.907300  1.0  0.2999
  Ag  Ag3  1  0.245320  0.128640  0.407300  1.0  0.2995
  Ag  Ag4  1  0.745320  0.628640  0.407300  1.0  0.2995
  Ag  Ag5  1  0.916180  0.861860  0.886510  1.0  0.3124
  Ag  Ag6  1  0.416180  0.361860  0.886510  1.0  0.3124
  Ag  Ag7  1  0.916180  0.138140  0.386510  1.0  0.3128
  Ag  Ag8  1  0.416180  0.638140  0.386510  1.0  0.3128
  Ag  Ag9  1  0.619410  0.863250  0.943740  1.0  0.3126
  Ag  Ag10  1  0.119410  0.363250  0.943740  1.0  0.3126
  Ag  Ag11  1  0.619410  0.136750  0.443740  1.0  0.3126
  Ag  Ag12  1  0.119410  0.636750  0.443740  1.0  0.3126
  H  H13  1  0.267700  0.938700  0.798000  1.0  0.09
  H  H14  1  0.222700  0.940400  0.697800  1.0  0.1091
  H  H15  1  0.103700  0.788600  0.704000  1.0  0.1211
  H  H16  1  0.158600  0.790300  0.801500  1.0  0.0778
  H  H17  1  0.222700  0.084600  0.531800  1.0  0.0828
  H  H18  1  0.180500  0.007900  0.581300  1.0  0.1158
  H  H19  1  0.102500  0.932600  0.430700  1.0  0.1078
  H  H20  1  0.136100  0.013600  0.382300  1.0  0.0986
  H  H21  1  0.859000  0.741800  0.387200  1.0  0.0968
  H  H22  1  0.949400  0.814600  0.434200  1.0  0.1063
  H  H23  1  0.967000  0.736000  0.583000  1.0  0.1137
  H  H24  1  0.879800  0.662300  0.532600  1.0  0.0806
  H  H25  1  0.767700  0.438700  0.798000  1.0  0.09
  H  H26  1  0.722700  0.440400  0.697800  1.0  0.1091
  H  H27  1  0.603700  0.288600  0.704000  1.0  0.1211
  H  H28  1  0.658600  0.290300  0.801500  1.0  0.0778
  H  H29  1  0.722700  0.584600  0.531800  1.0  0.0828
  H  H30  1  0.680500  0.507900  0.581300  1.0  0.1158
  H  H31  1  0.602500  0.432600  0.430700  1.0  0.1078
  H  H32  1  0.636100  0.513600  0.382300  1.0  0.0986
  H  H33  1  0.359000  0.241800  0.387200  1.0  0.0968
  H  H34  1  0.449400  0.314600  0.434200  1.0  0.1063
  H  H35  1  0.467000  0.236000  0.583000  1.0  0.1137
  H  H36  1  0.379800  0.162300  0.532600  1.0  0.0806
  H  H37  1  0.267700  0.061300  0.298000  1.0  0.0899
  H  H38  1  0.222700  0.059600  0.197800  1.0  0.1089
  H  H39  1  0.103700  0.211400  0.204000  1.0  0.1209
  H  H40  1  0.158600  0.209700  0.301500  1.0  0.0782
  H  H41  1  0.222700  0.915400  0.031800  1.0  0.0826
  H  H42  1  0.180500  0.992100  0.081300  1.0  0.116
  H  H43  1  0.102500  0.067400  0.930700  1.0  0.1084
  H  H44  1  0.136100  0.986400  0.882300  1.0  0.0986
  H  H45  1  0.859000  0.258200  0.887200  1.0  0.0969
  H  H46  1  0.949400  0.185400  0.934200  1.0  0.1059
  H  H47  1  0.967000  0.264000  0.083000  1.0  0.1141
  H  H48  1  0.879800  0.337700  0.032600  1.0  0.0809
  H  H49  1  0.767700  0.561300  0.298000  1.0  0.0899
  H  H50  1  0.722700  0.559600  0.197800  1.0  0.1089
  H  H51  1  0.603700  0.711400  0.204000  1.0  0.1209
  H  H52  1  0.658600  0.709700  0.301500  1.0  0.0782
  H  H53  1  0.722700  0.415400  0.031800  1.0  0.0826
  H  H54  1  0.680500  0.492100  0.081300  1.0  0.116
  H  H55  1  0.602500  0.567400  0.930700  1.0  0.1084
  H  H56  1  0.636100  0.486400  0.882300  1.0  0.0986
  H  H57  1  0.359000  0.758200  0.887200  1.0  0.0969
  H  H58  1  0.449400  0.685400  0.934200  1.0  0.1059
  H  H59  1  0.467000  0.764000  0.083000  1.0  0.1141
  H  H60  1  0.379800  0.837700  0.032600  1.0  0.0809
  H  H61  1  0.919500  0.939000  0.780800  1.0  0.0773
  H  H62  1  0.865500  0.948000  0.683500  1.0  0.1239
  H  H63  1  0.769500  0.793000  0.681000  1.0  0.1117
  H  H64  1  0.823600  0.789500  0.776400  1.0  0.0722
  H  H65  1  0.918900  0.089900  0.513500  1.0  0.0841
  H  H66  1  0.872600  0.012300  0.563000  1.0  0.11
  H  H67  1  0.754300  0.944400  0.411900  1.0  0.1152
  H  H68  1  0.808100  0.020600  0.365900  1.0  0.0806
  H  H69  1  0.511200  0.754700  0.365700  1.0  0.0776
  H  H70  1  0.607500  0.826500  0.412000  1.0  0.108
  H  H71  1  0.639200  0.742000  0.558300  1.0  0.1238
  H  H72  1  0.543600  0.672000  0.506200  1.0  0.0699
  H  H73  1  0.419500  0.439000  0.780800  1.0  0.0773
  H  H74  1  0.365500  0.448000  0.683500  1.0  0.1239
  H  H75  1  0.269500  0.293000  0.681000  1.0  0.1117
  H  H76  1  0.323600  0.289500  0.776400  1.0  0.0722
  H  H77  1  0.418900  0.589900  0.513500  1.0  0.0841
  H  H78  1  0.372600  0.512300  0.563000  1.0  0.11
  H  H79  1  0.254300  0.444400  0.411900  1.0  0.1152
  H  H80  1  0.308100  0.520600  0.365900  1.0  0.0806
  H  H81  1  0.011200  0.254700  0.365700  1.0  0.0776
  H  H82  1  0.107500  0.326500  0.412000  1.0  0.108
  H  H83  1  0.139200  0.242000  0.558300  1.0  0.1238
  H  H84  1  0.043600  0.172000  0.506200  1.0  0.0699
  H  H85  1  0.919500  0.061000  0.280800  1.0  0.0775
  H  H86  1  0.865500  0.052000  0.183500  1.0  0.1241
  H  H87  1  0.769500  0.207000  0.181000  1.0  0.1117
  H  H88  1  0.823600  0.210500  0.276400  1.0  0.0715
  H  H89  1  0.918900  0.910100  0.013500  1.0  0.0842
  H  H90  1  0.872600  0.987700  0.063000  1.0  0.1097
  H  H91  1  0.754300  0.055600  0.911900  1.0  0.1158
  H  H92  1  0.808100  0.979400  0.865900  1.0  0.0809
  H  H93  1  0.511200  0.245300  0.865700  1.0  0.0785
  H  H94  1  0.607500  0.173500  0.912000  1.0  0.1079
  H  H95  1  0.639200  0.258000  0.058300  1.0  0.1235
  H  H96  1  0.543600  0.328000  0.006200  1.0  0.0698
  H  H97  1  0.419500  0.561000  0.280800  1.0  0.0775
  H  H98  1  0.365500  0.552000  0.183500  1.0  0.1241
  H  H99  1  0.269500  0.707000  0.181000  1.0  0.1117
  H  H100  1  0.323600  0.710500  0.276400  1.0  0.0715
  H  H101  1  0.418900  0.410100  0.013500  1.0  0.0842
  H  H102  1  0.372600  0.487700  0.063000  1.0  0.1097
  H  H103  1  0.254300  0.555600  0.911900  1.0  0.1158
  H  H104  1  0.308100  0.479400  0.865900  1.0  0.0809
  H  H105  1  0.011200  0.745300  0.865700  1.0  0.0785
  H  H106  1  0.107500  0.673500  0.912000  1.0  0.1079
  H  H107  1  0.139200  0.758000  0.058300  1.0  0.1235
  H  H108  1  0.043600  0.828000  0.006200  1.0  0.0698
  H  H109  1  0.533600  0.792100  0.836500  1.0  0.0706
  H  H110  1  0.493100  0.791100  0.738700  1.0  0.1267
  H  H111  1  0.543900  0.950000  0.738200  1.0  0.1147
  H  H112  1  0.591600  0.945800  0.837800  1.0  0.0881
  H  H113  1  0.637400  0.085800  0.571000  1.0  0.0809
  H  H114  1  0.590000  0.009100  0.619100  1.0  0.1167
  H  H115  1  0.441400  0.947700  0.469600  1.0  0.1291
  H  H116  1  0.477100  0.029800  0.426600  1.0  0.0788
  H  H117  1  0.213400  0.751700  0.421200  1.0  0.0817
  H  H118  1  0.320000  0.824300  0.466800  1.0  0.1082
  H  H119  1  0.332400  0.742900  0.617000  1.0  0.1245
  H  H120  1  0.232600  0.674300  0.564900  1.0  0.075
  H  H121  1  0.033600  0.292100  0.836500  1.0  0.0706
  H  H122  1  0.993100  0.291100  0.738700  1.0  0.1267
  H  H123  1  0.043900  0.450000  0.738200  1.0  0.1147
  H  H124  1  0.091600  0.445800  0.837800  1.0  0.0881
  H  H125  1  0.137400  0.585800  0.571000  1.0  0.0809
  H  H126  1  0.090000  0.509100  0.619100  1.0  0.1167
  H  H127  1  0.941400  0.447700  0.469600  1.0  0.1291
  H  H128  1  0.977100  0.529800  0.426600  1.0  0.0788
  H  H129  1  0.713400  0.251700  0.421200  1.0  0.0817
  H  H130  1  0.820000  0.324300  0.466800  1.0  0.1082
  H  H131  1  0.832400  0.242900  0.617000  1.0  0.1245
  H  H132  1  0.732600  0.174300  0.564900  1.0  0.075
  H  H133  1  0.533600  0.207900  0.336500  1.0  0.0706
  H  H134  1  0.493100  0.208900  0.238700  1.0  0.1267
  H  H135  1  0.543900  0.050000  0.238200  1.0  0.115
  H  H136  1  0.591600  0.054200  0.337800  1.0  0.0881
  H  H137  1  0.637400  0.914200  0.071000  1.0  0.0814
  H  H138  1  0.590000  0.990900  0.119100  1.0  0.1166
  H  H139  1  0.441400  0.052300  0.969600  1.0  0.1295
  H  H140  1  0.477100  0.970200  0.926600  1.0  0.0789
  H  H141  1  0.213400  0.248300  0.921200  1.0  0.0806
  H  H142  1  0.320000  0.175700  0.966800  1.0  0.1086
  H  H143  1  0.332400  0.257100  0.117000  1.0  0.1249
  H  H144  1  0.232600  0.325700  0.064900  1.0  0.0747
  H  H145  1  0.033600  0.707900  0.336500  1.0  0.0706
  H  H146  1  0.993100  0.708900  0.238700  1.0  0.1267
  H  H147  1  0.043900  0.550000  0.238200  1.0  0.115
  H  H148  1  0.091600  0.554200  0.337800  1.0  0.0881
  H  H149  1  0.137400  0.414200  0.071000  1.0  0.0814
  H  H150  1  0.090000  0.490900  0.119100  1.0  0.1166
  H  H151  1  0.941400  0.552300  0.969600  1.0  0.1295
  H  H152  1  0.977100  0.470200  0.926600  1.0  0.0789
  H  H153  1  0.713400  0.748300  0.921200  1.0  0.0806
  H  H154  1  0.820000  0.675700  0.966800  1.0  0.1086
  H  H155  1  0.832400  0.757100  0.117000  1.0  0.1249
  H  H156  1  0.732600  0.825700  0.064900  1.0  0.0747
  C  C157  1  0.233400  0.908500  0.779100  1.0  0.1634
  C  C158  1  0.205800  0.909900  0.718400  1.0  -0.1434
  C  C159  1  0.152900  0.865300  0.689400  1.0  -0.032
  C  C160  1  0.136000  0.819700  0.721800  1.0  -0.1605
  C  C161  1  0.168100  0.821600  0.780700  1.0  0.1674
  C  C162  1  0.196800  0.054100  0.511100  1.0  0.1541
  C  C163  1  0.172500  0.007900  0.541000  1.0  -0.0777
  C  C164  1  0.136800  0.962400  0.510800  1.0  -0.0702
  C  C165  1  0.125000  0.963400  0.451800  1.0  -0.0652
  C  C166  1  0.147200  0.012200  0.422600  1.0  0.1466
  C  C167  1  0.882100  0.740200  0.426900  1.0  0.1251
  C  C168  1  0.935900  0.783800  0.455100  1.0  -0.0778
  C  C169  1  0.970000  0.782600  0.513800  1.0  -0.1041
  C  C170  1  0.947400  0.737700  0.543100  1.0  -0.1559
  C  C171  1  0.893500  0.693500  0.512300  1.0  0.1589
  C  C172  1  0.031300  0.829100  0.543600  1.0  0.3809
  C  C173  1  0.119000  0.866800  0.627800  1.0  0.3458
  C  C174  1  0.111200  0.912400  0.542100  1.0  0.3691
  C  C175  1  0.733400  0.408500  0.779100  1.0  0.1634
  C  C176  1  0.705800  0.409900  0.718400  1.0  -0.1434
  C  C177  1  0.652900  0.365300  0.689400  1.0  -0.032
  C  C178  1  0.636000  0.319700  0.721800  1.0  -0.1605
  C  C179  1  0.668100  0.321600  0.780700  1.0  0.1674
  C  C180  1  0.696800  0.554100  0.511100  1.0  0.1541
  C  C181  1  0.672500  0.507900  0.541000  1.0  -0.0777
  C  C182  1  0.636800  0.462400  0.510800  1.0  -0.0702
  C  C183  1  0.625000  0.463400  0.451800  1.0  -0.0652
  C  C184  1  0.647200  0.512200  0.422600  1.0  0.1466
  C  C185  1  0.382100  0.240200  0.426900  1.0  0.1251
  C  C186  1  0.435900  0.283800  0.455100  1.0  -0.0778
  C  C187  1  0.470000  0.282600  0.513800  1.0  -0.1041
  C  C188  1  0.447400  0.237700  0.543100  1.0  -0.1559
  C  C189  1  0.393500  0.193500  0.512300  1.0  0.1589
  C  C190  1  0.531300  0.329100  0.543600  1.0  0.3809
  C  C191  1  0.619000  0.366800  0.627800  1.0  0.3458
  C  C192  1  0.611200  0.412400  0.542100  1.0  0.3691
  C  C193  1  0.233400  0.091500  0.279100  1.0  0.163
  C  C194  1  0.205800  0.090100  0.218400  1.0  -0.1438
  C  C195  1  0.152900  0.134700  0.189400  1.0  -0.032
  C  C196  1  0.136000  0.180300  0.221800  1.0  -0.1598
  C  C197  1  0.168100  0.178400  0.280700  1.0  0.1668
  C  C198  1  0.196800  0.945900  0.011100  1.0  0.1523
  C  C199  1  0.172500  0.992100  0.041000  1.0  -0.0788
  C  C200  1  0.136800  0.037600  0.010800  1.0  -0.0699
  C  C201  1  0.125000  0.036600  0.951800  1.0  -0.0656
  C  C202  1  0.147200  0.987800  0.922600  1.0  0.1461
  C  C203  1  0.882100  0.259800  0.926900  1.0  0.1267
  C  C204  1  0.935900  0.216200  0.955100  1.0  -0.082
  C  C205  1  0.970000  0.217400  0.013800  1.0  -0.1044
  C  C206  1  0.947400  0.262300  0.043100  1.0  -0.1578
  C  C207  1  0.893500  0.306500  0.012300  1.0  0.1587
  C  C208  1  0.031300  0.170900  0.043600  1.0  0.3808
  C  C209  1  0.119000  0.133200  0.127800  1.0  0.3455
  C  C210  1  0.111200  0.087600  0.042100  1.0  0.3693
  C  C211  1  0.733400  0.591500  0.279100  1.0  0.163
  C  C212  1  0.705800  0.590100  0.218400  1.0  -0.1438
  C  C213  1  0.652900  0.634700  0.189400  1.0  -0.032
  C  C214  1  0.636000  0.680300  0.221800  1.0  -0.1598
  C  C215  1  0.668100  0.678400  0.280700  1.0  0.1668
  C  C216  1  0.696800  0.445900  0.011100  1.0  0.1523
  C  C217  1  0.672500  0.492100  0.041000  1.0  -0.0788
  C  C218  1  0.636800  0.537600  0.010800  1.0  -0.0699
  C  C219  1  0.625000  0.536600  0.951800  1.0  -0.0656
  C  C220  1  0.647200  0.487800  0.922600  1.0  0.1461
  C  C221  1  0.382100  0.759800  0.926900  1.0  0.1267
  C  C222  1  0.435900  0.716200  0.955100  1.0  -0.082
  C  C223  1  0.470000  0.717400  0.013800  1.0  -0.1044
  C  C224  1  0.447400  0.762300  0.043100  1.0  -0.1578
  C  C225  1  0.393500  0.806500  0.012300  1.0  0.1587
  C  C226  1  0.531300  0.670900  0.043600  1.0  0.3808
  C  C227  1  0.619000  0.633200  0.127800  1.0  0.3455
  C  C228  1  0.611200  0.587600  0.042100  1.0  0.3693
  C  C229  1  0.885500  0.909600  0.760300  1.0  0.1672
  C  C230  1  0.856000  0.915300  0.701600  1.0  -0.182
  C  C231  1  0.811600  0.870700  0.670200  1.0  -0.0196
  C  C232  1  0.799300  0.823700  0.700600  1.0  -0.194
  C  C233  1  0.829900  0.822100  0.757800  1.0  0.1696
  C  C234  1  0.884900  0.060600  0.492700  1.0  0.1487
  C  C235  1  0.858000  0.013600  0.522900  1.0  -0.1178
  C  C236  1  0.810100  0.970000  0.492200  1.0  -0.0553
  C  C237  1  0.788700  0.973200  0.433400  1.0  -0.1251
  C  C238  1  0.818700  0.019700  0.406100  1.0  0.1726
  C  C239  1  0.537800  0.752100  0.405100  1.0  0.1599
  C  C240  1  0.595500  0.795600  0.432900  1.0  -0.1333
  C  C241  1  0.634700  0.793700  0.490100  1.0  -0.0439
  C  C242  1  0.614400  0.745700  0.518900  1.0  -0.1706
  C  C243  1  0.556200  0.703800  0.487000  1.0  0.1778
  C  C244  1  0.696900  0.838300  0.522900  1.0  0.3602
  C  C245  1  0.781900  0.874400  0.607300  1.0  0.3412
  C  C246  1  0.781000  0.921000  0.522900  1.0  0.3693
  C  C247  1  0.385500  0.409600  0.760300  1.0  0.1672
  C  C248  1  0.356000  0.415300  0.701600  1.0  -0.182
  C  C249  1  0.311600  0.370700  0.670200  1.0  -0.0196
  C  C250  1  0.299300  0.323700  0.700600  1.0  -0.194
  C  C251  1  0.329900  0.322100  0.757800  1.0  0.1696
  C  C252  1  0.384900  0.560600  0.492700  1.0  0.1487
  C  C253  1  0.358000  0.513600  0.522900  1.0  -0.1178
  C  C254  1  0.310100  0.470000  0.492200  1.0  -0.0553
  C  C255  1  0.288700  0.473200  0.433400  1.0  -0.1251
  C  C256  1  0.318700  0.519700  0.406100  1.0  0.1726
  C  C257  1  0.037800  0.252100  0.405100  1.0  0.1599
  C  C258  1  0.095500  0.295600  0.432900  1.0  -0.1333
  C  C259  1  0.134700  0.293700  0.490100  1.0  -0.0439
  C  C260  1  0.114400  0.245700  0.518900  1.0  -0.1706
  C  C261  1  0.056200  0.203800  0.487000  1.0  0.1778
  C  C262  1  0.196900  0.338300  0.522900  1.0  0.3602
  C  C263  1  0.281900  0.374400  0.607300  1.0  0.3412
  C  C264  1  0.281000  0.421000  0.522900  1.0  0.3693
  C  C265  1  0.885500  0.090400  0.260300  1.0  0.1669
  C  C266  1  0.856000  0.084700  0.201600  1.0  -0.1843
  C  C267  1  0.811600  0.129300  0.170200  1.0  -0.0195
  C  C268  1  0.799300  0.176300  0.200600  1.0  -0.1958
  C  C269  1  0.829900  0.177900  0.257800  1.0  0.1695
  C  C270  1  0.884900  0.939400  0.992700  1.0  0.1477
  C  C271  1  0.858000  0.986400  0.022900  1.0  -0.1191
  C  C272  1  0.810100  0.030000  0.992200  1.0  -0.0555
  C  C273  1  0.788700  0.026800  0.933400  1.0  -0.1246
  C  C274  1  0.818700  0.980300  0.906100  1.0  0.172
  C  C275  1  0.537800  0.247900  0.905100  1.0  0.1604
  C  C276  1  0.595500  0.204400  0.932900  1.0  -0.1358
  C  C277  1  0.634700  0.206300  0.990100  1.0  -0.0439
  C  C278  1  0.614400  0.254300  0.018900  1.0  -0.1707
  C  C279  1  0.556200  0.296200  0.987000  1.0  0.1771
  C  C280  1  0.696900  0.161700  0.022900  1.0  0.3603
  C  C281  1  0.781900  0.125600  0.107300  1.0  0.3411
  C  C282  1  0.781000  0.079000  0.022900  1.0  0.3699
  C  C283  1  0.385500  0.590400  0.260300  1.0  0.1669
  C  C284  1  0.356000  0.584700  0.201600  1.0  -0.1843
  C  C285  1  0.311600  0.629300  0.170200  1.0  -0.0195
  C  C286  1  0.299300  0.676300  0.200600  1.0  -0.1958
  C  C287  1  0.329900  0.677900  0.257800  1.0  0.1695
  C  C288  1  0.384900  0.439400  0.992700  1.0  0.1477
  C  C289  1  0.358000  0.486400  0.022900  1.0  -0.1191
  C  C290  1  0.310100  0.530000  0.992200  1.0  -0.0555
  C  C291  1  0.288700  0.526800  0.933400  1.0  -0.1246
  C  C292  1  0.318700  0.480300  0.906100  1.0  0.172
  C  C293  1  0.037800  0.747900  0.905100  1.0  0.1604
  C  C294  1  0.095500  0.704400  0.932900  1.0  -0.1358
  C  C295  1  0.134700  0.706300  0.990100  1.0  -0.0439
  C  C296  1  0.114400  0.754300  0.018900  1.0  -0.1707
  C  C297  1  0.056200  0.796200  0.987000  1.0  0.1771
  C  C298  1  0.196900  0.661700  0.022900  1.0  0.3603
  C  C299  1  0.281900  0.625600  0.107300  1.0  0.3411
  C  C300  1  0.281000  0.579000  0.022900  1.0  0.3699
  C  C301  1  0.535800  0.824400  0.816600  1.0  0.1852
  C  C302  1  0.510800  0.823300  0.758100  1.0  -0.1771
  C  C303  1  0.512400  0.871800  0.727300  1.0  -0.047
  C  C304  1  0.541800  0.917400  0.757300  1.0  -0.1629
  C  C305  1  0.568700  0.914600  0.817400  1.0  0.1549
  C  C306  1  0.594500  0.058600  0.550400  1.0  0.1578
  C  C307  1  0.568700  0.012100  0.579400  1.0  -0.083
  C  C308  1  0.512700  0.971700  0.549100  1.0  -0.1464
  C  C309  1  0.478600  0.975800  0.491100  1.0  -0.1473
  C  C310  1  0.502700  0.025000  0.465800  1.0  0.1702
  C  C311  1  0.240600  0.749600  0.460500  1.0  0.1581
  C  C312  1  0.302000  0.794500  0.488300  1.0  -0.1345
  C  C313  1  0.335100  0.793300  0.549000  1.0  -0.0191
  C  C314  1  0.310500  0.746500  0.577400  1.0  -0.1357
  C  C315  1  0.251600  0.704800  0.544900  1.0  0.1731
  C  C316  1  0.397200  0.838200  0.579500  1.0  0.3514
  C  C317  1  0.485300  0.873200  0.663900  1.0  0.3566
  C  C318  1  0.483100  0.919200  0.580300  1.0  0.3498
  C  C319  1  0.035800  0.324400  0.816600  1.0  0.1852
  C  C320  1  0.010800  0.323300  0.758100  1.0  -0.1771
  C  C321  1  0.012400  0.371800  0.727300  1.0  -0.047
  C  C322  1  0.041800  0.417400  0.757300  1.0  -0.1629
  C  C323  1  0.068700  0.414600  0.817400  1.0  0.1549
  C  C324  1  0.094500  0.558600  0.550400  1.0  0.1539
  C  C325  1  0.068700  0.512100  0.579400  1.0  -0.0837
  C  C326  1  0.012700  0.471700  0.549100  1.0  -0.1464
  C  C327  1  0.978600  0.475800  0.491100  1.0  -0.1473
  C  C328  1  0.002700  0.525000  0.465800  1.0  0.1702
  C  C329  1  0.740600  0.249600  0.460500  1.0  0.1581
  C  C330  1  0.802000  0.294500  0.488300  1.0  -0.1345
  C  C331  1  0.835100  0.293300  0.549000  1.0  -0.0191
  C  C332  1  0.810500  0.246500  0.577400  1.0  -0.1357
  C  C333  1  0.751600  0.204800  0.544900  1.0  0.1731
  C  C334  1  0.897200  0.338200  0.579500  1.0  0.3514
  C  C335  1  0.985300  0.373200  0.663900  1.0  0.3566
  C  C336  1  0.983100  0.419200  0.580300  1.0  0.3498
  C  C337  1  0.535800  0.175600  0.316600  1.0  0.1843
  C  C338  1  0.510800  0.176700  0.258100  1.0  -0.1723
  C  C339  1  0.512400  0.128200  0.227300  1.0  -0.0468
  C  C340  1  0.541800  0.082600  0.257300  1.0  -0.1632
  C  C341  1  0.568700  0.085400  0.317400  1.0  0.1541
  C  C342  1  0.594500  0.941400  0.050400  1.0  0.1573
  C  C343  1  0.568700  0.987900  0.079400  1.0  -0.0839
  C  C344  1  0.512700  0.028300  0.049100  1.0  -0.147
  C  C345  1  0.478600  0.024200  0.991100  1.0  -0.1475
  C  C346  1  0.502700  0.975000  0.965800  1.0  0.1704
  C  C347  1  0.240600  0.250400  0.960500  1.0  0.1584
  C  C348  1  0.302000  0.205500  0.988300  1.0  -0.1347
  C  C349  1  0.335100  0.206700  0.049000  1.0  -0.0171
  C  C350  1  0.310500  0.253500  0.077400  1.0  -0.1346
  C  C351  1  0.251600  0.295200  0.044900  1.0  0.1733
  C  C352  1  0.397200  0.161800  0.079500  1.0  0.3511
  C  C353  1  0.485300  0.126800  0.163900  1.0  0.3566
  C  C354  1  0.483100  0.080800  0.080300  1.0  0.3502
  C  C355  1  0.035800  0.675600  0.316600  1.0  0.1843
  C  C356  1  0.010800  0.676700  0.258100  1.0  -0.1723
  C  C357  1  0.012400  0.628200  0.227300  1.0  -0.0468
  C  C358  1  0.041800  0.582600  0.257300  1.0  -0.1635
  C  C359  1  0.068700  0.585400  0.317400  1.0  0.1541
  C  C360  1  0.094500  0.441400  0.050400  1.0  0.1573
  C  C361  1  0.068700  0.487900  0.079400  1.0  -0.0839
  C  C362  1  0.012700  0.528300  0.049100  1.0  -0.147
  C  C363  1  0.978600  0.524200  0.991100  1.0  -0.1475
  C  C364  1  0.002700  0.475000  0.965800  1.0  0.1704
  C  C365  1  0.740600  0.750400  0.960500  1.0  0.1584
  C  C366  1  0.802000  0.705500  0.988300  1.0  -0.1347
  C  C367  1  0.835100  0.706700  0.049000  1.0  -0.0171
  C  C368  1  0.810500  0.753500  0.077400  1.0  -0.1346
  C  C369  1  0.751600  0.795200  0.044900  1.0  0.1733
  C  C370  1  0.897200  0.661800  0.079500  1.0  0.3511
  C  C371  1  0.985300  0.626800  0.163900  1.0  0.3566
  C  C372  1  0.983100  0.580800  0.080300  1.0  0.3502
  N  N373  1  0.211800  0.864700  0.810900  1.0  -0.3432
  N  N374  1  0.184000  0.055800  0.453300  1.0  -0.3248
  N  N375  1  0.861900  0.694500  0.456200  1.0  -0.3599
  N  N376  1  0.061600  0.823800  0.600700  1.0  -0.5002
  N  N377  1  0.148500  0.911100  0.598900  1.0  -0.4569
  N  N378  1  0.055300  0.872700  0.512800  1.0  -0.529
  N  N379  1  0.711800  0.364700  0.810900  1.0  -0.3432
  N  N380  1  0.684000  0.555800  0.453300  1.0  -0.3243
  N  N381  1  0.361900  0.194500  0.456200  1.0  -0.3599
  N  N382  1  0.561600  0.323800  0.600700  1.0  -0.5002
  N  N383  1  0.648500  0.411100  0.598900  1.0  -0.4569
  N  N384  1  0.555300  0.372700  0.512800  1.0  -0.529
  N  N385  1  0.211800  0.135300  0.310900  1.0  -0.3431
  N  N386  1  0.184000  0.944200  0.953300  1.0  -0.3244
  N  N387  1  0.861900  0.305500  0.956200  1.0  -0.3591
  N  N388  1  0.061600  0.176200  0.100700  1.0  -0.4993
  N  N389  1  0.148500  0.088900  0.098900  1.0  -0.4619
  N  N390  1  0.055300  0.127300  0.012800  1.0  -0.5289
  N  N391  1  0.711800  0.635300  0.310900  1.0  -0.3431
  N  N392  1  0.684000  0.444200  0.953300  1.0  -0.3244
  N  N393  1  0.361900  0.805500  0.956200  1.0  -0.3591
  N  N394  1  0.561600  0.676200  0.100700  1.0  -0.4993
  N  N395  1  0.648500  0.588900  0.098900  1.0  -0.4619
  N  N396  1  0.555300  0.627300  0.012800  1.0  -0.5289
  N  N397  1  0.869200  0.864800  0.790300  1.0  -0.3437
  N  N398  1  0.862800  0.063800  0.435100  1.0  -0.3665
  N  N399  1  0.518900  0.706500  0.432400  1.0  -0.3283
  N  N400  1  0.721800  0.833200  0.579200  1.0  -0.5007
  N  N401  1  0.814000  0.919300  0.580300  1.0  -0.476
  N  N402  1  0.725100  0.881500  0.491800  1.0  -0.5704
  N  N403  1  0.369200  0.364800  0.790300  1.0  -0.3437
  N  N404  1  0.362800  0.563800  0.435100  1.0  -0.3669
  N  N405  1  0.018900  0.206500  0.432400  1.0  -0.3283
  N  N406  1  0.221800  0.333200  0.579200  1.0  -0.5007
  N  N407  1  0.314000  0.419300  0.580300  1.0  -0.476
  N  N408  1  0.225100  0.381500  0.491800  1.0  -0.5704
  N  N409  1  0.869200  0.135200  0.290300  1.0  -0.3436
  N  N410  1  0.862800  0.936200  0.935100  1.0  -0.368
  N  N411  1  0.518900  0.293500  0.932400  1.0  -0.3267
  N  N412  1  0.721800  0.166800  0.079200  1.0  -0.4934
  N  N413  1  0.814000  0.080700  0.080300  1.0  -0.4787
  N  N414  1  0.725100  0.118500  0.991800  1.0  -0.5706
  N  N415  1  0.369200  0.635200  0.290300  1.0  -0.3436
  N  N416  1  0.362800  0.436200  0.935100  1.0  -0.3681
  N  N417  1  0.018900  0.793500  0.932400  1.0  -0.3267
  N  N418  1  0.221800  0.666800  0.079200  1.0  -0.4934
  N  N419  1  0.314000  0.580700  0.080300  1.0  -0.4787
  N  N420  1  0.225100  0.618500  0.991800  1.0  -0.5706
  N  N421  1  0.562800  0.868100  0.847000  1.0  -0.3405
  N  N422  1  0.560700  0.065400  0.495200  1.0  -0.3502
  N  N423  1  0.221000  0.705000  0.488600  1.0  -0.332
  N  N424  1  0.425300  0.832300  0.636100  1.0  -0.4703
  N  N425  1  0.518800  0.917100  0.636700  1.0  -0.4737
  N  N426  1  0.422500  0.881400  0.548600  1.0  -0.5531
  N  N427  1  0.062800  0.368100  0.847000  1.0  -0.3405
  N  N428  1  0.060700  0.565400  0.495200  1.0  -0.3504
  N  N429  1  0.721000  0.205000  0.488600  1.0  -0.332
  N  N430  1  0.925300  0.332300  0.636100  1.0  -0.4703
  N  N431  1  0.018800  0.417100  0.636700  1.0  -0.4737
  N  N432  1  0.922500  0.381400  0.548600  1.0  -0.5531
  N  N433  1  0.562800  0.131900  0.347000  1.0  -0.3399
  N  N434  1  0.560700  0.934600  0.995200  1.0  -0.3517
  N  N435  1  0.221000  0.295000  0.988600  1.0  -0.3304
  N  N436  1  0.425300  0.167700  0.136100  1.0  -0.4714
  N  N437  1  0.518800  0.082900  0.136700  1.0  -0.4758
  N  N438  1  0.422500  0.118600  0.048600  1.0  -0.5531
  N  N439  1  0.062800  0.631900  0.347000  1.0  -0.3399
  N  N440  1  0.060700  0.434600  0.995200  1.0  -0.3517
  N  N441  1  0.721000  0.795000  0.988600  1.0  -0.3304
  N  N442  1  0.925300  0.667700  0.136100  1.0  -0.4714
  N  N443  1  0.018800  0.582900  0.136700  1.0  -0.4808
  N  N444  1  0.922500  0.618600  0.048600  1.0  -0.5531
