# generated using pymatgen
data_SmH4C7(NO3)2
_symmetry_space_group_name_H-M   'P 1'
_cell_length_a   10.27500000
_cell_length_b   11.28760000
_cell_length_c   22.22720000
_cell_angle_alpha   90.00000000
_cell_angle_beta   97.32100000
_cell_angle_gamma   90.00000000
_symmetry_Int_Tables_number   1
_chemical_formula_structural   SmH4C7(NO3)2
_chemical_formula_sum   'Sm8 H32 C56 N16 O48'
_cell_volume   2556.89700812
_cell_formula_units_Z   8
loop_
 _symmetry_equiv_pos_site_id
 _symmetry_equiv_pos_as_xyz
  1  'x, y, z'
loop_
 _atom_site_type_symbol
 _atom_site_label
 _atom_site_symmetry_multiplicity
 _atom_site_fract_x
 _atom_site_fract_y
 _atom_site_fract_z
 _atom_site_occupancy
 _atom_site_charge
  Sm  Sm1  1  0.390270  0.813140  0.774030  1.0  2.1991
  Sm  Sm2  1  0.760690  0.586810  0.564170  1.0  2.3482
  Sm  Sm3  1  0.109730  0.313140  0.725970  1.0  2.1989
  Sm  Sm4  1  0.739310  0.086810  0.935830  1.0  2.348
  Sm  Sm5  1  0.609730  0.186860  0.225970  1.0  2.1987
  Sm  Sm6  1  0.239310  0.413190  0.435830  1.0  2.3476
  Sm  Sm7  1  0.890270  0.686860  0.274030  1.0  2.1989
  Sm  Sm8  1  0.260690  0.913190  0.064170  1.0  2.3475
  H  H9  1  0.843600  0.531100  0.836000  1.0  0.3248
  H  H10  1  0.881200  0.880400  0.837000  1.0  0.3027
  H  H11  1  0.602300  0.620900  0.913100  1.0  0.17
  H  H12  1  0.755600  0.612200  0.925400  1.0  0.145
  H  H13  1  0.688000  0.735800  0.913200  1.0  0.1581
  H  H14  1  0.006600  0.776900  0.710100  1.0  0.1545
  H  H15  1  0.881000  0.839700  0.728000  1.0  0.1279
  H  H16  1  0.996300  0.915500  0.708200  1.0  0.1608
  H  H17  1  0.656400  0.031100  0.664000  1.0  0.3295
  H  H18  1  0.618800  0.380400  0.663000  1.0  0.3041
  H  H19  1  0.897700  0.120900  0.586900  1.0  0.1698
  H  H20  1  0.744400  0.112200  0.574600  1.0  0.1441
  H  H21  1  0.812000  0.235800  0.586800  1.0  0.1578
  H  H22  1  0.493400  0.276900  0.789900  1.0  0.1564
  H  H23  1  0.619000  0.339700  0.772000  1.0  0.128
  H  H24  1  0.503700  0.415500  0.791800  1.0  0.1598
  H  H25  1  0.156400  0.468900  0.164000  1.0  0.3297
  H  H26  1  0.118800  0.119600  0.163000  1.0  0.3042
  H  H27  1  0.397700  0.379100  0.086900  1.0  0.1698
  H  H28  1  0.244400  0.387800  0.074600  1.0  0.1447
  H  H29  1  0.312000  0.264200  0.086800  1.0  0.159
  H  H30  1  0.993400  0.223100  0.289900  1.0  0.1561
  H  H31  1  0.119000  0.160300  0.272000  1.0  0.1279
  H  H32  1  0.003700  0.084500  0.291800  1.0  0.1579
  H  H33  1  0.343600  0.968900  0.336000  1.0  0.3268
  H  H34  1  0.381200  0.619600  0.337000  1.0  0.3022
  H  H35  1  0.102300  0.879100  0.413100  1.0  0.1696
  H  H36  1  0.255600  0.887800  0.425400  1.0  0.1448
  H  H37  1  0.188000  0.764200  0.413200  1.0  0.16
  H  H38  1  0.506600  0.723100  0.210100  1.0  0.156
  H  H39  1  0.381000  0.660300  0.228000  1.0  0.1281
  H  H40  1  0.496300  0.584500  0.208200  1.0  0.1596
  C  C41  1  0.842300  0.495300  0.717200  1.0  0.7484
  C  C42  1  0.759700  0.573400  0.752000  1.0  -0.0812
  C  C43  1  0.652600  0.647300  0.738100  1.0  0.0155
  C  C44  1  0.580900  0.687600  0.680000  1.0  0.7375
  C  C45  1  0.689000  0.638500  0.836400  1.0  0.4616
  C  C46  1  0.683200  0.653200  0.903000  1.0  -0.4529
  C  C47  1  0.305800  0.849100  0.912200  1.0  0.7955
  C  C48  1  0.173300  0.852200  0.876200  1.0  0.0587
  C  C49  1  0.050800  0.870500  0.893200  1.0  -0.0882
  C  C50  1  0.994400  0.884300  0.951400  1.0  0.8018
  C  C51  1  0.036000  0.851100  0.793200  1.0  0.4805
  C  C52  1  0.974600  0.845300  0.729200  1.0  -0.4759
  C  C53  1  0.235600  0.045800  0.714400  1.0  0.5463
  C  C54  1  0.295500  0.091300  0.778000  1.0  0.5307
  C  C55  1  0.657700  0.995300  0.782800  1.0  0.7491
  C  C56  1  0.740300  0.073400  0.748000  1.0  -0.0811
  C  C57  1  0.847400  0.147300  0.761900  1.0  0.0147
  C  C58  1  0.919100  0.187600  0.820000  1.0  0.7395
  C  C59  1  0.811000  0.138500  0.663600  1.0  0.4642
  C  C60  1  0.816800  0.153200  0.597000  1.0  -0.4539
  C  C61  1  0.194200  0.349100  0.587800  1.0  0.7919
  C  C62  1  0.326700  0.352200  0.623800  1.0  0.0595
  C  C63  1  0.449200  0.370500  0.606800  1.0  -0.0887
  C  C64  1  0.505600  0.384300  0.548600  1.0  0.8022
  C  C65  1  0.464000  0.351100  0.706800  1.0  0.4806
  C  C66  1  0.525400  0.345300  0.770800  1.0  -0.4751
  C  C67  1  0.264400  0.545800  0.785600  1.0  0.5453
  C  C68  1  0.204500  0.591300  0.722000  1.0  0.5307
  C  C69  1  0.157700  0.504700  0.282800  1.0  0.7505
  C  C70  1  0.240300  0.426600  0.248000  1.0  -0.0813
  C  C71  1  0.347400  0.352700  0.261900  1.0  0.0155
  C  C72  1  0.419100  0.312400  0.320000  1.0  0.739
  C  C73  1  0.311000  0.361500  0.163600  1.0  0.4636
  C  C74  1  0.316800  0.346800  0.097000  1.0  -0.4537
  C  C75  1  0.694200  0.150900  0.087800  1.0  0.7917
  C  C76  1  0.826700  0.147800  0.123800  1.0  0.0592
  C  C77  1  0.949200  0.129500  0.106800  1.0  -0.0889
  C  C78  1  0.005600  0.115700  0.048600  1.0  0.8023
  C  C79  1  0.964000  0.148900  0.206800  1.0  0.4804
  C  C80  1  0.025400  0.154700  0.270800  1.0  -0.4755
  C  C81  1  0.764400  0.954200  0.285600  1.0  0.5454
  C  C82  1  0.704500  0.908700  0.222000  1.0  0.5305
  C  C83  1  0.342300  0.004700  0.217200  1.0  0.7481
  C  C84  1  0.259700  0.926600  0.252000  1.0  -0.0813
  C  C85  1  0.152600  0.852700  0.238100  1.0  0.0154
  C  C86  1  0.080900  0.812400  0.180000  1.0  0.7377
  C  C87  1  0.189000  0.861500  0.336400  1.0  0.4617
  C  C88  1  0.183200  0.846800  0.403000  1.0  -0.4532
  C  C89  1  0.805800  0.650900  0.412200  1.0  0.7952
  C  C90  1  0.673300  0.647800  0.376200  1.0  0.0582
  C  C91  1  0.550800  0.629500  0.393200  1.0  -0.0883
  C  C92  1  0.494400  0.615700  0.451400  1.0  0.802
  C  C93  1  0.536000  0.648900  0.293200  1.0  0.48
  C  C94  1  0.474600  0.654700  0.229200  1.0  -0.4764
  C  C95  1  0.735600  0.454200  0.214400  1.0  0.5463
  C  C96  1  0.795500  0.408700  0.278000  1.0  0.5309
  N  N97  1  0.780700  0.570600  0.814100  1.0  -0.292
  N  N98  1  0.609500  0.686700  0.790950  1.0  -0.5606
  N  N99  1  0.163000  0.839700  0.814310  1.0  -0.5422
  N  N100  1  0.966600  0.870000  0.840100  1.0  -0.284
  N  N101  1  0.719300  0.070600  0.685900  1.0  -0.2947
  N  N102  1  0.890500  0.186700  0.709050  1.0  -0.5598
  N  N103  1  0.337000  0.339700  0.685690  1.0  -0.5411
  N  N104  1  0.533400  0.370000  0.659900  1.0  -0.285
  N  N105  1  0.219300  0.429400  0.185900  1.0  -0.2938
  N  N106  1  0.390500  0.313300  0.209050  1.0  -0.5589
  N  N107  1  0.837000  0.160300  0.185690  1.0  -0.5415
  N  N108  1  0.033400  0.130000  0.159900  1.0  -0.2848
  N  N109  1  0.280700  0.929400  0.314100  1.0  -0.2923
  N  N110  1  0.109500  0.813300  0.290950  1.0  -0.5594
  N  N111  1  0.663000  0.660300  0.314310  1.0  -0.5426
  N  N112  1  0.466600  0.630000  0.340100  1.0  -0.2838
  O  O113  1  0.929500  0.439700  0.749010  1.0  -0.6596
  O  O114  1  0.815600  0.486100  0.660420  1.0  -0.7995
  O  O115  1  0.624800  0.664500  0.630590  1.0  -0.8199
  O  O116  1  0.476600  0.743500  0.681790  1.0  -0.5999
  O  O117  1  0.402200  0.822500  0.883940  1.0  -0.6648
  O  O118  1  0.320300  0.874800  0.967060  1.0  -0.8812
  O  O119  1  0.060700  0.862800  0.000510  1.0  -0.706
  O  O120  1  0.875500  0.914100  0.945590  1.0  -0.7651
  O  O121  1  0.270200  0.944600  0.698930  1.0  -0.6318
  O  O122  1  0.156800  0.113200  0.684200  1.0  -0.647
  O  O123  1  0.367400  0.020600  0.810870  1.0  -0.6779
  O  O124  1  0.268400  0.195100  0.791300  1.0  -0.6363
  O  O125  1  0.570500  0.939700  0.750990  1.0  -0.6634
  O  O126  1  0.684400  0.986100  0.839580  1.0  -0.7972
  O  O127  1  0.875200  0.164500  0.869410  1.0  -0.82
  O  O128  1  0.023400  0.243500  0.818210  1.0  -0.6018
  O  O129  1  0.097800  0.322500  0.616060  1.0  -0.6653
  O  O130  1  0.179700  0.374800  0.532940  1.0  -0.8803
  O  O131  1  0.439300  0.362800  0.499490  1.0  -0.7069
  O  O132  1  0.624500  0.414100  0.554410  1.0  -0.766
  O  O133  1  0.229800  0.444600  0.801070  1.0  -0.6339
  O  O134  1  0.343200  0.613200  0.815800  1.0  -0.6474
  O  O135  1  0.132600  0.520600  0.689130  1.0  -0.6771
  O  O136  1  0.231600  0.695100  0.708700  1.0  -0.6382
  O  O137  1  0.070500  0.560300  0.250990  1.0  -0.6594
  O  O138  1  0.184400  0.513900  0.339580  1.0  -0.798
  O  O139  1  0.375200  0.335500  0.369410  1.0  -0.8208
  O  O140  1  0.523400  0.256500  0.318210  1.0  -0.6021
  O  O141  1  0.597800  0.177500  0.116060  1.0  -0.6648
  O  O142  1  0.679700  0.125200  0.032940  1.0  -0.8807
  O  O143  1  0.939300  0.137200  0.999490  1.0  -0.7056
  O  O144  1  0.124500  0.085900  0.054410  1.0  -0.7664
  O  O145  1  0.729800  0.055400  0.301070  1.0  -0.6343
  O  O146  1  0.843200  0.886800  0.315800  1.0  -0.6469
  O  O147  1  0.632600  0.979400  0.189130  1.0  -0.6771
  O  O148  1  0.731600  0.804900  0.208700  1.0  -0.6388
  O  O149  1  0.429500  0.060300  0.249010  1.0  -0.6633
  O  O150  1  0.315600  0.013900  0.160420  1.0  -0.7983
  O  O151  1  0.124800  0.835500  0.130590  1.0  -0.8193
  O  O152  1  0.976600  0.756500  0.181790  1.0  -0.6006
  O  O153  1  0.902200  0.677500  0.383940  1.0  -0.6648
  O  O154  1  0.820300  0.625200  0.467060  1.0  -0.8814
  O  O155  1  0.560700  0.637200  0.500510  1.0  -0.7055
  O  O156  1  0.375500  0.585900  0.445590  1.0  -0.7641
  O  O157  1  0.770200  0.555400  0.198930  1.0  -0.6325
  O  O158  1  0.656800  0.386800  0.184200  1.0  -0.6468
  O  O159  1  0.867400  0.479400  0.310870  1.0  -0.6782
  O  O160  1  0.768400  0.304900  0.291300  1.0  -0.6361
