# generated using pymatgen
data_SmH4C7(NO3)2
_symmetry_space_group_name_H-M   'P 1'
_cell_length_a   10.28150000
_cell_length_b   11.29280000
_cell_length_c   22.24800000
_cell_angle_alpha   90.00000000
_cell_angle_beta   97.46200000
_cell_angle_gamma   90.00000000
_symmetry_Int_Tables_number   1
_chemical_formula_structural   SmH4C7(NO3)2
_chemical_formula_sum   'Sm8 H32 C56 N16 O48'
_cell_volume   2561.27070337
_cell_formula_units_Z   8
loop_
 _symmetry_equiv_pos_site_id
 _symmetry_equiv_pos_as_xyz
  1  'x, y, z'
loop_
 _atom_site_type_symbol
 _atom_site_label
 _atom_site_symmetry_multiplicity
 _atom_site_fract_x
 _atom_site_fract_y
 _atom_site_fract_z
 _atom_site_occupancy
 _atom_site_charge
  Sm  Sm1  1  0.609820  0.313690  0.225820  1.0  2.1982
  Sm  Sm2  1  0.739580  0.411730  0.935710  1.0  2.3516
  Sm  Sm3  1  0.890180  0.813690  0.274180  1.0  2.1984
  Sm  Sm4  1  0.760420  0.911730  0.564290  1.0  2.3498
  Sm  Sm5  1  0.390180  0.686310  0.774180  1.0  2.1982
  Sm  Sm6  1  0.260420  0.588270  0.064290  1.0  2.3509
  Sm  Sm7  1  0.109820  0.186310  0.725820  1.0  2.198
  Sm  Sm8  1  0.239580  0.088270  0.435710  1.0  2.3518
  H  H9  1  0.157200  0.032700  0.163900  1.0  0.3355
  H  H10  1  0.118200  0.380900  0.163600  1.0  0.3113
  H  H11  1  0.247000  0.108000  0.074800  1.0  0.1439
  H  H12  1  0.399500  0.123900  0.088100  1.0  0.1732
  H  H13  1  0.307200  0.234700  0.086400  1.0  0.1588
  H  H14  1  0.118900  0.357600  0.272900  1.0  0.127
  H  H15  1  0.009500  0.269600  0.287700  1.0  0.1589
  H  H16  1  0.989800  0.406400  0.294300  1.0  0.1628
  H  H17  1  0.342800  0.532700  0.336100  1.0  0.334
  H  H18  1  0.381800  0.880900  0.336400  1.0  0.3107
  H  H19  1  0.253000  0.608000  0.425200  1.0  0.1446
  H  H20  1  0.100500  0.623900  0.411900  1.0  0.1688
  H  H21  1  0.192800  0.734700  0.413600  1.0  0.1586
  H  H22  1  0.381100  0.857600  0.227100  1.0  0.1263
  H  H23  1  0.490500  0.769600  0.212300  1.0  0.1578
  H  H24  1  0.510200  0.906400  0.205700  1.0  0.1601
  H  H25  1  0.842800  0.967300  0.836100  1.0  0.3348
  H  H26  1  0.881800  0.619100  0.836400  1.0  0.3106
  H  H27  1  0.753000  0.892000  0.925200  1.0  0.1442
  H  H28  1  0.600500  0.876100  0.911900  1.0  0.1691
  H  H29  1  0.692800  0.765300  0.913600  1.0  0.1608
  H  H30  1  0.881100  0.642400  0.727100  1.0  0.1266
  H  H31  1  0.990500  0.730400  0.712300  1.0  0.1582
  H  H32  1  0.010200  0.593600  0.705700  1.0  0.1615
  H  H33  1  0.657200  0.467300  0.663900  1.0  0.3356
  H  H34  1  0.618200  0.119100  0.663600  1.0  0.3112
  H  H35  1  0.747000  0.392000  0.574800  1.0  0.1435
  H  H36  1  0.899500  0.376100  0.588100  1.0  0.1733
  H  H37  1  0.807200  0.265300  0.586400  1.0  0.1599
  H  H38  1  0.618900  0.142400  0.772900  1.0  0.1276
  H  H39  1  0.509500  0.230400  0.787700  1.0  0.1579
  H  H40  1  0.489800  0.093600  0.794300  1.0  0.1645
  C  C41  1  0.309500  0.138800  0.163700  1.0  0.4751
  C  C42  1  0.239900  0.074800  0.248700  1.0  -0.0942
  C  C43  1  0.346500  0.148700  0.261900  1.0  0.0253
  C  C44  1  0.316400  0.152600  0.097300  1.0  -0.4527
  C  C45  1  0.158400  0.997300  0.283100  1.0  0.7538
  C  C46  1  0.419000  0.188900  0.320400  1.0  0.7427
  C  C47  1  0.964000  0.352000  0.207200  1.0  0.4871
  C  C48  1  0.949700  0.370700  0.106700  1.0  -0.0848
  C  C49  1  0.827300  0.351900  0.123900  1.0  0.052
  C  C50  1  0.026000  0.345800  0.271200  1.0  -0.4759
  C  C51  1  0.007100  0.385500  0.049200  1.0  0.8082
  C  C52  1  0.694300  0.348700  0.088200  1.0  0.7997
  C  C53  1  0.735000  0.045900  0.214500  1.0  0.5453
  C  C54  1  0.795900  0.091700  0.278200  1.0  0.5375
  C  C55  1  0.190500  0.638800  0.336300  1.0  0.4696
  C  C56  1  0.260100  0.574800  0.251300  1.0  -0.0936
  C  C57  1  0.153500  0.648700  0.238100  1.0  0.0258
  C  C58  1  0.183600  0.652600  0.402700  1.0  -0.4517
  C  C59  1  0.341600  0.497300  0.216900  1.0  0.7524
  C  C60  1  0.081000  0.688900  0.179600  1.0  0.7408
  C  C61  1  0.536000  0.852000  0.292800  1.0  0.4883
  C  C62  1  0.550300  0.870700  0.393300  1.0  -0.0845
  C  C63  1  0.672700  0.851900  0.376100  1.0  0.0505
  C  C64  1  0.474000  0.845800  0.228800  1.0  -0.4709
  C  C65  1  0.492900  0.885500  0.450800  1.0  0.8044
  C  C66  1  0.805700  0.848700  0.411800  1.0  0.8021
  C  C67  1  0.765000  0.545900  0.285500  1.0  0.545
  C  C68  1  0.704100  0.591700  0.221800  1.0  0.5381
  C  C69  1  0.690500  0.861200  0.836300  1.0  0.4694
  C  C70  1  0.760100  0.925200  0.751300  1.0  -0.0936
  C  C71  1  0.653500  0.851300  0.738100  1.0  0.0254
  C  C72  1  0.683600  0.847400  0.902700  1.0  -0.4519
  C  C73  1  0.841600  0.002700  0.716900  1.0  0.7528
  C  C74  1  0.581000  0.811100  0.679600  1.0  0.7412
  C  C75  1  0.036000  0.648000  0.792800  1.0  0.4876
  C  C76  1  0.050300  0.629300  0.893300  1.0  -0.0838
  C  C77  1  0.172700  0.648100  0.876100  1.0  0.0511
  C  C78  1  0.974000  0.654200  0.728800  1.0  -0.473
  C  C79  1  0.992900  0.614500  0.950800  1.0  0.8044
  C  C80  1  0.305700  0.651300  0.911800  1.0  0.7981
  C  C81  1  0.265000  0.954100  0.785500  1.0  0.545
  C  C82  1  0.204100  0.908300  0.721800  1.0  0.5378
  C  C83  1  0.809500  0.361200  0.663700  1.0  0.4741
  C  C84  1  0.739900  0.425200  0.748700  1.0  -0.0943
  C  C85  1  0.846500  0.351300  0.761900  1.0  0.0256
  C  C86  1  0.816400  0.347400  0.597300  1.0  -0.4524
  C  C87  1  0.658400  0.502700  0.783100  1.0  0.7541
  C  C88  1  0.919000  0.311100  0.820400  1.0  0.7423
  C  C89  1  0.464000  0.148000  0.707200  1.0  0.4869
  C  C90  1  0.449700  0.129300  0.606700  1.0  -0.0831
  C  C91  1  0.327300  0.148100  0.623900  1.0  0.0516
  C  C92  1  0.526000  0.154200  0.771200  1.0  -0.476
  C  C93  1  0.507100  0.114500  0.549200  1.0  0.8081
  C  C94  1  0.194300  0.151300  0.588200  1.0  0.7993
  C  C95  1  0.235000  0.454100  0.714500  1.0  0.5455
  C  C96  1  0.295900  0.408300  0.778200  1.0  0.5378
  N  N97  1  0.218550  0.071500  0.185450  1.0  -0.3035
  N  N98  1  0.390480  0.187600  0.208880  1.0  -0.5584
  N  N99  1  0.034690  0.370700  0.160390  1.0  -0.2906
  N  N100  1  0.836610  0.340400  0.186510  1.0  -0.5468
  N  N101  1  0.281450  0.571500  0.314550  1.0  -0.3075
  N  N102  1  0.109520  0.687600  0.291120  1.0  -0.5471
  N  N103  1  0.465310  0.870700  0.339610  1.0  -0.2882
  N  N104  1  0.663390  0.840400  0.313490  1.0  -0.5499
  N  N105  1  0.781450  0.928500  0.814550  1.0  -0.3077
  N  N106  1  0.609520  0.812400  0.791120  1.0  -0.5538
  N  N107  1  0.965310  0.629300  0.839610  1.0  -0.2889
  N  N108  1  0.163390  0.659600  0.813490  1.0  -0.5504
  N  N109  1  0.718550  0.428500  0.685450  1.0  -0.3037
  N  N110  1  0.890480  0.312400  0.708880  1.0  -0.5548
  N  N111  1  0.534690  0.129300  0.660390  1.0  -0.2879
  N  N112  1  0.336610  0.159600  0.686510  1.0  -0.5475
  O  O113  1  0.070340  0.940700  0.250640  1.0  -0.6736
  O  O114  1  0.184590  0.988800  0.339390  1.0  -0.8274
  O  O115  1  0.374530  0.167100  0.368930  1.0  -0.8124
  O  O116  1  0.523460  0.243900  0.318060  1.0  -0.6078
  O  O117  1  0.125360  0.415600  0.054760  1.0  -0.767
  O  O118  1  0.939600  0.362700  0.999300  1.0  -0.7298
  O  O119  1  0.680060  0.373200  0.032560  1.0  -0.8851
  O  O120  1  0.598180  0.323400  0.116080  1.0  -0.6602
  O  O121  1  0.769540  0.944800  0.199040  1.0  -0.6277
  O  O122  1  0.656200  0.113400  0.184100  1.0  -0.6549
  O  O123  1  0.867360  0.021400  0.310860  1.0  -0.6712
  O  O124  1  0.768930  0.196200  0.291630  1.0  -0.624
  O  O125  1  0.429660  0.440700  0.249360  1.0  -0.6772
  O  O126  1  0.315410  0.488800  0.160610  1.0  -0.827
  O  O127  1  0.125470  0.667100  0.131070  1.0  -0.8112
  O  O128  1  0.976540  0.743900  0.181940  1.0  -0.6038
  O  O129  1  0.374640  0.915600  0.445240  1.0  -0.7652
  O  O130  1  0.560400  0.862700  0.500700  1.0  -0.7299
  O  O131  1  0.819940  0.873200  0.467440  1.0  -0.8855
  O  O132  1  0.901820  0.823400  0.383920  1.0  -0.6595
  O  O133  1  0.730460  0.444800  0.300960  1.0  -0.6281
  O  O134  1  0.843800  0.613400  0.315900  1.0  -0.6556
  O  O135  1  0.632640  0.521400  0.189140  1.0  -0.6658
  O  O136  1  0.731070  0.696200  0.208370  1.0  -0.6256
  O  O137  1  0.929660  0.059300  0.749360  1.0  -0.6778
  O  O138  1  0.815410  0.011200  0.660610  1.0  -0.8267
  O  O139  1  0.625470  0.832900  0.631070  1.0  -0.8097
  O  O140  1  0.476540  0.756100  0.681940  1.0  -0.6039
  O  O141  1  0.874640  0.584400  0.945240  1.0  -0.7651
  O  O142  1  0.060400  0.637300  0.000700  1.0  -0.7306
  O  O143  1  0.319940  0.626800  0.967440  1.0  -0.885
  O  O144  1  0.401820  0.676600  0.883920  1.0  -0.66
  O  O145  1  0.230460  0.055200  0.800960  1.0  -0.6287
  O  O146  1  0.343800  0.886600  0.815900  1.0  -0.6552
  O  O147  1  0.132640  0.978600  0.689140  1.0  -0.6662
  O  O148  1  0.231070  0.803800  0.708370  1.0  -0.626
  O  O149  1  0.570340  0.559300  0.750640  1.0  -0.6734
  O  O150  1  0.684590  0.511200  0.839390  1.0  -0.8279
  O  O151  1  0.874530  0.332900  0.868930  1.0  -0.8125
  O  O152  1  0.023460  0.256100  0.818060  1.0  -0.6056
  O  O153  1  0.625360  0.084400  0.554760  1.0  -0.7676
  O  O154  1  0.439600  0.137300  0.499300  1.0  -0.7297
  O  O155  1  0.180060  0.126800  0.532560  1.0  -0.885
  O  O156  1  0.098180  0.176600  0.616080  1.0  -0.6601
  O  O157  1  0.269540  0.555200  0.699040  1.0  -0.6272
  O  O158  1  0.156200  0.386600  0.684100  1.0  -0.6552
  O  O159  1  0.367360  0.478600  0.810860  1.0  -0.6698
  O  O160  1  0.268930  0.303800  0.791630  1.0  -0.6227
