# generated using pymatgen
data_GdH4C7(NO3)2
_symmetry_space_group_name_H-M   'P 1'
_cell_length_a   10.22880000
_cell_length_b   11.29620000
_cell_length_c   22.26890000
_cell_angle_alpha   90.00000000
_cell_angle_beta   97.06620000
_cell_angle_gamma   90.00000000
_symmetry_Int_Tables_number   1
_chemical_formula_structural   GdH4C7(NO3)2
_chemical_formula_sum   'Gd8 H32 C56 N16 O48'
_cell_volume   2553.55154595
_cell_formula_units_Z   8
loop_
 _symmetry_equiv_pos_site_id
 _symmetry_equiv_pos_as_xyz
  1  'x, y, z'
loop_
 _atom_site_type_symbol
 _atom_site_label
 _atom_site_symmetry_multiplicity
 _atom_site_fract_x
 _atom_site_fract_y
 _atom_site_fract_z
 _atom_site_occupancy
 _atom_site_charge
  Gd  Gd1  1  0.611190  0.685320  0.225150  1.0  2.0856
  Gd  Gd2  1  0.241630  0.909140  0.435800  1.0  2.1087
  Gd  Gd3  1  0.888810  0.185320  0.274850  1.0  2.0864
  Gd  Gd4  1  0.258370  0.409140  0.064200  1.0  2.1087
  Gd  Gd5  1  0.388810  0.314680  0.774850  1.0  2.0865
  Gd  Gd6  1  0.758370  0.090860  0.564200  1.0  2.1098
  Gd  Gd7  1  0.111190  0.814680  0.725150  1.0  2.0858
  Gd  Gd8  1  0.741630  0.590860  0.935800  1.0  2.109
  H  H9  1  0.157300  0.966300  0.164600  1.0  0.3485
  H  H10  1  0.119300  0.618600  0.162100  1.0  0.3115
  H  H11  1  0.249900  0.890900  0.074400  1.0  0.1517
  H  H12  1  0.310300  0.764300  0.086300  1.0  0.1691
  H  H13  1  0.403000  0.875000  0.087400  1.0  0.1812
  H  H14  1  0.119400  0.641100  0.272000  1.0  0.1303
  H  H15  1  0.989500  0.591300  0.293200  1.0  0.1696
  H  H16  1  0.009000  0.728300  0.287300  1.0  0.161
  H  H17  1  0.342700  0.466300  0.335400  1.0  0.3484
  H  H18  1  0.380700  0.118600  0.337900  1.0  0.3107
  H  H19  1  0.250100  0.390900  0.425600  1.0  0.1515
  H  H20  1  0.189700  0.264300  0.413700  1.0  0.1695
  H  H21  1  0.097000  0.375000  0.412600  1.0  0.179
  H  H22  1  0.380600  0.141100  0.228000  1.0  0.13
  H  H23  1  0.510500  0.091300  0.206800  1.0  0.1656
  H  H24  1  0.491000  0.228300  0.212700  1.0  0.1614
  H  H25  1  0.842700  0.033700  0.835400  1.0  0.3475
  H  H26  1  0.880700  0.381400  0.837900  1.0  0.3109
  H  H27  1  0.750100  0.109100  0.925600  1.0  0.1526
  H  H28  1  0.689700  0.235700  0.913700  1.0  0.167
  H  H29  1  0.597000  0.125000  0.912600  1.0  0.1787
  H  H30  1  0.880600  0.358900  0.728000  1.0  0.1298
  H  H31  1  0.010500  0.408700  0.706800  1.0  0.1641
  H  H32  1  0.991000  0.271700  0.712700  1.0  0.1607
  H  H33  1  0.657300  0.533700  0.664600  1.0  0.3485
  H  H34  1  0.619300  0.881400  0.662100  1.0  0.3118
  H  H35  1  0.749900  0.609100  0.574400  1.0  0.1518
  H  H36  1  0.810300  0.735700  0.586300  1.0  0.1664
  H  H37  1  0.903000  0.625000  0.587400  1.0  0.1807
  H  H38  1  0.619400  0.858900  0.772000  1.0  0.1293
  H  H39  1  0.489500  0.908700  0.793200  1.0  0.1678
  H  H40  1  0.509000  0.771700  0.787300  1.0  0.1618
  C  C41  1  0.312200  0.861100  0.163300  1.0  0.4413
  C  C42  1  0.348470  0.851500  0.261870  1.0  0.0301
  C  C43  1  0.241120  0.924900  0.248720  1.0  -0.0829
  C  C44  1  0.319600  0.846500  0.096900  1.0  -0.4506
  C  C45  1  0.421030  0.810400  0.320330  1.0  0.7206
  C  C46  1  0.158800  0.002100  0.284000  1.0  0.735
  C  C47  1  0.964170  0.647600  0.206070  1.0  0.4607
  C  C48  1  0.826360  0.648900  0.123360  1.0  0.0496
  C  C49  1  0.950000  0.630000  0.105800  1.0  -0.0642
  C  C50  1  0.026100  0.652500  0.270400  1.0  -0.4562
  C  C51  1  0.693290  0.653400  0.087590  1.0  0.7859
  C  C52  1  0.009180  0.615000  0.048180  1.0  0.78
  C  C53  1  0.796260  0.907200  0.278360  1.0  0.5354
  C  C54  1  0.738420  0.953500  0.215020  1.0  0.5396
  C  C55  1  0.187800  0.361100  0.336700  1.0  0.4271
  C  C56  1  0.151530  0.351500  0.238130  1.0  0.0298
  C  C57  1  0.258880  0.424900  0.251280  1.0  -0.083
  C  C58  1  0.180400  0.346500  0.403100  1.0  -0.4499
  C  C59  1  0.078970  0.310400  0.179670  1.0  0.7259
  C  C60  1  0.341200  0.502100  0.216000  1.0  0.735
  C  C61  1  0.535830  0.147600  0.293930  1.0  0.4643
  C  C62  1  0.673640  0.148900  0.376640  1.0  0.048
  C  C63  1  0.550000  0.130000  0.394200  1.0  -0.0629
  C  C64  1  0.473900  0.152500  0.229600  1.0  -0.4582
  C  C65  1  0.806710  0.153400  0.412410  1.0  0.7872
  C  C66  1  0.490820  0.115000  0.451820  1.0  0.7799
  C  C67  1  0.703740  0.407200  0.221640  1.0  0.5361
  C  C68  1  0.761580  0.453500  0.284980  1.0  0.5354
  C  C69  1  0.687800  0.138900  0.836700  1.0  0.4276
  C  C70  1  0.651530  0.148500  0.738130  1.0  0.0305
  C  C71  1  0.758880  0.075100  0.751280  1.0  -0.0829
  C  C72  1  0.680400  0.153500  0.903100  1.0  -0.4497
  C  C73  1  0.578970  0.189600  0.679670  1.0  0.7259
  C  C74  1  0.841200  0.997900  0.716000  1.0  0.7348
  C  C75  1  0.035830  0.352400  0.793930  1.0  0.4649
  C  C76  1  0.173640  0.351100  0.876640  1.0  0.0484
  C  C77  1  0.050000  0.370000  0.894200  1.0  -0.0637
  C  C78  1  0.973900  0.347500  0.729600  1.0  -0.4562
  C  C79  1  0.306710  0.346600  0.912410  1.0  0.7875
  C  C80  1  0.990820  0.385000  0.951820  1.0  0.7803
  C  C81  1  0.203740  0.092800  0.721640  1.0  0.5366
  C  C82  1  0.261580  0.046500  0.784980  1.0  0.5349
  C  C83  1  0.812200  0.638900  0.663300  1.0  0.4424
  C  C84  1  0.848470  0.648500  0.761870  1.0  0.0296
  C  C85  1  0.741120  0.575100  0.748720  1.0  -0.0828
  C  C86  1  0.819600  0.653500  0.596900  1.0  -0.4508
  C  C87  1  0.921030  0.689600  0.820330  1.0  0.7276
  C  C88  1  0.658800  0.497900  0.784000  1.0  0.7349
  C  C89  1  0.464170  0.852400  0.706070  1.0  0.4648
  C  C90  1  0.326360  0.851100  0.623360  1.0  0.0489
  C  C91  1  0.450000  0.870000  0.605800  1.0  -0.0653
  C  C92  1  0.526100  0.847500  0.770400  1.0  -0.4601
  C  C93  1  0.193290  0.846600  0.587590  1.0  0.7862
  C  C94  1  0.509180  0.885000  0.548180  1.0  0.7804
  C  C95  1  0.296260  0.592800  0.778360  1.0  0.5351
  C  C96  1  0.238420  0.546500  0.715020  1.0  0.5388
  N  N97  1  0.393440  0.812100  0.208840  1.0  -0.5512
  N  N98  1  0.219480  0.928100  0.185780  1.0  -0.3024
  N  N99  1  0.836640  0.659500  0.185540  1.0  -0.545
  N  N100  1  0.035550  0.629100  0.159150  1.0  -0.2858
  N  N101  1  0.106560  0.312100  0.291160  1.0  -0.5396
  N  N102  1  0.280520  0.428100  0.314220  1.0  -0.3002
  N  N103  1  0.663360  0.159500  0.314460  1.0  -0.5457
  N  N104  1  0.464450  0.129100  0.340850  1.0  -0.2872
  N  N105  1  0.606560  0.187900  0.791160  1.0  -0.55
  N  N106  1  0.780520  0.071900  0.814220  1.0  -0.3
  N  N107  1  0.163360  0.340500  0.814460  1.0  -0.5452
  N  N108  1  0.964450  0.370900  0.840850  1.0  -0.2865
  N  N109  1  0.893440  0.687900  0.708840  1.0  -0.5523
  N  N110  1  0.719480  0.571900  0.685780  1.0  -0.302
  N  N111  1  0.336640  0.840500  0.685540  1.0  -0.5444
  N  N112  1  0.535550  0.870900  0.659150  1.0  -0.2854
  O  O113  1  0.525060  0.751900  0.317360  1.0  -0.5969
  O  O114  1  0.378250  0.834500  0.369250  1.0  -0.7729
  O  O115  1  0.185360  0.010500  0.340260  1.0  -0.7703
  O  O116  1  0.069530  0.059100  0.251830  1.0  -0.6674
  O  O117  1  0.596370  0.676000  0.116070  1.0  -0.6474
  O  O118  1  0.680240  0.633000  0.031640  1.0  -0.8413
  O  O119  1  0.942250  0.636800  0.998250  1.0  -0.7111
  O  O120  1  0.128970  0.584000  0.054070  1.0  -0.7376
  O  O121  1  0.866710  0.977800  0.311710  1.0  -0.6226
  O  O122  1  0.769360  0.802000  0.291260  1.0  -0.5859
  O  O123  1  0.771830  0.055200  0.200230  1.0  -0.5821
  O  O124  1  0.659790  0.884600  0.183690  1.0  -0.6201
  O  O125  1  0.974940  0.251900  0.182640  1.0  -0.5944
  O  O126  1  0.121750  0.334500  0.130750  1.0  -0.7731
  O  O127  1  0.314640  0.510500  0.159740  1.0  -0.77
  O  O128  1  0.430470  0.559100  0.248170  1.0  -0.6692
  O  O129  1  0.903630  0.176000  0.383930  1.0  -0.6478
  O  O130  1  0.819760  0.133000  0.468360  1.0  -0.8409
  O  O131  1  0.557750  0.136800  0.501750  1.0  -0.7116
  O  O132  1  0.371030  0.084000  0.445930  1.0  -0.7359
  O  O133  1  0.633290  0.477800  0.188290  1.0  -0.6229
  O  O134  1  0.730640  0.302000  0.208740  1.0  -0.5873
  O  O135  1  0.728170  0.555200  0.299770  1.0  -0.5829
  O  O136  1  0.840210  0.384600  0.316310  1.0  -0.6173
  O  O137  1  0.474940  0.248100  0.682640  1.0  -0.5939
  O  O138  1  0.621750  0.165500  0.630750  1.0  -0.7741
  O  O139  1  0.814640  0.989500  0.659740  1.0  -0.7705
  O  O140  1  0.930470  0.940900  0.748170  1.0  -0.6692
  O  O141  1  0.403630  0.324000  0.883930  1.0  -0.6478
  O  O142  1  0.319760  0.367000  0.968360  1.0  -0.8406
  O  O143  1  0.057750  0.363200  0.001750  1.0  -0.7098
  O  O144  1  0.871030  0.416000  0.945930  1.0  -0.7364
  O  O145  1  0.133290  0.022200  0.688290  1.0  -0.6213
  O  O146  1  0.230640  0.198000  0.708740  1.0  -0.587
  O  O147  1  0.228170  0.944800  0.799770  1.0  -0.5805
  O  O148  1  0.340210  0.115400  0.816310  1.0  -0.6183
  O  O149  1  0.025060  0.748100  0.817360  1.0  -0.5975
  O  O150  1  0.878250  0.665500  0.869250  1.0  -0.7732
  O  O151  1  0.685360  0.489500  0.840260  1.0  -0.7699
  O  O152  1  0.569530  0.440900  0.751830  1.0  -0.6678
  O  O153  1  0.096370  0.824000  0.616070  1.0  -0.6477
  O  O154  1  0.180240  0.867000  0.531640  1.0  -0.8405
  O  O155  1  0.442250  0.863200  0.498250  1.0  -0.7116
  O  O156  1  0.628970  0.916000  0.554070  1.0  -0.7373
  O  O157  1  0.366710  0.522200  0.811710  1.0  -0.6228
  O  O158  1  0.269360  0.698000  0.791260  1.0  -0.5861
  O  O159  1  0.271830  0.444800  0.700230  1.0  -0.5814
  O  O160  1  0.159790  0.615400  0.683690  1.0  -0.6197
