# generated using pymatgen
data_Eu2H7C14(NO3)4
_symmetry_space_group_name_H-M   'P 1'
_cell_length_a   10.20640000
_cell_length_b   11.24870000
_cell_length_c   22.19130000
_cell_angle_alpha   90.00000000
_cell_angle_beta   97.20100000
_cell_angle_gamma   90.00000000
_symmetry_Int_Tables_number   1
_chemical_formula_structural   Eu2H7C14(NO3)4
_chemical_formula_sum   'Eu8 H28 C56 N16 O48'
_cell_volume   2527.65962458
_cell_formula_units_Z   4
loop_
 _symmetry_equiv_pos_site_id
 _symmetry_equiv_pos_as_xyz
  1  'x, y, z'
loop_
 _atom_site_type_symbol
 _atom_site_label
 _atom_site_symmetry_multiplicity
 _atom_site_fract_x
 _atom_site_fract_y
 _atom_site_fract_z
 _atom_site_occupancy
 _atom_site_charge
  Eu  Eu1  1  0.610840  0.813620  0.725080  1.0  2.0366
  Eu  Eu2  1  0.741110  0.910300  0.435620  1.0  2.1869
  Eu  Eu3  1  0.889160  0.313620  0.774920  1.0  2.036
  Eu  Eu4  1  0.758890  0.410300  0.064380  1.0  2.1861
  Eu  Eu5  1  0.389160  0.186380  0.274920  1.0  2.037
  Eu  Eu6  1  0.258890  0.089700  0.564380  1.0  2.1882
  Eu  Eu7  1  0.110840  0.686380  0.225080  1.0  2.0376
  Eu  Eu8  1  0.241110  0.589700  0.935620  1.0  2.1882
  H  H9  1  0.131000  0.905000  0.664000  1.0  0.1336
  H  H10  1  0.248600  0.607900  0.574700  1.0  0.1609
  H  H11  1  0.402300  0.622900  0.587500  1.0  0.1728
  H  H12  1  0.310300  0.734700  0.586300  1.0  0.1613
  H  H13  1  0.119900  0.856800  0.771900  1.0  0.1431
  H  H14  1  0.008800  0.769400  0.787000  1.0  0.1605
  H  H15  1  0.990000  0.907000  0.793200  1.0  0.1661
  H  H16  1  0.369000  0.405000  0.836000  1.0  0.1338
  H  H17  1  0.251400  0.107900  0.925300  1.0  0.163
  H  H18  1  0.097700  0.122900  0.912500  1.0  0.1748
  H  H19  1  0.189700  0.234700  0.913700  1.0  0.161
  H  H20  1  0.380100  0.356800  0.728100  1.0  0.1433
  H  H21  1  0.491200  0.269400  0.713000  1.0  0.16
  H  H22  1  0.510000  0.407000  0.706800  1.0  0.165
  H  H23  1  0.869000  0.095000  0.336000  1.0  0.1344
  H  H24  1  0.751400  0.392100  0.425300  1.0  0.1635
  H  H25  1  0.597700  0.377100  0.412500  1.0  0.1752
  H  H26  1  0.689700  0.265300  0.413700  1.0  0.1605
  H  H27  1  0.880100  0.143200  0.228100  1.0  0.1434
  H  H28  1  0.991200  0.230600  0.213000  1.0  0.1603
  H  H29  1  0.010000  0.093000  0.206800  1.0  0.1647
  H  H30  1  0.631000  0.595000  0.164000  1.0  0.1343
  H  H31  1  0.748600  0.892100  0.074700  1.0  0.1606
  H  H32  1  0.902300  0.877100  0.087500  1.0  0.1734
  H  H33  1  0.810300  0.765300  0.086300  1.0  0.1606
  H  H34  1  0.619900  0.643200  0.271900  1.0  0.1428
  H  H35  1  0.508800  0.730600  0.287000  1.0  0.1592
  H  H36  1  0.490000  0.593000  0.293200  1.0  0.1659
  C  C37  1  0.312600  0.638100  0.663800  1.0  0.4306
  C  C38  1  0.241300  0.573600  0.748600  1.0  -0.044
  C  C39  1  0.348100  0.647300  0.761400  1.0  0.0566
  C  C40  1  0.319100  0.652200  0.597100  1.0  -0.4321
  C  C41  1  0.159000  0.497000  0.783700  1.0  0.7367
  C  C42  1  0.420700  0.687600  0.820100  1.0  0.7221
  C  C43  1  0.964200  0.851200  0.705900  1.0  0.4496
  C  C44  1  0.951000  0.870100  0.605700  1.0  -0.0443
  C  C45  1  0.827200  0.850600  0.623000  1.0  0.0364
  C  C46  1  0.026200  0.845600  0.770200  1.0  -0.4494
  C  C47  1  0.007700  0.885100  0.547800  1.0  0.757
  C  C48  1  0.694300  0.845800  0.586800  1.0  0.783
  C  C49  1  0.763000  0.045600  0.785100  1.0  0.5965
  C  C50  1  0.703900  0.091700  0.721900  1.0  0.6016
  C  C51  1  0.187400  0.138100  0.836200  1.0  0.4309
  C  C52  1  0.258700  0.073600  0.751400  1.0  -0.0435
  C  C53  1  0.151900  0.147300  0.738600  1.0  0.0565
  C  C54  1  0.180900  0.152200  0.902900  1.0  -0.4331
  C  C55  1  0.341000  0.997000  0.716300  1.0  0.7361
  C  C56  1  0.079300  0.187600  0.679900  1.0  0.7202
  C  C57  1  0.535800  0.351200  0.794100  1.0  0.4502
  C  C58  1  0.549000  0.370100  0.894300  1.0  -0.043
  C  C59  1  0.672800  0.350600  0.877000  1.0  0.0349
  C  C60  1  0.473800  0.345600  0.729800  1.0  -0.4503
  C  C61  1  0.492300  0.385100  0.952200  1.0  0.7579
  C  C62  1  0.805700  0.345800  0.913200  1.0  0.788
  C  C63  1  0.737000  0.545600  0.714900  1.0  0.5987
  C  C64  1  0.796100  0.591700  0.778100  1.0  0.5993
  C  C65  1  0.687400  0.361900  0.336200  1.0  0.4304
  C  C66  1  0.758700  0.426400  0.251400  1.0  -0.0436
  C  C67  1  0.651900  0.352700  0.238600  1.0  0.0565
  C  C68  1  0.680900  0.347800  0.402900  1.0  -0.4333
  C  C69  1  0.841000  0.503000  0.216300  1.0  0.7369
  C  C70  1  0.579300  0.312400  0.179900  1.0  0.7206
  C  C71  1  0.035800  0.148800  0.294100  1.0  0.4499
  C  C72  1  0.049000  0.129900  0.394300  1.0  -0.0422
  C  C73  1  0.172800  0.149400  0.377000  1.0  0.0349
  C  C74  1  0.973800  0.154400  0.229800  1.0  -0.4505
  C  C75  1  0.992300  0.114900  0.452200  1.0  0.7569
  C  C76  1  0.305700  0.154200  0.413200  1.0  0.7881
  C  C77  1  0.237000  0.954400  0.214900  1.0  0.5991
  C  C78  1  0.296100  0.908300  0.278100  1.0  0.5996
  C  C79  1  0.812600  0.861900  0.163800  1.0  0.43
  C  C80  1  0.741300  0.926400  0.248600  1.0  -0.0441
  C  C81  1  0.848100  0.852700  0.261400  1.0  0.0571
  C  C82  1  0.819100  0.847800  0.097100  1.0  -0.4322
  C  C83  1  0.659000  0.003000  0.283700  1.0  0.7374
  C  C84  1  0.920700  0.812400  0.320100  1.0  0.7209
  C  C85  1  0.464200  0.648800  0.205900  1.0  0.4497
  C  C86  1  0.451000  0.629900  0.105700  1.0  -0.0437
  C  C87  1  0.327200  0.649400  0.123000  1.0  0.0368
  C  C88  1  0.526200  0.654400  0.270200  1.0  -0.4499
  C  C89  1  0.507700  0.614900  0.047800  1.0  0.7563
  C  C90  1  0.194300  0.654200  0.086800  1.0  0.7833
  C  C91  1  0.263000  0.454400  0.285100  1.0  0.5968
  C  C92  1  0.203900  0.408300  0.221900  1.0  0.601
  N  N93  1  0.218740  0.570000  0.685540  1.0  -0.2908
  N  N94  1  0.392780  0.686400  0.708680  1.0  -0.527
  N  N95  1  0.035650  0.870300  0.659150  1.0  -0.2226
  N  N96  1  0.837660  0.839700  0.685460  1.0  -0.4816
  N  N97  1  0.281260  0.070000  0.814460  1.0  -0.2919
  N  N98  1  0.107220  0.186400  0.791320  1.0  -0.5284
  N  N99  1  0.464350  0.370300  0.840850  1.0  -0.2242
  N  N100  1  0.662340  0.339700  0.814540  1.0  -0.483
  N  N101  1  0.781260  0.430000  0.314460  1.0  -0.2923
  N  N102  1  0.607220  0.313600  0.291320  1.0  -0.5273
  N  N103  1  0.964350  0.129700  0.340850  1.0  -0.225
  N  N104  1  0.162340  0.160300  0.314540  1.0  -0.4835
  N  N105  1  0.718740  0.930000  0.185540  1.0  -0.2911
  N  N106  1  0.892780  0.813600  0.208680  1.0  -0.5257
  N  N107  1  0.535650  0.629700  0.159150  1.0  -0.2224
  N  N108  1  0.337660  0.660300  0.185460  1.0  -0.4822
  O  O109  1  0.070200  0.440100  0.751400  1.0  -0.673
  O  O110  1  0.185390  0.489000  0.839890  1.0  -0.6527
  O  O111  1  0.378070  0.664400  0.868970  1.0  -0.7671
  O  O112  1  0.524660  0.746300  0.817160  1.0  -0.6058
  O  O113  1  0.128870  0.914500  0.554270  1.0  -0.7047
  O  O114  1  0.941830  0.863800  0.498230  1.0  -0.6895
  O  O115  1  0.680230  0.868000  0.531430  1.0  -0.8417
  O  O116  1  0.597490  0.822900  0.615690  1.0  -0.6304
  O  O117  1  0.841270  0.113900  0.816470  1.0  -0.6141
  O  O118  1  0.729320  0.943800  0.800320  1.0  -0.5925
  O  O119  1  0.730280  0.196300  0.708780  1.0  -0.5991
  O  O120  1  0.633310  0.021200  0.688610  1.0  -0.6348
  O  O121  1  0.429800  0.940100  0.748600  1.0  -0.6721
  O  O122  1  0.314610  0.989000  0.660110  1.0  -0.6513
  O  O123  1  0.121930  0.164400  0.631030  1.0  -0.768
  O  O124  1  0.975340  0.246300  0.682840  1.0  -0.6038
  O  O125  1  0.371130  0.414500  0.945730  1.0  -0.703
  O  O126  1  0.558170  0.363800  0.001770  1.0  -0.6881
  O  O127  1  0.819770  0.368000  0.968570  1.0  -0.8419
  O  O128  1  0.902510  0.322900  0.884310  1.0  -0.6305
  O  O129  1  0.658730  0.613900  0.683530  1.0  -0.6153
  O  O130  1  0.770680  0.443800  0.699680  1.0  -0.5924
  O  O131  1  0.769720  0.696300  0.791220  1.0  -0.5963
  O  O132  1  0.866690  0.521200  0.811390  1.0  -0.6345
  O  O133  1  0.929800  0.559900  0.248600  1.0  -0.6725
  O  O134  1  0.814610  0.511000  0.160110  1.0  -0.6504
  O  O135  1  0.621930  0.335600  0.131030  1.0  -0.7656
  O  O136  1  0.475340  0.253700  0.182840  1.0  -0.6043
  O  O137  1  0.871130  0.085500  0.445730  1.0  -0.7025
  O  O138  1  0.058170  0.136200  0.501770  1.0  -0.6884
  O  O139  1  0.319770  0.132000  0.468570  1.0  -0.842
  O  O140  1  0.402510  0.177100  0.384310  1.0  -0.6306
  O  O141  1  0.158730  0.886100  0.183530  1.0  -0.6156
  O  O142  1  0.270680  0.056200  0.199680  1.0  -0.5924
  O  O143  1  0.269720  0.803700  0.291220  1.0  -0.5973
  O  O144  1  0.366690  0.978800  0.311390  1.0  -0.6352
  O  O145  1  0.570200  0.059900  0.251400  1.0  -0.672
  O  O146  1  0.685390  0.011000  0.339890  1.0  -0.6531
  O  O147  1  0.878070  0.835600  0.368970  1.0  -0.7665
  O  O148  1  0.024660  0.753700  0.317160  1.0  -0.6062
  O  O149  1  0.628870  0.585500  0.054270  1.0  -0.7048
  O  O150  1  0.441830  0.636200  0.998230  1.0  -0.6891
  O  O151  1  0.180230  0.632000  0.031430  1.0  -0.8424
  O  O152  1  0.097490  0.677100  0.115690  1.0  -0.6301
  O  O153  1  0.341270  0.386100  0.316470  1.0  -0.6142
  O  O154  1  0.229320  0.556200  0.300320  1.0  -0.5924
  O  O155  1  0.230280  0.303700  0.208780  1.0  -0.5976
  O  O156  1  0.133310  0.478800  0.188610  1.0  -0.6334
