# generated using pymatgen
data_Cd2H12C16N11O2
_symmetry_space_group_name_H-M   'P 1'
_cell_length_a   9.42300000
_cell_length_b   18.22000000
_cell_length_c   19.28000000
_cell_angle_alpha   90.00000000
_cell_angle_beta   90.00000000
_cell_angle_gamma   101.34000000
_symmetry_Int_Tables_number   1
_chemical_formula_structural   Cd2H12C16N11O2
_chemical_formula_sum   'Cd8 H48 C64 N44 O8'
_cell_volume   3245.50498026
_cell_formula_units_Z   4
loop_
 _symmetry_equiv_pos_site_id
 _symmetry_equiv_pos_as_xyz
  1  'x, y, z'
loop_
 _atom_site_type_symbol
 _atom_site_label
 _atom_site_symmetry_multiplicity
 _atom_site_fract_x
 _atom_site_fract_y
 _atom_site_fract_z
 _atom_site_occupancy
 _atom_site_charge
  Cd  Cd1  1  0.081480  0.923730  0.992900  1.0  0.4579
  Cd  Cd2  1  0.512710  0.027150  0.756840  1.0  0.7264
  Cd  Cd3  1  0.418520  0.576270  0.492900  1.0  0.4568
  Cd  Cd4  1  0.987290  0.472850  0.256840  1.0  0.7267
  Cd  Cd5  1  0.918520  0.076270  0.007100  1.0  0.4578
  Cd  Cd6  1  0.487290  0.972850  0.243160  1.0  0.7246
  Cd  Cd7  1  0.581480  0.423730  0.507100  1.0  0.4587
  Cd  Cd8  1  0.012710  0.527150  0.743160  1.0  0.7257
  H  H9  1  0.361800  0.207000  0.267200  1.0  0.2954
  H  H10  1  0.438600  0.143300  0.260400  1.0  0.3052
  H  H11  1  0.138300  0.784300  0.610100  1.0  0.1248
  H  H12  1  0.213300  0.670200  0.809200  1.0  0.04
  H  H13  1  0.345300  0.143400  0.719300  1.0  0.3294
  H  H14  1  0.283100  0.212500  0.716100  1.0  0.3015
  H  H15  1  0.346300  0.937700  0.098900  1.0  0.0283
  H  H16  1  0.322900  0.789700  0.795700  1.0  0.119
  H  H17  1  0.025300  0.190600  0.124800  1.0  0.0339
  H  H18  1  0.310900  0.948100  0.875800  1.0  0.049
  H  H19  1  0.010900  0.208000  0.901800  1.0  0.0213
  H  H20  1  0.035100  0.661300  0.632000  1.0  0.0616
  H  H21  1  0.138200  0.293000  0.767200  1.0  0.2953
  H  H22  1  0.061400  0.356700  0.760400  1.0  0.3043
  H  H23  1  0.361700  0.715700  0.110100  1.0  0.1242
  H  H24  1  0.286700  0.829800  0.309200  1.0  0.0406
  H  H25  1  0.154700  0.356600  0.219300  1.0  0.3305
  H  H26  1  0.216900  0.287500  0.216100  1.0  0.3005
  H  H27  1  0.153700  0.562300  0.598900  1.0  0.0276
  H  H28  1  0.177100  0.710300  0.295700  1.0  0.1192
  H  H29  1  0.474700  0.309400  0.624800  1.0  0.0331
  H  H30  1  0.189100  0.551900  0.375800  1.0  0.048
  H  H31  1  0.489100  0.292000  0.401800  1.0  0.021
  H  H32  1  0.464900  0.838700  0.132000  1.0  0.0619
  H  H33  1  0.638200  0.793000  0.732800  1.0  0.2952
  H  H34  1  0.561400  0.856700  0.739600  1.0  0.3039
  H  H35  1  0.861700  0.215700  0.389900  1.0  0.1245
  H  H36  1  0.786700  0.329800  0.190800  1.0  0.0392
  H  H37  1  0.654700  0.856600  0.280700  1.0  0.3298
  H  H38  1  0.716900  0.787500  0.283900  1.0  0.3009
  H  H39  1  0.653700  0.062300  0.901100  1.0  0.0279
  H  H40  1  0.677100  0.210300  0.204300  1.0  0.118
  H  H41  1  0.974700  0.809400  0.875200  1.0  0.0338
  H  H42  1  0.689100  0.051900  0.124200  1.0  0.0483
  H  H43  1  0.989100  0.792000  0.098200  1.0  0.0211
  H  H44  1  0.964900  0.338700  0.368000  1.0  0.0624
  H  H45  1  0.861800  0.707000  0.232800  1.0  0.296
  H  H46  1  0.938600  0.643300  0.239600  1.0  0.305
  H  H47  1  0.638300  0.284300  0.889900  1.0  0.1246
  H  H48  1  0.713300  0.170200  0.690800  1.0  0.0395
  H  H49  1  0.845300  0.643400  0.780700  1.0  0.3313
  H  H50  1  0.783100  0.712500  0.783900  1.0  0.3009
  H  H51  1  0.846300  0.437700  0.401100  1.0  0.0285
  H  H52  1  0.822900  0.289700  0.704300  1.0  0.1177
  H  H53  1  0.525300  0.690600  0.375200  1.0  0.0335
  H  H54  1  0.810900  0.448100  0.624200  1.0  0.0488
  H  H55  1  0.510900  0.708000  0.598200  1.0  0.021
  H  H56  1  0.535100  0.161300  0.868000  1.0  0.0626
  C  C57  1  0.302300  0.882600  0.692600  1.0  0.6462
  C  C58  1  0.152000  0.762600  0.652600  1.0  -0.1588
  C  C59  1  0.230100  0.802900  0.703700  1.0  -0.0139
  C  C60  1  0.197000  0.693400  0.767900  1.0  0.1704
  C  C61  1  0.187600  0.060900  0.105600  1.0  0.4034
  C  C62  1  0.243700  0.093500  0.833000  1.0  -0.1137
  C  C63  1  0.310900  0.980200  0.110900  1.0  0.275
  C  C64  1  0.260400  0.765800  0.761700  1.0  -0.1793
  C  C65  1  0.161800  0.074100  0.892800  1.0  0.369
  C  C66  1  0.289700  0.140600  0.197200  1.0  0.4935
  C  C67  1  0.285300  0.077300  0.159300  1.0  -0.1426
  C  C68  1  0.095300  0.161700  0.131300  1.0  0.3654
  C  C69  1  0.228500  0.154900  0.799700  1.0  0.482
  C  C70  1  0.277900  0.992800  0.871900  1.0  0.2768
  C  C71  1  0.070000  0.176900  0.885000  1.0  0.3622
  C  C72  1  0.094000  0.688400  0.665800  1.0  0.1253
  C  C73  1  0.197700  0.617400  0.192600  1.0  0.6462
  C  C74  1  0.348000  0.737400  0.152600  1.0  -0.1611
  C  C75  1  0.269900  0.697100  0.203700  1.0  -0.0143
  C  C76  1  0.303000  0.806600  0.267900  1.0  0.1696
  C  C77  1  0.312400  0.439100  0.605600  1.0  0.4039
  C  C78  1  0.256300  0.406500  0.333000  1.0  -0.1129
  C  C79  1  0.189100  0.519800  0.610900  1.0  0.2758
  C  C80  1  0.239600  0.734200  0.261700  1.0  -0.1798
  C  C81  1  0.338200  0.425900  0.392800  1.0  0.3706
  C  C82  1  0.210300  0.359400  0.697200  1.0  0.4953
  C  C83  1  0.214700  0.422700  0.659300  1.0  -0.143
  C  C84  1  0.404700  0.338300  0.631300  1.0  0.3631
  C  C85  1  0.271500  0.345100  0.299700  1.0  0.4815
  C  C86  1  0.222100  0.507200  0.371900  1.0  0.2769
  C  C87  1  0.430000  0.323100  0.385000  1.0  0.3637
  C  C88  1  0.406000  0.811600  0.165800  1.0  0.1248
  C  C89  1  0.697700  0.117400  0.307400  1.0  0.6465
  C  C90  1  0.848000  0.237400  0.347400  1.0  -0.1577
  C  C91  1  0.769900  0.197100  0.296300  1.0  -0.0148
  C  C92  1  0.803000  0.306600  0.232100  1.0  0.1733
  C  C93  1  0.812400  0.939100  0.894400  1.0  0.4034
  C  C94  1  0.756300  0.906500  0.167000  1.0  -0.1128
  C  C95  1  0.689100  0.019800  0.889100  1.0  0.2755
  C  C96  1  0.739600  0.234200  0.238300  1.0  -0.1789
  C  C97  1  0.838200  0.925900  0.107200  1.0  0.3706
  C  C98  1  0.710300  0.859400  0.802800  1.0  0.4964
  C  C99  1  0.714700  0.922700  0.840700  1.0  -0.1422
  C  C100  1  0.904700  0.838300  0.868700  1.0  0.3636
  C  C101  1  0.771500  0.845100  0.200300  1.0  0.4814
  C  C102  1  0.722100  0.007200  0.128100  1.0  0.2769
  C  C103  1  0.930000  0.823100  0.115000  1.0  0.3633
  C  C104  1  0.906000  0.311600  0.334200  1.0  0.1242
  C  C105  1  0.802300  0.382600  0.807400  1.0  0.6437
  C  C106  1  0.652000  0.262600  0.847400  1.0  -0.159
  C  C107  1  0.730100  0.302900  0.796300  1.0  -0.0144
  C  C108  1  0.697000  0.193400  0.732100  1.0  0.1708
  C  C109  1  0.687600  0.560900  0.394400  1.0  0.4022
  C  C110  1  0.743700  0.593500  0.667000  1.0  -0.114
  C  C111  1  0.810900  0.480200  0.389100  1.0  0.2754
  C  C112  1  0.760400  0.265800  0.738300  1.0  -0.1797
  C  C113  1  0.661800  0.574100  0.607200  1.0  0.3697
  C  C114  1  0.789700  0.640600  0.302800  1.0  0.4946
  C  C115  1  0.785300  0.577300  0.340700  1.0  -0.1418
  C  C116  1  0.595300  0.661700  0.368700  1.0  0.365
  C  C117  1  0.728500  0.654900  0.700300  1.0  0.4821
  C  C118  1  0.777900  0.492800  0.628100  1.0  0.2765
  C  C119  1  0.570000  0.676900  0.615000  1.0  0.363
  C  C120  1  0.594000  0.188400  0.834200  1.0  0.1252
  N  N121  1  0.372200  0.166400  0.246900  1.0  -0.5936
  N  N122  1  0.184100  0.010400  0.916400  1.0  -0.4086
  N  N123  1  0.323900  0.040800  0.821300  1.0  -0.3864
  N  N124  1  0.116600  0.653300  0.724400  1.0  -0.3554
  N  N125  1  0.201400  0.000500  0.075400  1.0  -0.4289
  N  N126  1  0.092100  0.104500  0.090500  1.0  -0.4216
  N  N127  1  0.147700  0.199500  0.827300  1.0  -0.5229
  N  N128  1  0.193100  0.182000  0.182400  1.0  -0.5308
  N  N129  1  0.293600  0.172400  0.737400  1.0  -0.6525
  N  N130  1  0.363300  0.021200  0.161000  1.0  -0.3568
  N  N131  1  0.071200  0.116500  0.918600  1.0  -0.3948
  N  N132  1  0.127800  0.333600  0.746900  1.0  -0.5937
  N  N133  1  0.315900  0.489600  0.416400  1.0  -0.4094
  N  N134  1  0.176100  0.459200  0.321300  1.0  -0.3879
  N  N135  1  0.383400  0.846700  0.224400  1.0  -0.3568
  N  N136  1  0.298600  0.499500  0.575400  1.0  -0.4277
  N  N137  1  0.407900  0.395500  0.590500  1.0  -0.4221
  N  N138  1  0.352300  0.300500  0.327300  1.0  -0.5298
  N  N139  1  0.306900  0.318000  0.682400  1.0  -0.5372
  N  N140  1  0.206400  0.327600  0.237400  1.0  -0.6542
  N  N141  1  0.136700  0.478800  0.661000  1.0  -0.3575
  N  N142  1  0.428800  0.383500  0.418600  1.0  -0.3931
  N  N143  1  0.627800  0.833600  0.753100  1.0  -0.5939
  N  N144  1  0.815900  0.989600  0.083600  1.0  -0.408
  N  N145  1  0.676100  0.959200  0.178700  1.0  -0.3926
  N  N146  1  0.883400  0.346700  0.275600  1.0  -0.357
  N  N147  1  0.798600  0.999500  0.924600  1.0  -0.4294
  N  N148  1  0.907900  0.895500  0.909500  1.0  -0.4216
  N  N149  1  0.852300  0.800500  0.172700  1.0  -0.5232
  N  N150  1  0.806900  0.818000  0.817600  1.0  -0.5372
  N  N151  1  0.706400  0.827600  0.262600  1.0  -0.6501
  N  N152  1  0.636700  0.978800  0.839000  1.0  -0.3564
  N  N153  1  0.928800  0.883500  0.081400  1.0  -0.3926
  N  N154  1  0.872200  0.666400  0.253100  1.0  -0.594
  N  N155  1  0.684100  0.510400  0.583600  1.0  -0.4081
  N  N156  1  0.823900  0.540800  0.678700  1.0  -0.3888
  N  N157  1  0.616600  0.153300  0.775600  1.0  -0.3563
  N  N158  1  0.701400  0.500500  0.424600  1.0  -0.4297
  N  N159  1  0.592100  0.604500  0.409500  1.0  -0.4237
  N  N160  1  0.647700  0.699500  0.672700  1.0  -0.5295
  N  N161  1  0.693100  0.682000  0.317600  1.0  -0.5303
  N  N162  1  0.793600  0.672400  0.762600  1.0  -0.6496
  N  N163  1  0.863300  0.521200  0.339000  1.0  -0.3559
  N  N164  1  0.571200  0.616500  0.581400  1.0  -0.3927
  O  O165  1  0.401400  0.909500  0.733400  1.0  -0.6102
  O  O166  1  0.258000  0.917300  0.644700  1.0  -0.5832
  O  O167  1  0.098600  0.590500  0.233400  1.0  -0.6112
  O  O168  1  0.242000  0.582700  0.144700  1.0  -0.582
  O  O169  1  0.598600  0.090500  0.266600  1.0  -0.6105
  O  O170  1  0.742000  0.082700  0.355300  1.0  -0.5817
  O  O171  1  0.901400  0.409500  0.766600  1.0  -0.6101
  O  O172  1  0.758000  0.417300  0.855300  1.0  -0.5828
