# generated using pymatgen
data_Cu2H24C39(N3O4)2
_symmetry_space_group_name_H-M   'P 1'
_cell_length_a   14.21400000
_cell_length_b   21.15700000
_cell_length_c   24.01300000
_cell_angle_alpha   90.00000000
_cell_angle_beta   90.00000000
_cell_angle_gamma   90.00000000
_symmetry_Int_Tables_number   1
_chemical_formula_structural   Cu2H24C39(N3O4)2
_chemical_formula_sum   'Cu16 H192 C312 N48 O64'
_cell_volume   7221.32378477
_cell_formula_units_Z   8
loop_
 _symmetry_equiv_pos_site_id
 _symmetry_equiv_pos_as_xyz
  1  'x, y, z'
loop_
 _atom_site_type_symbol
 _atom_site_label
 _atom_site_symmetry_multiplicity
 _atom_site_fract_x
 _atom_site_fract_y
 _atom_site_fract_z
 _atom_site_occupancy
 _atom_site_charge
  Cu  Cu1  1  0.869830  0.454250  0.035240  1.0  0.8231
  Cu  Cu2  1  0.929580  0.802120  0.177850  1.0  0.7877
  Cu  Cu3  1  0.369830  0.045750  0.464760  1.0  0.8223
  Cu  Cu4  1  0.429580  0.697880  0.322150  1.0  0.7883
  Cu  Cu5  1  0.630170  0.545750  0.035240  1.0  0.8221
  Cu  Cu6  1  0.570420  0.197880  0.177850  1.0  0.788
  Cu  Cu7  1  0.130170  0.954250  0.464760  1.0  0.8225
  Cu  Cu8  1  0.070420  0.302120  0.322150  1.0  0.7875
  Cu  Cu9  1  0.130170  0.545750  0.964760  1.0  0.822
  Cu  Cu10  1  0.070420  0.197880  0.822150  1.0  0.788
  Cu  Cu11  1  0.630170  0.954250  0.535240  1.0  0.8227
  Cu  Cu12  1  0.570420  0.302120  0.677850  1.0  0.7876
  Cu  Cu13  1  0.369830  0.454250  0.964760  1.0  0.8229
  Cu  Cu14  1  0.429580  0.802120  0.822150  1.0  0.7876
  Cu  Cu15  1  0.869830  0.045750  0.535240  1.0  0.8224
  Cu  Cu16  1  0.929580  0.697880  0.677850  1.0  0.7883
  H  H17  1  0.871700  0.563100  0.121900  1.0  0.094
  H  H18  1  0.888300  0.571600  0.218500  1.0  0.1117
  H  H19  1  0.892900  0.480000  0.270900  1.0  0.0884
  H  H20  1  0.881900  0.382000  0.227900  1.0  0.1247
  H  H21  1  0.864800  0.291000  0.176300  1.0  0.1066
  H  H22  1  0.859300  0.226400  0.019900  1.0  0.1069
  H  H23  1  0.873300  0.259300  0.925100  1.0  0.1213
  H  H24  1  0.886500  0.303500  0.839200  1.0  0.1066
  H  H25  1  0.873800  0.412100  0.829500  1.0  0.1198
  H  H26  1  0.861900  0.471300  0.903600  1.0  0.0715
  H  H27  1  0.818700  0.198300  0.200100  1.0  0.1018
  H  H28  1  0.911100  0.137400  0.054100  1.0  0.1117
  H  H29  1  0.822100  0.097900  0.233100  1.0  0.1182
  H  H30  1  0.910900  0.037100  0.086600  1.0  0.1258
  H  H31  1  0.888700  0.936200  0.117900  1.0  0.1262
  H  H32  1  0.880600  0.899100  0.275500  1.0  0.072
  H  H33  1  0.878100  0.660500  0.057100  1.0  0.1061
  H  H34  1  0.904600  0.639700  0.892400  1.0  0.1024
  H  H35  1  0.881900  0.747100  0.879700  1.0  0.1011
  H  H36  1  0.872000  0.813400  0.959500  1.0  0.1016
  H  H37  1  0.961300  0.613600  0.315400  1.0  0.0851
  H  H38  1  0.725400  0.710800  0.286200  1.0  0.102
  H  H39  1  0.883700  0.555900  0.384300  1.0  0.1145
  H  H40  1  0.726400  0.572600  0.400100  1.0  0.1093
  H  H41  1  0.371700  0.936900  0.378100  1.0  0.0937
  H  H42  1  0.388300  0.928400  0.281500  1.0  0.111
  H  H43  1  0.392900  0.020000  0.229100  1.0  0.0882
  H  H44  1  0.381900  0.118000  0.272100  1.0  0.1248
  H  H45  1  0.364800  0.209000  0.323700  1.0  0.1068
  H  H46  1  0.359300  0.273600  0.480100  1.0  0.1066
  H  H47  1  0.373300  0.240700  0.574900  1.0  0.1196
  H  H48  1  0.386500  0.196500  0.660800  1.0  0.107
  H  H49  1  0.373800  0.087900  0.670500  1.0  0.1201
  H  H50  1  0.361900  0.028700  0.596400  1.0  0.0721
  H  H51  1  0.318700  0.301700  0.299900  1.0  0.1014
  H  H52  1  0.411100  0.362600  0.445900  1.0  0.1123
  H  H53  1  0.322100  0.402100  0.266900  1.0  0.1191
  H  H54  1  0.410900  0.462900  0.413400  1.0  0.1268
  H  H55  1  0.388700  0.563800  0.382100  1.0  0.1265
  H  H56  1  0.380600  0.600900  0.224500  1.0  0.0717
  H  H57  1  0.378100  0.839500  0.442900  1.0  0.1067
  H  H58  1  0.404600  0.860300  0.607600  1.0  0.1024
  H  H59  1  0.381900  0.752900  0.620300  1.0  0.1027
  H  H60  1  0.372000  0.686600  0.540500  1.0  0.1016
  H  H61  1  0.461300  0.886400  0.184600  1.0  0.0853
  H  H62  1  0.225400  0.789200  0.213800  1.0  0.1019
  H  H63  1  0.383700  0.944100  0.115700  1.0  0.1139
  H  H64  1  0.226400  0.927400  0.099900  1.0  0.1091
  H  H65  1  0.628300  0.436900  0.121900  1.0  0.0936
  H  H66  1  0.611700  0.428400  0.218500  1.0  0.111
  H  H67  1  0.607100  0.520000  0.270900  1.0  0.0885
  H  H68  1  0.618100  0.618000  0.227900  1.0  0.1247
  H  H69  1  0.635200  0.709000  0.176300  1.0  0.1068
  H  H70  1  0.640700  0.773600  0.019900  1.0  0.107
  H  H71  1  0.626700  0.740700  0.925100  1.0  0.1191
  H  H72  1  0.613500  0.696500  0.839200  1.0  0.1064
  H  H73  1  0.626200  0.587900  0.829500  1.0  0.1203
  H  H74  1  0.638100  0.528700  0.903600  1.0  0.0716
  H  H75  1  0.681300  0.801700  0.200100  1.0  0.1023
  H  H76  1  0.588900  0.862600  0.054100  1.0  0.1125
  H  H77  1  0.677900  0.902100  0.233100  1.0  0.1187
  H  H78  1  0.589100  0.962900  0.086600  1.0  0.1255
  H  H79  1  0.611300  0.063800  0.117900  1.0  0.1259
  H  H80  1  0.619400  0.100900  0.275500  1.0  0.0721
  H  H81  1  0.621900  0.339500  0.057100  1.0  0.1059
  H  H82  1  0.595400  0.360300  0.892400  1.0  0.103
  H  H83  1  0.618100  0.252900  0.879700  1.0  0.1013
  H  H84  1  0.628000  0.186600  0.959500  1.0  0.1017
  H  H85  1  0.538700  0.386400  0.315400  1.0  0.0853
  H  H86  1  0.774600  0.289200  0.286200  1.0  0.1014
  H  H87  1  0.616300  0.444100  0.384300  1.0  0.1143
  H  H88  1  0.773600  0.427400  0.400100  1.0  0.1093
  H  H89  1  0.128300  0.063100  0.378100  1.0  0.094
  H  H90  1  0.111700  0.071600  0.281500  1.0  0.1114
  H  H91  1  0.107100  0.980000  0.229100  1.0  0.0882
  H  H92  1  0.118100  0.882000  0.272100  1.0  0.1243
  H  H93  1  0.135200  0.791000  0.323700  1.0  0.1071
  H  H94  1  0.140700  0.726400  0.480100  1.0  0.1069
  H  H95  1  0.126700  0.759300  0.574900  1.0  0.121
  H  H96  1  0.113500  0.803500  0.660800  1.0  0.1065
  H  H97  1  0.126200  0.912100  0.670500  1.0  0.1196
  H  H98  1  0.138100  0.971300  0.596400  1.0  0.0713
  H  H99  1  0.181300  0.698300  0.299900  1.0  0.1018
  H  H100  1  0.088900  0.637400  0.445900  1.0  0.112
  H  H101  1  0.177900  0.597900  0.266900  1.0  0.1196
  H  H102  1  0.089100  0.537100  0.413400  1.0  0.1266
  H  H103  1  0.111300  0.436200  0.382100  1.0  0.1265
  H  H104  1  0.119400  0.399100  0.224500  1.0  0.071
  H  H105  1  0.121900  0.160500  0.442900  1.0  0.1067
  H  H106  1  0.095400  0.139700  0.607600  1.0  0.1028
  H  H107  1  0.118100  0.247100  0.620300  1.0  0.1025
  H  H108  1  0.128000  0.313400  0.540500  1.0  0.1017
  H  H109  1  0.038700  0.113600  0.184600  1.0  0.0853
  H  H110  1  0.274600  0.210800  0.213800  1.0  0.1017
  H  H111  1  0.116300  0.055900  0.115700  1.0  0.1139
  H  H112  1  0.273600  0.072600  0.099900  1.0  0.1096
  H  H113  1  0.128300  0.436900  0.878100  1.0  0.0937
  H  H114  1  0.111700  0.428400  0.781500  1.0  0.111
  H  H115  1  0.107100  0.520000  0.729100  1.0  0.0884
  H  H116  1  0.118100  0.618000  0.772100  1.0  0.1246
  H  H117  1  0.135200  0.709000  0.823700  1.0  0.107
  H  H118  1  0.140700  0.773600  0.980100  1.0  0.1067
  H  H119  1  0.126700  0.740700  0.074900  1.0  0.1195
  H  H120  1  0.113500  0.696500  0.160800  1.0  0.1052
  H  H121  1  0.126200  0.587900  0.170500  1.0  0.1203
  H  H122  1  0.138100  0.528700  0.096400  1.0  0.0718
  H  H123  1  0.181300  0.801700  0.799900  1.0  0.1017
  H  H124  1  0.088900  0.862600  0.945900  1.0  0.1126
  H  H125  1  0.177900  0.902100  0.766900  1.0  0.1193
  H  H126  1  0.089100  0.962900  0.913400  1.0  0.1267
  H  H127  1  0.111300  0.063800  0.882100  1.0  0.1262
  H  H128  1  0.119400  0.100900  0.724500  1.0  0.0715
  H  H129  1  0.121900  0.339500  0.942900  1.0  0.1065
  H  H130  1  0.095400  0.360300  0.107600  1.0  0.1028
  H  H131  1  0.118100  0.252900  0.120300  1.0  0.1025
  H  H132  1  0.128000  0.186600  0.040500  1.0  0.1017
  H  H133  1  0.038700  0.386400  0.684600  1.0  0.0855
  H  H134  1  0.274600  0.289200  0.713800  1.0  0.1017
  H  H135  1  0.116300  0.444100  0.615700  1.0  0.1138
  H  H136  1  0.273600  0.427400  0.599900  1.0  0.1096
  H  H137  1  0.628300  0.063100  0.621900  1.0  0.094
  H  H138  1  0.611700  0.071600  0.718500  1.0  0.1117
  H  H139  1  0.607100  0.980000  0.770900  1.0  0.0883
  H  H140  1  0.618100  0.882000  0.727900  1.0  0.1246
  H  H141  1  0.635200  0.791000  0.676300  1.0  0.1068
  H  H142  1  0.640700  0.726400  0.519900  1.0  0.107
  H  H143  1  0.626700  0.759300  0.425100  1.0  0.1212
  H  H144  1  0.613500  0.803500  0.339200  1.0  0.1062
  H  H145  1  0.626200  0.912100  0.329500  1.0  0.12
  H  H146  1  0.638100  0.971300  0.403600  1.0  0.0716
  H  H147  1  0.681300  0.698300  0.700100  1.0  0.1019
  H  H148  1  0.588900  0.637400  0.554100  1.0  0.1119
  H  H149  1  0.677900  0.597900  0.733100  1.0  0.1183
  H  H150  1  0.589100  0.537100  0.586600  1.0  0.1258
  H  H151  1  0.611300  0.436200  0.617900  1.0  0.1257
  H  H152  1  0.619400  0.399100  0.775500  1.0  0.072
  H  H153  1  0.621900  0.160500  0.557100  1.0  0.1058
  H  H154  1  0.595400  0.139700  0.392400  1.0  0.1027
  H  H155  1  0.618100  0.247100  0.379700  1.0  0.1009
  H  H156  1  0.628000  0.313400  0.459500  1.0  0.1015
  H  H157  1  0.538700  0.113600  0.815400  1.0  0.0851
  H  H158  1  0.774600  0.210800  0.786200  1.0  0.1016
  H  H159  1  0.616300  0.055900  0.884300  1.0  0.1146
  H  H160  1  0.773600  0.072600  0.900100  1.0  0.1095
  H  H161  1  0.371700  0.563100  0.878100  1.0  0.094
  H  H162  1  0.388300  0.571600  0.781500  1.0  0.1113
  H  H163  1  0.392900  0.480000  0.729100  1.0  0.088
  H  H164  1  0.381900  0.382000  0.772100  1.0  0.1244
  H  H165  1  0.364800  0.291000  0.823700  1.0  0.107
  H  H166  1  0.359300  0.226400  0.980100  1.0  0.1068
  H  H167  1  0.373300  0.259300  0.074900  1.0  0.1212
  H  H168  1  0.386500  0.303500  0.160800  1.0  0.1056
  H  H169  1  0.373800  0.412100  0.170500  1.0  0.1194
  H  H170  1  0.361900  0.471300  0.096400  1.0  0.0714
  H  H171  1  0.318700  0.198300  0.799900  1.0  0.1016
  H  H172  1  0.411100  0.137400  0.945900  1.0  0.1119
  H  H173  1  0.322100  0.097900  0.766900  1.0  0.1195
  H  H174  1  0.410900  0.037100  0.913400  1.0  0.1267
  H  H175  1  0.388700  0.936200  0.882100  1.0  0.1266
  H  H176  1  0.380600  0.899100  0.724500  1.0  0.0712
  H  H177  1  0.378100  0.660500  0.942900  1.0  0.1069
  H  H178  1  0.404600  0.639700  0.107600  1.0  0.1025
  H  H179  1  0.381900  0.747100  0.120300  1.0  0.1022
  H  H180  1  0.372000  0.813400  0.040500  1.0  0.1017
  H  H181  1  0.461300  0.613600  0.684600  1.0  0.0852
  H  H182  1  0.225400  0.710800  0.713800  1.0  0.102
  H  H183  1  0.383700  0.555900  0.615700  1.0  0.1142
  H  H184  1  0.226400  0.572600  0.599900  1.0  0.1092
  H  H185  1  0.871700  0.936900  0.621900  1.0  0.0936
  H  H186  1  0.888300  0.928400  0.718500  1.0  0.1111
  H  H187  1  0.892900  0.020000  0.770900  1.0  0.0884
  H  H188  1  0.881900  0.118000  0.727900  1.0  0.125
  H  H189  1  0.864800  0.209000  0.676300  1.0  0.1067
  H  H190  1  0.859300  0.273600  0.519900  1.0  0.1071
  H  H191  1  0.873300  0.240700  0.425100  1.0  0.1194
  H  H192  1  0.886500  0.196500  0.339200  1.0  0.1065
  H  H193  1  0.873800  0.087900  0.329500  1.0  0.1202
  H  H194  1  0.861900  0.028700  0.403600  1.0  0.0717
  H  H195  1  0.818700  0.301700  0.700100  1.0  0.1021
  H  H196  1  0.911100  0.362600  0.554100  1.0  0.1121
  H  H197  1  0.822100  0.402100  0.733100  1.0  0.1183
  H  H198  1  0.910900  0.462900  0.586600  1.0  0.1257
  H  H199  1  0.888700  0.563800  0.617900  1.0  0.1264
  H  H200  1  0.880600  0.600900  0.775500  1.0  0.0721
  H  H201  1  0.878100  0.839500  0.557100  1.0  0.1061
  H  H202  1  0.904600  0.860300  0.392400  1.0  0.1025
  H  H203  1  0.881900  0.752900  0.379700  1.0  0.1013
  H  H204  1  0.872000  0.686600  0.459500  1.0  0.1017
  H  H205  1  0.961300  0.886400  0.815400  1.0  0.0851
  H  H206  1  0.725400  0.789200  0.786200  1.0  0.1016
  H  H207  1  0.883700  0.944100  0.884300  1.0  0.1141
  H  H208  1  0.726400  0.927400  0.900100  1.0  0.1091
  C  C209  1  0.873700  0.526600  0.143500  1.0  0.1647
  C  C210  1  0.883600  0.532200  0.201500  1.0  -0.1188
  C  C211  1  0.886300  0.477600  0.232500  1.0  -0.0839
  C  C212  1  0.879100  0.418900  0.207000  1.0  -0.1598
  C  C213  1  0.867800  0.416800  0.150400  1.0  0.1696
  C  C214  1  0.864700  0.359500  0.117100  1.0  0.2235
  C  C215  1  0.864100  0.297500  0.138000  1.0  -0.1031
  C  C216  1  0.862400  0.245800  0.102600  1.0  0.0319
  C  C217  1  0.861400  0.259400  0.045400  1.0  -0.0856
  C  C218  1  0.863500  0.321900  0.026200  1.0  0.2543
  C  C219  1  0.865300  0.342700  0.968600  1.0  0.1496
  C  C220  1  0.872600  0.303000  0.921000  1.0  -0.1177
  C  C221  1  0.878500  0.328900  0.870400  1.0  -0.0902
  C  C222  1  0.872600  0.393500  0.864600  1.0  -0.1074
  C  C223  1  0.865400  0.427700  0.908600  1.0  0.2024
  C  C224  1  0.861400  0.179800  0.122300  1.0  0.0632
  C  C225  1  0.837200  0.165700  0.176500  1.0  -0.1233
  C  C226  1  0.891200  0.129800  0.090300  1.0  -0.1153
  C  C227  1  0.839500  0.105800  0.196500  1.0  -0.1519
  C  C228  1  0.892500  0.070000  0.109800  1.0  -0.17
  C  C229  1  0.866800  0.058000  0.163600  1.0  0.1308
  C  C230  1  0.884800  0.940600  0.156300  1.0  0.1067
  C  C231  1  0.879500  0.921500  0.242200  1.0  0.2799
  C  C232  1  0.905200  0.571100  0.983400  1.0  0.6989
  C  C233  1  0.891900  0.639700  0.976800  1.0  -0.0548
  C  C234  1  0.881300  0.677900  0.021600  1.0  -0.0597
  C  C235  1  0.895100  0.665800  0.923000  1.0  -0.0953
  C  C236  1  0.884100  0.729900  0.915400  1.0  -0.0908
  C  C237  1  0.876300  0.769800  0.963700  1.0  0.0105
  C  C238  1  0.875100  0.744000  0.014700  1.0  -0.1615
  C  C239  1  0.871700  0.786000  0.066800  1.0  0.6631
  C  C240  1  0.904200  0.710500  0.253100  1.0  0.6851
  C  C241  1  0.852600  0.669600  0.294000  1.0  -0.0326
  C  C242  1  0.898400  0.622000  0.323000  1.0  -0.0523
  C  C243  1  0.757500  0.678900  0.304800  1.0  -0.0188
  C  C244  1  0.851300  0.586200  0.363900  1.0  -0.1257
  C  C245  1  0.757800  0.596200  0.373200  1.0  -0.039
  C  C246  1  0.709300  0.641300  0.342900  1.0  -0.1561
  C  C247  1  0.605000  0.652500  0.351600  1.0  0.6575
  C  C248  1  0.373700  0.973400  0.356500  1.0  0.1658
  C  C249  1  0.383600  0.967800  0.298500  1.0  -0.1204
  C  C250  1  0.386300  0.022400  0.267500  1.0  -0.0837
  C  C251  1  0.379100  0.081100  0.293000  1.0  -0.1588
  C  C252  1  0.367800  0.083200  0.349600  1.0  0.17
  C  C253  1  0.364700  0.140500  0.382900  1.0  0.2234
  C  C254  1  0.364100  0.202500  0.362000  1.0  -0.1032
  C  C255  1  0.362400  0.254200  0.397400  1.0  0.0317
  C  C256  1  0.361400  0.240600  0.454600  1.0  -0.0863
  C  C257  1  0.363500  0.178100  0.473800  1.0  0.255
  C  C258  1  0.365300  0.157300  0.531400  1.0  0.1494
  C  C259  1  0.372600  0.197000  0.579000  1.0  -0.117
  C  C260  1  0.378500  0.171100  0.629600  1.0  -0.0908
  C  C261  1  0.372600  0.106500  0.635400  1.0  -0.1058
  C  C262  1  0.365400  0.072300  0.591400  1.0  0.2014
  C  C263  1  0.361400  0.320200  0.377700  1.0  0.0637
  C  C264  1  0.337200  0.334300  0.323500  1.0  -0.1236
  C  C265  1  0.391200  0.370200  0.409700  1.0  -0.1164
  C  C266  1  0.339500  0.394200  0.303500  1.0  -0.1514
  C  C267  1  0.392500  0.430000  0.390200  1.0  -0.1699
  C  C268  1  0.366800  0.442000  0.336400  1.0  0.1315
  C  C269  1  0.384800  0.559400  0.343700  1.0  0.1068
  C  C270  1  0.379500  0.578500  0.257800  1.0  0.2801
  C  C271  1  0.405200  0.928900  0.516600  1.0  0.6987
  C  C272  1  0.391900  0.860300  0.523200  1.0  -0.0547
  C  C273  1  0.381300  0.822100  0.478400  1.0  -0.0586
  C  C274  1  0.395100  0.834200  0.577000  1.0  -0.0952
  C  C275  1  0.384100  0.770100  0.584600  1.0  -0.0901
  C  C276  1  0.376300  0.730200  0.536300  1.0  0.01
  C  C277  1  0.375100  0.756000  0.485300  1.0  -0.1608
  C  C278  1  0.371700  0.714000  0.433200  1.0  0.6634
  C  C279  1  0.404200  0.789500  0.246900  1.0  0.6853
  C  C280  1  0.352600  0.830400  0.206000  1.0  -0.0332
  C  C281  1  0.398400  0.878000  0.177000  1.0  -0.0523
  C  C282  1  0.257500  0.821100  0.195200  1.0  -0.0195
  C  C283  1  0.351300  0.913800  0.136100  1.0  -0.1259
  C  C284  1  0.257800  0.903800  0.126800  1.0  -0.0388
  C  C285  1  0.209300  0.858700  0.157100  1.0  -0.1572
  C  C286  1  0.105000  0.847500  0.148400  1.0  0.6576
  C  C287  1  0.626300  0.473400  0.143500  1.0  0.165
  C  C288  1  0.616400  0.467800  0.201500  1.0  -0.121
  C  C289  1  0.613700  0.522400  0.232500  1.0  -0.0843
  C  C290  1  0.620900  0.581100  0.207000  1.0  -0.1587
  C  C291  1  0.632200  0.583200  0.150400  1.0  0.1694
  C  C292  1  0.635300  0.640500  0.117100  1.0  0.2234
  C  C293  1  0.635900  0.702500  0.138000  1.0  -0.1029
  C  C294  1  0.637600  0.754200  0.102600  1.0  0.0321
  C  C295  1  0.638600  0.740600  0.045400  1.0  -0.0868
  C  C296  1  0.636500  0.678100  0.026200  1.0  0.2547
  C  C297  1  0.634700  0.657300  0.968600  1.0  0.1494
  C  C298  1  0.627400  0.697000  0.921000  1.0  -0.1177
  C  C299  1  0.621500  0.671100  0.870400  1.0  -0.0905
  C  C300  1  0.627400  0.606500  0.864600  1.0  -0.1065
  C  C301  1  0.634600  0.572300  0.908600  1.0  0.2011
  C  C302  1  0.638600  0.820200  0.122300  1.0  0.0629
  C  C303  1  0.662800  0.834300  0.176500  1.0  -0.1229
  C  C304  1  0.608800  0.870200  0.090300  1.0  -0.1142
  C  C305  1  0.660500  0.894200  0.196500  1.0  -0.1524
  C  C306  1  0.607500  0.930000  0.109800  1.0  -0.17
  C  C307  1  0.633200  0.942000  0.163600  1.0  0.1314
  C  C308  1  0.615200  0.059400  0.156300  1.0  0.1075
  C  C309  1  0.620500  0.078500  0.242200  1.0  0.2802
  C  C310  1  0.594800  0.428900  0.983400  1.0  0.6985
  C  C311  1  0.608100  0.360300  0.976800  1.0  -0.0543
  C  C312  1  0.618700  0.322100  0.021600  1.0  -0.0601
  C  C313  1  0.604900  0.334200  0.923000  1.0  -0.0955
  C  C314  1  0.615900  0.270100  0.915400  1.0  -0.0902
  C  C315  1  0.623700  0.230200  0.963700  1.0  0.0099
  C  C316  1  0.624900  0.256000  0.014700  1.0  -0.1617
  C  C317  1  0.628300  0.214000  0.066800  1.0  0.6631
  C  C318  1  0.595800  0.289500  0.253100  1.0  0.685
  C  C319  1  0.647400  0.330400  0.294000  1.0  -0.0328
  C  C320  1  0.601600  0.378000  0.323000  1.0  -0.0499
  C  C321  1  0.742500  0.321100  0.304800  1.0  -0.0186
  C  C322  1  0.648700  0.413800  0.363900  1.0  -0.1277
  C  C323  1  0.742200  0.403800  0.373200  1.0  -0.0399
  C  C324  1  0.790700  0.358700  0.342900  1.0  -0.155
  C  C325  1  0.895000  0.347500  0.351600  1.0  0.6568
  C  C326  1  0.126300  0.026600  0.356500  1.0  0.1649
  C  C327  1  0.116400  0.032200  0.298500  1.0  -0.119
  C  C328  1  0.113700  0.977600  0.267500  1.0  -0.0838
  C  C329  1  0.120900  0.918900  0.293000  1.0  -0.1591
  C  C330  1  0.132200  0.916800  0.349600  1.0  0.1697
  C  C331  1  0.135300  0.859500  0.382900  1.0  0.2235
  C  C332  1  0.135900  0.797500  0.362000  1.0  -0.103
  C  C333  1  0.137600  0.745800  0.397400  1.0  0.0318
  C  C334  1  0.138600  0.759400  0.454600  1.0  -0.085
  C  C335  1  0.136500  0.821900  0.473800  1.0  0.2553
  C  C336  1  0.134700  0.842700  0.531400  1.0  0.1495
  C  C337  1  0.127400  0.803000  0.579000  1.0  -0.1174
  C  C338  1  0.121500  0.828900  0.629600  1.0  -0.0911
  C  C339  1  0.127400  0.893500  0.635400  1.0  -0.1066
  C  C340  1  0.134600  0.927700  0.591400  1.0  0.2023
  C  C341  1  0.138600  0.679800  0.377700  1.0  0.0629
  C  C342  1  0.162800  0.665700  0.323500  1.0  -0.1231
  C  C343  1  0.108800  0.629800  0.409700  1.0  -0.1167
  C  C344  1  0.160500  0.605800  0.303500  1.0  -0.1517
  C  C345  1  0.107500  0.570000  0.390200  1.0  -0.1703
  C  C346  1  0.133200  0.558000  0.336400  1.0  0.1308
  C  C347  1  0.115200  0.440600  0.343700  1.0  0.1064
  C  C348  1  0.120500  0.421500  0.257800  1.0  0.2792
  C  C349  1  0.094800  0.071100  0.516600  1.0  0.6989
  C  C350  1  0.108100  0.139700  0.523200  1.0  -0.0544
  C  C351  1  0.118700  0.177900  0.478400  1.0  -0.0584
  C  C352  1  0.104900  0.165800  0.577000  1.0  -0.0958
  C  C353  1  0.115900  0.229900  0.584600  1.0  -0.0901
  C  C354  1  0.123700  0.269800  0.536300  1.0  0.0113
  C  C355  1  0.124900  0.244000  0.485300  1.0  -0.1609
  C  C356  1  0.128300  0.286000  0.433200  1.0  0.6624
  C  C357  1  0.095800  0.210500  0.246900  1.0  0.6854
  C  C358  1  0.147400  0.169600  0.206000  1.0  -0.0332
  C  C359  1  0.101600  0.122000  0.177000  1.0  -0.0503
  C  C360  1  0.242500  0.178900  0.195200  1.0  -0.0185
  C  C361  1  0.148700  0.086200  0.136100  1.0  -0.1276
  C  C362  1  0.242200  0.096200  0.126800  1.0  -0.0394
  C  C363  1  0.290700  0.141300  0.157100  1.0  -0.1561
  C  C364  1  0.395000  0.152500  0.148400  1.0  0.6571
  C  C365  1  0.126300  0.473400  0.856500  1.0  0.1656
  C  C366  1  0.116400  0.467800  0.798500  1.0  -0.1206
  C  C367  1  0.113700  0.522400  0.767500  1.0  -0.0838
  C  C368  1  0.120900  0.581100  0.793000  1.0  -0.1586
  C  C369  1  0.132200  0.583200  0.849600  1.0  0.1697
  C  C370  1  0.135300  0.640500  0.882900  1.0  0.2233
  C  C371  1  0.135900  0.702500  0.862000  1.0  -0.1032
  C  C372  1  0.137600  0.754200  0.897400  1.0  0.032
  C  C373  1  0.138600  0.740600  0.954600  1.0  -0.0861
  C  C374  1  0.136500  0.678100  0.973800  1.0  0.2553
  C  C375  1  0.134700  0.657300  0.031400  1.0  0.1493
  C  C376  1  0.127400  0.697000  0.079000  1.0  -0.1169
  C  C377  1  0.121500  0.671100  0.129600  1.0  -0.091
  C  C378  1  0.127400  0.606500  0.135400  1.0  -0.1056
  C  C379  1  0.134600  0.572300  0.091400  1.0  0.2012
  C  C380  1  0.138600  0.820200  0.877700  1.0  0.0633
  C  C381  1  0.162800  0.834300  0.823500  1.0  -0.1237
  C  C382  1  0.108800  0.870200  0.909700  1.0  -0.1162
  C  C383  1  0.160500  0.894200  0.803500  1.0  -0.1518
  C  C384  1  0.107500  0.930000  0.890200  1.0  -0.1708
  C  C385  1  0.133200  0.942000  0.836400  1.0  0.1314
  C  C386  1  0.115200  0.059400  0.843700  1.0  0.1062
  C  C387  1  0.120500  0.078500  0.757800  1.0  0.2798
  C  C388  1  0.094800  0.428900  0.016600  1.0  0.6986
  C  C389  1  0.108100  0.360300  0.023200  1.0  -0.0545
  C  C390  1  0.118700  0.322100  0.978400  1.0  -0.0586
  C  C391  1  0.104900  0.334200  0.077000  1.0  -0.095
  C  C392  1  0.115900  0.270100  0.084600  1.0  -0.0902
  C  C393  1  0.123700  0.230200  0.036300  1.0  0.0101
  C  C394  1  0.124900  0.256000  0.985300  1.0  -0.1607
  C  C395  1  0.128300  0.214000  0.933200  1.0  0.6629
  C  C396  1  0.095800  0.289500  0.746900  1.0  0.6854
  C  C397  1  0.147400  0.330400  0.706000  1.0  -0.0328
  C  C398  1  0.101600  0.378000  0.677000  1.0  -0.05
  C  C399  1  0.242500  0.321100  0.695200  1.0  -0.0187
  C  C400  1  0.148700  0.413800  0.636100  1.0  -0.1269
  C  C401  1  0.242200  0.403800  0.626800  1.0  -0.0394
  C  C402  1  0.290700  0.358700  0.657100  1.0  -0.1557
  C  C403  1  0.395000  0.347500  0.648400  1.0  0.6572
  C  C404  1  0.626300  0.026600  0.643500  1.0  0.1645
  C  C405  1  0.616400  0.032200  0.701500  1.0  -0.1191
  C  C406  1  0.613700  0.977600  0.732500  1.0  -0.0841
  C  C407  1  0.620900  0.918900  0.707000  1.0  -0.1593
  C  C408  1  0.632200  0.916800  0.650400  1.0  0.1694
  C  C409  1  0.635300  0.859500  0.617100  1.0  0.2235
  C  C410  1  0.635900  0.797500  0.638000  1.0  -0.103
  C  C411  1  0.637600  0.745800  0.602600  1.0  0.032
  C  C412  1  0.638600  0.759400  0.545400  1.0  -0.0854
  C  C413  1  0.636500  0.821900  0.526200  1.0  0.2547
  C  C414  1  0.634700  0.842700  0.468600  1.0  0.1495
  C  C415  1  0.627400  0.803000  0.421000  1.0  -0.1177
  C  C416  1  0.621500  0.828900  0.370400  1.0  -0.0905
  C  C417  1  0.627400  0.893500  0.364600  1.0  -0.1071
  C  C418  1  0.634600  0.927700  0.408600  1.0  0.2023
  C  C419  1  0.638600  0.679800  0.622300  1.0  0.0627
  C  C420  1  0.662800  0.665700  0.676500  1.0  -0.1228
  C  C421  1  0.608800  0.629800  0.590300  1.0  -0.1137
  C  C422  1  0.660500  0.605800  0.696500  1.0  -0.1519
  C  C423  1  0.607500  0.570000  0.609800  1.0  -0.17
  C  C424  1  0.633200  0.558000  0.663600  1.0  0.1307
  C  C425  1  0.615200  0.440600  0.656300  1.0  0.1073
  C  C426  1  0.620500  0.421500  0.742200  1.0  0.2797
  C  C427  1  0.594800  0.071100  0.483400  1.0  0.6988
  C  C428  1  0.608100  0.139700  0.476800  1.0  -0.0544
  C  C429  1  0.618700  0.177900  0.521600  1.0  -0.0598
  C  C430  1  0.604900  0.165800  0.423000  1.0  -0.0952
  C  C431  1  0.615900  0.229900  0.415400  1.0  -0.0909
  C  C432  1  0.623700  0.269800  0.463700  1.0  0.0109
  C  C433  1  0.624900  0.244000  0.514700  1.0  -0.1615
  C  C434  1  0.628300  0.286000  0.566800  1.0  0.6623
  C  C435  1  0.595800  0.210500  0.753100  1.0  0.6855
  C  C436  1  0.647400  0.169600  0.794000  1.0  -0.0323
  C  C437  1  0.601600  0.122000  0.823000  1.0  -0.0503
  C  C438  1  0.742500  0.178900  0.804800  1.0  -0.0183
  C  C439  1  0.648700  0.086200  0.863900  1.0  -0.1273
  C  C440  1  0.742200  0.096200  0.873200  1.0  -0.0392
  C  C441  1  0.790700  0.141300  0.842900  1.0  -0.1549
  C  C442  1  0.895000  0.152500  0.851600  1.0  0.6573
  C  C443  1  0.373700  0.526600  0.856500  1.0  0.1652
  C  C444  1  0.383600  0.532200  0.798500  1.0  -0.1188
  C  C445  1  0.386300  0.477600  0.767500  1.0  -0.0836
  C  C446  1  0.379100  0.418900  0.793000  1.0  -0.1594
  C  C447  1  0.367800  0.416800  0.849600  1.0  0.1699
  C  C448  1  0.364700  0.359500  0.882900  1.0  0.2235
  C  C449  1  0.364100  0.297500  0.862000  1.0  -0.103
  C  C450  1  0.362400  0.245800  0.897400  1.0  0.0317
  C  C451  1  0.361400  0.259400  0.954600  1.0  -0.0853
  C  C452  1  0.363500  0.321900  0.973800  1.0  0.255
  C  C453  1  0.365300  0.342700  0.031400  1.0  0.1496
  C  C454  1  0.372600  0.303000  0.079000  1.0  -0.1175
  C  C455  1  0.378500  0.328900  0.129600  1.0  -0.0909
  C  C456  1  0.372600  0.393500  0.135400  1.0  -0.1068
  C  C457  1  0.365400  0.427700  0.091400  1.0  0.2023
  C  C458  1  0.361400  0.179800  0.877700  1.0  0.0635
  C  C459  1  0.337200  0.165700  0.823500  1.0  -0.1229
  C  C460  1  0.391200  0.129800  0.909700  1.0  -0.1171
  C  C461  1  0.339500  0.105800  0.803500  1.0  -0.1514
  C  C462  1  0.392500  0.070000  0.890200  1.0  -0.1699
  C  C463  1  0.366800  0.058000  0.836400  1.0  0.1308
  C  C464  1  0.384800  0.940600  0.843700  1.0  0.1069
  C  C465  1  0.379500  0.921500  0.757800  1.0  0.2793
  C  C466  1  0.405200  0.571100  0.016600  1.0  0.699
  C  C467  1  0.391900  0.639700  0.023200  1.0  -0.0548
  C  C468  1  0.381300  0.677900  0.978400  1.0  -0.0583
  C  C469  1  0.395100  0.665800  0.077000  1.0  -0.0958
  C  C470  1  0.384100  0.729900  0.084600  1.0  -0.0901
  C  C471  1  0.376300  0.769800  0.036300  1.0  0.011
  C  C472  1  0.375100  0.744000  0.985300  1.0  -0.1608
  C  C473  1  0.371700  0.786000  0.933200  1.0  0.6631
  C  C474  1  0.404200  0.710500  0.746900  1.0  0.6854
  C  C475  1  0.352600  0.669600  0.706000  1.0  -0.0338
  C  C476  1  0.398400  0.622000  0.677000  1.0  -0.0525
  C  C477  1  0.257500  0.678900  0.695200  1.0  -0.0192
  C  C478  1  0.351300  0.586200  0.636100  1.0  -0.1265
  C  C479  1  0.257800  0.596200  0.626800  1.0  -0.0386
  C  C480  1  0.209300  0.641300  0.657100  1.0  -0.1579
  C  C481  1  0.105000  0.652500  0.648400  1.0  0.6576
  C  C482  1  0.873700  0.973400  0.643500  1.0  0.1652
  C  C483  1  0.883600  0.967800  0.701500  1.0  -0.1208
  C  C484  1  0.886300  0.022400  0.732500  1.0  -0.0841
  C  C485  1  0.879100  0.081100  0.707000  1.0  -0.159
  C  C486  1  0.867800  0.083200  0.650400  1.0  0.1697
  C  C487  1  0.864700  0.140500  0.617100  1.0  0.2234
  C  C488  1  0.864100  0.202500  0.638000  1.0  -0.103
  C  C489  1  0.862400  0.254200  0.602600  1.0  0.0319
  C  C490  1  0.861400  0.240600  0.545400  1.0  -0.0869
  C  C491  1  0.863500  0.178100  0.526200  1.0  0.2543
  C  C492  1  0.865300  0.157300  0.468600  1.0  0.1495
  C  C493  1  0.872600  0.197000  0.421000  1.0  -0.1178
  C  C494  1  0.878500  0.171100  0.370400  1.0  -0.0903
  C  C495  1  0.872600  0.106500  0.364600  1.0  -0.1068
  C  C496  1  0.865400  0.072300  0.408600  1.0  0.2015
  C  C497  1  0.861400  0.320200  0.622300  1.0  0.0632
  C  C498  1  0.837200  0.334300  0.676500  1.0  -0.1232
  C  C499  1  0.891200  0.370200  0.590300  1.0  -0.1155
  C  C500  1  0.839500  0.394200  0.696500  1.0  -0.1523
  C  C501  1  0.892500  0.430000  0.609800  1.0  -0.1697
  C  C502  1  0.866800  0.442000  0.663600  1.0  0.1316
  C  C503  1  0.884800  0.559400  0.656300  1.0  0.1068
  C  C504  1  0.879500  0.578500  0.742200  1.0  0.2805
  C  C505  1  0.905200  0.928900  0.483400  1.0  0.6986
  C  C506  1  0.891900  0.860300  0.476800  1.0  -0.0544
  C  C507  1  0.881300  0.822100  0.521600  1.0  -0.06
  C  C508  1  0.895100  0.834200  0.423000  1.0  -0.0955
  C  C509  1  0.884100  0.770100  0.415400  1.0  -0.0901
  C  C510  1  0.876300  0.730200  0.463700  1.0  0.0097
  C  C511  1  0.875100  0.756000  0.514700  1.0  -0.1617
  C  C512  1  0.871700  0.714000  0.566800  1.0  0.6637
  C  C513  1  0.904200  0.789500  0.753100  1.0  0.6847
  C  C514  1  0.852600  0.830400  0.794000  1.0  -0.033
  C  C515  1  0.898400  0.878000  0.823000  1.0  -0.0521
  C  C516  1  0.757500  0.821100  0.804800  1.0  -0.0193
  C  C517  1  0.851300  0.913800  0.863900  1.0  -0.1261
  C  C518  1  0.757800  0.903800  0.873200  1.0  -0.0401
  C  C519  1  0.709300  0.858700  0.842900  1.0  -0.156
  C  C520  1  0.605000  0.847500  0.851600  1.0  0.6567
  N  N521  1  0.866800  0.469500  0.118100  1.0  -0.2754
  N  N522  1  0.862500  0.368300  0.062300  1.0  -0.3115
  N  N523  1  0.862500  0.406200  0.961600  1.0  -0.3491
  N  N524  1  0.873000  0.995100  0.184300  1.0  0.1372
  N  N525  1  0.867300  0.982700  0.240200  1.0  -0.3904
  N  N526  1  0.890000  0.894200  0.193700  1.0  -0.3885
  N  N527  1  0.366800  0.030500  0.381900  1.0  -0.2753
  N  N528  1  0.362500  0.131700  0.437700  1.0  -0.3115
  N  N529  1  0.362500  0.093800  0.538400  1.0  -0.3471
  N  N530  1  0.373000  0.504900  0.315700  1.0  0.1376
  N  N531  1  0.367300  0.517300  0.259800  1.0  -0.3907
  N  N532  1  0.390000  0.605800  0.306300  1.0  -0.3888
  N  N533  1  0.633200  0.530500  0.118100  1.0  -0.275
  N  N534  1  0.637500  0.631700  0.062300  1.0  -0.3108
  N  N535  1  0.637500  0.593800  0.961600  1.0  -0.3471
  N  N536  1  0.627000  0.004900  0.184300  1.0  0.1373
  N  N537  1  0.632700  0.017300  0.240200  1.0  -0.3904
  N  N538  1  0.610000  0.105800  0.193700  1.0  -0.3892
  N  N539  1  0.133200  0.969500  0.381900  1.0  -0.2746
  N  N540  1  0.137500  0.868300  0.437700  1.0  -0.3108
  N  N541  1  0.137500  0.906200  0.538400  1.0  -0.3482
  N  N542  1  0.127000  0.495100  0.315700  1.0  0.1374
  N  N543  1  0.132700  0.482700  0.259800  1.0  -0.3895
  N  N544  1  0.110000  0.394200  0.306300  1.0  -0.3891
  N  N545  1  0.133200  0.530500  0.881900  1.0  -0.2749
  N  N546  1  0.137500  0.631700  0.937700  1.0  -0.3108
  N  N547  1  0.137500  0.593800  0.038400  1.0  -0.3465
  N  N548  1  0.127000  0.004900  0.815700  1.0  0.1375
  N  N549  1  0.132700  0.017300  0.759800  1.0  -0.3907
  N  N550  1  0.110000  0.105800  0.806300  1.0  -0.3893
  N  N551  1  0.633200  0.969500  0.618100  1.0  -0.2748
  N  N552  1  0.637500  0.868300  0.562300  1.0  -0.311
  N  N553  1  0.637500  0.906200  0.461600  1.0  -0.3489
  N  N554  1  0.627000  0.495100  0.684300  1.0  0.1372
  N  N555  1  0.632700  0.482700  0.740200  1.0  -0.3904
  N  N556  1  0.610000  0.394200  0.693700  1.0  -0.3891
  N  N557  1  0.366800  0.469500  0.881900  1.0  -0.2749
  N  N558  1  0.362500  0.368300  0.937700  1.0  -0.3113
  N  N559  1  0.362500  0.406200  0.038400  1.0  -0.3487
  N  N560  1  0.373000  0.995100  0.815700  1.0  0.1374
  N  N561  1  0.367300  0.982700  0.759800  1.0  -0.3895
  N  N562  1  0.390000  0.894200  0.806300  1.0  -0.3886
  N  N563  1  0.866800  0.030500  0.618100  1.0  -0.2755
  N  N564  1  0.862500  0.131700  0.562300  1.0  -0.3115
  N  N565  1  0.862500  0.093800  0.461600  1.0  -0.3473
  N  N566  1  0.873000  0.504900  0.684300  1.0  0.1374
  N  N567  1  0.867300  0.517300  0.740200  1.0  -0.3905
  N  N568  1  0.890000  0.605800  0.693700  1.0  -0.3888
  O  O569  1  0.850200  0.542000  0.016700  1.0  -0.5865
  O  O570  1  0.965100  0.543600  0.952600  1.0  -0.6831
  O  O571  1  0.890500  0.758700  0.112000  1.0  -0.6004
  O  O572  1  0.851800  0.842900  0.061500  1.0  -0.5907
  O  O573  1  0.867300  0.762400  0.241400  1.0  -0.5941
  O  O574  1  0.971400  0.687000  0.228700  1.0  -0.5604
  O  O575  1  0.565800  0.686200  0.314100  1.0  -0.6006
  O  O576  1  0.564900  0.629300  0.391200  1.0  -0.5271
  O  O577  1  0.350200  0.958000  0.483300  1.0  -0.5863
  O  O578  1  0.465100  0.956400  0.547400  1.0  -0.6832
  O  O579  1  0.390500  0.741300  0.388000  1.0  -0.6007
  O  O580  1  0.351800  0.657100  0.438500  1.0  -0.5899
  O  O581  1  0.367300  0.737600  0.258600  1.0  -0.5945
  O  O582  1  0.471400  0.813000  0.271300  1.0  -0.5599
  O  O583  1  0.065800  0.813800  0.185900  1.0  -0.601
  O  O584  1  0.064900  0.870700  0.108800  1.0  -0.5272
  O  O585  1  0.649800  0.458000  0.016700  1.0  -0.5865
  O  O586  1  0.534900  0.456400  0.952600  1.0  -0.6822
  O  O587  1  0.609500  0.241300  0.112000  1.0  -0.6001
  O  O588  1  0.648200  0.157100  0.061500  1.0  -0.5908
  O  O589  1  0.632700  0.237600  0.241400  1.0  -0.595
  O  O590  1  0.528600  0.313000  0.228700  1.0  -0.5592
  O  O591  1  0.934200  0.313800  0.314100  1.0  -0.6012
  O  O592  1  0.935100  0.370700  0.391200  1.0  -0.5277
  O  O593  1  0.149800  0.042000  0.483300  1.0  -0.5868
  O  O594  1  0.034900  0.043600  0.547400  1.0  -0.6827
  O  O595  1  0.109500  0.258700  0.388000  1.0  -0.6006
  O  O596  1  0.148200  0.342900  0.438500  1.0  -0.5924
  O  O597  1  0.132700  0.262400  0.258600  1.0  -0.595
  O  O598  1  0.028600  0.187000  0.271300  1.0  -0.5586
  O  O599  1  0.434200  0.186200  0.185900  1.0  -0.6007
  O  O600  1  0.435100  0.129300  0.108800  1.0  -0.5271
  O  O601  1  0.149800  0.458000  0.983300  1.0  -0.5866
  O  O602  1  0.034900  0.456400  0.047400  1.0  -0.6829
  O  O603  1  0.109500  0.241300  0.888000  1.0  -0.6007
  O  O604  1  0.148200  0.157100  0.938500  1.0  -0.5904
  O  O605  1  0.132700  0.237600  0.758600  1.0  -0.595
  O  O606  1  0.028600  0.313000  0.771300  1.0  -0.5586
  O  O607  1  0.434200  0.313800  0.685900  1.0  -0.601
  O  O608  1  0.435100  0.370700  0.608800  1.0  -0.5268
  O  O609  1  0.649800  0.042000  0.516700  1.0  -0.5866
  O  O610  1  0.534900  0.043600  0.452600  1.0  -0.6831
  O  O611  1  0.609500  0.258700  0.612000  1.0  -0.6002
  O  O612  1  0.648200  0.342900  0.561500  1.0  -0.5918
  O  O613  1  0.632700  0.262400  0.741400  1.0  -0.5951
  O  O614  1  0.528600  0.187000  0.728700  1.0  -0.559
  O  O615  1  0.934200  0.186200  0.814100  1.0  -0.6006
  O  O616  1  0.935100  0.129300  0.891200  1.0  -0.5274
  O  O617  1  0.350200  0.542000  0.983300  1.0  -0.5867
  O  O618  1  0.465100  0.543600  0.047400  1.0  -0.6828
  O  O619  1  0.390500  0.758700  0.888000  1.0  -0.6008
  O  O620  1  0.351800  0.842900  0.938500  1.0  -0.5914
  O  O621  1  0.367300  0.762400  0.758600  1.0  -0.5942
  O  O622  1  0.471400  0.687000  0.771300  1.0  -0.5596
  O  O623  1  0.065800  0.686200  0.685900  1.0  -0.6005
  O  O624  1  0.064900  0.629300  0.608800  1.0  -0.5272
  O  O625  1  0.850200  0.958000  0.516700  1.0  -0.5863
  O  O626  1  0.965100  0.956400  0.452600  1.0  -0.6824
  O  O627  1  0.890500  0.741300  0.612000  1.0  -0.6001
  O  O628  1  0.851800  0.657100  0.561500  1.0  -0.5905
  O  O629  1  0.867300  0.737600  0.741400  1.0  -0.5945
  O  O630  1  0.971400  0.813000  0.728700  1.0  -0.5602
  O  O631  1  0.565800  0.813800  0.814100  1.0  -0.6014
  O  O632  1  0.564900  0.870700  0.891200  1.0  -0.5277
