# generated using pymatgen
data_CuH16(C9O2)2
_symmetry_space_group_name_H-M   'P 1'
_cell_length_a   21.72890000
_cell_length_b   21.72890000
_cell_length_c   30.00210000
_cell_angle_alpha   98.06980000
_cell_angle_beta   98.06980000
_cell_angle_gamma   117.44000000
_symmetry_Int_Tables_number   1
_chemical_formula_structural   CuH16(C9O2)2
_chemical_formula_sum   'Cu12 H192 C216 O48'
_cell_volume   12103.45994904
_cell_formula_units_Z   12
loop_
 _symmetry_equiv_pos_site_id
 _symmetry_equiv_pos_as_xyz
  1  'x, y, z'
loop_
 _atom_site_type_symbol
 _atom_site_label
 _atom_site_symmetry_multiplicity
 _atom_site_fract_x
 _atom_site_fract_y
 _atom_site_fract_z
 _atom_site_occupancy
 _atom_site_charge
  Cu  Cu1  1  0.697270  0.752190  0.732590  1.0  0.9025
  Cu  Cu2  1  0.826410  0.770710  0.742460  1.0  0.9287
  Cu  Cu3  1  0.467720  0.974440  0.532300  1.0  0.9193
  Cu  Cu4  1  0.247810  0.302730  0.767410  1.0  0.9045
  Cu  Cu5  1  0.229290  0.173590  0.757540  1.0  0.9298
  Cu  Cu6  1  0.025560  0.532280  0.967700  1.0  0.9188
  Cu  Cu7  1  0.302730  0.247810  0.267410  1.0  0.9039
  Cu  Cu8  1  0.173590  0.229290  0.257540  1.0  0.9286
  Cu  Cu9  1  0.532280  0.025560  0.467700  1.0  0.9185
  Cu  Cu10  1  0.752190  0.697270  0.232590  1.0  0.9048
  Cu  Cu11  1  0.770710  0.826410  0.242460  1.0  0.9296
  Cu  Cu12  1  0.974440  0.467720  0.032300  1.0  0.9189
  H  H13  1  0.770300  0.546900  0.714300  1.0  0.128
  H  H14  1  0.583500  0.533500  0.657800  1.0  0.1183
  H  H15  1  0.786900  0.447300  0.705100  1.0  0.1241
  H  H16  1  0.718000  0.369800  0.688700  1.0  0.1323
  H  H17  1  0.759700  0.406500  0.651600  1.0  0.137
  H  H18  1  0.480900  0.408700  0.626600  1.0  0.1185
  H  H19  1  0.509000  0.405400  0.580200  1.0  0.1206
  H  H20  1  0.497500  0.346100  0.609200  1.0  0.1104
  H  H21  1  0.593500  0.245900  0.519000  1.0  0.1196
  H  H22  1  0.523400  0.171200  0.625600  1.0  0.1129
  H  H23  1  0.635800  0.422000  0.566800  1.0  0.099
  H  H24  1  0.626700  0.369300  0.520300  1.0  0.1312
  H  H25  1  0.698600  0.405000  0.559900  1.0  0.1265
  H  H26  1  0.518400  0.245800  0.690400  1.0  0.1355
  H  H27  1  0.542400  0.327000  0.689300  1.0  0.1346
  H  H28  1  0.600500  0.305700  0.709000  1.0  0.1328
  H  H29  1  0.749400  0.964800  0.793500  1.0  0.129
  H  H30  1  0.949200  0.000400  0.793300  1.0  0.1136
  H  H31  1  0.727900  0.059700  0.818100  1.0  0.1331
  H  H32  1  0.773700  0.092100  0.870500  1.0  0.1278
  H  H33  1  0.792000  0.140200  0.833400  1.0  0.133
  H  H34  1  0.050600  0.114800  0.823200  1.0  0.1381
  H  H35  1  0.036700  0.181300  0.829800  1.0  0.1213
  H  H36  1  0.044500  0.147100  0.872600  1.0  0.1298
  H  H37  1  0.970100  0.346700  0.863500  1.0  0.1208
  H  H38  1  0.959800  0.264400  0.976100  1.0  0.1261
  H  H39  1  0.947600  0.201400  0.783300  1.0  0.1264
  H  H40  1  0.880600  0.214600  0.781500  1.0  0.1247
  H  H41  1  0.959200  0.280800  0.789800  1.0  0.1333
  H  H42  1  0.942700  0.102100  0.924300  1.0  0.1378
  H  H43  1  0.948100  0.149300  0.972300  1.0  0.1154
  H  H44  1  0.872700  0.101500  0.936000  1.0  0.1296
  H  H45  1  0.787900  0.872500  0.389600  1.0  0.1255
  H  H46  1  0.682500  0.657100  0.360900  1.0  0.1255
  H  H47  1  0.826100  0.941700  0.464100  1.0  0.1144
  H  H48  1  0.834200  0.905400  0.505700  1.0  0.1319
  H  H49  1  0.763100  0.909700  0.490400  1.0  0.1282
  H  H50  1  0.658600  0.643800  0.474700  1.0  0.1252
  H  H51  1  0.699000  0.612400  0.446300  1.0  0.1318
  H  H52  1  0.623600  0.602000  0.421600  1.0  0.1285
  H  H53  1  0.845000  0.773400  0.603600  1.0  0.1282
  H  H54  1  0.662200  0.782000  0.594000  1.0  0.1268
  H  H55  1  0.833300  0.732700  0.484500  1.0  0.1219
  H  H56  1  0.890100  0.812900  0.511600  1.0  0.1328
  H  H57  1  0.881400  0.748000  0.534600  1.0  0.1375
  H  H58  1  0.587900  0.761900  0.520200  1.0  0.1494
  H  H59  1  0.642900  0.827900  0.502700  1.0  0.141
  H  H60  1  0.611800  0.748200  0.473300  1.0  0.1443
  H  H61  1  0.453100  0.229700  0.785700  1.0  0.1274
  H  H62  1  0.466500  0.416500  0.842200  1.0  0.1183
  H  H63  1  0.552700  0.213100  0.794900  1.0  0.1235
  H  H64  1  0.630200  0.282000  0.811300  1.0  0.1332
  H  H65  1  0.593500  0.240300  0.848400  1.0  0.136
  H  H66  1  0.591300  0.519100  0.873400  1.0  0.1174
  H  H67  1  0.594600  0.491000  0.919800  1.0  0.121
  H  H68  1  0.653900  0.502500  0.890800  1.0  0.1092
  H  H69  1  0.754100  0.406500  0.981000  1.0  0.1199
  H  H70  1  0.828800  0.476600  0.874400  1.0  0.1129
  H  H71  1  0.578000  0.364200  0.933200  1.0  0.0983
  H  H72  1  0.630700  0.373300  0.979700  1.0  0.1303
  H  H73  1  0.595000  0.301400  0.940100  1.0  0.1284
  H  H74  1  0.754200  0.481600  0.809600  1.0  0.1345
  H  H75  1  0.673000  0.457600  0.810700  1.0  0.1322
  H  H76  1  0.694300  0.399500  0.791000  1.0  0.1341
  H  H77  1  0.035200  0.250600  0.706500  1.0  0.1289
  H  H78  1  0.999600  0.050800  0.706700  1.0  0.1134
  H  H79  1  0.940300  0.272100  0.681900  1.0  0.1338
  H  H80  1  0.907900  0.226300  0.629500  1.0  0.1313
  H  H81  1  0.859800  0.208000  0.666667  1.0  0.1326
  H  H82  1  0.885200  0.949400  0.676800  1.0  0.1381
  H  H83  1  0.818700  0.963300  0.670200  1.0  0.1189
  H  H84  1  0.852900  0.955500  0.627400  1.0  0.131
  H  H85  1  0.653300  0.029900  0.636500  1.0  0.1197
  H  H86  1  0.735600  0.040200  0.523900  1.0  0.1267
  H  H87  1  0.798600  0.052400  0.716700  1.0  0.1279
  H  H88  1  0.785400  0.119400  0.718500  1.0  0.1234
  H  H89  1  0.719200  0.040800  0.710200  1.0  0.1331
  H  H90  1  0.897900  0.057300  0.575700  1.0  0.1391
  H  H91  1  0.850700  0.051900  0.527700  1.0  0.1132
  H  H92  1  0.898500  0.127300  0.564000  1.0  0.1319
  H  H93  1  0.127500  0.212100  0.110400  1.0  0.1242
  H  H94  1  0.342900  0.317500  0.139100  1.0  0.1242
  H  H95  1  0.058300  0.173900  0.035900  1.0  0.114
  H  H96  1  0.094600  0.165800  0.994300  1.0  0.1302
  H  H97  1  0.090300  0.236900  0.009600  1.0  0.1319
  H  H98  1  0.356200  0.341400  0.025300  1.0  0.1265
  H  H99  1  0.387600  0.301000  0.053700  1.0  0.1307
  H  H100  1  0.398000  0.376400  0.078400  1.0  0.1291
  H  H101  1  0.226600  0.155000  0.896400  1.0  0.1288
  H  H102  1  0.218000  0.337800  0.906000  1.0  0.1298
  H  H103  1  0.267300  0.166700  0.015500  1.0  0.1229
  H  H104  1  0.187100  0.109900  0.988400  1.0  0.1296
  H  H105  1  0.252000  0.118600  0.965400  1.0  0.1404
  H  H106  1  0.238100  0.412100  0.979800  1.0  0.1491
  H  H107  1  0.172100  0.357100  0.997300  1.0  0.1419
  H  H108  1  0.251800  0.388200  0.026700  1.0  0.1444
  H  H109  1  0.229700  0.453100  0.285700  1.0  0.1275
  H  H110  1  0.416500  0.466500  0.342200  1.0  0.1187
  H  H111  1  0.213100  0.552700  0.294900  1.0  0.1241
  H  H112  1  0.282000  0.630200  0.311300  1.0  0.1325
  H  H113  1  0.240300  0.593500  0.348400  1.0  0.1367
  H  H114  1  0.519100  0.591300  0.373400  1.0  0.1169
  H  H115  1  0.491000  0.594600  0.419800  1.0  0.1215
  H  H116  1  0.502500  0.653900  0.390800  1.0  0.1123
  H  H117  1  0.406500  0.754100  0.481000  1.0  0.1186
  H  H118  1  0.476600  0.828800  0.374400  1.0  0.1132
  H  H119  1  0.364200  0.578000  0.433200  1.0  0.0972
  H  H120  1  0.373300  0.630700  0.479700  1.0  0.1324
  H  H121  1  0.301400  0.595000  0.440100  1.0  0.1253
  H  H122  1  0.481600  0.754200  0.309600  1.0  0.1364
  H  H123  1  0.457600  0.673000  0.310700  1.0  0.1358
  H  H124  1  0.399500  0.694300  0.291000  1.0  0.132
  H  H125  1  0.250600  0.035200  0.206500  1.0  0.1306
  H  H126  1  0.050800  0.999600  0.206700  1.0  0.1127
  H  H127  1  0.272100  0.940300  0.181900  1.0  0.1345
  H  H128  1  0.226300  0.907900  0.129500  1.0  0.129
  H  H129  1  0.208000  0.859800  0.166600  1.0  0.1337
  H  H130  1  0.949400  0.885200  0.176800  1.0  0.1382
  H  H131  1  0.963300  0.818700  0.170200  1.0  0.122
  H  H132  1  0.955500  0.852900  0.127400  1.0  0.1298
  H  H133  1  0.029900  0.653300  0.136500  1.0  0.1205
  H  H134  1  0.040200  0.735600  0.023900  1.0  0.1267
  H  H135  1  0.052400  0.798600  0.216700  1.0  0.1258
  H  H136  1  0.119400  0.785400  0.218500  1.0  0.1236
  H  H137  1  0.040800  0.719200  0.210200  1.0  0.1336
  H  H138  1  0.057300  0.897900  0.075700  1.0  0.1381
  H  H139  1  0.051900  0.850700  0.027700  1.0  0.1145
  H  H140  1  0.127300  0.898500  0.064000  1.0  0.1298
  H  H141  1  0.212100  0.127500  0.610400  1.0  0.1246
  H  H142  1  0.317500  0.342900  0.639100  1.0  0.124
  H  H143  1  0.173900  0.058300  0.535900  1.0  0.1135
  H  H144  1  0.165800  0.094600  0.494300  1.0  0.1315
  H  H145  1  0.236900  0.090300  0.509600  1.0  0.1297
  H  H146  1  0.341400  0.356200  0.525300  1.0  0.1247
  H  H147  1  0.301000  0.387600  0.553700  1.0  0.1318
  H  H148  1  0.376400  0.398000  0.578400  1.0  0.1263
  H  H149  1  0.155000  0.226600  0.396400  1.0  0.128
  H  H150  1  0.337800  0.218000  0.406000  1.0  0.1272
  H  H151  1  0.166700  0.267300  0.515500  1.0  0.1217
  H  H152  1  0.109900  0.187100  0.488400  1.0  0.1316
  H  H153  1  0.118600  0.252000  0.465400  1.0  0.1373
  H  H154  1  0.412100  0.238100  0.479800  1.0  0.1491
  H  H155  1  0.357100  0.172100  0.497300  1.0  0.1408
  H  H156  1  0.388200  0.251800  0.526700  1.0  0.1452
  H  H157  1  0.546900  0.770300  0.214300  1.0  0.1277
  H  H158  1  0.533500  0.583500  0.157800  1.0  0.1186
  H  H159  1  0.447300  0.786900  0.205100  1.0  0.1235
  H  H160  1  0.369800  0.718000  0.188700  1.0  0.1335
  H  H161  1  0.406500  0.759700  0.151600  1.0  0.1373
  H  H162  1  0.408700  0.480900  0.126600  1.0  0.1173
  H  H163  1  0.405400  0.509000  0.080200  1.0  0.1229
  H  H164  1  0.346100  0.497500  0.109200  1.0  0.1075
  H  H165  1  0.245900  0.593500  0.019000  1.0  0.12
  H  H166  1  0.171200  0.523400  0.125600  1.0  0.112
  H  H167  1  0.422000  0.635800  0.066800  1.0  0.0993
  H  H168  1  0.369300  0.626700  0.020300  1.0  0.1296
  H  H169  1  0.405000  0.698600  0.059900  1.0  0.126
  H  H170  1  0.245800  0.518400  0.190400  1.0  0.1345
  H  H171  1  0.327000  0.542400  0.189300  1.0  0.1295
  H  H172  1  0.305700  0.600500  0.209000  1.0  0.1342
  H  H173  1  0.964800  0.749400  0.293500  1.0  0.1283
  H  H174  1  0.000400  0.949200  0.293300  1.0  0.1136
  H  H175  1  0.059700  0.727900  0.318100  1.0  0.1331
  H  H176  1  0.092100  0.773700  0.370500  1.0  0.1271
  H  H177  1  0.140200  0.792000  0.333400  1.0  0.131
  H  H178  1  0.114800  0.050600  0.323200  1.0  0.1374
  H  H179  1  0.181300  0.036700  0.329800  1.0  0.1198
  H  H180  1  0.147100  0.044500  0.372600  1.0  0.1298
  H  H181  1  0.346700  0.970100  0.363500  1.0  0.1197
  H  H182  1  0.264400  0.959800  0.476100  1.0  0.126
  H  H183  1  0.201400  0.947600  0.283300  1.0  0.1285
  H  H184  1  0.214600  0.880600  0.281500  1.0  0.1244
  H  H185  1  0.280800  0.959200  0.289800  1.0  0.1339
  H  H186  1  0.102100  0.942700  0.424300  1.0  0.1389
  H  H187  1  0.149300  0.948100  0.472300  1.0  0.1143
  H  H188  1  0.101500  0.872700  0.436000  1.0  0.1319
  H  H189  1  0.872500  0.787900  0.889600  1.0  0.1249
  H  H190  1  0.657100  0.682500  0.860900  1.0  0.1242
  H  H191  1  0.941700  0.826100  0.964100  1.0  0.1154
  H  H192  1  0.905400  0.834200  0.005700  1.0  0.1307
  H  H193  1  0.909700  0.763100  0.990400  1.0  0.1316
  H  H194  1  0.643800  0.658600  0.974700  1.0  0.1267
  H  H195  1  0.612400  0.699000  0.946300  1.0  0.1313
  H  H196  1  0.602000  0.623600  0.921600  1.0  0.1271
  H  H197  1  0.773400  0.845000  0.103600  1.0  0.1283
  H  H198  1  0.782000  0.662200  0.094000  1.0  0.1292
  H  H199  1  0.732700  0.833300  0.984500  1.0  0.1242
  H  H200  1  0.812900  0.890100  0.011600  1.0  0.1297
  H  H201  1  0.748000  0.881400  0.034600  1.0  0.1397
  H  H202  1  0.761900  0.587900  0.020200  1.0  0.1504
  H  H203  1  0.827900  0.642900  0.002700  1.0  0.1447
  H  H204  1  0.748200  0.611800  0.973300  1.0  0.1441
  C  C205  1  0.709900  0.628500  0.707500  1.0  0.6891
  C  C206  1  0.681200  0.551800  0.687500  1.0  -0.1089
  C  C207  1  0.723800  0.520200  0.694500  1.0  -0.1173
  C  C208  1  0.697600  0.449000  0.672300  1.0  0.0357
  C  C209  1  0.630500  0.409300  0.644000  1.0  -0.014
  C  C210  1  0.585300  0.440100  0.638300  1.0  0.118
  C  C211  1  0.612900  0.512100  0.661000  1.0  -0.0983
  C  C212  1  0.744700  0.415100  0.680100  1.0  -0.4285
  C  C213  1  0.512200  0.396600  0.611400  1.0  -0.3681
  C  C214  1  0.532900  0.123500  0.542800  1.0  0.6869
  C  C215  1  0.555400  0.197800  0.568600  1.0  -0.1366
  C  C216  1  0.588400  0.254000  0.549900  1.0  -0.1643
  C  C217  1  0.615800  0.324400  0.575200  1.0  0.0758
  C  C218  1  0.604000  0.335400  0.617900  1.0  0.0169
  C  C219  1  0.568400  0.277200  0.638600  1.0  0.1228
  C  C220  1  0.546400  0.210800  0.612400  1.0  -0.1079
  C  C221  1  0.646800  0.385200  0.553800  1.0  -0.3868
  C  C222  1  0.556400  0.290000  0.685900  1.0  -0.3973
  C  C223  1  0.815200  0.893800  0.768600  1.0  0.6903
  C  C224  1  0.846000  0.971000  0.790400  1.0  -0.1412
  C  C225  1  0.799500  0.995900  0.801900  1.0  -0.1352
  C  C226  1  0.827300  0.066300  0.825700  1.0  0.0245
  C  C227  1  0.900000  0.110200  0.838900  1.0  -0.0906
  C  C228  1  0.948200  0.087000  0.826400  1.0  0.1184
  C  C229  1  0.918500  0.017300  0.802200  1.0  -0.1103
  C  C230  1  0.775600  0.091800  0.838000  1.0  -0.382
  C  C231  1  0.026800  0.136800  0.839100  1.0  -0.395
  C  C232  1  0.985400  0.387200  0.953400  1.0  0.6624
  C  C233  1  0.968000  0.315600  0.924300  1.0  -0.1361
  C  C234  1  0.960900  0.307100  0.876800  1.0  -0.1065
  C  C235  1  0.940500  0.241100  0.848300  1.0  0.1167
  C  C236  1  0.929000  0.184400  0.869400  1.0  -0.0556
  C  C237  1  0.938200  0.193400  0.916600  1.0  0.0513
  C  C238  1  0.956000  0.258800  0.943700  1.0  -0.0857
  C  C239  1  0.931200  0.233800  0.796000  1.0  -0.3905
  C  C240  1  0.924100  0.130900  0.939300  1.0  -0.3986
  C  C241  1  0.744900  0.762500  0.318800  1.0  0.696
  C  C242  1  0.740000  0.764600  0.368000  1.0  -0.1417
  C  C243  1  0.768100  0.829300  0.399800  1.0  -0.1167
  C  C244  1  0.767600  0.832000  0.445300  1.0  0.0403
  C  C245  1  0.738300  0.768500  0.460900  1.0  -0.0155
  C  C246  1  0.706500  0.704500  0.429500  1.0  0.0642
  C  C247  1  0.706000  0.701800  0.382700  1.0  -0.1356
  C  C248  1  0.800700  0.903500  0.479400  1.0  -0.3663
  C  C249  1  0.668500  0.634300  0.444400  1.0  -0.3867
  C  C250  1  0.757200  0.772800  0.655100  1.0  0.6943
  C  C251  1  0.752900  0.775900  0.604900  1.0  -0.1035
  C  C252  1  0.805600  0.773400  0.585300  1.0  -0.1205
  C  C253  1  0.800200  0.771000  0.537200  1.0  0.0882
  C  C254  1  0.742000  0.771400  0.510900  1.0  -0.0325
  C  C255  1  0.690100  0.774300  0.532200  1.0  0.0404
  C  C256  1  0.696600  0.778000  0.579400  1.0  -0.0992
  C  C257  1  0.856100  0.765700  0.515100  1.0  -0.4006
  C  C258  1  0.627500  0.778500  0.504600  1.0  -0.4031
  C  C259  1  0.371500  0.290100  0.792500  1.0  0.6883
  C  C260  1  0.448200  0.318800  0.812500  1.0  -0.1091
  C  C261  1  0.479800  0.276200  0.805500  1.0  -0.1148
  C  C262  1  0.551000  0.302400  0.827700  1.0  0.0334
  C  C263  1  0.590700  0.369500  0.856000  1.0  -0.0149
  C  C264  1  0.559900  0.414700  0.861700  1.0  0.1183
  C  C265  1  0.487900  0.387100  0.839000  1.0  -0.0971
  C  C266  1  0.584900  0.255300  0.819900  1.0  -0.4258
  C  C267  1  0.603400  0.487800  0.888600  1.0  -0.368
  C  C268  1  0.876500  0.467100  0.957200  1.0  0.6856
  C  C269  1  0.802200  0.444600  0.931400  1.0  -0.134
  C  C270  1  0.746000  0.411600  0.950100  1.0  -0.1632
  C  C271  1  0.675600  0.384200  0.924800  1.0  0.0787
  C  C272  1  0.664600  0.396000  0.882100  1.0  0.0174
  C  C273  1  0.722800  0.431600  0.861400  1.0  0.1191
  C  C274  1  0.789200  0.453600  0.887600  1.0  -0.1106
  C  C275  1  0.614800  0.353200  0.946200  1.0  -0.3897
  C  C276  1  0.710000  0.443600  0.814100  1.0  -0.3964
  C  C277  1  0.106200  0.184800  0.731400  1.0  0.6884
  C  C278  1  0.029000  0.154000  0.709600  1.0  -0.1428
  C  C279  1  0.004100  0.200500  0.698100  1.0  -0.1364
  C  C280  1  0.933700  0.172700  0.674300  1.0  0.0259
  C  C281  1  0.889800  0.100000  0.661100  1.0  -0.0903
  C  C282  1  0.913000  0.051800  0.673600  1.0  0.1186
  C  C283  1  0.982700  0.081500  0.697800  1.0  -0.11
  C  C284  1  0.908200  0.224400  0.662000  1.0  -0.3769
  C  C285  1  0.863200  0.973200  0.660900  1.0  -0.3951
  C  C286  1  0.612800  0.014600  0.546600  1.0  0.6612
  C  C287  1  0.684400  0.032000  0.575700  1.0  -0.1366
  C  C288  1  0.692900  0.039100  0.623200  1.0  -0.105
  C  C289  1  0.758900  0.059500  0.651700  1.0  0.1122
  C  C290  1  0.815600  0.071000  0.630600  1.0  -0.0549
  C  C291  1  0.806600  0.061800  0.583400  1.0  0.052
  C  C292  1  0.741200  0.044000  0.556300  1.0  -0.0818
  C  C293  1  0.766200  0.068800  0.704000  1.0  -0.3953
  C  C294  1  0.869100  0.075900  0.560700  1.0  -0.3973
  C  C295  1  0.237500  0.255100  0.181200  1.0  0.6957
  C  C296  1  0.235400  0.260000  0.132000  1.0  -0.1406
  C  C297  1  0.170700  0.231900  0.100200  1.0  -0.1179
  C  C298  1  0.168000  0.232400  0.054700  1.0  0.0394
  C  C299  1  0.231500  0.261700  0.039100  1.0  -0.0145
  C  C300  1  0.295500  0.293500  0.070500  1.0  0.0647
  C  C301  1  0.298200  0.294000  0.117300  1.0  -0.1325
  C  C302  1  0.096500  0.199300  0.020600  1.0  -0.3668
  C  C303  1  0.365700  0.331500  0.055600  1.0  -0.3889
  C  C304  1  0.227200  0.242800  0.844900  1.0  0.6937
  C  C305  1  0.224100  0.247100  0.895100  1.0  -0.1066
  C  C306  1  0.226600  0.194400  0.914700  1.0  -0.1206
  C  C307  1  0.229000  0.199800  0.962800  1.0  0.0893
  C  C308  1  0.228600  0.258000  0.989100  1.0  -0.0336
  C  C309  1  0.225700  0.309900  0.967800  1.0  0.0396
  C  C310  1  0.222000  0.303400  0.920600  1.0  -0.1021
  C  C311  1  0.234300  0.143900  0.984900  1.0  -0.3993
  C  C312  1  0.221500  0.372500  0.995400  1.0  -0.4022
  C  C313  1  0.290100  0.371500  0.292500  1.0  0.6898
  C  C314  1  0.318800  0.448200  0.312500  1.0  -0.1096
  C  C315  1  0.276200  0.479800  0.305500  1.0  -0.1175
  C  C316  1  0.302400  0.551000  0.327700  1.0  0.0347
  C  C317  1  0.369500  0.590700  0.356000  1.0  -0.0145
  C  C318  1  0.414700  0.559900  0.361700  1.0  0.1162
  C  C319  1  0.387100  0.487900  0.339000  1.0  -0.1005
  C  C320  1  0.255300  0.584900  0.319900  1.0  -0.4264
  C  C321  1  0.487800  0.603400  0.388600  1.0  -0.3672
  C  C322  1  0.467100  0.876500  0.457200  1.0  0.6872
  C  C323  1  0.444600  0.802200  0.431400  1.0  -0.1382
  C  C324  1  0.411600  0.746000  0.450100  1.0  -0.1634
  C  C325  1  0.384200  0.675600  0.424800  1.0  0.0772
  C  C326  1  0.396000  0.664600  0.382100  1.0  0.0171
  C  C327  1  0.431600  0.722800  0.361400  1.0  0.1195
  C  C328  1  0.453600  0.789200  0.387600  1.0  -0.1062
  C  C329  1  0.353200  0.614800  0.446200  1.0  -0.389
  C  C330  1  0.443600  0.710000  0.314100  1.0  -0.3987
  C  C331  1  0.184800  0.106200  0.231400  1.0  0.6904
  C  C332  1  0.154000  0.029000  0.209600  1.0  -0.1403
  C  C333  1  0.200500  0.004100  0.198100  1.0  -0.1357
  C  C334  1  0.172700  0.933700  0.174300  1.0  0.0291
  C  C335  1  0.100000  0.889800  0.161100  1.0  -0.092
  C  C336  1  0.051800  0.913000  0.173600  1.0  0.1169
  C  C337  1  0.081500  0.982700  0.197800  1.0  -0.1112
  C  C338  1  0.224400  0.908200  0.162000  1.0  -0.3832
  C  C339  1  0.973200  0.863200  0.160900  1.0  -0.3944
  C  C340  1  0.014600  0.612800  0.046600  1.0  0.6631
  C  C341  1  0.032000  0.684400  0.075700  1.0  -0.1374
  C  C342  1  0.039100  0.692900  0.123200  1.0  -0.1057
  C  C343  1  0.059500  0.758900  0.151700  1.0  0.1191
  C  C344  1  0.071000  0.815600  0.130600  1.0  -0.0557
  C  C345  1  0.061800  0.806600  0.083400  1.0  0.0521
  C  C346  1  0.044000  0.741200  0.056300  1.0  -0.0836
  C  C347  1  0.068800  0.766200  0.204000  1.0  -0.3933
  C  C348  1  0.075900  0.869100  0.060700  1.0  -0.3978
  C  C349  1  0.255100  0.237500  0.681200  1.0  0.6957
  C  C350  1  0.260000  0.235400  0.632000  1.0  -0.1424
  C  C351  1  0.231900  0.170700  0.600200  1.0  -0.1191
  C  C352  1  0.232400  0.168000  0.554700  1.0  0.0402
  C  C353  1  0.261700  0.231500  0.539100  1.0  -0.0149
  C  C354  1  0.293500  0.295500  0.570500  1.0  0.0633
  C  C355  1  0.294000  0.298200  0.617300  1.0  -0.1342
  C  C356  1  0.199300  0.096500  0.520600  1.0  -0.3689
  C  C357  1  0.331500  0.365700  0.555600  1.0  -0.387
  C  C358  1  0.242800  0.227200  0.344900  1.0  0.6944
  C  C359  1  0.247100  0.224100  0.395100  1.0  -0.1046
  C  C360  1  0.194400  0.226600  0.414700  1.0  -0.1181
  C  C361  1  0.199800  0.229000  0.462800  1.0  0.0862
  C  C362  1  0.258000  0.228600  0.489100  1.0  -0.0334
  C  C363  1  0.309900  0.225700  0.467800  1.0  0.041
  C  C364  1  0.303400  0.222000  0.420600  1.0  -0.1004
  C  C365  1  0.143900  0.234300  0.484900  1.0  -0.3991
  C  C366  1  0.372500  0.221500  0.495400  1.0  -0.4021
  C  C367  1  0.628500  0.709900  0.207500  1.0  0.6881
  C  C368  1  0.551800  0.681200  0.187500  1.0  -0.1089
  C  C369  1  0.520200  0.723800  0.194500  1.0  -0.1168
  C  C370  1  0.449000  0.697600  0.172300  1.0  0.0362
  C  C371  1  0.409300  0.630500  0.144000  1.0  -0.0145
  C  C372  1  0.440100  0.585300  0.138300  1.0  0.1192
  C  C373  1  0.512100  0.612900  0.161000  1.0  -0.099
  C  C374  1  0.415100  0.744700  0.180100  1.0  -0.4244
  C  C375  1  0.396600  0.512200  0.111400  1.0  -0.3687
  C  C376  1  0.123500  0.532900  0.042800  1.0  0.6852
  C  C377  1  0.197800  0.555400  0.068600  1.0  -0.1368
  C  C378  1  0.254000  0.588400  0.049900  1.0  -0.1597
  C  C379  1  0.324400  0.615800  0.075200  1.0  0.0767
  C  C380  1  0.335400  0.604000  0.117900  1.0  0.0163
  C  C381  1  0.277200  0.568400  0.138600  1.0  0.12
  C  C382  1  0.210800  0.546400  0.112400  1.0  -0.1057
  C  C383  1  0.385200  0.646800  0.053800  1.0  -0.3892
  C  C384  1  0.290000  0.556400  0.185900  1.0  -0.397
  C  C385  1  0.893800  0.815200  0.268600  1.0  0.6881
  C  C386  1  0.971000  0.846000  0.290400  1.0  -0.1427
  C  C387  1  0.995900  0.799500  0.301900  1.0  -0.1333
  C  C388  1  0.066300  0.827300  0.325700  1.0  0.025
  C  C389  1  0.110200  0.900000  0.338900  1.0  -0.0896
  C  C390  1  0.087000  0.948200  0.326400  1.0  0.1185
  C  C391  1  0.017300  0.918500  0.302200  1.0  -0.1106
  C  C392  1  0.091800  0.775600  0.338000  1.0  -0.3797
  C  C393  1  0.136800  0.026800  0.339100  1.0  -0.3954
  C  C394  1  0.387200  0.985400  0.453400  1.0  0.6612
  C  C395  1  0.315600  0.968000  0.424300  1.0  -0.1368
  C  C396  1  0.307100  0.960900  0.376800  1.0  -0.1063
  C  C397  1  0.241100  0.940500  0.348300  1.0  0.115
  C  C398  1  0.184400  0.929000  0.369400  1.0  -0.0547
  C  C399  1  0.193400  0.938200  0.416600  1.0  0.0535
  C  C400  1  0.258800  0.956000  0.443700  1.0  -0.086
  C  C401  1  0.233800  0.931200  0.296000  1.0  -0.3935
  C  C402  1  0.130900  0.924100  0.439300  1.0  -0.3958
  C  C403  1  0.762500  0.744900  0.818800  1.0  0.696
  C  C404  1  0.764600  0.740000  0.868000  1.0  -0.1401
  C  C405  1  0.829300  0.768100  0.899800  1.0  -0.1165
  C  C406  1  0.832000  0.767600  0.945300  1.0  0.0404
  C  C407  1  0.768500  0.738300  0.960900  1.0  -0.0155
  C  C408  1  0.704500  0.706500  0.929500  1.0  0.0631
  C  C409  1  0.701800  0.706000  0.882700  1.0  -0.1311
  C  C410  1  0.903500  0.800700  0.979400  1.0  -0.366
  C  C411  1  0.634300  0.668500  0.944400  1.0  -0.3891
  C  C412  1  0.772800  0.757200  0.155100  1.0  0.6934
  C  C413  1  0.775900  0.752900  0.104900  1.0  -0.1049
  C  C414  1  0.773400  0.805600  0.085300  1.0  -0.1195
  C  C415  1  0.771000  0.800200  0.037200  1.0  0.0886
  C  C416  1  0.771400  0.742000  0.010900  1.0  -0.0327
  C  C417  1  0.774300  0.690100  0.032200  1.0  0.0399
  C  C418  1  0.778000  0.696600  0.079400  1.0  -0.1014
  C  C419  1  0.765700  0.856100  0.015100  1.0  -0.3986
  C  C420  1  0.778500  0.627500  0.004600  1.0  -0.4042
  O  O421  1  0.666667  0.652100  0.704300  1.0  -0.5677
  O  O422  1  0.776500  0.666667  0.725700  1.0  -0.5755
  O  O423  1  0.749200  0.854600  0.761500  1.0  -0.5617
  O  O424  1  0.859500  0.873500  0.758900  1.0  -0.5751
  O  O425  1  0.731400  0.704400  0.294100  1.0  -0.5619
  O  O426  1  0.766800  0.820600  0.306700  1.0  -0.5626
  O  O427  1  0.706800  0.773200  0.672100  1.0  -0.5684
  O  O428  1  0.809800  0.770800  0.676700  1.0  -0.5572
  O  O429  1  0.967600  0.384600  0.992400  1.0  -0.5697
  O  O430  1  0.009300  0.439500  0.936000  1.0  -0.5561
  O  O431  1  0.497300  0.072500  0.561300  1.0  -0.5875
  O  O432  1  0.551500  0.116300  0.505500  1.0  -0.5731
  O  O433  1  0.347900  0.333333  0.795700  1.0  -0.5665
  O  O434  1  0.333333  0.223500  0.774300  1.0  -0.578
  O  O435  1  0.145400  0.250800  0.738500  1.0  -0.562
  O  O436  1  0.126500  0.140500  0.741100  1.0  -0.5783
  O  O437  1  0.295600  0.268600  0.205900  1.0  -0.5616
  O  O438  1  0.179400  0.233200  0.193300  1.0  -0.5622
  O  O439  1  0.226800  0.293200  0.827900  1.0  -0.5684
  O  O440  1  0.229200  0.190200  0.823300  1.0  -0.5577
  O  O441  1  0.615400  0.032400  0.507600  1.0  -0.5693
  O  O442  1  0.560500  0.990700  0.564000  1.0  -0.5552
  O  O443  1  0.927500  0.502700  0.938700  1.0  -0.5887
  O  O444  1  0.883700  0.448500  0.994500  1.0  -0.5718
  O  O445  1  0.333333  0.347900  0.295700  1.0  -0.5674
  O  O446  1  0.223500  0.333333  0.274300  1.0  -0.575
  O  O447  1  0.250800  0.145400  0.238500  1.0  -0.5612
  O  O448  1  0.140500  0.126500  0.241100  1.0  -0.577
  O  O449  1  0.268600  0.295600  0.705900  1.0  -0.5611
  O  O450  1  0.233200  0.179400  0.693300  1.0  -0.563
  O  O451  1  0.293200  0.226800  0.327900  1.0  -0.5685
  O  O452  1  0.190200  0.229200  0.323300  1.0  -0.5552
  O  O453  1  0.032400  0.615400  0.007600  1.0  -0.5697
  O  O454  1  0.990700  0.560500  0.064000  1.0  -0.556
  O  O455  1  0.502700  0.927500  0.438700  1.0  -0.5882
  O  O456  1  0.448500  0.883700  0.494500  1.0  -0.5718
  O  O457  1  0.652100  0.666667  0.204300  1.0  -0.569
  O  O458  1  0.666667  0.776500  0.225700  1.0  -0.5771
  O  O459  1  0.854600  0.749200  0.261500  1.0  -0.5636
  O  O460  1  0.873500  0.859500  0.258900  1.0  -0.5784
  O  O461  1  0.704400  0.731400  0.794100  1.0  -0.5615
  O  O462  1  0.820600  0.766800  0.806700  1.0  -0.5622
  O  O463  1  0.773200  0.706800  0.172100  1.0  -0.5707
  O  O464  1  0.770800  0.809800  0.176700  1.0  -0.5567
  O  O465  1  0.384600  0.967600  0.492400  1.0  -0.5695
  O  O466  1  0.439500  0.009300  0.436000  1.0  -0.5556
  O  O467  1  0.072500  0.497300  0.061300  1.0  -0.5889
  O  O468  1  0.116300  0.551500  0.005500  1.0  -0.5718
