# generated using pymatgen
data_Zn4H48C54O13
_symmetry_space_group_name_H-M   'P 1'
_cell_length_a   22.73450000
_cell_length_b   22.73450000
_cell_length_c   25.13540000
_cell_angle_alpha   63.11240000
_cell_angle_beta   63.11240000
_cell_angle_gamma   60.00000000
_symmetry_Int_Tables_number   1
_chemical_formula_structural   Zn4H48C54O13
_chemical_formula_sum   'Zn16 H192 C216 O52'
_cell_volume   9595.00081080
_cell_formula_units_Z   4
loop_
 _symmetry_equiv_pos_site_id
 _symmetry_equiv_pos_as_xyz
  1  'x, y, z'
loop_
 _atom_site_type_symbol
 _atom_site_label
 _atom_site_symmetry_multiplicity
 _atom_site_fract_x
 _atom_site_fract_y
 _atom_site_fract_z
 _atom_site_occupancy
 _atom_site_charge
  Zn  Zn1  1  0.180280  0.027260  0.737140  1.0  1.0984
  Zn  Zn2  1  0.027260  0.055320  0.737140  1.0  1.095
  Zn  Zn3  1  0.055320  0.180280  0.737140  1.0  1.1007
  Zn  Zn4  1  0.680280  0.555320  0.237140  1.0  1.1008
  Zn  Zn5  1  0.527260  0.680280  0.237140  1.0  1.0982
  Zn  Zn6  1  0.555320  0.527260  0.237140  1.0  1.0961
  Zn  Zn7  1  0.048530  0.048530  0.854410  1.0  1.0883
  Zn  Zn8  1  0.548530  0.548530  0.354410  1.0  1.0883
  Zn  Zn9  1  0.319720  0.444680  0.762860  1.0  1.1009
  Zn  Zn10  1  0.472740  0.319720  0.762860  1.0  1.0995
  Zn  Zn11  1  0.444680  0.472740  0.762860  1.0  1.0937
  Zn  Zn12  1  0.819720  0.972740  0.262860  1.0  1.1001
  Zn  Zn13  1  0.972740  0.944680  0.262860  1.0  1.0916
  Zn  Zn14  1  0.944680  0.819720  0.262860  1.0  1.0998
  Zn  Zn15  1  0.451470  0.451470  0.645590  1.0  1.0879
  Zn  Zn16  1  0.951470  0.951470  0.145590  1.0  1.0879
  H  H17  1  0.323100  0.878600  0.849700  1.0  0.1289
  H  H18  1  0.141400  0.882400  0.987700  1.0  0.1046
  H  H19  1  0.437300  0.752800  0.941800  1.0  0.117
  H  H20  1  0.431500  0.832100  0.913000  1.0  0.1185
  H  H21  1  0.435200  0.793600  0.872500  1.0  0.1367
  H  H22  1  0.140400  0.836300  0.095100  1.0  0.1336
  H  H23  1  0.211700  0.796700  0.112500  1.0  0.1308
  H  H24  1  0.185100  0.756300  0.096900  1.0  0.1365
  H  H25  1  0.396100  0.794600  0.125400  1.0  0.1157
  H  H26  1  0.424600  0.605200  0.125700  1.0  0.126
  H  H27  1  0.345000  0.900200  0.003900  1.0  0.1232
  H  H28  1  0.271300  0.900600  0.052800  1.0  0.1275
  H  H29  1  0.328100  0.901600  0.071100  1.0  0.1221
  H  H30  1  0.395400  0.632500  0.009600  1.0  0.1277
  H  H31  1  0.352600  0.603300  0.078300  1.0  0.1378
  H  H32  1  0.313300  0.672600  0.033300  1.0  0.126
  H  H33  1  0.878600  0.948600  0.849700  1.0  0.1301
  H  H34  1  0.882400  0.988500  0.987700  1.0  0.1028
  H  H35  1  0.752800  0.868100  0.941800  1.0  0.1199
  H  H36  1  0.832100  0.823400  0.913000  1.0  0.1178
  H  H37  1  0.793600  0.898700  0.872500  1.0  0.1351
  H  H38  1  0.836300  0.928200  0.095100  1.0  0.1317
  H  H39  1  0.796700  0.879100  0.112500  1.0  0.131
  H  H40  1  0.756300  0.961700  0.096900  1.0  0.1379
  H  H41  1  0.794600  0.683900  0.125400  1.0  0.1153
  H  H42  1  0.605200  0.844500  0.125700  1.0  0.1258
  H  H43  1  0.900200  0.750900  0.003900  1.0  0.1242
  H  H44  1  0.900600  0.775300  0.052800  1.0  0.1242
  H  H45  1  0.901600  0.699200  0.071100  1.0  0.1196
  H  H46  1  0.632500  0.962500  0.009600  1.0  0.1291
  H  H47  1  0.603300  0.965800  0.078300  1.0  0.1368
  H  H48  1  0.672600  0.980800  0.033300  1.0  0.1278
  H  H49  1  0.948600  0.323100  0.849700  1.0  0.13
  H  H50  1  0.988500  0.141400  0.987700  1.0  0.1023
  H  H51  1  0.868100  0.437300  0.941800  1.0  0.1177
  H  H52  1  0.823400  0.431500  0.913000  1.0  0.117
  H  H53  1  0.898700  0.435200  0.872500  1.0  0.1367
  H  H54  1  0.928200  0.140400  0.095100  1.0  0.1318
  H  H55  1  0.879100  0.211700  0.112500  1.0  0.1295
  H  H56  1  0.961700  0.185100  0.096900  1.0  0.1379
  H  H57  1  0.683900  0.396100  0.125400  1.0  0.1136
  H  H58  1  0.844500  0.424600  0.125700  1.0  0.1292
  H  H59  1  0.750900  0.345000  0.003900  1.0  0.1242
  H  H60  1  0.775300  0.271300  0.052800  1.0  0.1271
  H  H61  1  0.699200  0.328100  0.071100  1.0  0.1236
  H  H62  1  0.962500  0.395400  0.009600  1.0  0.1294
  H  H63  1  0.965800  0.352600  0.078300  1.0  0.138
  H  H64  1  0.980800  0.313300  0.033300  1.0  0.1292
  H  H65  1  0.823100  0.448600  0.349700  1.0  0.1293
  H  H66  1  0.641400  0.488500  0.487700  1.0  0.103
  H  H67  1  0.937300  0.368100  0.441800  1.0  0.118
  H  H68  1  0.931500  0.323400  0.413000  1.0  0.1172
  H  H69  1  0.935200  0.398700  0.372500  1.0  0.134
  H  H70  1  0.640400  0.428200  0.595100  1.0  0.1332
  H  H71  1  0.711700  0.379100  0.612500  1.0  0.1308
  H  H72  1  0.685100  0.461700  0.596900  1.0  0.1368
  H  H73  1  0.896100  0.183900  0.625400  1.0  0.1158
  H  H74  1  0.924600  0.344500  0.625700  1.0  0.1287
  H  H75  1  0.845000  0.250900  0.503900  1.0  0.1239
  H  H76  1  0.771300  0.275300  0.552800  1.0  0.1256
  H  H77  1  0.828100  0.199200  0.571100  1.0  0.1188
  H  H78  1  0.895400  0.462500  0.509600  1.0  0.1262
  H  H79  1  0.852600  0.465800  0.578300  1.0  0.1386
  H  H80  1  0.813300  0.480800  0.533300  1.0  0.1271
  H  H81  1  0.378600  0.823100  0.349700  1.0  0.1301
  H  H82  1  0.382400  0.641400  0.487700  1.0  0.1022
  H  H83  1  0.252800  0.937300  0.441800  1.0  0.1166
  H  H84  1  0.332100  0.931500  0.413000  1.0  0.1185
  H  H85  1  0.293600  0.935200  0.372500  1.0  0.1339
  H  H86  1  0.336300  0.640400  0.595100  1.0  0.1311
  H  H87  1  0.296700  0.711700  0.612500  1.0  0.1294
  H  H88  1  0.256300  0.685100  0.596900  1.0  0.1378
  H  H89  1  0.294600  0.896100  0.625400  1.0  0.1158
  H  H90  1  0.105200  0.924600  0.625700  1.0  0.1259
  H  H91  1  0.400200  0.845000  0.503900  1.0  0.1223
  H  H92  1  0.400600  0.771300  0.552800  1.0  0.1263
  H  H93  1  0.401600  0.828100  0.571100  1.0  0.1212
  H  H94  1  0.132500  0.895400  0.509600  1.0  0.1285
  H  H95  1  0.103300  0.852600  0.578300  1.0  0.1361
  H  H96  1  0.172600  0.813300  0.533300  1.0  0.1254
  H  H97  1  0.448600  0.378600  0.349700  1.0  0.1303
  H  H98  1  0.488500  0.382400  0.487700  1.0  0.1028
  H  H99  1  0.368100  0.252800  0.441800  1.0  0.1154
  H  H100  1  0.323400  0.332100  0.413000  1.0  0.1191
  H  H101  1  0.398700  0.293600  0.372500  1.0  0.1357
  H  H102  1  0.428200  0.336300  0.595100  1.0  0.1329
  H  H103  1  0.379100  0.296700  0.612500  1.0  0.1305
  H  H104  1  0.461700  0.256300  0.596900  1.0  0.1366
  H  H105  1  0.183900  0.294600  0.625400  1.0  0.1135
  H  H106  1  0.344500  0.105200  0.625700  1.0  0.1256
  H  H107  1  0.250900  0.400200  0.503900  1.0  0.1261
  H  H108  1  0.275300  0.400600  0.552800  1.0  0.1254
  H  H109  1  0.199200  0.401600  0.571100  1.0  0.1231
  H  H110  1  0.462500  0.132500  0.509600  1.0  0.1283
  H  H111  1  0.465800  0.103300  0.578300  1.0  0.1384
  H  H112  1  0.480800  0.172600  0.533300  1.0  0.1258
  H  H113  1  0.176900  0.551400  0.650300  1.0  0.1284
  H  H114  1  0.358600  0.511500  0.512300  1.0  0.1041
  H  H115  1  0.062700  0.631900  0.558200  1.0  0.1181
  H  H116  1  0.068500  0.676600  0.587000  1.0  0.1172
  H  H117  1  0.064800  0.601300  0.627500  1.0  0.1334
  H  H118  1  0.359600  0.571800  0.404900  1.0  0.1333
  H  H119  1  0.288300  0.620900  0.387500  1.0  0.1318
  H  H120  1  0.314900  0.538300  0.403100  1.0  0.1374
  H  H121  1  0.103900  0.816100  0.374600  1.0  0.1149
  H  H122  1  0.075400  0.655500  0.374300  1.0  0.1276
  H  H123  1  0.155000  0.749100  0.496100  1.0  0.1238
  H  H124  1  0.228700  0.724700  0.447200  1.0  0.126
  H  H125  1  0.171900  0.800800  0.428900  1.0  0.1216
  H  H126  1  0.104600  0.537500  0.490400  1.0  0.1281
  H  H127  1  0.147400  0.534200  0.421700  1.0  0.137
  H  H128  1  0.186700  0.519200  0.466700  1.0  0.1266
  H  H129  1  0.621400  0.176900  0.650300  1.0  0.13
  H  H130  1  0.617600  0.358600  0.512300  1.0  0.1025
  H  H131  1  0.747200  0.062700  0.558200  1.0  0.1175
  H  H132  1  0.667900  0.068500  0.587000  1.0  0.1204
  H  H133  1  0.706400  0.064800  0.627500  1.0  0.1323
  H  H134  1  0.663700  0.359600  0.404900  1.0  0.133
  H  H135  1  0.703300  0.288300  0.387500  1.0  0.1308
  H  H136  1  0.743700  0.314900  0.403100  1.0  0.1389
  H  H137  1  0.705400  0.103900  0.374600  1.0  0.1163
  H  H138  1  0.894800  0.075400  0.374300  1.0  0.1262
  H  H139  1  0.599800  0.155000  0.496100  1.0  0.122
  H  H140  1  0.599400  0.228700  0.447200  1.0  0.1273
  H  H141  1  0.598400  0.171900  0.428900  1.0  0.1217
  H  H142  1  0.867500  0.104600  0.490400  1.0  0.129
  H  H143  1  0.896700  0.147400  0.421700  1.0  0.136
  H  H144  1  0.827400  0.186700  0.466700  1.0  0.1265
  H  H145  1  0.551400  0.621400  0.650300  1.0  0.1287
  H  H146  1  0.511500  0.617600  0.512300  1.0  0.1023
  H  H147  1  0.631900  0.747200  0.558200  1.0  0.117
  H  H148  1  0.676600  0.667900  0.587000  1.0  0.1196
  H  H149  1  0.601300  0.706400  0.627500  1.0  0.1347
  H  H150  1  0.571800  0.663700  0.404900  1.0  0.1313
  H  H151  1  0.620900  0.703300  0.387500  1.0  0.1305
  H  H152  1  0.538300  0.743700  0.403100  1.0  0.1387
  H  H153  1  0.816100  0.705400  0.374600  1.0  0.1148
  H  H154  1  0.655500  0.894800  0.374300  1.0  0.126
  H  H155  1  0.749100  0.599800  0.496100  1.0  0.1245
  H  H156  1  0.724700  0.599400  0.447200  1.0  0.1268
  H  H157  1  0.800800  0.598400  0.428900  1.0  0.123
  H  H158  1  0.537500  0.867500  0.490400  1.0  0.128
  H  H159  1  0.534200  0.896700  0.421700  1.0  0.1381
  H  H160  1  0.519200  0.827400  0.466700  1.0  0.1271
  H  H161  1  0.676900  0.121400  0.150300  1.0  0.1286
  H  H162  1  0.858600  0.117600  0.012300  1.0  0.1039
  H  H163  1  0.562700  0.247200  0.058200  1.0  0.1191
  H  H164  1  0.568500  0.167900  0.087000  1.0  0.1193
  H  H165  1  0.564800  0.206400  0.127500  1.0  0.1365
  H  H166  1  0.859600  0.163700  0.904900  1.0  0.133
  H  H167  1  0.788300  0.203300  0.887500  1.0  0.1309
  H  H168  1  0.814900  0.243700  0.903100  1.0  0.1371
  H  H169  1  0.603900  0.205400  0.874600  1.0  0.1166
  H  H170  1  0.575400  0.394800  0.874300  1.0  0.1261
  H  H171  1  0.655000  0.099800  0.996100  1.0  0.122
  H  H172  1  0.728700  0.099400  0.947200  1.0  0.1269
  H  H173  1  0.671900  0.098400  0.928900  1.0  0.122
  H  H174  1  0.604600  0.367500  0.990400  1.0  0.1308
  H  H175  1  0.647400  0.396700  0.921700  1.0  0.1389
  H  H176  1  0.686700  0.327400  0.966700  1.0  0.1276
  H  H177  1  0.121400  0.051400  0.150300  1.0  0.1289
  H  H178  1  0.117600  0.011500  0.012300  1.0  0.1028
  H  H179  1  0.247200  0.131900  0.058200  1.0  0.1155
  H  H180  1  0.167900  0.176600  0.087000  1.0  0.1189
  H  H181  1  0.206400  0.101300  0.127500  1.0  0.1343
  H  H182  1  0.163700  0.071800  0.904900  1.0  0.1315
  H  H183  1  0.203300  0.120900  0.887500  1.0  0.1325
  H  H184  1  0.243700  0.038300  0.903100  1.0  0.1387
  H  H185  1  0.205400  0.316100  0.874600  1.0  0.1145
  H  H186  1  0.394800  0.155500  0.874300  1.0  0.1261
  H  H187  1  0.099800  0.249100  0.996100  1.0  0.1229
  H  H188  1  0.099400  0.224700  0.947200  1.0  0.1252
  H  H189  1  0.098400  0.300800  0.928900  1.0  0.1211
  H  H190  1  0.367500  0.037500  0.990400  1.0  0.1282
  H  H191  1  0.396700  0.034200  0.921700  1.0  0.1357
  H  H192  1  0.327400  0.019200  0.966700  1.0  0.1282
  H  H193  1  0.051400  0.676900  0.150300  1.0  0.1292
  H  H194  1  0.011500  0.858600  0.012300  1.0  0.1028
  H  H195  1  0.131900  0.562700  0.058200  1.0  0.1177
  H  H196  1  0.176600  0.568500  0.087000  1.0  0.1011
  H  H197  1  0.101300  0.564800  0.127500  1.0  0.1358
  H  H198  1  0.071800  0.859600  0.904900  1.0  0.1345
  H  H199  1  0.120900  0.788300  0.887500  1.0  0.1307
  H  H200  1  0.038300  0.814900  0.903100  1.0  0.137
  H  H201  1  0.316100  0.603900  0.874600  1.0  0.1151
  H  H202  1  0.155500  0.575400  0.874300  1.0  0.1281
  H  H203  1  0.249100  0.655000  0.996100  1.0  0.1241
  H  H204  1  0.224700  0.728700  0.947200  1.0  0.1287
  H  H205  1  0.300800  0.671900  0.928900  1.0  0.1234
  H  H206  1  0.037500  0.604600  0.990400  1.0  0.1283
  H  H207  1  0.034200  0.647400  0.921700  1.0  0.1373
  H  H208  1  0.019200  0.686700  0.966700  1.0  0.129
  C  C209  1  0.184540  0.940740  0.866980  1.0  0.6892
  C  C210  1  0.225450  0.889050  0.912550  1.0  -0.1532
  C  C211  1  0.299200  0.865800  0.892000  1.0  -0.0605
  C  C212  1  0.336650  0.822950  0.935950  1.0  0.0198
  C  C213  1  0.302200  0.802800  0.998200  1.0  -0.0931
  C  C214  1  0.227680  0.823880  0.018960  1.0  0.0567
  C  C215  1  0.190580  0.867480  0.974860  1.0  -0.0535
  C  C216  1  0.417760  0.797960  0.913720  1.0  -0.405
  C  C217  1  0.187600  0.801200  0.087000  1.0  -0.3717
  C  C218  1  0.455700  0.657700  0.181200  1.0  0.6402
  C  C219  1  0.414490  0.695690  0.133830  1.0  -0.1415
  C  C220  1  0.388410  0.768310  0.111270  1.0  -0.0554
  C  C221  1  0.351360  0.802860  0.068820  1.0  0.0473
  C  C222  1  0.341770  0.764770  0.045990  1.0  -0.0621
  C  C223  1  0.369690  0.690290  0.066330  1.0  0.0701
  C  C224  1  0.406330  0.654530  0.111210  1.0  -0.0475
  C  C225  1  0.321210  0.883810  0.047070  1.0  -0.3864
  C  C226  1  0.356570  0.645470  0.044790  1.0  -0.3668
  C  C227  1  0.940740  0.007740  0.866980  1.0  0.6845
  C  C228  1  0.889050  0.972950  0.912550  1.0  -0.1559
  C  C229  1  0.865800  0.943000  0.892000  1.0  -0.0598
  C  C230  1  0.822950  0.904450  0.935950  1.0  0.0142
  C  C231  1  0.802800  0.896800  0.998200  1.0  -0.0925
  C  C232  1  0.823880  0.929480  0.018960  1.0  0.0583
  C  C233  1  0.867480  0.967080  0.974860  1.0  -0.0524
  C  C234  1  0.797960  0.870560  0.913720  1.0  -0.4019
  C  C235  1  0.801200  0.924200  0.087000  1.0  -0.3709
  C  C236  1  0.657700  0.705400  0.181200  1.0  0.6415
  C  C237  1  0.695690  0.755990  0.133830  1.0  -0.1414
  C  C238  1  0.768310  0.732010  0.111270  1.0  -0.0535
  C  C239  1  0.802860  0.776960  0.068820  1.0  0.0468
  C  C240  1  0.764770  0.847470  0.045990  1.0  -0.0643
  C  C241  1  0.690290  0.873690  0.066330  1.0  0.0662
  C  C242  1  0.654530  0.827930  0.111210  1.0  -0.0509
  C  C243  1  0.883810  0.747910  0.047070  1.0  -0.383
  C  C244  1  0.645470  0.953170  0.044790  1.0  -0.3714
  C  C245  1  0.007740  0.184540  0.866980  1.0  0.6881
  C  C246  1  0.972950  0.225450  0.912550  1.0  -0.1559
  C  C247  1  0.943000  0.299200  0.892000  1.0  -0.0639
  C  C248  1  0.904450  0.336650  0.935950  1.0  0.0153
  C  C249  1  0.896800  0.302200  0.998200  1.0  -0.0921
  C  C250  1  0.929480  0.227680  0.018960  1.0  0.0582
  C  C251  1  0.967080  0.190580  0.974860  1.0  -0.0511
  C  C252  1  0.870560  0.417760  0.913720  1.0  -0.4015
  C  C253  1  0.924200  0.187600  0.087000  1.0  -0.3695
  C  C254  1  0.705400  0.455700  0.181200  1.0  0.6385
  C  C255  1  0.755990  0.414490  0.133830  1.0  -0.1407
  C  C256  1  0.732010  0.388410  0.111270  1.0  -0.0536
  C  C257  1  0.776960  0.351360  0.068820  1.0  0.0468
  C  C258  1  0.847470  0.341770  0.045990  1.0  -0.0635
  C  C259  1  0.873690  0.369690  0.066330  1.0  0.0686
  C  C260  1  0.827930  0.406330  0.111210  1.0  -0.0481
  C  C261  1  0.747910  0.321210  0.047070  1.0  -0.383
  C  C262  1  0.953170  0.356570  0.044790  1.0  -0.3679
  C  C263  1  0.684540  0.507740  0.366980  1.0  0.6887
  C  C264  1  0.725450  0.472950  0.412550  1.0  -0.1542
  C  C265  1  0.799200  0.443000  0.392000  1.0  -0.0599
  C  C266  1  0.836650  0.404450  0.435950  1.0  0.0187
  C  C267  1  0.802200  0.396800  0.498200  1.0  -0.0933
  C  C268  1  0.727680  0.429480  0.518960  1.0  0.0575
  C  C269  1  0.690580  0.467080  0.474860  1.0  -0.0535
  C  C270  1  0.917760  0.370560  0.413720  1.0  -0.4044
  C  C271  1  0.687600  0.424200  0.587000  1.0  -0.3709
  C  C272  1  0.955700  0.205400  0.681200  1.0  0.6389
  C  C273  1  0.914490  0.255990  0.633830  1.0  -0.1409
  C  C274  1  0.888410  0.232010  0.611270  1.0  -0.0564
  C  C275  1  0.851360  0.276960  0.568820  1.0  0.0474
  C  C276  1  0.841770  0.347470  0.545990  1.0  -0.0613
  C  C277  1  0.869690  0.373690  0.566330  1.0  0.0664
  C  C278  1  0.906330  0.327930  0.611210  1.0  -0.0487
  C  C279  1  0.821210  0.247910  0.547070  1.0  -0.383
  C  C280  1  0.856570  0.453170  0.544790  1.0  -0.3683
  C  C281  1  0.440740  0.684540  0.366980  1.0  0.6888
  C  C282  1  0.389050  0.725450  0.412550  1.0  -0.1534
  C  C283  1  0.365800  0.799200  0.392000  1.0  -0.0623
  C  C284  1  0.322950  0.836650  0.435950  1.0  0.0158
  C  C285  1  0.302800  0.802200  0.498200  1.0  -0.0927
  C  C286  1  0.323880  0.727680  0.518960  1.0  0.0583
  C  C287  1  0.367480  0.690580  0.474860  1.0  -0.0507
  C  C288  1  0.297960  0.917760  0.413720  1.0  -0.4019
  C  C289  1  0.301200  0.687600  0.587000  1.0  -0.3697
  C  C290  1  0.157700  0.955700  0.681200  1.0  0.64
  C  C291  1  0.195690  0.914490  0.633830  1.0  -0.1409
  C  C292  1  0.268310  0.888410  0.611270  1.0  -0.0527
  C  C293  1  0.302860  0.851360  0.568820  1.0  0.0463
  C  C294  1  0.264770  0.841770  0.545990  1.0  -0.0633
  C  C295  1  0.190290  0.869690  0.566330  1.0  0.0688
  C  C296  1  0.154530  0.906330  0.611210  1.0  -0.0518
  C  C297  1  0.383810  0.821210  0.547070  1.0  -0.3831
  C  C298  1  0.145470  0.856570  0.544790  1.0  -0.3695
  C  C299  1  0.507740  0.440740  0.366980  1.0  0.6855
  C  C300  1  0.472950  0.389050  0.412550  1.0  -0.1564
  C  C301  1  0.443000  0.365800  0.392000  1.0  -0.0612
  C  C302  1  0.404450  0.322950  0.435950  1.0  0.0144
  C  C303  1  0.396800  0.302800  0.498200  1.0  -0.0935
  C  C304  1  0.429480  0.323880  0.518960  1.0  0.0588
  C  C305  1  0.467080  0.367480  0.474860  1.0  -0.0529
  C  C306  1  0.370560  0.297960  0.413720  1.0  -0.402
  C  C307  1  0.424200  0.301200  0.587000  1.0  -0.3711
  C  C308  1  0.205400  0.157700  0.681200  1.0  0.6415
  C  C309  1  0.255990  0.195690  0.633830  1.0  -0.1417
  C  C310  1  0.232010  0.268310  0.611270  1.0  -0.0505
  C  C311  1  0.276960  0.302860  0.568820  1.0  0.0448
  C  C312  1  0.347470  0.264770  0.545990  1.0  -0.0638
  C  C313  1  0.373690  0.190290  0.566330  1.0  0.0689
  C  C314  1  0.327930  0.154530  0.611210  1.0  -0.0468
  C  C315  1  0.247910  0.383810  0.547070  1.0  -0.3856
  C  C316  1  0.453170  0.145470  0.544790  1.0  -0.3662
  C  C317  1  0.315460  0.492260  0.633020  1.0  0.6867
  C  C318  1  0.274550  0.527050  0.587450  1.0  -0.1524
  C  C319  1  0.200800  0.557000  0.608000  1.0  -0.0582
  C  C320  1  0.163350  0.595550  0.564050  1.0  0.0179
  C  C321  1  0.197800  0.603200  0.501800  1.0  -0.0933
  C  C322  1  0.272320  0.570520  0.481040  1.0  0.0566
  C  C323  1  0.309420  0.532920  0.525140  1.0  -0.0549
  C  C324  1  0.082240  0.629440  0.586280  1.0  -0.4036
  C  C325  1  0.312400  0.575800  0.413000  1.0  -0.3724
  C  C326  1  0.044300  0.794600  0.318800  1.0  0.639
  C  C327  1  0.085510  0.744010  0.366170  1.0  -0.1411
  C  C328  1  0.111590  0.767990  0.388730  1.0  -0.0527
  C  C329  1  0.148640  0.723040  0.431180  1.0  0.0486
  C  C330  1  0.158230  0.652530  0.454010  1.0  -0.0625
  C  C331  1  0.130310  0.626310  0.433670  1.0  0.0663
  C  C332  1  0.093670  0.672070  0.388790  1.0  -0.0482
  C  C333  1  0.178790  0.752090  0.452930  1.0  -0.3835
  C  C334  1  0.143430  0.546830  0.455210  1.0  -0.3711
  C  C335  1  0.559260  0.315460  0.633020  1.0  0.6873
  C  C336  1  0.610950  0.274550  0.587450  1.0  -0.151
  C  C337  1  0.634200  0.200800  0.608000  1.0  -0.0633
  C  C338  1  0.677050  0.163350  0.564050  1.0  0.02
  C  C339  1  0.697200  0.197800  0.501800  1.0  -0.0938
  C  C340  1  0.676120  0.272320  0.481040  1.0  0.0576
  C  C341  1  0.632520  0.309420  0.525140  1.0  -0.0524
  C  C342  1  0.702040  0.082240  0.586280  1.0  -0.4022
  C  C343  1  0.698800  0.312400  0.413000  1.0  -0.3709
  C  C344  1  0.842300  0.044300  0.318800  1.0  0.6413
  C  C345  1  0.804310  0.085510  0.366170  1.0  -0.1418
  C  C346  1  0.731690  0.111590  0.388730  1.0  -0.0519
  C  C347  1  0.697140  0.148640  0.431180  1.0  0.0446
  C  C348  1  0.735230  0.158230  0.454010  1.0  -0.0609
  C  C349  1  0.809710  0.130310  0.433670  1.0  0.0656
  C  C350  1  0.845470  0.093670  0.388790  1.0  -0.0535
  C  C351  1  0.616190  0.178790  0.452930  1.0  -0.3838
  C  C352  1  0.854530  0.143430  0.455210  1.0  -0.3675
  C  C353  1  0.492260  0.559260  0.633020  1.0  0.6839
  C  C354  1  0.527050  0.610950  0.587450  1.0  -0.1547
  C  C355  1  0.557000  0.634200  0.608000  1.0  -0.0613
  C  C356  1  0.595550  0.677050  0.564050  1.0  0.0206
  C  C357  1  0.603200  0.697200  0.501800  1.0  -0.0924
  C  C358  1  0.570520  0.676120  0.481040  1.0  0.0574
  C  C359  1  0.532920  0.632520  0.525140  1.0  -0.0529
  C  C360  1  0.629440  0.702040  0.586280  1.0  -0.4038
  C  C361  1  0.575800  0.698800  0.413000  1.0  -0.3734
  C  C362  1  0.794600  0.842300  0.318800  1.0  0.6416
  C  C363  1  0.744010  0.804310  0.366170  1.0  -0.1403
  C  C364  1  0.767990  0.731690  0.388730  1.0  -0.0531
  C  C365  1  0.723040  0.697140  0.431180  1.0  0.0461
  C  C366  1  0.652530  0.735230  0.454010  1.0  -0.0628
  C  C367  1  0.626310  0.809710  0.433670  1.0  0.0687
  C  C368  1  0.672070  0.845470  0.388790  1.0  -0.0487
  C  C369  1  0.752090  0.616190  0.452930  1.0  -0.387
  C  C370  1  0.546830  0.854530  0.455210  1.0  -0.367
  C  C371  1  0.815460  0.059260  0.133020  1.0  0.6883
  C  C372  1  0.774550  0.110950  0.087450  1.0  -0.1512
  C  C373  1  0.700800  0.134200  0.108000  1.0  -0.0572
  C  C374  1  0.663350  0.177050  0.064050  1.0  0.0196
  C  C375  1  0.697800  0.197200  0.001800  1.0  -0.0928
  C  C376  1  0.772320  0.176120  0.981040  1.0  0.0563
  C  C377  1  0.809420  0.132520  0.025140  1.0  -0.0561
  C  C378  1  0.582240  0.202040  0.086280  1.0  -0.4039
  C  C379  1  0.812400  0.198800  0.913000  1.0  -0.3724
  C  C380  1  0.544300  0.342300  0.818800  1.0  0.6411
  C  C381  1  0.585510  0.304310  0.866170  1.0  -0.1414
  C  C382  1  0.611590  0.231690  0.888730  1.0  -0.0527
  C  C383  1  0.648640  0.197140  0.931180  1.0  0.0462
  C  C384  1  0.658230  0.235230  0.954010  1.0  -0.0631
  C  C385  1  0.630310  0.309710  0.933670  1.0  0.0679
  C  C386  1  0.593670  0.345470  0.888790  1.0  -0.0495
  C  C387  1  0.678790  0.116190  0.952930  1.0  -0.3893
  C  C388  1  0.643430  0.354530  0.955210  1.0  -0.3686
  C  C389  1  0.059260  0.992260  0.133020  1.0  0.6818
  C  C390  1  0.110950  0.027050  0.087450  1.0  -0.1559
  C  C391  1  0.134200  0.057000  0.108000  1.0  -0.0611
  C  C392  1  0.177050  0.095550  0.064050  1.0  0.0207
  C  C393  1  0.197200  0.103200  0.001800  1.0  -0.0925
  C  C394  1  0.176120  0.070520  0.981040  1.0  0.0569
  C  C395  1  0.132520  0.032920  0.025140  1.0  -0.0529
  C  C396  1  0.202040  0.129440  0.086280  1.0  -0.4043
  C  C397  1  0.198800  0.075800  0.913000  1.0  -0.3728
  C  C398  1  0.342300  0.294600  0.818800  1.0  0.6414
  C  C399  1  0.304310  0.244010  0.866170  1.0  -0.1405
  C  C400  1  0.231690  0.267990  0.888730  1.0  -0.0541
  C  C401  1  0.197140  0.223040  0.931180  1.0  0.047
  C  C402  1  0.235230  0.152530  0.954010  1.0  -0.0632
  C  C403  1  0.309710  0.126310  0.933670  1.0  0.0662
  C  C404  1  0.345470  0.172070  0.888790  1.0  -0.051
  C  C405  1  0.116190  0.252090  0.952930  1.0  -0.3837
  C  C406  1  0.354530  0.046830  0.955210  1.0  -0.3704
  C  C407  1  0.992260  0.815460  0.133020  1.0  0.6861
  C  C408  1  0.027050  0.774550  0.087450  1.0  -0.1527
  C  C409  1  0.057000  0.700800  0.108000  1.0  -0.0635
  C  C410  1  0.095550  0.663350  0.064050  1.0  0.0192
  C  C411  1  0.103200  0.697800  0.001800  1.0  -0.0935
  C  C412  1  0.070520  0.772320  0.981040  1.0  0.0573
  C  C413  1  0.032920  0.809420  0.025140  1.0  -0.0514
  C  C414  1  0.129440  0.582240  0.086280  1.0  -0.4021
  C  C415  1  0.075800  0.812400  0.913000  1.0  -0.3711
  C  C416  1  0.294600  0.544300  0.818800  1.0  0.6395
  C  C417  1  0.244010  0.585510  0.866170  1.0  -0.1416
  C  C418  1  0.267990  0.611590  0.888730  1.0  -0.0527
  C  C419  1  0.223040  0.648640  0.931180  1.0  0.0473
  C  C420  1  0.152530  0.658230  0.954010  1.0  -0.0607
  C  C421  1  0.126310  0.630310  0.933670  1.0  0.0662
  C  C422  1  0.172070  0.593670  0.888790  1.0  -0.0502
  C  C423  1  0.252090  0.678790  0.952930  1.0  -0.3828
  C  C424  1  0.046830  0.643430  0.955210  1.0  -0.3685
  O  O425  1  0.216950  0.962810  0.810460  1.0  -0.6194
  O  O426  1  0.117110  0.961090  0.889390  1.0  -0.5789
  O  O427  1  0.484310  0.589510  0.194070  1.0  -0.5948
  O  O428  1  0.464570  0.700370  0.195990  1.0  -0.5991
  O  O429  1  0.962810  0.009780  0.810460  1.0  -0.6151
  O  O430  1  0.961090  0.032410  0.889390  1.0  -0.5808
  O  O431  1  0.589510  0.732110  0.194070  1.0  -0.5941
  O  O432  1  0.700370  0.639070  0.195990  1.0  -0.5999
  O  O433  1  0.009780  0.216950  0.810460  1.0  -0.6201
  O  O434  1  0.032410  0.117110  0.889390  1.0  -0.5686
  O  O435  1  0.732110  0.484310  0.194070  1.0  -0.5944
  O  O436  1  0.639070  0.464570  0.195990  1.0  -0.5996
  O  O437  1  0.716950  0.509780  0.310460  1.0  -0.6187
  O  O438  1  0.617110  0.532410  0.389390  1.0  -0.566
  O  O439  1  0.984310  0.232110  0.694070  1.0  -0.5946
  O  O440  1  0.964570  0.139070  0.695990  1.0  -0.6014
  O  O441  1  0.462810  0.716950  0.310460  1.0  -0.6223
  O  O442  1  0.461090  0.617110  0.389390  1.0  -0.5832
  O  O443  1  0.089510  0.984310  0.694070  1.0  -0.5929
  O  O444  1  0.200370  0.964570  0.695990  1.0  -0.5977
  O  O445  1  0.509780  0.462810  0.310460  1.0  -0.6148
  O  O446  1  0.532410  0.461090  0.389390  1.0  -0.581
  O  O447  1  0.232110  0.089510  0.694070  1.0  -0.5953
  O  O448  1  0.139070  0.200370  0.695990  1.0  -0.5985
  O  O449  1  0.078410  0.078410  0.764770  1.0  -1.2133
  O  O450  1  0.578410  0.578410  0.264770  1.0  -1.2133
  O  O451  1  0.283050  0.490220  0.689540  1.0  -0.6186
  O  O452  1  0.382890  0.467590  0.610610  1.0  -0.5647
  O  O453  1  0.015690  0.767890  0.305930  1.0  -0.5941
  O  O454  1  0.035430  0.860930  0.304010  1.0  -0.5994
  O  O455  1  0.537190  0.283050  0.689540  1.0  -0.6203
  O  O456  1  0.538910  0.382890  0.610610  1.0  -0.5826
  O  O457  1  0.910490  0.015690  0.305930  1.0  -0.5927
  O  O458  1  0.799630  0.035430  0.304010  1.0  -0.598
  O  O459  1  0.490220  0.537190  0.689540  1.0  -0.6155
  O  O460  1  0.467590  0.538910  0.610610  1.0  -0.5812
  O  O461  1  0.767890  0.910490  0.305930  1.0  -0.5958
  O  O462  1  0.860930  0.799630  0.304010  1.0  -0.5978
  O  O463  1  0.783050  0.037190  0.189540  1.0  -0.6189
  O  O464  1  0.882890  0.038910  0.110610  1.0  -0.5791
  O  O465  1  0.515690  0.410490  0.805930  1.0  -0.594
  O  O466  1  0.535430  0.299630  0.804010  1.0  -0.5984
  O  O467  1  0.037190  0.990220  0.189540  1.0  -0.6153
  O  O468  1  0.038910  0.967590  0.110610  1.0  -0.581
  O  O469  1  0.410490  0.267890  0.805930  1.0  -0.5927
  O  O470  1  0.299630  0.360930  0.804010  1.0  -0.5991
  O  O471  1  0.990220  0.783050  0.189540  1.0  -0.6195
  O  O472  1  0.967590  0.882890  0.110610  1.0  -0.5677
  O  O473  1  0.267890  0.515690  0.805930  1.0  -0.594
  O  O474  1  0.360930  0.535430  0.804010  1.0  -0.5987
  O  O475  1  0.421590  0.421590  0.735230  1.0  -1.2113
  O  O476  1  0.921590  0.921590  0.235230  1.0  -1.2113
