# generated using pymatgen
data_Zn4H36C53(N2O5)4
_symmetry_space_group_name_H-M   'P 1'
_cell_length_a   17.51760000
_cell_length_b   17.51760000
_cell_length_c   17.51760000
_cell_angle_alpha   95.71880000
_cell_angle_beta   116.75500000
_cell_angle_gamma   116.75500000
_symmetry_Int_Tables_number   1
_chemical_formula_structural   Zn4H36C53(N2O5)4
_chemical_formula_sum   'Zn8 H72 C106 N16 O40'
_cell_volume   3966.14701027
_cell_formula_units_Z   2
loop_
 _symmetry_equiv_pos_site_id
 _symmetry_equiv_pos_as_xyz
  1  'x, y, z'
loop_
 _atom_site_type_symbol
 _atom_site_label
 _atom_site_symmetry_multiplicity
 _atom_site_fract_x
 _atom_site_fract_y
 _atom_site_fract_z
 _atom_site_occupancy
 _atom_site_charge
  Zn  Zn1  1  0.011320  0.450920  0.772380  1.0  0.8521
  Zn  Zn2  1  0.488680  0.261060  0.439600  1.0  0.8523
  Zn  Zn3  1  0.678540  0.227620  0.738940  1.0  0.8535
  Zn  Zn4  1  0.821460  0.560400  0.549080  1.0  0.8526
  Zn  Zn5  1  0.321460  0.772380  0.261060  1.0  0.8523
  Zn  Zn6  1  0.178540  0.439600  0.450920  1.0  0.8528
  Zn  Zn7  1  0.988680  0.549080  0.227620  1.0  0.8512
  Zn  Zn8  1  0.511320  0.738940  0.560400  1.0  0.8534
  H  H9  1  0.873400  0.534100  0.931100  1.0  0.1202
  H  H10  1  0.014200  0.683900  0.024300  1.0  0.1114
  H  H11  1  0.149500  0.741100  0.999000  1.0  0.1159
  H  H12  1  0.188300  0.444600  0.813700  1.0  0.0809
  H  H13  1  0.250000  0.351900  0.844300  1.0  0.1507
  H  H14  1  0.996900  0.176600  0.833700  1.0  0.1572
  H  H15  1  0.945700  0.273600  0.800100  1.0  0.0641
  H  H16  1  0.302300  0.263600  0.910100  1.0  0.068
  H  H17  1  0.235700  0.209800  0.802500  1.0  0.0715
  H  H18  1  0.626600  0.557700  0.660700  1.0  0.1202
  H  H19  1  0.485800  0.510100  0.669700  1.0  0.1131
  H  H20  1  0.350500  0.349500  0.591600  1.0  0.1159
  H  H21  1  0.311700  0.125400  0.256300  1.0  0.0801
  H  H22  1  0.250000  0.094300  0.101900  1.0  0.1521
  H  H23  1  0.503100  0.336800  0.179700  1.0  0.1573
  H  H24  1  0.554300  0.354400  0.327900  1.0  0.0639
  H  H25  1  0.197700  0.107800  0.961300  1.0  0.0699
  H  H26  1  0.264300  0.066800  0.974100  1.0  0.0711
  H  H27  1  0.603000  0.068900  0.442300  1.0  0.1204
  H  H28  1  0.659600  0.975700  0.489900  1.0  0.1132
  H  H29  1  0.742100  0.001000  0.650500  1.0  0.1159
  H  H30  1  0.630900  0.186300  0.874600  1.0  0.0811
  H  H31  1  0.507600  0.155700  0.905700  1.0  0.1537
  H  H32  1  0.342900  0.166300  0.663200  1.0  0.1591
  H  H33  1  0.473500  0.199900  0.645600  1.0  0.0648
  H  H34  1  0.353500  0.089900  0.892200  1.0  0.0691
  H  H35  1  0.407300  0.197500  0.933200  1.0  0.0715
  H  H36  1  0.897000  0.339300  0.465900  1.0  0.121
  H  H37  1  0.840400  0.330300  0.316100  1.0  0.114
  H  H38  1  0.757900  0.408400  0.258900  1.0  0.116
  H  H39  1  0.869100  0.743700  0.555400  1.0  0.0806
  H  H40  1  0.992400  0.898100  0.648100  1.0  0.1523
  H  H41  1  0.157100  0.820300  0.823400  1.0  0.1569
  H  H42  1  0.026500  0.672100  0.726400  1.0  0.0645
  H  H43  1  0.146500  0.038700  0.736400  1.0  0.0704
  H  H44  1  0.092700  0.025900  0.790200  1.0  0.0711
  H  H45  1  0.397000  0.931100  0.557700  1.0  0.1202
  H  H46  1  0.340400  0.024300  0.510100  1.0  0.1129
  H  H47  1  0.257900  0.999000  0.349500  1.0  0.116
  H  H48  1  0.369100  0.813700  0.125400  1.0  0.081
  H  H49  1  0.492400  0.844300  0.094300  1.0  0.1546
  H  H50  1  0.657100  0.833700  0.336800  1.0  0.1591
  H  H51  1  0.526500  0.800100  0.354400  1.0  0.0646
  H  H52  1  0.646500  0.910100  0.107800  1.0  0.0689
  H  H53  1  0.592700  0.802500  0.066800  1.0  0.0719
  H  H54  1  0.103000  0.660700  0.534100  1.0  0.1215
  H  H55  1  0.159600  0.669700  0.683900  1.0  0.1131
  H  H56  1  0.242100  0.591600  0.741100  1.0  0.1162
  H  H57  1  0.130900  0.256300  0.444600  1.0  0.0798
  H  H58  1  0.007600  0.101900  0.351900  1.0  0.1535
  H  H59  1  0.842900  0.179700  0.176600  1.0  0.1574
  H  H60  1  0.973500  0.327900  0.273600  1.0  0.0639
  H  H61  1  0.853500  0.961300  0.263600  1.0  0.0698
  H  H62  1  0.907300  0.974100  0.209800  1.0  0.0711
  H  H63  1  0.126600  0.465900  0.068900  1.0  0.1198
  H  H64  1  0.985800  0.316100  0.975700  1.0  0.1124
  H  H65  1  0.850500  0.258900  0.001000  1.0  0.1163
  H  H66  1  0.811700  0.555400  0.186300  1.0  0.0808
  H  H67  1  0.750000  0.648100  0.155700  1.0  0.1527
  H  H68  1  0.003100  0.823400  0.166300  1.0  0.1571
  H  H69  1  0.054300  0.726400  0.199900  1.0  0.0637
  H  H70  1  0.697700  0.736400  0.089900  1.0  0.0684
  H  H71  1  0.764300  0.790200  0.197500  1.0  0.0712
  H  H72  1  0.373400  0.442300  0.339300  1.0  0.1196
  H  H73  1  0.514200  0.489900  0.330300  1.0  0.1132
  H  H74  1  0.649500  0.650500  0.408400  1.0  0.1156
  H  H75  1  0.688300  0.874600  0.743700  1.0  0.0803
  H  H76  1  0.750000  0.905700  0.898100  1.0  0.1524
  H  H77  1  0.496900  0.663200  0.820300  1.0  0.158
  H  H78  1  0.445700  0.645600  0.672100  1.0  0.0646
  H  H79  1  0.802300  0.892200  0.038700  1.0  0.0694
  H  H80  1  0.735700  0.933200  0.025900  1.0  0.0696
  C  C81  1  0.850800  0.398300  0.811300  1.0  0.62
  C  C82  1  0.932000  0.500100  0.869300  1.0  0.1187
  C  C83  1  0.930600  0.556900  0.927700  1.0  -0.1209
  C  C84  1  0.012000  0.646300  0.980900  1.0  -0.0211
  C  C85  1  0.094000  0.679700  0.966900  1.0  -0.0745
  C  C86  1  0.089200  0.620400  0.906200  1.0  0.092
  C  C87  1  0.169000  0.642800  0.886000  1.0  0.6148
  C  C88  1  0.149400  0.389800  0.818200  1.0  0.2285
  C  C89  1  0.187100  0.334100  0.835600  1.0  -0.3431
  C  C90  1  0.128500  0.252200  0.839500  1.0  0.3508
  C  C91  1  0.037500  0.230400  0.828900  1.0  -0.2935
  C  C92  1  0.009300  0.290600  0.811100  1.0  0.196
  C  C93  1  0.241600  0.206000  0.859600  1.0  0.0663
  C  C94  1  0.649200  0.460500  0.547500  1.0  0.6159
  C  C95  1  0.568000  0.437300  0.568100  1.0  0.1155
  C  C96  1  0.569400  0.497100  0.626300  1.0  -0.1245
  C  C97  1  0.488000  0.468900  0.634300  1.0  -0.0212
  C  C98  1  0.406000  0.372900  0.585700  1.0  -0.0728
  C  C99  1  0.410800  0.317000  0.531200  1.0  0.0936
  C  C100  1  0.331000  0.217000  0.473800  1.0  0.6168
  C  C101  1  0.350600  0.168800  0.240400  1.0  0.2326
  C  C102  1  0.312900  0.148500  0.147000  1.0  -0.3448
  C  C103  1  0.371500  0.211000  0.123700  1.0  0.3516
  C  C104  1  0.462500  0.291400  0.192900  1.0  -0.2911
  C  C105  1  0.490700  0.301800  0.281300  1.0  0.197
  C  C106  1  0.258400  0.118000  0.964400  1.0  0.0653
  C  C107  1  0.587000  0.188700  0.539500  1.0  0.6146
  C  C108  1  0.630800  0.130700  0.562700  1.0  0.1163
  C  C109  1  0.629200  0.072300  0.502900  1.0  -0.1236
  C  C110  1  0.665400  0.019100  0.531100  1.0  -0.0233
  C  C111  1  0.712800  0.033100  0.627100  1.0  -0.0711
  C  C112  1  0.714200  0.093800  0.683000  1.0  0.094
  C  C113  1  0.756800  0.114000  0.783000  1.0  0.619
  C  C114  1  0.571600  0.181800  0.831200  1.0  0.231
  C  C115  1  0.498500  0.164400  0.851500  1.0  -0.3422
  C  C116  1  0.412700  0.160500  0.789000  1.0  0.3506
  C  C117  1  0.401500  0.171100  0.708600  1.0  -0.2908
  C  C118  1  0.479500  0.188900  0.698200  1.0  0.197
  C  C119  1  0.346400  0.140400  0.882000  1.0  0.0681
  C  C120  1  0.913000  0.452500  0.601700  1.0  0.6207
  C  C121  1  0.869200  0.431900  0.499900  1.0  0.1162
  C  C122  1  0.870800  0.373700  0.443100  1.0  -0.1229
  C  C123  1  0.834600  0.365700  0.353700  1.0  -0.02
  C  C124  1  0.787200  0.414300  0.320300  1.0  -0.0722
  C  C125  1  0.785800  0.468800  0.379600  1.0  0.0924
  C  C126  1  0.743200  0.526200  0.357200  1.0  0.6107
  C  C127  1  0.928400  0.759600  0.610200  1.0  0.2293
  C  C128  1  0.001500  0.853000  0.665900  1.0  -0.3437
  C  C129  1  0.087300  0.876300  0.747800  1.0  0.3507
  C  C130  1  0.098500  0.807100  0.769600  1.0  -0.2916
  C  C131  1  0.020500  0.718700  0.709400  1.0  0.1958
  C  C132  1  0.153600  0.035600  0.794000  1.0  0.068
  C  C133  1  0.250000  0.125000  0.875000  1.0  -0.051
  C  C134  1  0.413000  0.811300  0.460500  1.0  0.6138
  C  C135  1  0.369200  0.869300  0.437300  1.0  0.117
  C  C136  1  0.370800  0.927700  0.497100  1.0  -0.1238
  C  C137  1  0.334600  0.980900  0.468900  1.0  -0.023
  C  C138  1  0.287200  0.966900  0.372900  1.0  -0.0711
  C  C139  1  0.285800  0.906200  0.317000  1.0  0.0935
  C  C140  1  0.243200  0.886000  0.217000  1.0  0.6282
  C  C141  1  0.428400  0.818200  0.168800  1.0  0.2306
  C  C142  1  0.501500  0.835600  0.148500  1.0  -0.3435
  C  C143  1  0.587300  0.839500  0.211000  1.0  0.351
  C  C144  1  0.598500  0.828900  0.291400  1.0  -0.2902
  C  C145  1  0.520500  0.811100  0.301800  1.0  0.197
  C  C146  1  0.653600  0.859600  0.118000  1.0  0.067
  C  C147  1  0.087000  0.547500  0.398300  1.0  0.6185
  C  C148  1  0.130800  0.568100  0.500100  1.0  0.1161
  C  C149  1  0.129200  0.626300  0.556900  1.0  -0.1224
  C  C150  1  0.165400  0.634300  0.646300  1.0  -0.0207
  C  C151  1  0.212800  0.585700  0.679700  1.0  -0.0732
  C  C152  1  0.214200  0.531200  0.620400  1.0  0.0928
  C  C153  1  0.256800  0.473800  0.642800  1.0  0.6114
  C  C154  1  0.071600  0.240400  0.389800  1.0  0.2294
  C  C155  1  0.998500  0.147000  0.334100  1.0  -0.3431
  C  C156  1  0.912700  0.123700  0.252200  1.0  0.3507
  C  C157  1  0.901500  0.192900  0.230400  1.0  -0.2913
  C  C158  1  0.979500  0.281300  0.290600  1.0  0.1977
  C  C159  1  0.846400  0.964400  0.206000  1.0  0.0686
  C  C160  1  0.149200  0.601700  0.188700  1.0  0.62
  C  C161  1  0.068000  0.499900  0.130700  1.0  0.1175
  C  C162  1  0.069400  0.443100  0.072300  1.0  -0.1202
  C  C163  1  0.988000  0.353700  0.019100  1.0  -0.0201
  C  C164  1  0.906000  0.320300  0.033100  1.0  -0.0751
  C  C165  1  0.910800  0.379600  0.093800  1.0  0.092
  C  C166  1  0.831000  0.357200  0.114000  1.0  0.613
  C  C167  1  0.850600  0.610200  0.181800  1.0  0.2288
  C  C168  1  0.812900  0.665900  0.164400  1.0  -0.3441
  C  C169  1  0.871500  0.747800  0.160500  1.0  0.3503
  C  C170  1  0.962500  0.769600  0.171100  1.0  -0.2928
  C  C171  1  0.990700  0.709400  0.188900  1.0  0.1949
  C  C172  1  0.758400  0.794000  0.140400  1.0  0.066
  C  C173  1  0.350800  0.539500  0.452500  1.0  0.6154
  C  C174  1  0.432000  0.562700  0.431900  1.0  0.1148
  C  C175  1  0.430600  0.502900  0.373700  1.0  -0.1253
  C  C176  1  0.512000  0.531100  0.365700  1.0  -0.0209
  C  C177  1  0.594000  0.627100  0.414300  1.0  -0.0721
  C  C178  1  0.589200  0.683000  0.468800  1.0  0.0929
  C  C179  1  0.669000  0.783000  0.526200  1.0  0.6133
  C  C180  1  0.649400  0.831200  0.759600  1.0  0.2328
  C  C181  1  0.687100  0.851500  0.853000  1.0  -0.3445
  C  C182  1  0.628500  0.789000  0.876300  1.0  0.352
  C  C183  1  0.537500  0.708600  0.807100  1.0  -0.2909
  C  C184  1  0.509300  0.698200  0.718700  1.0  0.1979
  C  C185  1  0.741600  0.882000  0.035600  1.0  0.0655
  C  C186  1  0.750000  0.875000  0.125000  1.0  -0.0509
  N  N187  1  0.063800  0.370700  0.807900  1.0  -0.3412
  N  N188  1  0.008700  0.532200  0.860100  1.0  -0.3057
  N  N189  1  0.436200  0.244100  0.306900  1.0  -0.3463
  N  N190  1  0.491300  0.351400  0.523500  1.0  -0.3056
  N  N191  1  0.562800  0.192100  0.755900  1.0  -0.3475
  N  N192  1  0.672100  0.139900  0.648600  1.0  -0.3061
  N  N193  1  0.937200  0.693100  0.629300  1.0  -0.3436
  N  N194  1  0.827900  0.476500  0.467800  1.0  -0.3058
  N  N195  1  0.437200  0.807900  0.244100  1.0  -0.3441
  N  N196  1  0.327900  0.860100  0.351400  1.0  -0.3061
  N  N197  1  0.062800  0.306900  0.370700  1.0  -0.3438
  N  N198  1  0.172100  0.523500  0.532200  1.0  -0.3054
  N  N199  1  0.936200  0.629300  0.192100  1.0  -0.3425
  N  N200  1  0.991300  0.467800  0.139900  1.0  -0.3063
  N  N201  1  0.563800  0.755900  0.693100  1.0  -0.3465
  N  N202  1  0.508700  0.648600  0.476500  1.0  -0.3057
  O  O203  1  0.864400  0.358370  0.761770  1.0  -0.5566
  O  O204  1  0.773800  0.361170  0.816770  1.0  -0.5599
  O  O205  1  0.151600  0.578500  0.827900  1.0  -0.5845
  O  O206  1  0.244800  0.725800  0.924600  1.0  -0.6081
  O  O207  1  0.153300  0.190360  0.855060  1.0  -0.2598
  O  O208  1  0.635600  0.397370  0.493970  1.0  -0.5546
  O  O209  1  0.726200  0.542970  0.587370  1.0  -0.5598
  O  O210  1  0.348400  0.176300  0.426900  1.0  -0.5848
  O  O211  1  0.255200  0.179800  0.481000  1.0  -0.6091
  O  O212  1  0.346700  0.201760  0.037060  1.0  -0.2582
  O  O213  1  0.596600  0.238230  0.602630  1.0  -0.554
  O  O214  1  0.544400  0.183230  0.457030  1.0  -0.5614
  O  O215  1  0.750600  0.172100  0.823700  1.0  -0.5829
  O  O216  1  0.801200  0.075400  0.820200  1.0  -0.6085
  O  O217  1  0.335300  0.144940  0.798240  1.0  -0.2563
  O  O218  1  0.903400  0.506030  0.641630  1.0  -0.5553
  O  O219  1  0.955600  0.412630  0.638830  1.0  -0.5611
  O  O220  1  0.749400  0.573100  0.421500  1.0  -0.5839
  O  O221  1  0.698800  0.519000  0.274200  1.0  -0.6135
  O  O222  1  0.164700  0.962940  0.809640  1.0  -0.2601
  O  O223  1  0.403400  0.761770  0.397370  1.0  -0.5545
  O  O224  1  0.455600  0.816770  0.542970  1.0  -0.5599
  O  O225  1  0.249400  0.827900  0.176300  1.0  -0.5824
  O  O226  1  0.198800  0.924600  0.179800  1.0  -0.6144
  O  O227  1  0.664700  0.855060  0.201760  1.0  -0.2589
  O  O228  1  0.096600  0.493970  0.358370  1.0  -0.5551
  O  O229  1  0.044400  0.587370  0.361170  1.0  -0.5603
  O  O230  1  0.250600  0.426900  0.578500  1.0  -0.5838
  O  O231  1  0.301200  0.481000  0.725800  1.0  -0.6157
  O  O232  1  0.835300  0.037060  0.190360  1.0  -0.2591
  O  O233  1  0.135600  0.641630  0.238230  1.0  -0.5549
  O  O234  1  0.226200  0.638830  0.183230  1.0  -0.5597
  O  O235  1  0.848400  0.421500  0.172100  1.0  -0.5834
  O  O236  1  0.755200  0.274200  0.075400  1.0  -0.6109
  O  O237  1  0.846700  0.809640  0.144940  1.0  -0.2596
  O  O238  1  0.364400  0.602630  0.506030  1.0  -0.5547
  O  O239  1  0.273800  0.457030  0.412630  1.0  -0.5614
  O  O240  1  0.651600  0.823700  0.573100  1.0  -0.5845
  O  O241  1  0.744800  0.820200  0.519000  1.0  -0.6148
  O  O242  1  0.653300  0.798240  0.962940  1.0  -0.2584
