# generated using pymatgen
data_Cu5H20C28(N2O)4
_symmetry_space_group_name_H-M   'P 1'
_cell_length_a   13.17200000
_cell_length_b   19.84900000
_cell_length_c   20.91200000
_cell_angle_alpha   90.00000000
_cell_angle_beta   102.06000000
_cell_angle_gamma   90.00000000
_symmetry_Int_Tables_number   1
_chemical_formula_structural   Cu5H20C28(N2O)4
_chemical_formula_sum   'Cu20 H80 C112 N32 O16'
_cell_volume   5346.79335987
_cell_formula_units_Z   4
loop_
 _symmetry_equiv_pos_site_id
 _symmetry_equiv_pos_as_xyz
  1  'x, y, z'
loop_
 _atom_site_type_symbol
 _atom_site_label
 _atom_site_symmetry_multiplicity
 _atom_site_fract_x
 _atom_site_fract_y
 _atom_site_fract_z
 _atom_site_occupancy
 _atom_site_charge
  Cu  Cu1  1  0.068300  0.423400  0.620900  1.0  0.3748
  Cu  Cu2  1  0.119100  0.369300  0.738100  1.0  0.4577
  Cu  Cu3  1  0.999400  0.268500  0.678000  1.0  0.42
  Cu  Cu4  1  0.903400  0.342900  0.577500  1.0  0.6148
  Cu  Cu5  1  0.574700  0.222800  0.800100  1.0  0.6602
  Cu  Cu6  1  0.431700  0.923400  0.879100  1.0  0.3747
  Cu  Cu7  1  0.380900  0.869300  0.761900  1.0  0.4525
  Cu  Cu8  1  0.500600  0.768500  0.822000  1.0  0.418
  Cu  Cu9  1  0.596600  0.842900  0.922500  1.0  0.6145
  Cu  Cu10  1  0.925300  0.722800  0.699900  1.0  0.6609
  Cu  Cu11  1  0.931700  0.576600  0.379100  1.0  0.3761
  Cu  Cu12  1  0.880900  0.630700  0.261900  1.0  0.4518
  Cu  Cu13  1  0.000600  0.731500  0.322000  1.0  0.416
  Cu  Cu14  1  0.096600  0.657100  0.422500  1.0  0.6151
  Cu  Cu15  1  0.425300  0.777200  0.199900  1.0  0.6616
  Cu  Cu16  1  0.568300  0.076600  0.120900  1.0  0.3761
  Cu  Cu17  1  0.619100  0.130700  0.238100  1.0  0.4567
  Cu  Cu18  1  0.499400  0.231500  0.178000  1.0  0.4174
  Cu  Cu19  1  0.403400  0.157100  0.077500  1.0  0.6148
  Cu  Cu20  1  0.074700  0.277200  0.300100  1.0  0.6608
  H  H21  1  0.218700  0.148000  0.510800  1.0  0.0518
  H  H22  1  0.239500  0.111300  0.614500  1.0  0.0678
  H  H23  1  0.410800  0.282900  0.560700  1.0  0.0684
  H  H24  1  0.294700  0.349100  0.484600  1.0  0.0673
  H  H25  1  0.666100  0.522000  0.691700  1.0  0.1245
  H  H26  1  0.604200  0.411600  0.655100  1.0  0.0788
  H  H27  1  0.791400  0.427300  0.857800  1.0  0.109
  H  H28  1  0.921300  0.523100  0.849100  1.0  0.1291
  H  H29  1  0.117500  0.458800  0.497900  1.0  0.0986
  H  H30  1  0.149500  0.408900  0.448500  1.0  0.0828
  H  H31  1  0.061800  0.389800  0.484500  1.0  0.0961
  H  H32  1  0.159400  0.117000  0.714600  1.0  0.0817
  H  H33  1  0.250300  0.168300  0.725100  1.0  0.0928
  H  H34  1  0.141700  0.190600  0.734900  1.0  0.0939
  H  H35  1  0.667700  0.298300  0.646600  1.0  0.1335
  H  H36  1  0.625800  0.325700  0.576600  1.0  0.0708
  H  H37  1  0.732500  0.289500  0.593100  1.0  0.0899
  H  H38  1  0.154300  0.486200  0.818500  1.0  0.0879
  H  H39  1  0.086400  0.517700  0.756100  1.0  0.0963
  H  H40  1  0.075900  0.542900  0.824600  1.0  0.0762
  H  H41  1  0.281300  0.648000  0.989200  1.0  0.052
  H  H42  1  0.260500  0.611300  0.885500  1.0  0.0679
  H  H43  1  0.089200  0.782900  0.939300  1.0  0.0691
  H  H44  1  0.205300  0.849100  0.015400  1.0  0.0676
  H  H45  1  0.833900  0.022000  0.808300  1.0  0.1243
  H  H46  1  0.895800  0.911600  0.844900  1.0  0.0791
  H  H47  1  0.708600  0.927300  0.642200  1.0  0.1095
  H  H48  1  0.578700  0.023100  0.650900  1.0  0.1273
  H  H49  1  0.382500  0.958800  0.002100  1.0  0.0996
  H  H50  1  0.350500  0.908900  0.051500  1.0  0.0843
  H  H51  1  0.438200  0.889800  0.015500  1.0  0.0955
  H  H52  1  0.340600  0.617000  0.785400  1.0  0.0823
  H  H53  1  0.249700  0.668300  0.774900  1.0  0.0971
  H  H54  1  0.358300  0.690600  0.765100  1.0  0.0928
  H  H55  1  0.832300  0.798300  0.853400  1.0  0.1341
  H  H56  1  0.874200  0.825700  0.923400  1.0  0.0718
  H  H57  1  0.767500  0.789500  0.906900  1.0  0.0912
  H  H58  1  0.345700  0.986200  0.681500  1.0  0.0878
  H  H59  1  0.413600  0.017700  0.743900  1.0  0.0962
  H  H60  1  0.424100  0.042900  0.675400  1.0  0.0756
  H  H61  1  0.781300  0.852000  0.489200  1.0  0.0517
  H  H62  1  0.760500  0.888700  0.385500  1.0  0.068
  H  H63  1  0.589200  0.717100  0.439300  1.0  0.0692
  H  H64  1  0.705300  0.650900  0.515400  1.0  0.0676
  H  H65  1  0.333900  0.478000  0.308300  1.0  0.1245
  H  H66  1  0.395800  0.588400  0.344900  1.0  0.0789
  H  H67  1  0.208600  0.572700  0.142200  1.0  0.1096
  H  H68  1  0.078700  0.476900  0.150900  1.0  0.1276
  H  H69  1  0.882500  0.541200  0.502100  1.0  0.0968
  H  H70  1  0.850500  0.591100  0.551500  1.0  0.0843
  H  H71  1  0.938200  0.610200  0.515500  1.0  0.0958
  H  H72  1  0.840600  0.883000  0.285400  1.0  0.0847
  H  H73  1  0.749700  0.831700  0.274900  1.0  0.0967
  H  H74  1  0.858300  0.809400  0.265100  1.0  0.0926
  H  H75  1  0.332300  0.701700  0.353400  1.0  0.1335
  H  H76  1  0.374200  0.674300  0.423400  1.0  0.0719
  H  H77  1  0.267500  0.710500  0.406900  1.0  0.0898
  H  H78  1  0.845700  0.513800  0.181500  1.0  0.087
  H  H79  1  0.913600  0.482300  0.243900  1.0  0.0964
  H  H80  1  0.924100  0.457100  0.175400  1.0  0.0749
  H  H81  1  0.718700  0.352000  0.010800  1.0  0.0519
  H  H82  1  0.739500  0.388700  0.114500  1.0  0.0677
  H  H83  1  0.910800  0.217100  0.060700  1.0  0.0686
  H  H84  1  0.794700  0.150900  0.984600  1.0  0.0672
  H  H85  1  0.166100  0.978000  0.191700  1.0  0.1247
  H  H86  1  0.104200  0.088400  0.155100  1.0  0.079
  H  H87  1  0.291400  0.072700  0.357800  1.0  0.1093
  H  H88  1  0.421300  0.976900  0.349100  1.0  0.1301
  H  H89  1  0.617500  0.041200  0.997900  1.0  0.0962
  H  H90  1  0.649500  0.091100  0.948500  1.0  0.0827
  H  H91  1  0.561800  0.110200  0.984500  1.0  0.0962
  H  H92  1  0.659400  0.383000  0.214600  1.0  0.0827
  H  H93  1  0.750300  0.331700  0.225100  1.0  0.0927
  H  H94  1  0.641700  0.309400  0.234900  1.0  0.0927
  H  H95  1  0.167700  0.201700  0.146600  1.0  0.1326
  H  H96  1  0.125800  0.174300  0.076600  1.0  0.071
  H  H97  1  0.232500  0.210500  0.093100  1.0  0.0889
  H  H98  1  0.654300  0.013800  0.318500  1.0  0.0882
  H  H99  1  0.586400  0.982300  0.256100  1.0  0.0966
  H  H100  1  0.575900  0.957100  0.324600  1.0  0.0754
  C  C101  1  0.250000  0.346000  0.647000  1.0  0.5649
  C  C102  1  0.337000  0.312000  0.632000  1.0  -0.0921
  C  C103  1  0.356000  0.308000  0.572000  1.0  -0.1301
  C  C104  1  0.286000  0.347000  0.528000  1.0  -0.1811
  C  C105  1  0.206000  0.381000  0.544000  1.0  0.2038
  C  C106  1  0.408000  0.272000  0.689000  1.0  0.1189
  C  C107  1  0.126000  0.413000  0.488000  1.0  -0.465
  C  C108  1  0.042000  0.243000  0.552000  1.0  0.5619
  C  C109  1  0.092000  0.209000  0.508000  1.0  -0.0052
  C  C110  1  0.175000  0.165000  0.538000  1.0  -0.0608
  C  C111  1  0.194000  0.148000  0.599000  1.0  -0.1055
  C  C112  1  0.147000  0.183000  0.637000  1.0  0.087
  C  C113  1  0.573000  0.269000  0.943000  1.0  0.3248
  C  C114  1  0.178000  0.163000  0.710000  1.0  -0.4115
  C  C115  1  0.871000  0.458000  0.638000  1.0  0.4785
  C  C116  1  0.817000  0.512000  0.669000  1.0  -0.1062
  C  C117  1  0.709000  0.492000  0.674000  1.0  -0.0944
  C  C118  1  0.672000  0.425000  0.653000  1.0  -0.2478
  C  C119  1  0.737000  0.382000  0.628000  1.0  0.2617
  C  C120  1  0.644000  0.076000  0.816000  1.0  0.314
  C  C121  1  0.686000  0.318000  0.610000  1.0  -0.3329
  C  C122  1  0.932000  0.354000  0.768000  1.0  0.5885
  C  C123  1  0.849000  0.364000  0.797000  1.0  -0.0515
  C  C124  1  0.844000  0.422000  0.833000  1.0  -0.1104
  C  C125  1  0.924000  0.479000  0.832000  1.0  -0.1622
  C  C126  1  0.006000  0.453000  0.801000  1.0  0.2387
  C  C127  1  0.764000  0.318000  0.795000  1.0  0.3406
  C  C128  1  0.088000  0.505000  0.800000  1.0  -0.4347
  C  C129  1  0.250000  0.846000  0.853000  1.0  0.563
  C  C130  1  0.163000  0.812000  0.868000  1.0  -0.0944
  C  C131  1  0.144000  0.808000  0.928000  1.0  -0.1327
  C  C132  1  0.214000  0.847000  0.972000  1.0  -0.18
  C  C133  1  0.294000  0.881000  0.956000  1.0  0.2041
  C  C134  1  0.092000  0.772000  0.811000  1.0  0.1166
  C  C135  1  0.374000  0.913000  0.012000  1.0  -0.465
  C  C136  1  0.458000  0.743000  0.948000  1.0  0.5625
  C  C137  1  0.408000  0.709000  0.992000  1.0  -0.003
  C  C138  1  0.325000  0.665000  0.962000  1.0  -0.0603
  C  C139  1  0.306000  0.648000  0.901000  1.0  -0.1071
  C  C140  1  0.353000  0.683000  0.863000  1.0  0.0871
  C  C141  1  0.927000  0.769000  0.557000  1.0  0.324
  C  C142  1  0.322000  0.663000  0.790000  1.0  -0.4099
  C  C143  1  0.629000  0.958000  0.862000  1.0  0.479
  C  C144  1  0.683000  0.012000  0.831000  1.0  -0.1067
  C  C145  1  0.791000  0.992000  0.826000  1.0  -0.0922
  C  C146  1  0.828000  0.925000  0.847000  1.0  -0.2453
  C  C147  1  0.763000  0.882000  0.872000  1.0  0.26
  C  C148  1  0.856000  0.576000  0.684000  1.0  0.3149
  C  C149  1  0.814000  0.818000  0.890000  1.0  -0.3348
  C  C150  1  0.568000  0.854000  0.732000  1.0  0.5895
  C  C151  1  0.651000  0.864000  0.703000  1.0  -0.0568
  C  C152  1  0.656000  0.922000  0.667000  1.0  -0.1122
  C  C153  1  0.576000  0.979000  0.668000  1.0  -0.1637
  C  C154  1  0.494000  0.953000  0.699000  1.0  0.2402
  C  C155  1  0.736000  0.818000  0.705000  1.0  0.339
  C  C156  1  0.412000  0.005000  0.700000  1.0  -0.4318
  C  C157  1  0.750000  0.654000  0.353000  1.0  0.563
  C  C158  1  0.663000  0.688000  0.368000  1.0  -0.0947
  C  C159  1  0.644000  0.692000  0.428000  1.0  -0.1329
  C  C160  1  0.714000  0.653000  0.472000  1.0  -0.18
  C  C161  1  0.794000  0.619000  0.456000  1.0  0.2031
  C  C162  1  0.592000  0.728000  0.311000  1.0  0.1169
  C  C163  1  0.874000  0.587000  0.512000  1.0  -0.4656
  C  C164  1  0.958000  0.757000  0.448000  1.0  0.5632
  C  C165  1  0.908000  0.791000  0.492000  1.0  -0.0005
  C  C166  1  0.825000  0.835000  0.462000  1.0  -0.0579
  C  C167  1  0.806000  0.852000  0.401000  1.0  -0.1079
  C  C168  1  0.853000  0.817000  0.363000  1.0  0.0874
  C  C169  1  0.427000  0.731000  0.057000  1.0  0.3236
  C  C170  1  0.822000  0.837000  0.290000  1.0  -0.4116
  C  C171  1  0.129000  0.542000  0.362000  1.0  0.4799
  C  C172  1  0.183000  0.488000  0.331000  1.0  -0.1076
  C  C173  1  0.291000  0.508000  0.326000  1.0  -0.0918
  C  C174  1  0.328000  0.575000  0.347000  1.0  -0.2446
  C  C175  1  0.263000  0.618000  0.372000  1.0  0.2602
  C  C176  1  0.356000  0.924000  0.184000  1.0  0.3184
  C  C177  1  0.314000  0.682000  0.390000  1.0  -0.3351
  C  C178  1  0.068000  0.646000  0.232000  1.0  0.5883
  C  C179  1  0.151000  0.636000  0.203000  1.0  -0.0547
  C  C180  1  0.156000  0.578000  0.167000  1.0  -0.1122
  C  C181  1  0.076000  0.521000  0.168000  1.0  -0.163
  C  C182  1  0.994000  0.547000  0.199000  1.0  0.241
  C  C183  1  0.236000  0.682000  0.205000  1.0  0.3391
  C  C184  1  0.912000  0.495000  0.200000  1.0  -0.432
  C  C185  1  0.750000  0.154000  0.147000  1.0  0.5636
  C  C186  1  0.837000  0.188000  0.132000  1.0  -0.0923
  C  C187  1  0.856000  0.192000  0.072000  1.0  -0.1301
  C  C188  1  0.786000  0.153000  0.028000  1.0  -0.1807
  C  C189  1  0.706000  0.119000  0.044000  1.0  0.2034
  C  C190  1  0.908000  0.228000  0.189000  1.0  0.1188
  C  C191  1  0.626000  0.087000  0.988000  1.0  -0.4653
  C  C192  1  0.542000  0.257000  0.052000  1.0  0.5627
  C  C193  1  0.592000  0.291000  0.008000  1.0  -0.0032
  C  C194  1  0.675000  0.335000  0.038000  1.0  -0.0617
  C  C195  1  0.694000  0.352000  0.099000  1.0  -0.1064
  C  C196  1  0.647000  0.317000  0.137000  1.0  0.0875
  C  C197  1  0.073000  0.231000  0.443000  1.0  0.3245
  C  C198  1  0.678000  0.337000  0.210000  1.0  -0.4122
  C  C199  1  0.371000  0.042000  0.138000  1.0  0.4785
  C  C200  1  0.317000  0.988000  0.169000  1.0  -0.108
  C  C201  1  0.209000  0.008000  0.174000  1.0  -0.0944
  C  C202  1  0.172000  0.075000  0.153000  1.0  -0.2473
  C  C203  1  0.237000  0.118000  0.128000  1.0  0.261
  C  C204  1  0.144000  0.424000  0.316000  1.0  0.3174
  C  C205  1  0.186000  0.182000  0.110000  1.0  -0.3321
  C  C206  1  0.432000  0.146000  0.268000  1.0  0.587
  C  C207  1  0.349000  0.136000  0.297000  1.0  -0.0528
  C  C208  1  0.344000  0.078000  0.333000  1.0  -0.1104
  C  C209  1  0.424000  0.021000  0.332000  1.0  -0.1614
  C  C210  1  0.506000  0.047000  0.301000  1.0  0.2386
  C  C211  1  0.264000  0.182000  0.295000  1.0  0.3395
  C  C212  1  0.588000  0.995000  0.300000  1.0  -0.4348
  N  N213  1  0.465000  0.244000  0.734000  1.0  -0.4513
  N  N214  1  0.190000  0.380000  0.602000  1.0  -0.1936
  N  N215  1  0.560000  0.252000  0.893000  1.0  -0.4208
  N  N216  1  0.067000  0.226000  0.615000  1.0  -0.2989
  N  N217  1  0.611000  0.129000  0.804000  1.0  -0.4597
  N  N218  1  0.830000  0.399000  0.619000  1.0  -0.307
  N  N219  1  0.695000  0.284000  0.791000  1.0  -0.5085
  N  N220  1  0.006000  0.397000  0.771000  1.0  -0.1734
  N  N221  1  0.035000  0.744000  0.766000  1.0  -0.4531
  N  N222  1  0.310000  0.880000  0.898000  1.0  -0.1962
  N  N223  1  0.940000  0.752000  0.607000  1.0  -0.4196
  N  N224  1  0.433000  0.726000  0.885000  1.0  -0.2987
  N  N225  1  0.889000  0.629000  0.696000  1.0  -0.4606
  N  N226  1  0.670000  0.899000  0.881000  1.0  -0.3091
  N  N227  1  0.805000  0.784000  0.709000  1.0  -0.5097
  N  N228  1  0.494000  0.897000  0.729000  1.0  -0.1742
  N  N229  1  0.535000  0.756000  0.266000  1.0  -0.4529
  N  N230  1  0.810000  0.620000  0.398000  1.0  -0.1942
  N  N231  1  0.440000  0.748000  0.107000  1.0  -0.4197
  N  N232  1  0.933000  0.774000  0.385000  1.0  -0.2982
  N  N233  1  0.389000  0.871000  0.196000  1.0  -0.4561
  N  N234  1  0.170000  0.601000  0.381000  1.0  -0.3092
  N  N235  1  0.305000  0.716000  0.209000  1.0  -0.5119
  N  N236  1  0.994000  0.603000  0.229000  1.0  -0.1737
  N  N237  1  0.965000  0.256000  0.234000  1.0  -0.4512
  N  N238  1  0.690000  0.120000  0.102000  1.0  -0.1938
  N  N239  1  0.060000  0.248000  0.393000  1.0  -0.4209
  N  N240  1  0.567000  0.274000  0.115000  1.0  -0.298
  N  N241  1  0.111000  0.371000  0.304000  1.0  -0.4579
  N  N242  1  0.330000  0.101000  0.119000  1.0  -0.3059
  N  N243  1  0.195000  0.216000  0.291000  1.0  -0.5106
  N  N244  1  0.506000  0.103000  0.271000  1.0  -0.1743
  O  O245  1  0.234000  0.342000  0.707000  1.0  -0.6396
  O  O246  1  0.972000  0.287000  0.534000  1.0  -0.6524
  O  O247  1  0.961000  0.480000  0.634000  1.0  -0.6427
  O  O248  1  0.923000  0.296000  0.738000  1.0  -0.6618
  O  O249  1  0.266000  0.842000  0.793000  1.0  -0.6403
  O  O250  1  0.528000  0.787000  0.966000  1.0  -0.6495
  O  O251  1  0.539000  0.980000  0.866000  1.0  -0.6438
  O  O252  1  0.577000  0.796000  0.762000  1.0  -0.6606
  O  O253  1  0.766000  0.658000  0.293000  1.0  -0.6399
  O  O254  1  0.028000  0.713000  0.466000  1.0  -0.6495
  O  O255  1  0.039000  0.520000  0.366000  1.0  -0.6438
  O  O256  1  0.077000  0.704000  0.262000  1.0  -0.664
  O  O257  1  0.734000  0.158000  0.207000  1.0  -0.6391
  O  O258  1  0.472000  0.213000  0.034000  1.0  -0.6518
  O  O259  1  0.461000  0.020000  0.134000  1.0  -0.6436
  O  O260  1  0.423000  0.204000  0.238000  1.0  -0.665
