# generated using pymatgen
data_Zn4H18C30S6O13
_symmetry_space_group_name_H-M   'P 1'
_cell_length_a   14.48900000
_cell_length_b   18.11500000
_cell_length_c   22.11300000
_cell_angle_alpha   90.00000000
_cell_angle_beta   90.00000000
_cell_angle_gamma   90.00000000
_symmetry_Int_Tables_number   1
_chemical_formula_structural   Zn4H18C30S6O13
_chemical_formula_sum   'Zn16 H72 C120 S24 O52'
_cell_volume   5803.96008055
_cell_formula_units_Z   4
loop_
 _symmetry_equiv_pos_site_id
 _symmetry_equiv_pos_as_xyz
  1  'x, y, z'
loop_
 _atom_site_type_symbol
 _atom_site_label
 _atom_site_symmetry_multiplicity
 _atom_site_fract_x
 _atom_site_fract_y
 _atom_site_fract_z
 _atom_site_occupancy
 _atom_site_charge
  Zn  Zn1  1  0.492170  0.329990  0.750680  1.0  1.0777
  Zn  Zn2  1  0.655680  0.252830  0.829180  1.0  1.1232
  Zn  Zn3  1  0.640660  0.237100  0.684190  1.0  1.0797
  Zn  Zn4  1  0.495120  0.155430  0.774570  1.0  1.1264
  Zn  Zn5  1  0.507830  0.670010  0.250680  1.0  1.0761
  Zn  Zn6  1  0.344320  0.747170  0.329180  1.0  1.1319
  Zn  Zn7  1  0.359340  0.762900  0.184190  1.0  1.0794
  Zn  Zn8  1  0.504880  0.844570  0.274570  1.0  1.1242
  Zn  Zn9  1  0.007830  0.829990  0.750680  1.0  1.0739
  Zn  Zn10  1  0.844320  0.752830  0.829180  1.0  1.1315
  Zn  Zn11  1  0.859340  0.737100  0.684190  1.0  1.0794
  Zn  Zn12  1  0.004880  0.655430  0.774570  1.0  1.1264
  Zn  Zn13  1  0.992170  0.170010  0.250680  1.0  1.0784
  Zn  Zn14  1  0.155680  0.247170  0.329180  1.0  1.1239
  Zn  Zn15  1  0.140660  0.262900  0.184190  1.0  1.0797
  Zn  Zn16  1  0.995120  0.344570  0.274570  1.0  1.124
  H  H17  1  0.127900  0.151600  0.843400  1.0  0.1096
  H  H18  1  0.214800  0.201900  0.852700  1.0  0.137
  H  H19  1  0.223100  0.128400  0.815600  1.0  0.1303
  H  H20  1  0.581300  0.321200  0.979200  1.0  0.1292
  H  H21  1  0.528000  0.328000  0.040700  1.0  0.1209
  H  H22  1  0.616400  0.375900  0.029200  1.0  0.1303
  H  H23  1  0.530400  0.406100  0.115800  1.0  0.1126
  H  H24  1  0.458300  0.439100  0.161200  1.0  0.14
  H  H25  1  0.554400  0.477500  0.152700  1.0  0.1405
  H  H26  1  0.328100  0.045400  0.965400  1.0  0.1102
  H  H27  1  0.377100  0.059400  0.903300  1.0  0.13
  H  H28  1  0.341800  0.126300  0.941800  1.0  0.1428
  H  H29  1  0.022100  0.154900  0.839200  1.0  0.1074
  H  H30  1  0.930000  0.122700  0.812900  1.0  0.138
  H  H31  1  0.929500  0.198500  0.847200  1.0  0.1347
  H  H32  1  0.300700  0.925400  0.069500  1.0  0.1394
  H  H33  1  0.319700  0.944900  0.001600  1.0  0.1285
  H  H34  1  0.284800  0.006100  0.046100  1.0  0.1206
  H  H35  1  0.872100  0.848400  0.343400  1.0  0.1095
  H  H36  1  0.785200  0.798100  0.352700  1.0  0.1371
  H  H37  1  0.776900  0.871600  0.315600  1.0  0.131
  H  H38  1  0.418700  0.678800  0.479200  1.0  0.13
  H  H39  1  0.472000  0.672000  0.540700  1.0  0.1197
  H  H40  1  0.383600  0.624100  0.529200  1.0  0.1297
  H  H41  1  0.469600  0.593900  0.615800  1.0  0.1139
  H  H42  1  0.541700  0.560900  0.661200  1.0  0.1392
  H  H43  1  0.445600  0.522500  0.652700  1.0  0.1405
  H  H44  1  0.671900  0.954600  0.465400  1.0  0.112
  H  H45  1  0.622900  0.940600  0.403300  1.0  0.13
  H  H46  1  0.658200  0.873700  0.441800  1.0  0.1406
  H  H47  1  0.977900  0.845100  0.339200  1.0  0.1088
  H  H48  1  0.070000  0.877300  0.312900  1.0  0.1394
  H  H49  1  0.070500  0.801500  0.347200  1.0  0.1355
  H  H50  1  0.699300  0.074600  0.569500  1.0  0.1391
  H  H51  1  0.680300  0.055100  0.501600  1.0  0.1282
  H  H52  1  0.715200  0.993900  0.546100  1.0  0.1208
  H  H53  1  0.372100  0.651600  0.843400  1.0  0.1095
  H  H54  1  0.285200  0.701900  0.852700  1.0  0.1374
  H  H55  1  0.276900  0.628400  0.815600  1.0  0.1303
  H  H56  1  0.918700  0.821200  0.979200  1.0  0.1295
  H  H57  1  0.972000  0.828000  0.040700  1.0  0.1198
  H  H58  1  0.883600  0.875900  0.029200  1.0  0.1295
  H  H59  1  0.969600  0.906100  0.115800  1.0  0.1134
  H  H60  1  0.041700  0.939100  0.161200  1.0  0.1392
  H  H61  1  0.945600  0.977500  0.152700  1.0  0.1414
  H  H62  1  0.171900  0.545400  0.965400  1.0  0.1111
  H  H63  1  0.122900  0.559400  0.903300  1.0  0.1301
  H  H64  1  0.158200  0.626300  0.941800  1.0  0.1417
  H  H65  1  0.477900  0.654900  0.839200  1.0  0.108
  H  H66  1  0.570000  0.622700  0.812900  1.0  0.1394
  H  H67  1  0.570500  0.698500  0.847200  1.0  0.1351
  H  H68  1  0.199300  0.425400  0.069500  1.0  0.1397
  H  H69  1  0.180300  0.444900  0.001600  1.0  0.1281
  H  H70  1  0.215200  0.506100  0.046100  1.0  0.1202
  H  H71  1  0.627900  0.348400  0.343400  1.0  0.1097
  H  H72  1  0.714800  0.298100  0.352700  1.0  0.1369
  H  H73  1  0.723100  0.371600  0.315600  1.0  0.1302
  H  H74  1  0.081300  0.178800  0.479200  1.0  0.1298
  H  H75  1  0.028000  0.172000  0.540700  1.0  0.121
  H  H76  1  0.116400  0.124100  0.529200  1.0  0.1299
  H  H77  1  0.030400  0.093900  0.615800  1.0  0.1131
  H  H78  1  0.958300  0.060900  0.661200  1.0  0.1398
  H  H79  1  0.054400  0.022500  0.652700  1.0  0.1404
  H  H80  1  0.828100  0.454600  0.465400  1.0  0.112
  H  H81  1  0.877100  0.440600  0.403300  1.0  0.13
  H  H82  1  0.841800  0.373700  0.441800  1.0  0.1412
  H  H83  1  0.522100  0.345100  0.339200  1.0  0.1078
  H  H84  1  0.430000  0.377300  0.312900  1.0  0.1395
  H  H85  1  0.429500  0.301500  0.347200  1.0  0.1351
  H  H86  1  0.800700  0.574600  0.569500  1.0  0.1392
  H  H87  1  0.819700  0.555100  0.501600  1.0  0.1287
  H  H88  1  0.784800  0.493900  0.546100  1.0  0.1204
  C  C89  1  0.331200  0.254300  0.743000  1.0  0.7036
  C  C90  1  0.227400  0.247500  0.733900  1.0  -0.2965
  C  C91  1  0.161900  0.208400  0.771200  1.0  0.1826
  C  C92  1  0.183700  0.169400  0.825100  1.0  -0.3596
  C  C93  1  0.513000  0.377800  0.869400  1.0  0.7674
  C  C94  1  0.482600  0.421600  0.922800  1.0  -0.292
  C  C95  1  0.504400  0.414000  0.984600  1.0  0.1655
  C  C96  1  0.466400  0.473000  0.020200  1.0  -0.1069
  C  C97  1  0.419200  0.523100  0.984800  1.0  -0.0592
  C  C98  1  0.465900  0.498400  0.082100  1.0  0.1743
  C  C99  1  0.425700  0.564300  0.089000  1.0  -0.2469
  C  C100  1  0.562700  0.354500  0.010700  1.0  -0.3568
  C  C101  1  0.506000  0.450900  0.132600  1.0  -0.3589
  C  C102  1  0.557900  0.164600  0.905900  1.0  0.7209
  C  C103  1  0.535400  0.120400  0.961700  1.0  -0.2882
  C  C104  1  0.458500  0.081600  0.974600  1.0  0.2033
  C  C105  1  0.368500  0.077900  0.943600  1.0  -0.3581
  C  C106  1  0.814100  0.222800  0.730800  1.0  0.7412
  C  C107  1  0.913400  0.230000  0.725600  1.0  -0.3034
  C  C108  1  0.980400  0.204100  0.765900  1.0  0.2073
  C  C109  1  0.072000  0.222300  0.746800  1.0  -0.1009
  C  C110  1  0.069700  0.262900  0.696900  1.0  -0.0429
  C  C111  1  0.964200  0.167100  0.820600  1.0  -0.3695
  C  C112  1  0.466000  0.886400  0.143800  1.0  0.6853
  C  C113  1  0.480300  0.949400  0.102300  1.0  -0.2904
  C  C114  1  0.424300  0.982600  0.058400  1.0  0.1784
  C  C115  1  0.475800  0.037700  0.027800  1.0  -0.1058
  C  C116  1  0.562200  0.046500  0.053200  1.0  -0.0482
  C  C117  1  0.322600  0.962900  0.042400  1.0  -0.3454
  C  C118  1  0.426700  0.616300  0.136100  1.0  0.7165
  C  C119  1  0.668800  0.745700  0.243000  1.0  0.7084
  C  C120  1  0.772600  0.752500  0.233900  1.0  -0.2921
  C  C121  1  0.838100  0.791600  0.271200  1.0  0.182
  C  C122  1  0.816300  0.830600  0.325100  1.0  -0.3586
  C  C123  1  0.487000  0.622200  0.369400  1.0  0.7653
  C  C124  1  0.517400  0.578400  0.422800  1.0  -0.2988
  C  C125  1  0.495600  0.586000  0.484600  1.0  0.166
  C  C126  1  0.533600  0.527000  0.520200  1.0  -0.1069
  C  C127  1  0.580800  0.476900  0.484800  1.0  -0.0597
  C  C128  1  0.534100  0.501600  0.582100  1.0  0.1749
  C  C129  1  0.574300  0.435700  0.589000  1.0  -0.2521
  C  C130  1  0.437300  0.645500  0.510700  1.0  -0.3571
  C  C131  1  0.494000  0.549100  0.632600  1.0  -0.3566
  C  C132  1  0.442100  0.835400  0.405900  1.0  0.7203
  C  C133  1  0.464600  0.879600  0.461700  1.0  -0.2871
  C  C134  1  0.541500  0.918400  0.474600  1.0  0.2014
  C  C135  1  0.631500  0.922100  0.443600  1.0  -0.3581
  C  C136  1  0.185900  0.777200  0.230800  1.0  0.7425
  C  C137  1  0.086600  0.770000  0.225600  1.0  -0.3105
  C  C138  1  0.019600  0.795900  0.265900  1.0  0.2071
  C  C139  1  0.928000  0.777700  0.246800  1.0  -0.1019
  C  C140  1  0.930300  0.737100  0.196900  1.0  -0.0415
  C  C141  1  0.035800  0.832900  0.320600  1.0  -0.3701
  C  C142  1  0.534000  0.113600  0.643800  1.0  0.6859
  C  C143  1  0.519700  0.050600  0.602300  1.0  -0.2916
  C  C144  1  0.575700  0.017400  0.558400  1.0  0.1769
  C  C145  1  0.524200  0.962300  0.527800  1.0  -0.1052
  C  C146  1  0.437800  0.953500  0.553200  1.0  -0.0507
  C  C147  1  0.677400  0.037100  0.542400  1.0  -0.347
  C  C148  1  0.573300  0.383700  0.636100  1.0  0.7118
  C  C149  1  0.168800  0.754300  0.743000  1.0  0.7041
  C  C150  1  0.272600  0.747500  0.733900  1.0  -0.2929
  C  C151  1  0.338100  0.708400  0.771200  1.0  0.1825
  C  C152  1  0.316300  0.669400  0.825100  1.0  -0.359
  C  C153  1  0.987000  0.877800  0.869400  1.0  0.7652
  C  C154  1  0.017400  0.921600  0.922800  1.0  -0.298
  C  C155  1  0.995600  0.914000  0.984600  1.0  0.1662
  C  C156  1  0.033600  0.973000  0.020200  1.0  -0.1065
  C  C157  1  0.080800  0.023100  0.984800  1.0  -0.0598
  C  C158  1  0.034100  0.998400  0.082100  1.0  0.1748
  C  C159  1  0.074300  0.064300  0.089000  1.0  -0.2474
  C  C160  1  0.937300  0.854500  0.010700  1.0  -0.3558
  C  C161  1  0.994000  0.950900  0.132600  1.0  -0.3575
  C  C162  1  0.942100  0.664600  0.905900  1.0  0.7204
  C  C163  1  0.964600  0.620400  0.961700  1.0  -0.2878
  C  C164  1  0.041500  0.581600  0.974600  1.0  0.2012
  C  C165  1  0.131500  0.577900  0.943600  1.0  -0.3578
  C  C166  1  0.685900  0.722800  0.730800  1.0  0.742
  C  C167  1  0.586600  0.730000  0.725600  1.0  -0.3103
  C  C168  1  0.519600  0.704100  0.765900  1.0  0.2075
  C  C169  1  0.428000  0.722300  0.746800  1.0  -0.1009
  C  C170  1  0.430300  0.762900  0.696900  1.0  -0.0427
  C  C171  1  0.535800  0.667100  0.820600  1.0  -0.3701
  C  C172  1  0.034000  0.386400  0.143800  1.0  0.6878
  C  C173  1  0.019700  0.449400  0.102300  1.0  -0.2888
  C  C174  1  0.075700  0.482600  0.058400  1.0  0.1778
  C  C175  1  0.024200  0.537700  0.027800  1.0  -0.1052
  C  C176  1  0.937800  0.546500  0.053200  1.0  -0.0505
  C  C177  1  0.177400  0.462900  0.042400  1.0  -0.3462
  C  C178  1  0.073300  0.116300  0.136100  1.0  0.716
  C  C179  1  0.831200  0.245700  0.243000  1.0  0.7039
  C  C180  1  0.727400  0.252500  0.233900  1.0  -0.2965
  C  C181  1  0.661900  0.291600  0.271200  1.0  0.1822
  C  C182  1  0.683700  0.330600  0.325100  1.0  -0.3593
  C  C183  1  0.013000  0.122200  0.369400  1.0  0.7674
  C  C184  1  0.982600  0.078400  0.422800  1.0  -0.293
  C  C185  1  0.004400  0.086000  0.484600  1.0  0.1653
  C  C186  1  0.966400  0.027000  0.520200  1.0  -0.1071
  C  C187  1  0.919200  0.976900  0.484800  1.0  -0.0591
  C  C188  1  0.965900  0.001600  0.582100  1.0  0.1746
  C  C189  1  0.925700  0.935700  0.589000  1.0  -0.2523
  C  C190  1  0.062700  0.145500  0.510700  1.0  -0.3588
  C  C191  1  0.006000  0.049100  0.632600  1.0  -0.3579
  C  C192  1  0.057900  0.335400  0.405900  1.0  0.7207
  C  C193  1  0.035400  0.379600  0.461700  1.0  -0.2897
  C  C194  1  0.958500  0.418400  0.474600  1.0  0.2034
  C  C195  1  0.868500  0.422100  0.443600  1.0  -0.358
  C  C196  1  0.314100  0.277200  0.230800  1.0  0.7417
  C  C197  1  0.413400  0.270000  0.225600  1.0  -0.3058
  C  C198  1  0.480400  0.295900  0.265900  1.0  0.2069
  C  C199  1  0.572000  0.277700  0.246800  1.0  -0.1031
  C  C200  1  0.569700  0.237100  0.196900  1.0  -0.0422
  C  C201  1  0.464200  0.332900  0.320600  1.0  -0.3692
  C  C202  1  0.966000  0.613600  0.643800  1.0  0.685
  C  C203  1  0.980300  0.550600  0.602300  1.0  -0.2889
  C  C204  1  0.924300  0.517400  0.558400  1.0  0.1773
  C  C205  1  0.975800  0.462300  0.527800  1.0  -0.1057
  C  C206  1  0.062200  0.453500  0.553200  1.0  -0.0482
  C  C207  1  0.822600  0.537100  0.542400  1.0  -0.3465
  C  C208  1  0.926700  0.883700  0.636100  1.0  0.7117
  S  S209  1  0.179700  0.293900  0.671500  1.0  0.0952
  S  S210  1  0.418900  0.501000  0.908200  1.0  0.1099
  S  S211  1  0.382300  0.600600  0.021100  1.0  0.107
  S  S212  1  0.628500  0.108200  0.012300  1.0  0.123
  S  S213  1  0.963400  0.277900  0.664600  1.0  0.1156
  S  S214  1  0.586500  0.988800  0.110500  1.0  0.1447
  S  S215  1  0.820300  0.706100  0.171500  1.0  0.0949
  S  S216  1  0.581100  0.499000  0.408200  1.0  0.1091
  S  S217  1  0.617700  0.399400  0.521100  1.0  0.1058
  S  S218  1  0.371500  0.891800  0.512300  1.0  0.1226
  S  S219  1  0.036600  0.722100  0.164600  1.0  0.1162
  S  S220  1  0.413500  0.011200  0.610500  1.0  0.1452
  S  S221  1  0.320300  0.793900  0.671500  1.0  0.0951
  S  S222  1  0.081100  0.001000  0.908200  1.0  0.1092
  S  S223  1  0.117700  0.100600  0.021100  1.0  0.1062
  S  S224  1  0.871500  0.608200  0.012300  1.0  0.1228
  S  S225  1  0.536600  0.777900  0.664600  1.0  0.1161
  S  S226  1  0.913500  0.488800  0.110500  1.0  0.1451
  S  S227  1  0.679700  0.206100  0.171500  1.0  0.0948
  S  S228  1  0.918900  0.999000  0.408200  1.0  0.1099
  S  S229  1  0.882300  0.899400  0.521100  1.0  0.1062
  S  S230  1  0.128500  0.391800  0.512300  1.0  0.123
  S  S231  1  0.463400  0.222100  0.164600  1.0  0.117
  S  S232  1  0.086500  0.511200  0.610500  1.0  0.1448
  O  O233  1  0.575500  0.247500  0.757800  1.0  -1.212
  O  O234  1  0.369800  0.211200  0.777300  1.0  -0.5956
  O  O235  1  0.369100  0.310200  0.714800  1.0  -0.5987
  O  O236  1  0.471600  0.390300  0.821700  1.0  -0.5977
  O  O237  1  0.576500  0.336500  0.878900  1.0  -0.6227
  O  O238  1  0.639700  0.189200  0.898500  1.0  -0.5884
  O  O239  1  0.494700  0.172600  0.866800  1.0  -0.6052
  O  O240  1  0.776500  0.199400  0.774700  1.0  -0.63
  O  O241  1  0.773500  0.250500  0.683800  1.0  -0.6218
  O  O242  1  0.382600  0.849400  0.136400  1.0  -0.6242
  O  O243  1  0.522900  0.867400  0.180700  1.0  -0.5769
  O  O244  1  0.461800  0.597100  0.189800  1.0  -0.6467
  O  O245  1  0.390200  0.677700  0.127800  1.0  -0.5959
  O  O246  1  0.424500  0.752500  0.257800  1.0  -1.2117
  O  O247  1  0.630200  0.788800  0.277300  1.0  -0.5948
  O  O248  1  0.630900  0.689800  0.214800  1.0  -0.5976
  O  O249  1  0.528400  0.609700  0.321700  1.0  -0.5987
  O  O250  1  0.423500  0.663500  0.378900  1.0  -0.621
  O  O251  1  0.360300  0.810800  0.398500  1.0  -0.5888
  O  O252  1  0.505300  0.827400  0.366800  1.0  -0.605
  O  O253  1  0.223500  0.800600  0.274700  1.0  -0.631
  O  O254  1  0.226500  0.749500  0.183800  1.0  -0.6206
  O  O255  1  0.617400  0.150600  0.636400  1.0  -0.6243
  O  O256  1  0.477100  0.132600  0.680700  1.0  -0.577
  O  O257  1  0.538200  0.402900  0.689800  1.0  -0.646
  O  O258  1  0.609800  0.322300  0.627800  1.0  -0.5945
  O  O259  1  0.924500  0.747500  0.757800  1.0  -1.2117
  O  O260  1  0.130200  0.711200  0.777300  1.0  -0.5953
  O  O261  1  0.130900  0.810200  0.714800  1.0  -0.5981
  O  O262  1  0.028400  0.890300  0.821700  1.0  -0.5977
  O  O263  1  0.923500  0.836500  0.878900  1.0  -0.6208
  O  O264  1  0.860300  0.689200  0.898500  1.0  -0.5881
  O  O265  1  0.005300  0.672600  0.866800  1.0  -0.605
  O  O266  1  0.723500  0.699400  0.774700  1.0  -0.6308
  O  O267  1  0.726500  0.750500  0.683800  1.0  -0.6219
  O  O268  1  0.117400  0.349400  0.136400  1.0  -0.624
  O  O269  1  0.977100  0.367400  0.180700  1.0  -0.5773
  O  O270  1  0.038200  0.097100  0.189800  1.0  -0.6469
  O  O271  1  0.109800  0.177700  0.127800  1.0  -0.5955
  O  O272  1  0.075500  0.252500  0.257800  1.0  -1.212
  O  O273  1  0.869800  0.288800  0.277300  1.0  -0.5952
  O  O274  1  0.869100  0.189800  0.214800  1.0  -0.5973
  O  O275  1  0.971600  0.109700  0.321700  1.0  -0.5984
  O  O276  1  0.076500  0.163500  0.378900  1.0  -0.6238
  O  O277  1  0.139700  0.310800  0.398500  1.0  -0.5885
  O  O278  1  0.994700  0.327400  0.366800  1.0  -0.6046
  O  O279  1  0.276500  0.300600  0.274700  1.0  -0.6301
  O  O280  1  0.273500  0.249500  0.183800  1.0  -0.6204
  O  O281  1  0.882600  0.650600  0.636400  1.0  -0.6246
  O  O282  1  0.022900  0.632600  0.680700  1.0  -0.5757
  O  O283  1  0.961800  0.902900  0.689800  1.0  -0.6459
  O  O284  1  0.890200  0.822300  0.627800  1.0  -0.5954
