# generated using pymatgen
data_MgZnH12(C9O4)2
_symmetry_space_group_name_H-M   'P 1'
_cell_length_a   13.79090000
_cell_length_b   16.28790000
_cell_length_c   22.01700000
_cell_angle_alpha   90.00000000
_cell_angle_beta   90.00000000
_cell_angle_gamma   90.00000000
_symmetry_Int_Tables_number   1
_chemical_formula_structural   MgZnH12(C9O4)2
_chemical_formula_sum   'Mg8 Zn8 H96 C144 O64'
_cell_volume   4945.56422402
_cell_formula_units_Z   8
loop_
 _symmetry_equiv_pos_site_id
 _symmetry_equiv_pos_as_xyz
  1  'x, y, z'
loop_
 _atom_site_type_symbol
 _atom_site_label
 _atom_site_symmetry_multiplicity
 _atom_site_fract_x
 _atom_site_fract_y
 _atom_site_fract_z
 _atom_site_occupancy
 _atom_site_charge
  Mg  Mg1  1  0.222100  0.550910  0.759150  1.0  1.7134
  Mg  Mg2  1  0.722100  0.449090  0.740850  1.0  1.7142
  Mg  Mg3  1  0.777900  0.050910  0.240850  1.0  1.7132
  Mg  Mg4  1  0.277900  0.949090  0.259150  1.0  1.7141
  Mg  Mg5  1  0.777900  0.449090  0.240850  1.0  1.7132
  Mg  Mg6  1  0.277900  0.550910  0.259150  1.0  1.7134
  Mg  Mg7  1  0.222100  0.949090  0.759150  1.0  1.7128
  Mg  Mg8  1  0.722100  0.050910  0.740850  1.0  1.7126
  Zn  Zn9  1  0.979790  0.497910  0.668830  1.0  1.0712
  Zn  Zn10  1  0.479790  0.502090  0.831170  1.0  1.0752
  Zn  Zn11  1  0.020210  0.997910  0.331170  1.0  1.0723
  Zn  Zn12  1  0.520210  0.002090  0.168830  1.0  1.0757
  Zn  Zn13  1  0.020210  0.502090  0.331170  1.0  1.0747
  Zn  Zn14  1  0.520210  0.497910  0.168830  1.0  1.0708
  Zn  Zn15  1  0.979790  0.002090  0.668830  1.0  1.0762
  Zn  Zn16  1  0.479790  0.997910  0.831170  1.0  1.0728
  H  H17  1  0.359220  0.582600  0.617460  1.0  0.1072
  H  H18  1  0.494850  0.664890  0.564380  1.0  0.128
  H  H19  1  0.520940  0.636730  0.484080  1.0  0.1264
  H  H20  1  0.534330  0.558690  0.545280  1.0  0.1308
  H  H21  1  0.392950  0.584440  0.420970  1.0  0.1113
  H  H22  1  0.113820  0.518970  0.501320  1.0  0.1243
  H  H23  1  0.758010  0.616620  0.844830  1.0  0.1054
  H  H24  1  0.666950  0.684070  0.917550  1.0  0.1345
  H  H25  1  0.178610  0.384090  0.859970  1.0  0.1201
  H  H26  1  0.314990  0.283930  0.914980  1.0  0.1349
  H  H27  1  0.859220  0.417400  0.882540  1.0  0.1005
  H  H28  1  0.012470  0.396520  0.921590  1.0  0.1225
  H  H29  1  0.038560  0.424680  0.001890  1.0  0.1188
  H  H30  1  0.999090  0.318480  0.982790  1.0  0.1206
  H  H31  1  0.892950  0.415560  0.079030  1.0  0.1123
  H  H32  1  0.613820  0.481030  0.998680  1.0  0.1246
  H  H33  1  0.258010  0.383380  0.655170  1.0  0.1091
  H  H34  1  0.161800  0.184070  0.585110  1.0  0.1362
  H  H35  1  0.678610  0.615910  0.640030  1.0  0.1087
  H  H36  1  0.758350  0.684020  0.561310  1.0  0.1308
  H  H37  1  0.640780  0.082600  0.382540  1.0  0.1077
  H  H38  1  0.460380  0.059320  0.481200  1.0  0.1216
  H  H39  1  0.497820  0.134500  0.421990  1.0  0.1188
  H  H40  1  0.491680  0.166500  0.503080  1.0  0.1274
  H  H41  1  0.607050  0.084440  0.579030  1.0  0.1182
  H  H42  1  0.886180  0.018970  0.498680  1.0  0.1242
  H  H43  1  0.241990  0.116620  0.155170  1.0  0.1055
  H  H44  1  0.282300  0.280520  0.056250  1.0  0.1166
  H  H45  1  0.821390  0.884090  0.140030  1.0  0.1171
  H  H46  1  0.796160  0.783930  0.038480  1.0  0.127
  H  H47  1  0.140780  0.917400  0.117460  1.0  0.112
  H  H48  1  0.968770  0.894290  0.984480  1.0  0.1327
  H  H49  1  0.974910  0.926280  0.065560  1.0  0.1309
  H  H50  1  0.006200  0.819110  0.043690  1.0  0.1187
  H  H51  1  0.107050  0.915560  0.920970  1.0  0.1124
  H  H52  1  0.386180  0.981030  0.001320  1.0  0.1245
  H  H53  1  0.741990  0.883380  0.344830  1.0  0.1106
  H  H54  1  0.833050  0.684070  0.417550  1.0  0.1344
  H  H55  1  0.321390  0.115910  0.359970  1.0  0.109
  H  H56  1  0.239530  0.184020  0.437800  1.0  0.1306
  H  H57  1  0.640780  0.417400  0.382540  1.0  0.1007
  H  H58  1  0.500910  0.318480  0.482790  1.0  0.1209
  H  H59  1  0.487530  0.396520  0.421590  1.0  0.1224
  H  H60  1  0.461440  0.424680  0.501890  1.0  0.1194
  H  H61  1  0.607050  0.415560  0.579030  1.0  0.1126
  H  H62  1  0.886180  0.481030  0.498680  1.0  0.1247
  H  H63  1  0.241990  0.383380  0.155170  1.0  0.1089
  H  H64  1  0.338200  0.184070  0.085110  1.0  0.1369
  H  H65  1  0.821390  0.615910  0.140030  1.0  0.1085
  H  H66  1  0.741650  0.684020  0.061310  1.0  0.1304
  H  H67  1  0.140780  0.582600  0.117460  1.0  0.1075
  H  H68  1  0.979060  0.636730  0.984080  1.0  0.1265
  H  H69  1  0.005150  0.664890  0.064380  1.0  0.1285
  H  H70  1  0.965670  0.558690  0.045280  1.0  0.1305
  H  H71  1  0.107050  0.584440  0.920970  1.0  0.1116
  H  H72  1  0.386180  0.518970  0.001320  1.0  0.1246
  H  H73  1  0.741990  0.616620  0.344830  1.0  0.1055
  H  H74  1  0.888950  0.780520  0.388690  1.0  0.1423
  H  H75  1  0.321390  0.384090  0.359970  1.0  0.1203
  H  H76  1  0.185010  0.283930  0.414980  1.0  0.1347
  H  H77  1  0.359220  0.917400  0.617460  1.0  0.1114
  H  H78  1  0.525090  0.926280  0.565560  1.0  0.1303
  H  H79  1  0.531230  0.894290  0.484480  1.0  0.1332
  H  H80  1  0.493800  0.819110  0.543690  1.0  0.1185
  H  H81  1  0.392950  0.915560  0.420970  1.0  0.1121
  H  H82  1  0.113820  0.981030  0.501320  1.0  0.1242
  H  H83  1  0.758010  0.883380  0.844830  1.0  0.1108
  H  H84  1  0.611050  0.780520  0.888690  1.0  0.1423
  H  H85  1  0.178610  0.115910  0.859970  1.0  0.1082
  H  H86  1  0.260470  0.184020  0.937800  1.0  0.1308
  H  H87  1  0.859220  0.082600  0.882540  1.0  0.1075
  H  H88  1  0.002180  0.134500  0.921990  1.0  0.1178
  H  H89  1  0.008320  0.166500  0.003080  1.0  0.1279
  H  H90  1  0.039620  0.059320  0.981200  1.0  0.1223
  H  H91  1  0.892950  0.084440  0.079030  1.0  0.1179
  H  H92  1  0.613820  0.018970  0.998680  1.0  0.1242
  H  H93  1  0.258010  0.116620  0.655170  1.0  0.1056
  H  H94  1  0.217700  0.280520  0.556250  1.0  0.1156
  H  H95  1  0.678610  0.884090  0.640030  1.0  0.1172
  H  H96  1  0.703840  0.783930  0.538480  1.0  0.1277
  H  H97  1  0.931360  0.749600  0.711000  1.0  0.1228
  H  H98  1  0.431360  0.250400  0.789000  1.0  0.1243
  H  H99  1  0.068640  0.250400  0.289000  1.0  0.1222
  H  H100  1  0.568640  0.749600  0.211000  1.0  0.1236
  H  H101  1  0.017630  0.249720  0.721120  1.0  0.1179
  H  H102  1  0.517630  0.750280  0.778880  1.0  0.1157
  H  H103  1  0.982370  0.750280  0.278880  1.0  0.1162
  H  H104  1  0.482370  0.249720  0.221120  1.0  0.1177
  H  H105  1  0.715130  0.785410  0.942420  1.0  0.1163
  H  H106  1  0.113630  0.285410  0.609980  1.0  0.1367
  H  H107  1  0.386370  0.285410  0.109980  1.0  0.136
  H  H108  1  0.784870  0.785410  0.442420  1.0  0.1176
  H  H109  1  0.202770  0.282050  0.961960  1.0  0.1309
  H  H110  1  0.816050  0.782050  0.585460  1.0  0.135
  H  H111  1  0.683950  0.782050  0.085460  1.0  0.1348
  H  H112  1  0.297230  0.282050  0.461960  1.0  0.1306
  C  C113  1  0.167900  0.539800  0.619400  1.0  0.7854
  C  C114  1  0.230700  0.550900  0.564150  1.0  -0.1283
  C  C115  1  0.326500  0.574400  0.570300  1.0  -0.1021
  C  C116  1  0.383600  0.588200  0.520400  1.0  0.1092
  C  C117  1  0.490400  0.613800  0.529100  1.0  -0.3848
  C  C118  1  0.345400  0.575400  0.462800  1.0  -0.1214
  C  C119  1  0.248500  0.551400  0.456100  1.0  -0.126
  C  C120  1  0.206600  0.542500  0.393900  1.0  0.7927
  C  C121  1  0.192500  0.539100  0.506810  1.0  -0.0454
  C  C122  1  0.874700  0.597500  0.745550  1.0  0.7555
  C  C123  1  0.845200  0.676100  0.775060  1.0  -0.1099
  C  C124  1  0.783900  0.676900  0.824100  1.0  -0.1172
  C  C125  1  0.072300  0.402700  0.756400  1.0  0.7501
  C  C126  1  0.096700  0.323200  0.787420  1.0  -0.114
  C  C127  1  0.154200  0.323400  0.839200  1.0  -0.1216
  C  C128  1  0.667900  0.460200  0.880600  1.0  0.7819
  C  C129  1  0.730700  0.449100  0.935850  1.0  -0.127
  C  C130  1  0.826500  0.425600  0.929700  1.0  -0.1073
  C  C131  1  0.883600  0.411800  0.979600  1.0  0.1304
  C  C132  1  0.990400  0.386200  0.970900  1.0  -0.3833
  C  C133  1  0.845400  0.424600  0.037200  1.0  -0.128
  C  C134  1  0.748500  0.448600  0.043900  1.0  -0.1289
  C  C135  1  0.706600  0.457500  0.106100  1.0  0.7925
  C  C136  1  0.692500  0.460900  0.993190  1.0  -0.0482
  C  C137  1  0.374700  0.402500  0.754450  1.0  0.7542
  C  C138  1  0.345200  0.323900  0.724940  1.0  -0.1149
  C  C139  1  0.283900  0.323100  0.675900  1.0  -0.1188
  C  C140  1  0.572300  0.597300  0.743600  1.0  0.7477
  C  C141  1  0.596700  0.676800  0.712580  1.0  -0.1117
  C  C142  1  0.654200  0.676600  0.660800  1.0  -0.1317
  C  C143  1  0.832100  0.039800  0.380600  1.0  0.784
  C  C144  1  0.769300  0.050900  0.435850  1.0  -0.1292
  C  C145  1  0.673500  0.074400  0.429700  1.0  -0.1084
  C  C146  1  0.616400  0.088200  0.479600  1.0  0.1075
  C  C147  1  0.509600  0.113800  0.470900  1.0  -0.3851
  C  C148  1  0.654600  0.075400  0.537200  1.0  -0.1182
  C  C149  1  0.751500  0.051400  0.543900  1.0  -0.1241
  C  C150  1  0.793400  0.042500  0.606100  1.0  0.7933
  C  C151  1  0.807500  0.039100  0.493190  1.0  -0.0472
  C  C152  1  0.125300  0.097500  0.254450  1.0  0.7579
  C  C153  1  0.154800  0.176100  0.224940  1.0  -0.1123
  C  C154  1  0.216100  0.176900  0.175900  1.0  -0.119
  C  C155  1  0.927700  0.902700  0.243600  1.0  0.7517
  C  C156  1  0.903300  0.823200  0.212580  1.0  -0.12
  C  C157  1  0.845800  0.823400  0.160800  1.0  -0.127
  C  C158  1  0.332100  0.960200  0.119400  1.0  0.7863
  C  C159  1  0.269300  0.949100  0.064150  1.0  -0.1262
  C  C160  1  0.173500  0.925600  0.070300  1.0  -0.1017
  C  C161  1  0.116400  0.911800  0.020400  1.0  0.1221
  C  C162  1  0.009600  0.886200  0.029100  1.0  -0.3925
  C  C163  1  0.154600  0.924600  0.962800  1.0  -0.1319
  C  C164  1  0.251500  0.948600  0.956100  1.0  -0.1293
  C  C165  1  0.293400  0.957500  0.893900  1.0  0.7922
  C  C166  1  0.307500  0.960900  0.006810  1.0  -0.0492
  C  C167  1  0.625300  0.902500  0.245550  1.0  0.7528
  C  C168  1  0.654800  0.823900  0.275060  1.0  -0.114
  C  C169  1  0.716100  0.823100  0.324100  1.0  -0.1163
  C  C170  1  0.427700  0.097300  0.256400  1.0  0.7534
  C  C171  1  0.403300  0.176800  0.287420  1.0  -0.1208
  C  C172  1  0.345800  0.176600  0.339200  1.0  -0.128
  C  C173  1  0.832100  0.460200  0.380600  1.0  0.7817
  C  C174  1  0.769300  0.449100  0.435850  1.0  -0.1264
  C  C175  1  0.673500  0.425600  0.429700  1.0  -0.1074
  C  C176  1  0.616400  0.411800  0.479600  1.0  0.1314
  C  C177  1  0.509600  0.386200  0.470900  1.0  -0.3833
  C  C178  1  0.654600  0.424600  0.537200  1.0  -0.1278
  C  C179  1  0.751500  0.448600  0.543900  1.0  -0.1302
  C  C180  1  0.793400  0.457500  0.606100  1.0  0.7941
  C  C181  1  0.807500  0.460900  0.493190  1.0  -0.0496
  C  C182  1  0.125300  0.402500  0.254450  1.0  0.756
  C  C183  1  0.154800  0.323900  0.224940  1.0  -0.1142
  C  C184  1  0.216100  0.323100  0.175900  1.0  -0.119
  C  C185  1  0.927700  0.597300  0.243600  1.0  0.7488
  C  C186  1  0.903300  0.676800  0.212580  1.0  -0.1117
  C  C187  1  0.845800  0.676600  0.160800  1.0  -0.1308
  C  C188  1  0.332100  0.539800  0.119400  1.0  0.7852
  C  C189  1  0.269300  0.550900  0.064150  1.0  -0.129
  C  C190  1  0.173500  0.574400  0.070300  1.0  -0.1017
  C  C191  1  0.116400  0.588200  0.020400  1.0  0.1351
  C  C192  1  0.009600  0.613800  0.029100  1.0  -0.3863
  C  C193  1  0.154600  0.575400  0.962800  1.0  -0.1214
  C  C194  1  0.251500  0.551400  0.956100  1.0  -0.1253
  C  C195  1  0.293400  0.542500  0.893900  1.0  0.7932
  C  C196  1  0.307500  0.539100  0.006810  1.0  -0.0466
  C  C197  1  0.625300  0.597500  0.245550  1.0  0.7548
  C  C198  1  0.654800  0.676100  0.275060  1.0  -0.1103
  C  C199  1  0.716100  0.676900  0.324100  1.0  -0.117
  C  C200  1  0.427700  0.402700  0.256400  1.0  0.7485
  C  C201  1  0.403300  0.323200  0.287420  1.0  -0.1147
  C  C202  1  0.345800  0.323400  0.339200  1.0  -0.1198
  C  C203  1  0.167900  0.960200  0.619400  1.0  0.7867
  C  C204  1  0.230700  0.949100  0.564150  1.0  -0.1257
  C  C205  1  0.326500  0.925600  0.570300  1.0  -0.1022
  C  C206  1  0.383600  0.911800  0.520400  1.0  0.1209
  C  C207  1  0.490400  0.886200  0.529100  1.0  -0.3925
  C  C208  1  0.345400  0.924600  0.462800  1.0  -0.1323
  C  C209  1  0.248500  0.948600  0.456100  1.0  -0.1289
  C  C210  1  0.206600  0.957500  0.393900  1.0  0.7915
  C  C211  1  0.192500  0.960900  0.506810  1.0  -0.0476
  C  C212  1  0.874700  0.902500  0.745550  1.0  0.7493
  C  C213  1  0.845200  0.823900  0.775060  1.0  -0.114
  C  C214  1  0.783900  0.823100  0.824100  1.0  -0.1169
  C  C215  1  0.072300  0.097300  0.756400  1.0  0.7532
  C  C216  1  0.096700  0.176800  0.787420  1.0  -0.1205
  C  C217  1  0.154200  0.176600  0.839200  1.0  -0.129
  C  C218  1  0.667900  0.039800  0.880600  1.0  0.7848
  C  C219  1  0.730700  0.050900  0.935850  1.0  -0.1292
  C  C220  1  0.826500  0.074400  0.929700  1.0  -0.1085
  C  C221  1  0.883600  0.088200  0.979600  1.0  0.1049
  C  C222  1  0.990400  0.113800  0.970900  1.0  -0.3861
  C  C223  1  0.845400  0.075400  0.037200  1.0  -0.1184
  C  C224  1  0.748500  0.051400  0.043900  1.0  -0.1238
  C  C225  1  0.706600  0.042500  0.106100  1.0  0.7919
  C  C226  1  0.692500  0.039100  0.993190  1.0  -0.046
  C  C227  1  0.374700  0.097500  0.754450  1.0  0.7588
  C  C228  1  0.345200  0.176100  0.724940  1.0  -0.1127
  C  C229  1  0.283900  0.176900  0.675900  1.0  -0.1183
  C  C230  1  0.572300  0.902700  0.743600  1.0  0.7531
  C  C231  1  0.596700  0.823200  0.712580  1.0  -0.1184
  C  C232  1  0.654200  0.823400  0.660800  1.0  -0.1267
  C  C233  1  0.878100  0.750000  0.750600  1.0  -0.0603
  C  C234  1  0.751500  0.750000  0.850000  1.0  0.1322
  C  C235  1  0.681900  0.750000  0.902900  1.0  -0.3953
  C  C236  1  0.378100  0.250000  0.749400  1.0  -0.0603
  C  C237  1  0.251500  0.250000  0.650000  1.0  0.1408
  C  C238  1  0.181900  0.250000  0.597100  1.0  -0.3897
  C  C239  1  0.121900  0.250000  0.249400  1.0  -0.0628
  C  C240  1  0.248500  0.250000  0.150000  1.0  0.1396
  C  C241  1  0.318100  0.250000  0.097100  1.0  -0.3905
  C  C242  1  0.621900  0.750000  0.250600  1.0  -0.0624
  C  C243  1  0.748500  0.750000  0.350000  1.0  0.1302
  C  C244  1  0.818100  0.750000  0.402900  1.0  -0.3962
  C  C245  1  0.182000  0.250000  0.865700  1.0  0.1404
  C  C246  1  0.244100  0.250000  0.923900  1.0  -0.3931
  C  C247  1  0.067100  0.250000  0.762600  1.0  -0.0529
  C  C248  1  0.682000  0.750000  0.634300  1.0  0.1356
  C  C249  1  0.744100  0.750000  0.576100  1.0  -0.4081
  C  C250  1  0.567100  0.750000  0.737400  1.0  -0.0596
  C  C251  1  0.818000  0.750000  0.134300  1.0  0.1352
  C  C252  1  0.755900  0.750000  0.076100  1.0  -0.4065
  C  C253  1  0.932900  0.750000  0.237400  1.0  -0.06
  C  C254  1  0.318000  0.250000  0.365700  1.0  0.14
  C  C255  1  0.255900  0.250000  0.423900  1.0  -0.3938
  C  C256  1  0.432900  0.250000  0.262600  1.0  -0.0543
  O  O257  1  0.082300  0.514500  0.610410  1.0  -0.6042
  O  O258  1  0.200600  0.557300  0.670120  1.0  -0.8297
  O  O259  1  0.116900  0.525800  0.392260  1.0  -0.6286
  O  O260  1  0.258000  0.552500  0.349460  1.0  -0.8273
  O  O261  1  0.950000  0.599980  0.711730  1.0  -0.6401
  O  O262  1  0.828000  0.533700  0.754370  1.0  -0.7748
  O  O263  1  0.004100  0.400100  0.716780  1.0  -0.6477
  O  O264  1  0.114700  0.466600  0.769440  1.0  -0.7762
  O  O265  1  0.582300  0.485500  0.889590  1.0  -0.6064
  O  O266  1  0.700600  0.442700  0.829880  1.0  -0.8266
  O  O267  1  0.616900  0.474200  0.107740  1.0  -0.6282
  O  O268  1  0.758000  0.447500  0.150540  1.0  -0.8223
  O  O269  1  0.450000  0.400020  0.788270  1.0  -0.6417
  O  O270  1  0.328000  0.466300  0.745630  1.0  -0.7877
  O  O271  1  0.504100  0.599900  0.783220  1.0  -0.6532
  O  O272  1  0.614700  0.533400  0.730560  1.0  -0.776
  O  O273  1  0.917700  0.014500  0.389590  1.0  -0.6039
  O  O274  1  0.799400  0.057300  0.329880  1.0  -0.8285
  O  O275  1  0.883100  0.025800  0.607740  1.0  -0.6278
  O  O276  1  0.742000  0.052500  0.650540  1.0  -0.8265
  O  O277  1  0.050000  0.099980  0.288270  1.0  -0.6361
  O  O278  1  0.172000  0.033700  0.245630  1.0  -0.7768
  O  O279  1  0.995900  0.900100  0.283220  1.0  -0.644
  O  O280  1  0.885300  0.966600  0.230560  1.0  -0.7765
  O  O281  1  0.417700  0.985500  0.110410  1.0  -0.6102
  O  O282  1  0.299400  0.942700  0.170120  1.0  -0.832
  O  O283  1  0.383100  0.974200  0.892260  1.0  -0.6272
  O  O284  1  0.242000  0.947500  0.849460  1.0  -0.8226
  O  O285  1  0.550000  0.900020  0.211730  1.0  -0.6337
  O  O286  1  0.672000  0.966300  0.254370  1.0  -0.7838
  O  O287  1  0.495900  0.099900  0.216780  1.0  -0.6526
  O  O288  1  0.385300  0.033400  0.269440  1.0  -0.7753
  O  O289  1  0.917700  0.485500  0.389590  1.0  -0.6057
  O  O290  1  0.799400  0.442700  0.329880  1.0  -0.8291
  O  O291  1  0.883100  0.474200  0.607740  1.0  -0.628
  O  O292  1  0.742000  0.447500  0.650540  1.0  -0.8223
  O  O293  1  0.050000  0.400020  0.288270  1.0  -0.6424
  O  O294  1  0.172000  0.466300  0.245630  1.0  -0.7852
  O  O295  1  0.995900  0.599900  0.283220  1.0  -0.6521
  O  O296  1  0.885300  0.533400  0.230560  1.0  -0.7755
  O  O297  1  0.417700  0.514500  0.110410  1.0  -0.604
  O  O298  1  0.299400  0.557300  0.170120  1.0  -0.832
  O  O299  1  0.383100  0.525800  0.892260  1.0  -0.6281
  O  O300  1  0.242000  0.552500  0.849460  1.0  -0.8264
  O  O301  1  0.550000  0.599980  0.211730  1.0  -0.64
  O  O302  1  0.672000  0.533700  0.254370  1.0  -0.7731
  O  O303  1  0.495900  0.400100  0.216780  1.0  -0.6442
  O  O304  1  0.385300  0.466600  0.269440  1.0  -0.7755
  O  O305  1  0.082300  0.985500  0.610410  1.0  -0.6109
  O  O306  1  0.200600  0.942700  0.670120  1.0  -0.8302
  O  O307  1  0.116900  0.974200  0.392260  1.0  -0.6277
  O  O308  1  0.258000  0.947500  0.349460  1.0  -0.823
  O  O309  1  0.950000  0.900020  0.711730  1.0  -0.6332
  O  O310  1  0.828000  0.966300  0.754370  1.0  -0.7863
  O  O311  1  0.004100  0.099900  0.716780  1.0  -0.6535
  O  O312  1  0.114700  0.033400  0.769440  1.0  -0.7757
  O  O313  1  0.582300  0.014500  0.889590  1.0  -0.6039
  O  O314  1  0.700600  0.057300  0.829880  1.0  -0.8256
  O  O315  1  0.616900  0.025800  0.107740  1.0  -0.6283
  O  O316  1  0.758000  0.052500  0.150540  1.0  -0.8271
  O  O317  1  0.450000  0.099980  0.788270  1.0  -0.6371
  O  O318  1  0.328000  0.033700  0.745630  1.0  -0.7785
  O  O319  1  0.504100  0.900100  0.783220  1.0  -0.646
  O  O320  1  0.614700  0.966600  0.730560  1.0  -0.7772
