# generated using pymatgen
data_Cu2C3(SN)3
_symmetry_space_group_name_H-M   'P 1'
_cell_length_a   5.78430000
_cell_length_b   30.25120000
_cell_length_c   7.54700000
_cell_angle_alpha   90.00000000
_cell_angle_beta   112.53000000
_cell_angle_gamma   90.00000000
_symmetry_Int_Tables_number   1
_chemical_formula_structural   Cu2C3(SN)3
_chemical_formula_sum   'Cu8 C12 S12 N12'
_cell_volume   1219.80062581
_cell_formula_units_Z   4
loop_
 _symmetry_equiv_pos_site_id
 _symmetry_equiv_pos_as_xyz
  1  'x, y, z'
loop_
 _atom_site_type_symbol
 _atom_site_label
 _atom_site_symmetry_multiplicity
 _atom_site_fract_x
 _atom_site_fract_y
 _atom_site_fract_z
 _atom_site_occupancy
 _atom_site_charge
  Cu  Cu1  1  0.078800  0.459980  0.923190  1.0  0.4575
  Cu  Cu2  1  0.675760  0.287100  0.986150  1.0  0.2823
  Cu  Cu3  1  0.921200  0.959980  0.576810  1.0  0.4587
  Cu  Cu4  1  0.324240  0.787100  0.513850  1.0  0.2822
  Cu  Cu5  1  0.921200  0.540020  0.076810  1.0  0.4592
  Cu  Cu6  1  0.324240  0.712900  0.013850  1.0  0.2823
  Cu  Cu7  1  0.078800  0.040020  0.423190  1.0  0.4586
  Cu  Cu8  1  0.675760  0.212900  0.486150  1.0  0.2825
  C  C9  1  0.477500  0.488500  0.779100  1.0  0.3109
  C  C10  1  0.231500  0.264400  0.105500  1.0  0.3351
  C  C11  1  0.725000  0.387700  0.939800  1.0  0.3365
  C  C12  1  0.522500  0.988500  0.720900  1.0  0.31
  C  C13  1  0.768500  0.764400  0.394500  1.0  0.3354
  C  C14  1  0.275000  0.887700  0.560200  1.0  0.3364
  C  C15  1  0.522500  0.511500  0.220900  1.0  0.31
  C  C16  1  0.768500  0.735600  0.894500  1.0  0.3353
  C  C17  1  0.275000  0.612300  0.060200  1.0  0.3361
  C  C18  1  0.477500  0.011500  0.279100  1.0  0.3108
  C  C19  1  0.231500  0.235600  0.605500  1.0  0.3353
  C  C20  1  0.725000  0.112300  0.439800  1.0  0.3364
  S  S21  1  0.720400  0.513600  0.755200  1.0  -0.226
  S  S22  1  0.511300  0.242660  0.157300  1.0  -0.1961
  S  S23  1  0.501600  0.356840  0.965700  1.0  -0.1922
  S  S24  1  0.279600  0.013600  0.744800  1.0  -0.2267
  S  S25  1  0.488700  0.742660  0.342700  1.0  -0.1975
  S  S26  1  0.498400  0.856840  0.534300  1.0  -0.1912
  S  S27  1  0.279600  0.486400  0.244800  1.0  -0.2273
  S  S28  1  0.488700  0.757340  0.842700  1.0  -0.1972
  S  S29  1  0.498400  0.643160  0.034300  1.0  -0.1911
  S  S30  1  0.720400  0.986400  0.255200  1.0  -0.2259
  S  S31  1  0.511300  0.257340  0.657300  1.0  -0.1962
  S  S32  1  0.501600  0.143160  0.465700  1.0  -0.1921
  N  N33  1  0.311900  0.471700  0.796300  1.0  -0.3798
  N  N34  1  0.032600  0.278000  0.067900  1.0  -0.3581
  N  N35  1  0.875700  0.408700  0.922300  1.0  -0.3713
  N  N36  1  0.688100  0.971700  0.703700  1.0  -0.3776
  N  N37  1  0.967400  0.778000  0.432100  1.0  -0.3566
  N  N38  1  0.124300  0.908700  0.577700  1.0  -0.372
  N  N39  1  0.688100  0.528300  0.203700  1.0  -0.3782
  N  N40  1  0.967400  0.722000  0.932100  1.0  -0.3564
  N  N41  1  0.124300  0.591300  0.077700  1.0  -0.3724
  N  N42  1  0.311900  0.028300  0.296300  1.0  -0.3799
  N  N43  1  0.032600  0.222000  0.567900  1.0  -0.3578
  N  N44  1  0.875700  0.091300  0.422300  1.0  -0.3717
