# generated using pymatgen
data_Cu2C3(SN)3
_symmetry_space_group_name_H-M   'P 1'
_cell_length_a   5.78400000
_cell_length_b   30.28200000
_cell_length_c   7.55100000
_cell_angle_alpha   90.00000000
_cell_angle_beta   112.46000000
_cell_angle_gamma   90.00000000
_symmetry_Int_Tables_number   1
_chemical_formula_structural   Cu2C3(SN)3
_chemical_formula_sum   'Cu8 C12 S12 N12'
_cell_volume   1222.24457697
_cell_formula_units_Z   4
loop_
 _symmetry_equiv_pos_site_id
 _symmetry_equiv_pos_as_xyz
  1  'x, y, z'
loop_
 _atom_site_type_symbol
 _atom_site_label
 _atom_site_symmetry_multiplicity
 _atom_site_fract_x
 _atom_site_fract_y
 _atom_site_fract_z
 _atom_site_occupancy
 _atom_site_charge
  Cu  Cu1  1  0.344400  0.460100  0.922900  1.0  0.4373
  Cu  Cu2  1  0.189600  0.713000  0.014400  1.0  0.2944
  Cu  Cu3  1  0.155600  0.960100  0.577100  1.0  0.4382
  Cu  Cu4  1  0.310400  0.213000  0.485600  1.0  0.2936
  Cu  Cu5  1  0.655600  0.539900  0.077100  1.0  0.4398
  Cu  Cu6  1  0.810400  0.287000  0.985600  1.0  0.2933
  Cu  Cu7  1  0.844400  0.039900  0.422900  1.0  0.4391
  Cu  Cu8  1  0.689600  0.787000  0.514400  1.0  0.294
  C  C9  1  0.798800  0.488900  0.778400  1.0  0.3323
  C  C10  1  0.281000  0.612700  0.059400  1.0  0.3308
  C  C11  1  0.624900  0.735700  0.894000  1.0  0.3499
  C  C12  1  0.701200  0.988900  0.721600  1.0  0.3318
  C  C13  1  0.219000  0.112700  0.440600  1.0  0.3312
  C  C14  1  0.875100  0.235700  0.606000  1.0  0.351
  C  C15  1  0.201200  0.511100  0.221600  1.0  0.3327
  C  C16  1  0.719000  0.387300  0.940600  1.0  0.3312
  C  C17  1  0.375100  0.264300  0.106000  1.0  0.3508
  C  C18  1  0.298800  0.011100  0.278400  1.0  0.3323
  C  C19  1  0.781000  0.887300  0.559400  1.0  0.3306
  C  C20  1  0.124900  0.764300  0.394000  1.0  0.3499
  S  S21  1  0.465600  0.486300  0.245100  1.0  -0.2275
  S  S22  1  0.034900  0.643100  0.033900  1.0  -0.177
  S  S23  1  0.854000  0.757600  0.842800  1.0  -0.1841
  S  S24  1  0.034400  0.986300  0.254900  1.0  -0.2276
  S  S25  1  0.465100  0.143100  0.466100  1.0  -0.1771
  S  S26  1  0.646000  0.257600  0.657200  1.0  -0.1838
  S  S27  1  0.534400  0.513700  0.754900  1.0  -0.2274
  S  S28  1  0.965100  0.356900  0.966100  1.0  -0.1774
  S  S29  1  0.146000  0.242400  0.157200  1.0  -0.1845
  S  S30  1  0.965600  0.013700  0.745100  1.0  -0.2289
  S  S31  1  0.534900  0.856900  0.533900  1.0  -0.177
  S  S32  1  0.354000  0.742400  0.342800  1.0  -0.1845
  N  N33  1  0.986800  0.471700  0.798300  1.0  -0.4036
  N  N34  1  0.454700  0.591100  0.077200  1.0  -0.4097
  N  N35  1  0.465300  0.721600  0.930500  1.0  -0.3404
  N  N36  1  0.513200  0.971700  0.701700  1.0  -0.4058
  N  N37  1  0.045300  0.091100  0.422800  1.0  -0.4103
  N  N38  1  0.034700  0.221600  0.569500  1.0  -0.3394
  N  N39  1  0.013200  0.528300  0.201700  1.0  -0.4065
  N  N40  1  0.545300  0.408900  0.922800  1.0  -0.4102
  N  N41  1  0.534700  0.278400  0.069500  1.0  -0.3454
  N  N42  1  0.486800  0.028300  0.298300  1.0  -0.4033
  N  N43  1  0.954700  0.908900  0.577200  1.0  -0.41
  N  N44  1  0.965300  0.778400  0.430500  1.0  -0.3429
