# generated using pymatgen
data_Zn2H21RhC36(NO2)4
_symmetry_space_group_name_H-M   'P 1'
_cell_length_a   14.08690000
_cell_length_b   15.13330000
_cell_length_c   15.14020000
_cell_angle_alpha   86.51700000
_cell_angle_beta   87.28600000
_cell_angle_gamma   86.89600000
_symmetry_Int_Tables_number   1
_chemical_formula_structural   Zn2H21RhC36(NO2)4
_chemical_formula_sum   'Zn4 H42 Rh2 C72 N8 O16'
_cell_volume   3213.77403418
_cell_formula_units_Z   2
loop_
 _symmetry_equiv_pos_site_id
 _symmetry_equiv_pos_as_xyz
  1  'x, y, z'
loop_
 _atom_site_type_symbol
 _atom_site_label
 _atom_site_symmetry_multiplicity
 _atom_site_fract_x
 _atom_site_fract_y
 _atom_site_fract_z
 _atom_site_occupancy
 _atom_site_charge
  Zn  Zn1  1  0.904000  0.603570  0.839050  1.0  0.91
  Zn  Zn2  1  0.693970  0.612830  0.847210  1.0  0.9128
  Zn  Zn3  1  0.096000  0.396430  0.160950  1.0  0.9097
  Zn  Zn4  1  0.306030  0.387170  0.152790  1.0  0.9116
  H  H5  1  0.219600  0.605600  0.975300  1.0  0.1148
  H  H6  1  0.070800  0.620100  0.711900  1.0  0.1014
  H  H7  1  0.233800  0.623100  0.710300  1.0  0.1254
  H  H8  1  0.057100  0.602000  0.970600  1.0  0.0788
  H  H9  1  0.658100  0.626200  0.287000  1.0  0.1276
  H  H10  1  0.654500  0.626100  0.136900  1.0  0.0973
  H  H11  1  0.938600  0.598400  0.120900  1.0  0.097
  H  H12  1  0.670200  0.645600  0.563900  1.0  0.0992
  H  H13  1  0.666400  0.643100  0.414300  1.0  0.1001
  H  H14  1  0.939000  0.578100  0.400400  1.0  0.0887
  H  H15  1  0.943600  0.576500  0.550300  1.0  0.0982
  H  H16  1  0.661600  0.328200  0.851200  1.0  0.0868
  H  H17  1  0.654100  0.905000  0.849400  1.0  0.0894
  H  H18  1  0.940400  0.313700  0.827200  1.0  0.0872
  H  H19  1  0.938100  0.165700  0.813300  1.0  0.1058
  H  H20  1  0.930100  0.883500  0.795400  1.0  0.1097
  H  H21  1  0.933600  0.035200  0.790700  1.0  0.121
  H  H22  1  0.537300  0.677600  0.731700  1.0  0.0891
  H  H23  1  0.529300  0.546600  0.959600  1.0  0.0899
  H  H24  1  0.367700  0.546300  0.959900  1.0  0.1086
  H  H25  1  0.374700  0.677500  0.725300  1.0  0.1266
  H  H26  1  0.780400  0.394400  0.024700  1.0  0.1157
  H  H27  1  0.929200  0.379900  0.288100  1.0  0.1012
  H  H28  1  0.766200  0.376900  0.289700  1.0  0.1257
  H  H29  1  0.942900  0.398000  0.029400  1.0  0.0779
  H  H30  1  0.341900  0.373800  0.713000  1.0  0.1285
  H  H31  1  0.345500  0.373900  0.863100  1.0  0.0968
  H  H32  1  0.061400  0.401600  0.879100  1.0  0.0933
  H  H33  1  0.329800  0.354400  0.436100  1.0  0.0993
  H  H34  1  0.333600  0.356900  0.585700  1.0  0.1005
  H  H35  1  0.061000  0.421900  0.599600  1.0  0.0879
  H  H36  1  0.056400  0.423500  0.449700  1.0  0.0983
  H  H37  1  0.338400  0.671800  0.148800  1.0  0.0877
  H  H38  1  0.345900  0.095000  0.150600  1.0  0.0895
  H  H39  1  0.059600  0.686300  0.172800  1.0  0.087
  H  H40  1  0.061900  0.834300  0.186700  1.0  0.1081
  H  H41  1  0.069900  0.116500  0.204600  1.0  0.1101
  H  H42  1  0.066400  0.964800  0.209300  1.0  0.1201
  H  H43  1  0.462700  0.322400  0.268300  1.0  0.0891
  H  H44  1  0.470700  0.453400  0.040400  1.0  0.0896
  H  H45  1  0.632300  0.453700  0.040100  1.0  0.1086
  H  H46  1  0.625300  0.322500  0.274700  1.0  0.1287
  Rh  Rh47  1  0.622100  0.121800  0.843600  1.0  0.1521
  Rh  Rh48  1  0.377900  0.878200  0.156400  1.0  0.1256
  C  C49  1  0.245700  0.612700  0.843000  1.0  0.0887
  C  C50  1  0.190970  0.607800  0.921000  1.0  -0.1858
  C  C51  1  0.801000  0.339310  0.838000  1.0  -0.1118
  C  C52  1  0.101100  0.616700  0.765320  1.0  0.1738
  C  C53  1  0.795700  0.611610  0.111450  1.0  -0.2421
  C  C54  1  0.806600  0.608900  0.574870  1.0  -0.1228
  C  C55  1  0.199160  0.618300  0.764000  1.0  -0.1711
  C  C56  1  0.093140  0.606200  0.917600  1.0  0.1828
  C  C57  1  0.794270  0.609100  0.013160  1.0  0.687
  C  C58  1  0.802020  0.437040  0.845710  1.0  0.6868
  C  C59  1  0.714700  0.620700  0.253190  1.0  -0.2049
  C  C60  1  0.788700  0.778160  0.832300  1.0  0.6983
  C  C61  1  0.712800  0.620300  0.163700  1.0  0.0133
  C  C62  1  0.881700  0.604200  0.154320  1.0  0.1832
  C  C63  1  0.807860  0.607900  0.673560  1.0  0.6892
  C  C64  1  0.351440  0.611900  0.843990  1.0  0.1027
  C  C65  1  0.800700  0.612800  0.294400  1.0  0.2366
  C  C66  1  0.802800  0.611500  0.391800  1.0  -0.0116
  C  C67  1  0.725700  0.630300  0.531400  1.0  -0.0479
  C  C68  1  0.790800  0.877100  0.826600  1.0  -0.1897
  C  C69  1  0.723600  0.630100  0.441600  1.0  -0.1297
  C  C70  1  0.883400  0.591500  0.433600  1.0  -0.0687
  C  C71  1  0.886200  0.590300  0.523600  1.0  -0.0452
  C  C72  1  0.718900  0.295600  0.843300  1.0  -0.0156
  C  C73  1  0.712300  0.930700  0.838900  1.0  0.1228
  C  C74  1  0.882100  0.287500  0.828600  1.0  -0.0535
  C  C75  1  0.716700  0.206300  0.837600  1.0  -0.1553
  C  C76  1  0.798100  0.157300  0.825000  1.0  -0.0116
  C  C77  1  0.795800  0.059700  0.820500  1.0  0.208
  C  C78  1  0.881000  0.198600  0.821100  1.0  -0.1138
  C  C79  1  0.874500  0.917600  0.806900  1.0  -0.0246
  C  C80  1  0.876400  0.008300  0.804100  1.0  -0.1822
  C  C81  1  0.502500  0.650000  0.778300  1.0  0.1576
  C  C82  1  0.498200  0.573800  0.911600  1.0  0.1642
  C  C83  1  0.400600  0.573500  0.911900  1.0  -0.1959
  C  C84  1  0.404600  0.650900  0.774300  1.0  -0.2044
  C  C85  1  0.754300  0.387300  0.157000  1.0  0.0893
  C  C86  1  0.809030  0.392200  0.079000  1.0  -0.1865
  C  C87  1  0.199000  0.660690  0.162000  1.0  -0.1082
  C  C88  1  0.898900  0.383300  0.234680  1.0  0.1785
  C  C89  1  0.204300  0.388390  0.888550  1.0  -0.2384
  C  C90  1  0.193400  0.391100  0.425130  1.0  -0.1204
  C  C91  1  0.800840  0.381700  0.236000  1.0  -0.1788
  C  C92  1  0.906860  0.393800  0.082400  1.0  0.1799
  C  C93  1  0.205730  0.390900  0.986840  1.0  0.6874
  C  C94  1  0.197980  0.562960  0.154290  1.0  0.6862
  C  C95  1  0.285300  0.379300  0.746810  1.0  -0.1958
  C  C96  1  0.211300  0.221840  0.167700  1.0  0.6998
  C  C97  1  0.287200  0.379700  0.836300  1.0  0.0164
  C  C98  1  0.118300  0.395800  0.845680  1.0  0.1885
  C  C99  1  0.192140  0.392100  0.326440  1.0  0.6896
  C  C100  1  0.648560  0.388100  0.156010  1.0  0.1023
  C  C101  1  0.199300  0.387200  0.705600  1.0  0.2401
  C  C102  1  0.197200  0.388500  0.608200  1.0  -0.0093
  C  C103  1  0.274300  0.369700  0.468600  1.0  -0.0483
  C  C104  1  0.209200  0.122900  0.173400  1.0  -0.1901
  C  C105  1  0.276400  0.369900  0.558400  1.0  -0.1304
  C  C106  1  0.116600  0.408500  0.566400  1.0  -0.0735
  C  C107  1  0.113800  0.409700  0.476400  1.0  -0.0463
  C  C108  1  0.281100  0.704400  0.156700  1.0  -0.0158
  C  C109  1  0.287700  0.069300  0.161100  1.0  0.1179
  C  C110  1  0.117900  0.712500  0.171400  1.0  -0.0577
  C  C111  1  0.283300  0.793700  0.162400  1.0  -0.1598
  C  C112  1  0.201900  0.842700  0.175000  1.0  -0.0106
  C  C113  1  0.204200  0.940300  0.179500  1.0  0.2089
  C  C114  1  0.119000  0.801400  0.178900  1.0  -0.1141
  C  C115  1  0.125500  0.082400  0.193100  1.0  -0.0255
  C  C116  1  0.123600  0.991700  0.195900  1.0  -0.1818
  C  C117  1  0.497500  0.350000  0.221700  1.0  0.164
  C  C118  1  0.501800  0.426200  0.088400  1.0  0.1634
  C  C119  1  0.599400  0.426500  0.088100  1.0  -0.1971
  C  C120  1  0.595400  0.349100  0.225700  1.0  -0.2051
  N  N121  1  0.047980  0.610320  0.841970  1.0  -0.3077
  N  N122  1  0.549330  0.611090  0.846270  1.0  -0.309
  N  N123  1  0.883900  0.605200  0.244090  1.0  -0.4281
  N  N124  1  0.714100  0.020600  0.836700  1.0  -0.2114
  N  N125  1  0.952020  0.389680  0.158030  1.0  -0.3065
  N  N126  1  0.450670  0.388910  0.153730  1.0  -0.308
  N  N127  1  0.116100  0.394800  0.755910  1.0  -0.4284
  N  N128  1  0.285900  0.979400  0.163300  1.0  -0.2154
  O  O129  1  0.873140  0.605920  0.970890  1.0  -0.5916
  O  O130  1  0.729830  0.616210  0.715410  1.0  -0.6061
  O  O131  1  0.715030  0.608300  0.979270  1.0  -0.5948
  O  O132  1  0.722850  0.479070  0.849600  1.0  -0.6139
  O  O133  1  0.887910  0.598770  0.707210  1.0  -0.5873
  O  O134  1  0.881190  0.470620  0.847770  1.0  -0.5718
  O  O135  1  0.709050  0.745170  0.843350  1.0  -0.5891
  O  O136  1  0.867000  0.735590  0.825820  1.0  -0.6036
  O  O137  1  0.126860  0.394080  0.029110  1.0  -0.5919
  O  O138  1  0.270170  0.383790  0.284590  1.0  -0.6069
  O  O139  1  0.284970  0.391700  0.020730  1.0  -0.5948
  O  O140  1  0.277150  0.520930  0.150400  1.0  -0.6154
  O  O141  1  0.112090  0.401230  0.292790  1.0  -0.5866
  O  O142  1  0.118810  0.529380  0.152230  1.0  -0.5712
  O  O143  1  0.290950  0.254830  0.156650  1.0  -0.5899
  O  O144  1  0.133000  0.264410  0.174180  1.0  -0.6047
