# generated using pymatgen
data_EuH6(C2O)6
_symmetry_space_group_name_H-M   'P 1'
_cell_length_a   10.67830000
_cell_length_b   10.67830000
_cell_length_c   18.74300000
_cell_angle_alpha   74.13940000
_cell_angle_beta   74.13940000
_cell_angle_gamma   65.01980000
_symmetry_Int_Tables_number   1
_chemical_formula_structural   EuH6(C2O)6
_chemical_formula_sum   'Eu4 H24 C48 O24'
_cell_volume   1832.70881630
_cell_formula_units_Z   4
loop_
 _symmetry_equiv_pos_site_id
 _symmetry_equiv_pos_as_xyz
  1  'x, y, z'
loop_
 _atom_site_type_symbol
 _atom_site_label
 _atom_site_symmetry_multiplicity
 _atom_site_fract_x
 _atom_site_fract_y
 _atom_site_fract_z
 _atom_site_occupancy
 _atom_site_charge
  Eu  Eu1  1  0.560880  0.442940  0.898040  1.0  2.1768
  Eu  Eu2  1  0.557060  0.439120  0.601960  1.0  2.1782
  Eu  Eu3  1  0.439120  0.557060  0.101960  1.0  2.1775
  Eu  Eu4  1  0.442940  0.560880  0.398040  1.0  2.1773
  H  H5  1  0.883400  0.531800  0.769000  1.0  0.0947
  H  H6  1  0.103500  0.539500  0.715200  1.0  0.1055
  H  H7  1  0.009300  0.632500  0.508400  1.0  0.1013
  H  H8  1  0.790200  0.621800  0.562000  1.0  0.0901
  H  H9  1  0.793300  0.530500  0.088500  1.0  0.1011
  H  H10  1  0.017000  0.450600  0.883900  1.0  0.0988
  H  H11  1  0.468200  0.116600  0.731000  1.0  0.0947
  H  H12  1  0.460500  0.896500  0.784800  1.0  0.1049
  H  H13  1  0.367500  0.990700  0.991600  1.0  0.1006
  H  H14  1  0.378200  0.209800  0.938000  1.0  0.0899
  H  H15  1  0.469500  0.206700  0.411500  1.0  0.1005
  H  H16  1  0.549400  0.983000  0.616100  1.0  0.0989
  H  H17  1  0.116600  0.468200  0.231000  1.0  0.0948
  H  H18  1  0.896500  0.460500  0.284800  1.0  0.1048
  H  H19  1  0.990700  0.367500  0.491600  1.0  0.1012
  H  H20  1  0.209800  0.378200  0.438000  1.0  0.0903
  H  H21  1  0.206700  0.469500  0.911500  1.0  0.1008
  H  H22  1  0.983000  0.549400  0.116100  1.0  0.0988
  H  H23  1  0.531800  0.883400  0.269000  1.0  0.0945
  H  H24  1  0.539500  0.103500  0.215200  1.0  0.1054
  H  H25  1  0.632500  0.009300  0.008400  1.0  0.1007
  H  H26  1  0.621800  0.790200  0.062000  1.0  0.0911
  H  H27  1  0.530500  0.793300  0.588500  1.0  0.1013
  H  H28  1  0.450600  0.017000  0.383900  1.0  0.0986
  C  C29  1  0.676690  0.559230  0.705800  1.0  0.7782
  C  C30  1  0.815190  0.573750  0.671000  1.0  -0.1511
  C  C31  1  0.909120  0.550520  0.716860  1.0  -0.0423
  C  C32  1  0.040970  0.555390  0.684620  1.0  -0.0479
  C  C33  1  0.079610  0.584090  0.606200  1.0  -0.132
  C  C34  1  0.984560  0.610740  0.560520  1.0  -0.0233
  C  C35  1  0.853060  0.604900  0.592670  1.0  -0.0397
  C  C36  1  0.225370  0.578550  0.570250  1.0  0.7855
  C  C37  1  0.765730  0.475450  0.963950  1.0  0.7307
  C  C38  1  0.886050  0.489090  0.983210  1.0  -0.1275
  C  C39  1  0.875830  0.518410  0.053100  1.0  -0.0387
  C  C40  1  0.010300  0.470500  0.930440  1.0  -0.0395
  C  C41  1  0.440770  0.323310  0.794200  1.0  0.7777
  C  C42  1  0.426250  0.184810  0.829000  1.0  -0.1529
  C  C43  1  0.449480  0.090880  0.783140  1.0  -0.044
  C  C44  1  0.444610  0.959030  0.815380  1.0  -0.0465
  C  C45  1  0.415910  0.920390  0.893800  1.0  -0.1322
  C  C46  1  0.389260  0.015440  0.939480  1.0  -0.0195
  C  C47  1  0.395100  0.146940  0.907330  1.0  -0.0402
  C  C48  1  0.421450  0.774630  0.929750  1.0  0.7907
  C  C49  1  0.524550  0.234270  0.536050  1.0  0.7324
  C  C50  1  0.510910  0.113950  0.516790  1.0  -0.1285
  C  C51  1  0.481590  0.124170  0.446900  1.0  -0.0401
  C  C52  1  0.529500  0.989700  0.569560  1.0  -0.0413
  C  C53  1  0.323310  0.440770  0.294200  1.0  0.7723
  C  C54  1  0.184810  0.426250  0.329000  1.0  -0.1507
  C  C55  1  0.090880  0.449480  0.283140  1.0  -0.0435
  C  C56  1  0.959030  0.444610  0.315380  1.0  -0.0479
  C  C57  1  0.920390  0.415910  0.393800  1.0  -0.1317
  C  C58  1  0.015440  0.389260  0.439480  1.0  -0.0226
  C  C59  1  0.146940  0.395100  0.407330  1.0  -0.0416
  C  C60  1  0.774630  0.421450  0.429750  1.0  0.7877
  C  C61  1  0.234270  0.524550  0.036050  1.0  0.7304
  C  C62  1  0.113950  0.510910  0.016790  1.0  -0.126
  C  C63  1  0.124170  0.481590  0.946900  1.0  -0.0352
  C  C64  1  0.989700  0.529500  0.069560  1.0  -0.0406
  C  C65  1  0.559230  0.676690  0.205800  1.0  0.7684
  C  C66  1  0.573750  0.815190  0.171000  1.0  -0.1522
  C  C67  1  0.550520  0.909120  0.216860  1.0  -0.0421
  C  C68  1  0.555390  0.040970  0.184620  1.0  -0.0468
  C  C69  1  0.584090  0.079610  0.106200  1.0  -0.1318
  C  C70  1  0.610740  0.984560  0.060520  1.0  -0.0221
  C  C71  1  0.604900  0.853060  0.092670  1.0  -0.0405
  C  C72  1  0.578550  0.225370  0.070250  1.0  0.7899
  C  C73  1  0.475450  0.765730  0.463950  1.0  0.7321
  C  C74  1  0.489090  0.886050  0.483210  1.0  -0.1273
  C  C75  1  0.518410  0.875830  0.553100  1.0  -0.0364
  C  C76  1  0.470500  0.010300  0.430440  1.0  -0.0405
  O  O77  1  0.646460  0.533900  0.775640  1.0  -0.7529
  O  O78  1  0.597820  0.575420  0.661450  1.0  -0.6715
  O  O79  1  0.252190  0.608250  0.499460  1.0  -0.7649
  O  O80  1  0.312290  0.540430  0.613390  1.0  -0.7346
  O  O81  1  0.788680  0.425240  0.906170  1.0  -0.6541
  O  O82  1  0.644720  0.514080  0.004880  1.0  -0.8398
  O  O83  1  0.466100  0.353540  0.724360  1.0  -0.7549
  O  O84  1  0.424580  0.402180  0.838550  1.0  -0.6687
  O  O85  1  0.391750  0.747810  0.000540  1.0  -0.7691
  O  O86  1  0.459570  0.687710  0.886610  1.0  -0.7373
  O  O87  1  0.574760  0.211320  0.593830  1.0  -0.6505
  O  O88  1  0.485920  0.355280  0.495120  1.0  -0.8437
  O  O89  1  0.353540  0.466100  0.224360  1.0  -0.7517
  O  O90  1  0.402180  0.424580  0.338550  1.0  -0.6686
  O  O91  1  0.747810  0.391750  0.500540  1.0  -0.7656
  O  O92  1  0.687710  0.459570  0.386610  1.0  -0.734
  O  O93  1  0.211320  0.574760  0.093830  1.0  -0.6539
  O  O94  1  0.355280  0.485920  0.995120  1.0  -0.8391
  O  O95  1  0.533900  0.646460  0.275640  1.0  -0.7548
  O  O96  1  0.575420  0.597820  0.161450  1.0  -0.6705
  O  O97  1  0.608250  0.252190  0.999460  1.0  -0.7685
  O  O98  1  0.540430  0.312290  0.113390  1.0  -0.737
  O  O99  1  0.425240  0.788680  0.406170  1.0  -0.6519
  O  O100  1  0.514080  0.644720  0.504880  1.0  -0.8444
