# generated using pymatgen
data_ZnH2(CO2)2
_symmetry_space_group_name_H-M   'P 1'
_cell_length_a   9.82740000
_cell_length_b   11.31080000
_cell_length_c   14.50720000
_cell_angle_alpha   91.51770000
_cell_angle_beta   90.00000000
_cell_angle_gamma   90.00000000
_symmetry_Int_Tables_number   1
_chemical_formula_structural   ZnH2(CO2)2
_chemical_formula_sum   'Zn12 H24 C24 O48'
_cell_volume   1611.99308151
_cell_formula_units_Z   12
loop_
 _symmetry_equiv_pos_site_id
 _symmetry_equiv_pos_as_xyz
  1  'x, y, z'
loop_
 _atom_site_type_symbol
 _atom_site_label
 _atom_site_symmetry_multiplicity
 _atom_site_fract_x
 _atom_site_fract_y
 _atom_site_fract_z
 _atom_site_occupancy
 _atom_site_charge
  Zn  Zn1  1  0.919290  0.757870  0.132500  1.0  1.09
  Zn  Zn2  1  0.105550  0.741400  0.313240  1.0  1.0709
  Zn  Zn3  1  0.419290  0.742130  0.367500  1.0  1.09
  Zn  Zn4  1  0.605550  0.758600  0.186760  1.0  1.0701
  Zn  Zn5  1  0.080710  0.242130  0.867500  1.0  1.0901
  Zn  Zn6  1  0.894450  0.258600  0.686760  1.0  1.0703
  Zn  Zn7  1  0.580710  0.257870  0.632500  1.0  1.0901
  Zn  Zn8  1  0.394450  0.241400  0.813240  1.0  1.071
  Zn  Zn9  1  0.000000  0.500000  0.000000  1.0  1.0664
  Zn  Zn10  1  0.500000  0.000000  0.500000  1.0  1.0664
  Zn  Zn11  1  0.000000  0.000000  0.000000  1.0  1.1013
  Zn  Zn12  1  0.500000  0.500000  0.500000  1.0  1.1013
  H  H13  1  0.751800  0.862800  0.366900  1.0  0.0
  H  H14  1  0.035900  0.478100  0.265800  1.0  0.0152
  H  H15  1  0.615800  0.557200  0.043800  1.0  0.0124
  H  H16  1  0.184600  0.986100  0.234000  1.0  0.0041
  H  H17  1  0.154700  0.696100  0.927600  1.0  0.0077
  H  H18  1  0.701100  0.990600  0.008800  1.0  0.0118
  H  H19  1  0.251800  0.637200  0.133100  1.0  -0.0002
  H  H20  1  0.535900  0.021900  0.234200  1.0  0.0145
  H  H21  1  0.115800  0.942800  0.456200  1.0  0.0123
  H  H22  1  0.684600  0.513900  0.266000  1.0  0.0047
  H  H23  1  0.654700  0.803900  0.572400  1.0  0.0078
  H  H24  1  0.201100  0.509400  0.491200  1.0  0.0119
  H  H25  1  0.248200  0.137200  0.633100  1.0  -1e-04
  H  H26  1  0.964100  0.521900  0.734200  1.0  0.0147
  H  H27  1  0.384200  0.442800  0.956200  1.0  0.0124
  H  H28  1  0.815400  0.013900  0.766000  1.0  0.0034
  H  H29  1  0.845300  0.303900  0.072400  1.0  0.0079
  H  H30  1  0.298900  0.009400  0.991200  1.0  0.0122
  H  H31  1  0.748200  0.362800  0.866900  1.0  0.0
  H  H32  1  0.464100  0.978100  0.765800  1.0  0.0153
  H  H33  1  0.884200  0.057200  0.543800  1.0  0.0126
  H  H34  1  0.315400  0.486100  0.734000  1.0  0.0046
  H  H35  1  0.345300  0.196100  0.427600  1.0  0.008
  H  H36  1  0.798900  0.490600  0.508800  1.0  0.0121
  C  C37  1  0.823900  0.832100  0.329900  1.0  0.6928
  C  C38  1  0.014800  0.519600  0.211600  1.0  0.684
  C  C39  1  0.710100  0.573200  0.051000  1.0  0.6937
  C  C40  1  0.125000  0.956900  0.187100  1.0  0.6802
  C  C41  1  0.101900  0.741700  0.970400  1.0  0.7054
  C  C42  1  0.718800  0.929600  0.051000  1.0  0.6938
  C  C43  1  0.323900  0.667900  0.170100  1.0  0.6932
  C  C44  1  0.514800  0.980400  0.288400  1.0  0.6845
  C  C45  1  0.210100  0.926800  0.449000  1.0  0.6937
  C  C46  1  0.625000  0.543100  0.312900  1.0  0.6793
  C  C47  1  0.601900  0.758300  0.529600  1.0  0.706
  C  C48  1  0.218800  0.570400  0.449000  1.0  0.6951
  C  C49  1  0.176100  0.167900  0.670100  1.0  0.6927
  C  C50  1  0.985200  0.480400  0.788400  1.0  0.6837
  C  C51  1  0.289900  0.426800  0.949000  1.0  0.6937
  C  C52  1  0.875000  0.043100  0.812900  1.0  0.679
  C  C53  1  0.898100  0.258300  0.029600  1.0  0.7054
  C  C54  1  0.281200  0.070400  0.949000  1.0  0.6951
  C  C55  1  0.676100  0.332100  0.829900  1.0  0.6926
  C  C56  1  0.485200  0.019600  0.711600  1.0  0.6847
  C  C57  1  0.789900  0.073200  0.551000  1.0  0.6938
  C  C58  1  0.375000  0.456900  0.687100  1.0  0.6793
  C  C59  1  0.398100  0.241700  0.470400  1.0  0.7054
  C  C60  1  0.781200  0.429600  0.551000  1.0  0.6938
  O  O61  1  0.797000  0.809400  0.245600  1.0  -0.6468
  O  O62  1  0.936200  0.817900  0.368900  1.0  -0.5891
  O  O63  1  0.003400  0.630900  0.219600  1.0  -0.649
  O  O64  1  0.000800  0.459700  0.139200  1.0  -0.5914
  O  O65  1  0.742300  0.652600  0.110200  1.0  -0.6581
  O  O66  1  0.789100  0.514400  0.001600  1.0  -0.5752
  O  O67  1  0.080600  0.851500  0.195800  1.0  -0.6527
  O  O68  1  0.098600  0.025100  0.124100  1.0  -0.5752
  O  O69  1  0.022500  0.684500  0.023400  1.0  -0.6784
  O  O70  1  0.116600  0.849900  0.969500  1.0  -0.5927
  O  O71  1  0.843200  0.897800  0.059800  1.0  -0.6549
  O  O72  1  0.619400  0.888600  0.091800  1.0  -0.5835
  O  O73  1  0.297000  0.690600  0.254400  1.0  -0.6466
  O  O74  1  0.436200  0.682100  0.131100  1.0  -0.5892
  O  O75  1  0.503400  0.869100  0.280400  1.0  -0.6492
  O  O76  1  0.500800  0.040300  0.360800  1.0  -0.5907
  O  O77  1  0.242300  0.847400  0.389800  1.0  -0.658
  O  O78  1  0.289100  0.985600  0.498400  1.0  -0.5752
  O  O79  1  0.580600  0.648500  0.304200  1.0  -0.6524
  O  O80  1  0.598600  0.474900  0.375900  1.0  -0.5758
  O  O81  1  0.522500  0.815500  0.476600  1.0  -0.6753
  O  O82  1  0.616600  0.650100  0.530500  1.0  -0.5919
  O  O83  1  0.343200  0.602200  0.440200  1.0  -0.655
  O  O84  1  0.119400  0.611400  0.408200  1.0  -0.5837
  O  O85  1  0.203000  0.190600  0.754400  1.0  -0.6464
  O  O86  1  0.063800  0.182100  0.631100  1.0  -0.5902
  O  O87  1  0.996600  0.369100  0.780400  1.0  -0.649
  O  O88  1  0.999200  0.540300  0.860800  1.0  -0.5912
  O  O89  1  0.257700  0.347400  0.889800  1.0  -0.6574
  O  O90  1  0.210900  0.485600  0.998400  1.0  -0.5764
  O  O91  1  0.919400  0.148500  0.804200  1.0  -0.6526
  O  O92  1  0.901400  0.974900  0.875900  1.0  -0.5764
  O  O93  1  0.977500  0.315500  0.976600  1.0  -0.6754
  O  O94  1  0.883400  0.150100  0.030500  1.0  -0.5919
  O  O95  1  0.156800  0.102200  0.940200  1.0  -0.6545
  O  O96  1  0.380600  0.111400  0.908200  1.0  -0.5834
  O  O97  1  0.703000  0.309400  0.745600  1.0  -0.6468
  O  O98  1  0.563800  0.317900  0.868900  1.0  -0.5901
  O  O99  1  0.496600  0.130900  0.719600  1.0  -0.6489
  O  O100  1  0.499200  0.959700  0.639200  1.0  -0.5916
  O  O101  1  0.757700  0.152600  0.610200  1.0  -0.6583
  O  O102  1  0.710900  0.014400  0.501600  1.0  -0.5762
  O  O103  1  0.419400  0.351500  0.695800  1.0  -0.6529
  O  O104  1  0.401400  0.525100  0.624100  1.0  -0.5761
  O  O105  1  0.477500  0.184500  0.523400  1.0  -0.6785
  O  O106  1  0.383400  0.349900  0.469500  1.0  -0.5925
  O  O107  1  0.656800  0.397800  0.559800  1.0  -0.6541
  O  O108  1  0.880600  0.388600  0.591800  1.0  -0.5831
