# generated using pymatgen
data_ZnH2(CO2)2
_symmetry_space_group_name_H-M   'P 1'
_cell_length_a   9.77440000
_cell_length_b   11.20650000
_cell_length_c   14.72010000
_cell_angle_alpha   91.05980000
_cell_angle_beta   90.00000000
_cell_angle_gamma   90.00000000
_symmetry_Int_Tables_number   1
_chemical_formula_structural   ZnH2(CO2)2
_chemical_formula_sum   'Zn12 H24 C24 O48'
_cell_volume   1612.11702651
_cell_formula_units_Z   12
loop_
 _symmetry_equiv_pos_site_id
 _symmetry_equiv_pos_as_xyz
  1  'x, y, z'
loop_
 _atom_site_type_symbol
 _atom_site_label
 _atom_site_symmetry_multiplicity
 _atom_site_fract_x
 _atom_site_fract_y
 _atom_site_fract_z
 _atom_site_occupancy
 _atom_site_charge
  Zn  Zn1  1  0.920990  0.755740  0.132350  1.0  1.0969
  Zn  Zn2  1  0.108280  0.737680  0.310520  1.0  1.0712
  Zn  Zn3  1  0.420990  0.744260  0.367650  1.0  1.0969
  Zn  Zn4  1  0.608280  0.762320  0.189480  1.0  1.0713
  Zn  Zn5  1  0.079010  0.244260  0.867650  1.0  1.0972
  Zn  Zn6  1  0.891720  0.262320  0.689480  1.0  1.0713
  Zn  Zn7  1  0.579010  0.255740  0.632350  1.0  1.0971
  Zn  Zn8  1  0.391720  0.237680  0.810520  1.0  1.0712
  Zn  Zn9  1  0.000000  0.500000  0.000000  1.0  1.0984
  Zn  Zn10  1  0.500000  0.000000  0.500000  1.0  1.0984
  Zn  Zn11  1  0.000000  0.000000  0.000000  1.0  1.0933
  Zn  Zn12  1  0.500000  0.500000  0.500000  1.0  1.0933
  H  H13  1  0.757500  0.866500  0.364700  1.0  -0.0041
  H  H14  1  0.038900  0.470600  0.262600  1.0  0.0174
  H  H15  1  0.615300  0.555900  0.047800  1.0  0.0075
  H  H16  1  0.197800  0.979800  0.227000  1.0  0.0006
  H  H17  1  0.162400  0.695200  0.931100  1.0  0.0068
  H  H18  1  0.701000  0.988500  0.007900  1.0  0.0056
  H  H19  1  0.257500  0.633500  0.135300  1.0  -0.0047
  H  H20  1  0.538900  0.029400  0.237400  1.0  0.0172
  H  H21  1  0.115300  0.944100  0.452200  1.0  0.0073
  H  H22  1  0.697800  0.520200  0.273000  1.0  0.0014
  H  H23  1  0.662400  0.804800  0.568900  1.0  0.0073
  H  H24  1  0.201000  0.511500  0.492100  1.0  0.0053
  H  H25  1  0.242500  0.133500  0.635300  1.0  -0.0035
  H  H26  1  0.961100  0.529400  0.737400  1.0  0.0174
  H  H27  1  0.384700  0.444100  0.952200  1.0  0.0077
  H  H28  1  0.802200  0.020200  0.773000  1.0  0.0012
  H  H29  1  0.837600  0.304800  0.068900  1.0  0.0073
  H  H30  1  0.299000  0.011500  0.992100  1.0  0.0051
  H  H31  1  0.742500  0.366500  0.864700  1.0  -0.004
  H  H32  1  0.461100  0.970600  0.762600  1.0  0.0174
  H  H33  1  0.884700  0.055900  0.547800  1.0  0.0079
  H  H34  1  0.302200  0.479800  0.727000  1.0  0.0007
  H  H35  1  0.337600  0.195200  0.431100  1.0  0.0069
  H  H36  1  0.799000  0.488500  0.507900  1.0  0.0052
  C  C37  1  0.828700  0.833300  0.328300  1.0  0.691
  C  C38  1  0.018000  0.513800  0.209400  1.0  0.6763
  C  C39  1  0.710100  0.572700  0.054500  1.0  0.6821
  C  C40  1  0.133800  0.952700  0.182700  1.0  0.6852
  C  C41  1  0.106100  0.742000  0.970500  1.0  0.6995
  C  C42  1  0.719200  0.930100  0.052300  1.0  0.6889
  C  C43  1  0.328700  0.666667  0.171700  1.0  0.6914
  C  C44  1  0.518000  0.986200  0.290600  1.0  0.6771
  C  C45  1  0.210100  0.927300  0.445500  1.0  0.6823
  C  C46  1  0.633800  0.547300  0.317300  1.0  0.6857
  C  C47  1  0.606100  0.758000  0.529500  1.0  0.7006
  C  C48  1  0.219200  0.569900  0.447700  1.0  0.6889
  C  C49  1  0.171300  0.166700  0.671700  1.0  0.691
  C  C50  1  0.982000  0.486200  0.790600  1.0  0.676
  C  C51  1  0.289900  0.427300  0.945500  1.0  0.6822
  C  C52  1  0.866200  0.047300  0.817300  1.0  0.686
  C  C53  1  0.893900  0.258000  0.029500  1.0  0.7002
  C  C54  1  0.280800  0.069900  0.947700  1.0  0.6889
  C  C55  1  0.671300  0.333333  0.828300  1.0  0.6913
  C  C56  1  0.482000  0.013800  0.709400  1.0  0.6771
  C  C57  1  0.789900  0.072700  0.554500  1.0  0.6824
  C  C58  1  0.366200  0.452700  0.682700  1.0  0.6848
  C  C59  1  0.393900  0.242000  0.470500  1.0  0.6999
  C  C60  1  0.780800  0.430100  0.552300  1.0  0.6888
  O  O61  1  0.801000  0.812160  0.245200  1.0  -0.6417
  O  O62  1  0.940170  0.814900  0.366700  1.0  -0.5826
  O  O63  1  0.005150  0.626620  0.218300  1.0  -0.6658
  O  O64  1  0.005710  0.455440  0.137540  1.0  -0.5889
  O  O65  1  0.743000  0.652390  0.114240  1.0  -0.6534
  O  O66  1  0.788920  0.515650  0.004950  1.0  -0.5801
  O  O67  1  0.084790  0.848420  0.193250  1.0  -0.6605
  O  O68  1  0.107130  0.022020  0.121020  1.0  -0.5732
  O  O69  1  0.026720  0.684980  0.024160  1.0  -0.6725
  O  O70  1  0.116460  0.850630  0.965140  1.0  -0.582
  O  O71  1  0.844340  0.897230  0.060950  1.0  -0.6471
  O  O72  1  0.619690  0.893360  0.095990  1.0  -0.5746
  O  O73  1  0.301000  0.687840  0.254800  1.0  -0.6421
  O  O74  1  0.440170  0.685100  0.133300  1.0  -0.5821
  O  O75  1  0.505150  0.873380  0.281700  1.0  -0.6659
  O  O76  1  0.505710  0.044560  0.362460  1.0  -0.5893
  O  O77  1  0.243000  0.847610  0.385760  1.0  -0.653
  O  O78  1  0.288920  0.984350  0.495050  1.0  -0.579
  O  O79  1  0.584790  0.651580  0.306750  1.0  -0.6604
  O  O80  1  0.607130  0.477980  0.378980  1.0  -0.5741
  O  O81  1  0.526720  0.815020  0.475840  1.0  -0.6725
  O  O82  1  0.616460  0.649370  0.534860  1.0  -0.581
  O  O83  1  0.344340  0.602770  0.439050  1.0  -0.6475
  O  O84  1  0.119690  0.606640  0.404010  1.0  -0.5746
  O  O85  1  0.199000  0.187840  0.754800  1.0  -0.6411
  O  O86  1  0.059830  0.185100  0.633300  1.0  -0.5829
  O  O87  1  0.994850  0.373380  0.781700  1.0  -0.6656
  O  O88  1  0.994290  0.544560  0.862460  1.0  -0.5887
  O  O89  1  0.257000  0.347610  0.885760  1.0  -0.6538
  O  O90  1  0.211080  0.484350  0.995050  1.0  -0.58
  O  O91  1  0.915210  0.151580  0.806750  1.0  -0.6603
  O  O92  1  0.892870  0.977980  0.878980  1.0  -0.5741
  O  O93  1  0.973280  0.315020  0.975840  1.0  -0.6731
  O  O94  1  0.883540  0.149370  0.034860  1.0  -0.5805
  O  O95  1  0.155660  0.102770  0.939050  1.0  -0.6478
  O  O96  1  0.380310  0.106640  0.904010  1.0  -0.574
  O  O97  1  0.699000  0.312160  0.745200  1.0  -0.6428
  O  O98  1  0.559830  0.314900  0.866700  1.0  -0.5837
  O  O99  1  0.494850  0.126620  0.718300  1.0  -0.6657
  O  O100  1  0.494290  0.955440  0.637540  1.0  -0.5881
  O  O101  1  0.757000  0.152390  0.614240  1.0  -0.6543
  O  O102  1  0.711080  0.015650  0.504950  1.0  -0.581
  O  O103  1  0.415210  0.348420  0.693250  1.0  -0.6607
  O  O104  1  0.392870  0.522020  0.621020  1.0  -0.5737
  O  O105  1  0.473280  0.184980  0.524160  1.0  -0.673
  O  O106  1  0.383540  0.350630  0.465140  1.0  -0.5813
  O  O107  1  0.655660  0.397230  0.560950  1.0  -0.6474
  O  O108  1  0.880310  0.393360  0.595990  1.0  -0.5736
