# generated using pymatgen
data_ZnH2(CO2)2
_symmetry_space_group_name_H-M   'P 1'
_cell_length_a   9.97810000
_cell_length_b   11.36470000
_cell_length_c   15.05480000
_cell_angle_alpha   90.99620000
_cell_angle_beta   90.00000000
_cell_angle_gamma   90.00000000
_symmetry_Int_Tables_number   1
_chemical_formula_structural   ZnH2(CO2)2
_chemical_formula_sum   'Zn12 H24 C24 O48'
_cell_volume   1706.92787225
_cell_formula_units_Z   12
loop_
 _symmetry_equiv_pos_site_id
 _symmetry_equiv_pos_as_xyz
  1  'x, y, z'
loop_
 _atom_site_type_symbol
 _atom_site_label
 _atom_site_symmetry_multiplicity
 _atom_site_fract_x
 _atom_site_fract_y
 _atom_site_fract_z
 _atom_site_occupancy
 _atom_site_charge
  Zn  Zn1  1  0.930240  0.754580  0.132410  1.0  1.087
  Zn  Zn2  1  0.124630  0.741910  0.302790  1.0  1.0594
  Zn  Zn3  1  0.430240  0.745420  0.367590  1.0  1.087
  Zn  Zn4  1  0.624630  0.758090  0.197210  1.0  1.0598
  Zn  Zn5  1  0.069760  0.245420  0.867590  1.0  1.0871
  Zn  Zn6  1  0.875370  0.258090  0.697210  1.0  1.0603
  Zn  Zn7  1  0.569760  0.254580  0.632410  1.0  1.0869
  Zn  Zn8  1  0.375370  0.241910  0.802790  1.0  1.0598
  Zn  Zn9  1  0.000000  0.500000  0.000000  1.0  1.096
  Zn  Zn10  1  0.500000  0.000000  0.500000  1.0  1.096
  Zn  Zn11  1  0.000000  0.000000  0.000000  1.0  1.1037
  Zn  Zn12  1  0.500000  0.500000  0.500000  1.0  1.1037
  H  H13  1  0.778600  0.854000  0.366400  1.0  0.0083
  H  H14  1  0.064500  0.478200  0.254600  1.0  0.0146
  H  H15  1  0.630100  0.537800  0.074600  1.0  0.0105
  H  H16  1  0.229000  0.963700  0.206300  1.0  0.0042
  H  H17  1  0.132000  0.695400  0.918500  1.0  0.0081
  H  H18  1  0.713500  0.002000  0.032300  1.0  0.015
  H  H19  1  0.278600  0.646000  0.133600  1.0  0.0089
  H  H20  1  0.564500  0.021800  0.245400  1.0  0.0138
  H  H21  1  0.130100  0.962200  0.425400  1.0  0.0108
  H  H22  1  0.729000  0.536300  0.293700  1.0  0.0041
  H  H23  1  0.632000  0.804600  0.581500  1.0  0.0077
  H  H24  1  0.213500  0.498000  0.467700  1.0  0.0149
  H  H25  1  0.221400  0.146000  0.633600  1.0  0.0088
  H  H26  1  0.935500  0.521800  0.745400  1.0  0.0143
  H  H27  1  0.369900  0.462200  0.925400  1.0  0.0111
  H  H28  1  0.771000  0.036300  0.793700  1.0  0.0043
  H  H29  1  0.868000  0.304600  0.081500  1.0  0.0085
  H  H30  1  0.286500  0.998000  0.967700  1.0  0.0149
  H  H31  1  0.721400  0.354000  0.866400  1.0  0.0083
  H  H32  1  0.435500  0.978200  0.754600  1.0  0.0148
  H  H33  1  0.869900  0.037800  0.574600  1.0  0.0107
  H  H34  1  0.271000  0.463700  0.706300  1.0  0.0044
  H  H35  1  0.368000  0.195400  0.418500  1.0  0.0092
  H  H36  1  0.786500  0.502000  0.532300  1.0  0.0153
  C  C37  1  0.847500  0.826100  0.328000  1.0  0.6863
  C  C38  1  0.039200  0.520300  0.203200  1.0  0.687
  C  C39  1  0.720800  0.562700  0.071300  1.0  0.685
  C  C40  1  0.156300  0.941600  0.168800  1.0  0.6842
  C  C41  1  0.085300  0.741500  0.961600  1.0  0.7007
  C  C42  1  0.732300  0.935700  0.067800  1.0  0.6927
  C  C43  1  0.347500  0.673900  0.172000  1.0  0.6869
  C  C44  1  0.539200  0.979700  0.296800  1.0  0.6883
  C  C45  1  0.220800  0.937300  0.428700  1.0  0.6845
  C  C46  1  0.656300  0.558400  0.331200  1.0  0.6846
  C  C47  1  0.585300  0.758500  0.538400  1.0  0.7017
  C  C48  1  0.232300  0.564300  0.432200  1.0  0.6922
  C  C49  1  0.152500  0.173900  0.672000  1.0  0.687
  C  C50  1  0.960800  0.479700  0.796800  1.0  0.6868
  C  C51  1  0.279200  0.437300  0.928700  1.0  0.6833
  C  C52  1  0.843700  0.058400  0.831200  1.0  0.685
  C  C53  1  0.914700  0.258500  0.038400  1.0  0.7019
  C  C54  1  0.267700  0.064300  0.932200  1.0  0.692
  C  C55  1  0.652500  0.326100  0.828000  1.0  0.6869
  C  C56  1  0.460800  0.020300  0.703200  1.0  0.6881
  C  C57  1  0.779200  0.062700  0.571300  1.0  0.6839
  C  C58  1  0.343700  0.441600  0.668800  1.0  0.6839
  C  C59  1  0.414700  0.241500  0.461600  1.0  0.7014
  C  C60  1  0.767700  0.435700  0.567800  1.0  0.6927
  O  O61  1  0.815340  0.806070  0.247770  1.0  -0.6427
  O  O62  1  0.960480  0.812770  0.361470  1.0  -0.5794
  O  O63  1  0.021260  0.630960  0.213460  1.0  -0.6616
  O  O64  1  0.027200  0.462640  0.133840  1.0  -0.578
  O  O65  1  0.754290  0.650660  0.120760  1.0  -0.6596
  O  O66  1  0.794420  0.506950  0.019650  1.0  -0.5871
  O  O67  1  0.094560  0.847740  0.188340  1.0  -0.6607
  O  O68  1  0.132000  0.007240  0.106440  1.0  -0.5809
  O  O69  1  0.019430  0.685360  0.020460  1.0  -0.6567
  O  O70  1  0.094150  0.849320  0.955220  1.0  -0.5911
  O  O71  1  0.854410  0.900580  0.069680  1.0  -0.6581
  O  O72  1  0.636280  0.891920  0.107920  1.0  -0.5893
  O  O73  1  0.315340  0.693930  0.252230  1.0  -0.6423
  O  O74  1  0.460480  0.687230  0.138530  1.0  -0.58
  O  O75  1  0.521260  0.869040  0.286540  1.0  -0.6628
  O  O76  1  0.527200  0.037360  0.366160  1.0  -0.5779
  O  O77  1  0.254290  0.849340  0.379240  1.0  -0.6584
  O  O78  1  0.294420  0.993050  0.480350  1.0  -0.5863
  O  O79  1  0.594560  0.652260  0.311660  1.0  -0.6603
  O  O80  1  0.632000  0.492760  0.393560  1.0  -0.5815
  O  O81  1  0.519430  0.814640  0.479540  1.0  -0.6566
  O  O82  1  0.594150  0.650680  0.544780  1.0  -0.5916
  O  O83  1  0.354410  0.599420  0.430320  1.0  -0.6585
  O  O84  1  0.136280  0.608080  0.392080  1.0  -0.5884
  O  O85  1  0.184660  0.193930  0.752230  1.0  -0.6424
  O  O86  1  0.039520  0.187230  0.638530  1.0  -0.5802
  O  O87  1  0.978740  0.369040  0.786540  1.0  -0.6626
  O  O88  1  0.972800  0.537360  0.866160  1.0  -0.5784
  O  O89  1  0.245710  0.349340  0.879240  1.0  -0.659
  O  O90  1  0.205580  0.493050  0.980350  1.0  -0.5864
  O  O91  1  0.905440  0.152260  0.811660  1.0  -0.6597
  O  O92  1  0.868000  0.992760  0.893560  1.0  -0.5811
  O  O93  1  0.980570  0.314640  0.979540  1.0  -0.6566
  O  O94  1  0.905850  0.150680  0.044780  1.0  -0.5917
  O  O95  1  0.145590  0.099420  0.930320  1.0  -0.6578
  O  O96  1  0.363720  0.108080  0.892080  1.0  -0.5889
  O  O97  1  0.684660  0.306070  0.747770  1.0  -0.643
  O  O98  1  0.539520  0.312770  0.861470  1.0  -0.5801
  O  O99  1  0.478740  0.130960  0.713460  1.0  -0.6612
  O  O100  1  0.472800  0.962640  0.633840  1.0  -0.5778
  O  O101  1  0.745710  0.150660  0.620760  1.0  -0.66
  O  O102  1  0.705580  0.006950  0.519650  1.0  -0.5865
  O  O103  1  0.405440  0.347740  0.688340  1.0  -0.6603
  O  O104  1  0.368000  0.507240  0.606440  1.0  -0.581
  O  O105  1  0.480570  0.185360  0.520460  1.0  -0.6565
  O  O106  1  0.405850  0.349320  0.455220  1.0  -0.5908
  O  O107  1  0.645590  0.400580  0.569680  1.0  -0.6573
  O  O108  1  0.863720  0.391920  0.607920  1.0  -0.5898
