# generated using pymatgen
data_Co3Mo12(P4O25)2
_symmetry_space_group_name_H-M   'P 1'
_cell_length_a   16.10940000
_cell_length_b   11.85430000
_cell_length_c   17.82320000
_cell_angle_alpha   90.00000000
_cell_angle_beta   103.29600000
_cell_angle_gamma   90.00000000
_symmetry_Int_Tables_number   1
_chemical_formula_structural   Co3Mo12(P4O25)2
_chemical_formula_sum   'Co6 Mo24 P16 O100'
_cell_volume   3312.38491208
_cell_formula_units_Z   2
loop_
 _symmetry_equiv_pos_site_id
 _symmetry_equiv_pos_as_xyz
  1  'x, y, z'
loop_
 _atom_site_type_symbol
 _atom_site_label
 _atom_site_symmetry_multiplicity
 _atom_site_fract_x
 _atom_site_fract_y
 _atom_site_fract_z
 _atom_site_occupancy
 _atom_site_charge
  Co  Co1  1  0.878320  0.497550  0.865710  1.0  1.1611
  Co  Co2  1  0.621680  0.997550  0.634290  1.0  1.1591
  Co  Co3  1  0.121680  0.502450  0.134290  1.0  1.1581
  Co  Co4  1  0.378320  0.002450  0.365710  1.0  1.1601
  Co  Co5  1  0.500000  0.500000  0.000000  1.0  0.9375
  Co  Co6  1  0.000000  0.000000  0.500000  1.0  0.9375
  Mo  Mo7  1  0.715450  0.359490  0.066700  1.0  1.3527
  Mo  Mo8  1  0.480310  0.357360  0.803910  1.0  1.3032
  Mo  Mo9  1  0.716050  0.650720  0.037560  1.0  1.2636
  Mo  Mo10  1  0.615790  0.235210  0.965080  1.0  1.296
  Mo  Mo11  1  0.477850  0.573720  0.787080  1.0  1.2685
  Mo  Mo12  1  0.611360  0.745210  0.922740  1.0  1.2987
  Mo  Mo13  1  0.784550  0.859490  0.433300  1.0  1.3553
  Mo  Mo14  1  0.019690  0.857360  0.696090  1.0  1.2988
  Mo  Mo15  1  0.783950  0.150720  0.462440  1.0  1.2638
  Mo  Mo16  1  0.884210  0.735210  0.534920  1.0  1.2967
  Mo  Mo17  1  0.022150  0.073720  0.712920  1.0  1.2636
  Mo  Mo18  1  0.888640  0.245210  0.577260  1.0  1.298
  Mo  Mo19  1  0.284550  0.640510  0.933300  1.0  1.3548
  Mo  Mo20  1  0.519690  0.642640  0.196090  1.0  1.2989
  Mo  Mo21  1  0.283950  0.349280  0.962440  1.0  1.2622
  Mo  Mo22  1  0.384210  0.764790  0.034920  1.0  1.2967
  Mo  Mo23  1  0.522150  0.426280  0.212920  1.0  1.2645
  Mo  Mo24  1  0.388640  0.254790  0.077260  1.0  1.299
  Mo  Mo25  1  0.215450  0.140510  0.566700  1.0  1.3561
  Mo  Mo26  1  0.980310  0.142640  0.303910  1.0  1.3029
  Mo  Mo27  1  0.216050  0.849280  0.537560  1.0  1.2617
  Mo  Mo28  1  0.115790  0.264790  0.465080  1.0  1.2968
  Mo  Mo29  1  0.977850  0.926280  0.287080  1.0  1.2687
  Mo  Mo30  1  0.111360  0.754790  0.422740  1.0  1.2994
  P  P31  1  0.674840  0.477260  0.884570  1.0  1.8954
  P  P32  1  0.622630  0.163050  0.787340  1.0  1.7786
  P  P33  1  0.561470  0.803580  0.737000  1.0  1.8555
  P  P34  1  0.889390  0.490220  0.056550  1.0  1.7516
  P  P35  1  0.825160  0.977260  0.615430  1.0  1.8945
  P  P36  1  0.877370  0.663050  0.712660  1.0  1.7785
  P  P37  1  0.938530  0.303580  0.763000  1.0  1.8565
  P  P38  1  0.610610  0.990220  0.443450  1.0  1.7496
  P  P39  1  0.325160  0.522740  0.115430  1.0  1.8945
  P  P40  1  0.377370  0.836950  0.212660  1.0  1.7792
  P  P41  1  0.438530  0.196420  0.263000  1.0  1.8564
  P  P42  1  0.110610  0.509780  0.943450  1.0  1.7493
  P  P43  1  0.174840  0.022740  0.384570  1.0  1.8956
  P  P44  1  0.122630  0.336950  0.287340  1.0  1.7793
  P  P45  1  0.061470  0.696420  0.237000  1.0  1.8555
  P  P46  1  0.389390  0.009780  0.556550  1.0  1.7515
  O  O47  1  0.735300  0.727400  0.946460  1.0  -0.6032
  O  O48  1  0.590900  0.368900  0.022440  1.0  -0.7476
  O  O49  1  0.591400  0.636400  0.001470  1.0  -0.7443
  O  O50  1  0.738400  0.254300  0.990300  1.0  -0.6185
  O  O51  1  0.616100  0.578900  0.857660  1.0  -0.8105
  O  O52  1  0.840900  0.398100  0.090890  1.0  -0.6639
  O  O53  1  0.704600  0.518700  0.115180  1.0  -0.6046
  O  O54  1  0.466600  0.478700  0.876270  1.0  -0.7523
  O  O55  1  0.530300  0.680500  0.721100  1.0  -0.667
  O  O56  1  0.712500  0.490800  0.972130  1.0  -0.7766
  O  O57  1  0.632000  0.137900  0.874000  1.0  -0.6737
  O  O58  1  0.743700  0.463000  0.840930  1.0  -0.7377
  O  O59  1  0.622100  0.808000  0.818650  1.0  -0.6624
  O  O60  1  0.617600  0.370300  0.875050  1.0  -0.7418
  O  O61  1  0.484600  0.881700  0.734400  1.0  -0.481
  O  O62  1  0.486100  0.711300  0.863320  1.0  -0.5838
  O  O63  1  0.844300  0.604700  0.060200  1.0  -0.6948
  O  O64  1  0.539300  0.228200  0.757200  1.0  -0.6805
  O  O65  1  0.978200  0.499200  0.116520  1.0  -0.7831
  O  O66  1  0.519500  0.453500  0.730800  1.0  -0.6049
  O  O67  1  0.490500  0.248400  0.899040  1.0  -0.5752
  O  O68  1  0.902200  0.457200  0.979500  1.0  -0.7033
  O  O69  1  0.628400  0.055800  0.745090  1.0  -0.6841
  O  O70  1  0.701600  0.237100  0.778600  1.0  -0.4704
  O  O71  1  0.609400  0.836000  0.676430  1.0  -0.6297
  O  O72  1  0.764700  0.227400  0.553540  1.0  -0.6016
  O  O73  1  0.909100  0.868900  0.477560  1.0  -0.7465
  O  O74  1  0.908600  0.136400  0.498530  1.0  -0.7434
  O  O75  1  0.761600  0.754300  0.509700  1.0  -0.618
  O  O76  1  0.883900  0.078900  0.642340  1.0  -0.8106
  O  O77  1  0.659100  0.898100  0.409110  1.0  -0.6636
  O  O78  1  0.795400  0.018700  0.384820  1.0  -0.6037
  O  O79  1  0.033400  0.978700  0.623730  1.0  -0.7536
  O  O80  1  0.969700  0.180500  0.778900  1.0  -0.6645
  O  O81  1  0.787500  0.990800  0.527870  1.0  -0.7758
  O  O82  1  0.868000  0.637900  0.626000  1.0  -0.6721
  O  O83  1  0.756300  0.963000  0.659070  1.0  -0.7366
  O  O84  1  0.877900  0.308000  0.681350  1.0  -0.6614
  O  O85  1  0.882400  0.870300  0.624950  1.0  -0.7423
  O  O86  1  0.015400  0.381700  0.765600  1.0  -0.4812
  O  O87  1  0.013900  0.211300  0.636680  1.0  -0.585
  O  O88  1  0.655700  0.104700  0.439800  1.0  -0.6975
  O  O89  1  0.960700  0.728200  0.742800  1.0  -0.6778
  O  O90  1  0.521800  0.999200  0.383480  1.0  -0.7828
  O  O91  1  0.980500  0.953500  0.769200  1.0  -0.5986
  O  O92  1  0.009500  0.748400  0.600960  1.0  -0.5753
  O  O93  1  0.597800  0.957200  0.520500  1.0  -0.7029
  O  O94  1  0.871600  0.555800  0.754910  1.0  -0.6847
  O  O95  1  0.798400  0.737100  0.721400  1.0  -0.4718
  O  O96  1  0.890600  0.336000  0.823570  1.0  -0.6313
  O  O97  1  0.264700  0.272600  0.053540  1.0  -0.6105
  O  O98  1  0.409100  0.631100  0.977560  1.0  -0.7458
  O  O99  1  0.408600  0.363600  0.998530  1.0  -0.7434
  O  O100  1  0.261600  0.745700  0.009700  1.0  -0.6138
  O  O101  1  0.383900  0.421100  0.142340  1.0  -0.8108
  O  O102  1  0.159100  0.601900  0.909110  1.0  -0.6645
  O  O103  1  0.295400  0.481300  0.884820  1.0  -0.6041
  O  O104  1  0.533400  0.521300  0.123730  1.0  -0.7537
  O  O105  1  0.469700  0.319500  0.278900  1.0  -0.6636
  O  O106  1  0.287500  0.509200  0.027870  1.0  -0.7759
  O  O107  1  0.368000  0.862100  0.126000  1.0  -0.6736
  O  O108  1  0.256300  0.537000  0.159070  1.0  -0.7368
  O  O109  1  0.377900  0.192000  0.181350  1.0  -0.6597
  O  O110  1  0.382400  0.629700  0.124950  1.0  -0.7411
  O  O111  1  0.515400  0.118300  0.265600  1.0  -0.4815
  O  O112  1  0.513900  0.288700  0.136680  1.0  -0.5852
  O  O113  1  0.155700  0.395300  0.939800  1.0  -0.6967
  O  O114  1  0.460700  0.771800  0.242800  1.0  -0.6779
  O  O115  1  0.021800  0.500800  0.883480  1.0  -0.7825
  O  O116  1  0.480500  0.546500  0.269200  1.0  -0.5982
  O  O117  1  0.509500  0.751600  0.100960  1.0  -0.5745
  O  O118  1  0.097800  0.542800  0.020500  1.0  -0.703
  O  O119  1  0.371600  0.944200  0.254910  1.0  -0.6846
  O  O120  1  0.298400  0.762900  0.221400  1.0  -0.4723
  O  O121  1  0.390600  0.164000  0.323570  1.0  -0.631
  O  O122  1  0.235300  0.772600  0.446460  1.0  -0.6107
  O  O123  1  0.090900  0.131100  0.522440  1.0  -0.7469
  O  O124  1  0.091400  0.863600  0.501470  1.0  -0.7438
  O  O125  1  0.238400  0.245700  0.490300  1.0  -0.6157
  O  O126  1  0.116100  0.921100  0.357660  1.0  -0.8108
  O  O127  1  0.340900  0.101900  0.590890  1.0  -0.6616
  O  O128  1  0.204600  0.981300  0.615180  1.0  -0.6054
  O  O129  1  0.966600  0.021300  0.376270  1.0  -0.7519
  O  O130  1  0.030300  0.819500  0.221100  1.0  -0.6666
  O  O131  1  0.212500  0.009200  0.472130  1.0  -0.7766
  O  O132  1  0.132000  0.362100  0.374000  1.0  -0.6731
  O  O133  1  0.243700  0.037000  0.340930  1.0  -0.7375
  O  O134  1  0.122100  0.692000  0.318650  1.0  -0.662
  O  O135  1  0.117600  0.129700  0.375050  1.0  -0.7402
  O  O136  1  0.984600  0.618300  0.234400  1.0  -0.4814
  O  O137  1  0.986100  0.788700  0.363320  1.0  -0.5845
  O  O138  1  0.344300  0.895300  0.560200  1.0  -0.6959
  O  O139  1  0.039300  0.271800  0.257200  1.0  -0.6807
  O  O140  1  0.478200  0.000800  0.616520  1.0  -0.7827
  O  O141  1  0.019500  0.046500  0.230800  1.0  -0.6051
  O  O142  1  0.990500  0.251600  0.399040  1.0  -0.573
  O  O143  1  0.402200  0.042800  0.479500  1.0  -0.7026
  O  O144  1  0.128400  0.444200  0.245090  1.0  -0.6838
  O  O145  1  0.201600  0.262900  0.278600  1.0  -0.4715
  O  O146  1  0.109400  0.664000  0.176430  1.0  -0.6293
