# generated using pymatgen
data_Co2H11C15NO8
_symmetry_space_group_name_H-M   'P 1'
_cell_length_a   9.12380000
_cell_length_b   9.62010000
_cell_length_c   12.64750000
_cell_angle_alpha   94.47500000
_cell_angle_beta   104.72200000
_cell_angle_gamma   114.43700000
_symmetry_Int_Tables_number   1
_chemical_formula_structural   Co2H11C15NO8
_chemical_formula_sum   'Co4 H22 C30 N2 O16'
_cell_volume   956.08966501
_cell_formula_units_Z   2
loop_
 _symmetry_equiv_pos_site_id
 _symmetry_equiv_pos_as_xyz
  1  'x, y, z'
loop_
 _atom_site_type_symbol
 _atom_site_label
 _atom_site_symmetry_multiplicity
 _atom_site_fract_x
 _atom_site_fract_y
 _atom_site_fract_z
 _atom_site_occupancy
 _atom_site_charge
  Co  Co1  1  0.872080  0.513910  0.701960  1.0  1.0055
  Co  Co2  1  0.127920  0.486090  0.298040  1.0  1.0065
  Co  Co3  1  0.500000  0.500000  0.500000  1.0  1.2037
  Co  Co4  1  0.000000  0.000000  0.500000  1.0  0.7868
  H  H5  1  0.362300  0.875100  0.597800  1.0  0.1122
  H  H6  1  0.727300  0.881700  0.816500  1.0  0.1032
  H  H7  1  0.513000  0.716200  0.864800  1.0  0.0819
  H  H8  1  0.445200  0.587700  0.755400  1.0  0.0925
  H  H9  1  0.397100  0.858300  0.777500  1.0  0.0838
  H  H10  1  0.636700  0.973000  0.679800  1.0  0.1192
  H  H11  1  0.423000  0.136300  0.834800  1.0  0.1239
  H  H12  1  0.992800  0.394100  0.902900  1.0  0.0826
  H  H13  1  0.894800  0.225700  0.014000  1.0  0.1321
  H  H14  1  0.536900  0.306400  0.729100  1.0  0.0861
  H  H15  1  0.685000  0.033000  0.071000  1.0  0.1203
  H  H16  1  0.637700  0.124900  0.402200  1.0  0.112
  H  H17  1  0.272700  0.118300  0.183500  1.0  0.1039
  H  H18  1  0.487000  0.283800  0.135200  1.0  0.0822
  H  H19  1  0.554800  0.412300  0.244600  1.0  0.0938
  H  H20  1  0.602900  0.141700  0.222500  1.0  0.0847
  H  H21  1  0.363300  0.027000  0.320200  1.0  0.1179
  H  H22  1  0.577000  0.863700  0.165200  1.0  0.125
  H  H23  1  0.007200  0.605900  0.097100  1.0  0.0816
  H  H24  1  0.105200  0.774300  0.986000  1.0  0.1312
  H  H25  1  0.463100  0.693600  0.270900  1.0  0.0861
  H  H26  1  0.315000  0.967000  0.929000  1.0  0.1209
  C  C27  1  0.670300  0.848700  0.559000  1.0  0.7073
  C  C28  1  0.739500  0.695100  0.741100  1.0  0.685
  C  C29  1  0.296800  0.649900  0.524400  1.0  0.6841
  C  C30  1  0.395400  0.793700  0.618300  1.0  -0.1537
  C  C31  1  0.650800  0.793300  0.753900  1.0  -0.1473
  C  C32  1  0.489400  0.698500  0.784400  1.0  -0.1417
  C  C33  1  0.363700  0.758000  0.729900  1.0  -0.1371
  C  C34  1  0.181200  0.655800  0.719700  1.0  0.6455
  C  C35  1  0.581000  0.041300  0.003900  1.0  -0.0966
  C  C36  1  0.591900  0.861000  0.651000  1.0  -0.1565
  C  C37  1  0.644700  0.155000  0.935900  1.0  0.13
  C  C38  1  0.540000  0.185800  0.849700  1.0  -0.2062
  C  C39  1  0.876200  0.340200  0.888700  1.0  0.1828
  C  C40  1  0.818500  0.238500  0.955900  1.0  -0.1897
  C  C41  1  0.609400  0.289100  0.787000  1.0  0.1769
  C  C42  1  0.329700  0.151300  0.441000  1.0  0.7061
  C  C43  1  0.260500  0.304900  0.258900  1.0  0.6857
  C  C44  1  0.703200  0.350100  0.475600  1.0  0.6827
  C  C45  1  0.604600  0.206300  0.381700  1.0  -0.1512
  C  C46  1  0.349200  0.206700  0.246100  1.0  -0.1477
  C  C47  1  0.510600  0.301500  0.215600  1.0  -0.1385
  C  C48  1  0.636300  0.242000  0.270100  1.0  -0.1367
  C  C49  1  0.818800  0.344200  0.280300  1.0  0.6445
  C  C50  1  0.419000  0.958700  0.996100  1.0  -0.0968
  C  C51  1  0.408100  0.139000  0.349000  1.0  -0.1544
  C  C52  1  0.355300  0.845000  0.064100  1.0  0.1293
  C  C53  1  0.460000  0.814200  0.150300  1.0  -0.2068
  C  C54  1  0.123800  0.659800  0.111300  1.0  0.1831
  C  C55  1  0.181500  0.761500  0.044100  1.0  -0.1873
  C  C56  1  0.390600  0.710900  0.213000  1.0  0.1768
  N  N57  1  0.776900  0.366400  0.805200  1.0  -0.337
  N  N58  1  0.223100  0.633600  0.194800  1.0  -0.3347
  O  O59  1  0.879900  0.725400  0.807800  1.0  -0.604
  O  O60  1  0.599400  0.729300  0.481400  1.0  -0.6113
  O  O61  1  0.670100  0.574600  0.661200  1.0  -0.6687
  O  O62  1  0.207800  0.659000  0.434700  1.0  -0.556
  O  O63  1  0.306900  0.525600  0.543200  1.0  -0.5979
  O  O64  1  0.808800  0.962400  0.570300  1.0  -0.5984
  O  O65  1  0.067800  0.683200  0.657900  1.0  -0.5741
  O  O66  1  0.139900  0.548400  0.772300  1.0  -0.5789
  O  O67  1  0.120100  0.274600  0.192200  1.0  -0.6076
  O  O68  1  0.400600  0.270700  0.518600  1.0  -0.6115
  O  O69  1  0.329900  0.425400  0.338800  1.0  -0.6699
  O  O70  1  0.792200  0.341000  0.565300  1.0  -0.5542
  O  O71  1  0.693100  0.474400  0.456800  1.0  -0.598
  O  O72  1  0.191200  0.037600  0.429700  1.0  -0.5967
  O  O73  1  0.932200  0.316800  0.342100  1.0  -0.5747
  O  O74  1  0.860100  0.451600  0.227700  1.0  -0.5781
