# generated using pymatgen
data_Cd2H18C21(NO4)2
_symmetry_space_group_name_H-M   'P 1'
_cell_length_a   12.00260000
_cell_length_b   14.61610000
_cell_length_c   16.82320000
_cell_angle_alpha   115.74700000
_cell_angle_beta   105.68600000
_cell_angle_gamma   90.00000000
_symmetry_Int_Tables_number   1
_chemical_formula_structural   Cd2H18C21(NO4)2
_chemical_formula_sum   'Cd8 H72 C84 N8 O32'
_cell_volume   2535.72846602
_cell_formula_units_Z   4
loop_
 _symmetry_equiv_pos_site_id
 _symmetry_equiv_pos_as_xyz
  1  'x, y, z'
loop_
 _atom_site_type_symbol
 _atom_site_label
 _atom_site_symmetry_multiplicity
 _atom_site_fract_x
 _atom_site_fract_y
 _atom_site_fract_z
 _atom_site_occupancy
 _atom_site_charge
  Cd  Cd1  1  0.068670  0.825520  0.568240  1.0  1.0482
  Cd  Cd2  1  0.672450  0.486120  0.646780  1.0  0.9575
  Cd  Cd3  1  0.431330  0.257280  0.431760  1.0  1.0487
  Cd  Cd4  1  0.827550  0.839340  0.353220  1.0  0.964
  Cd  Cd5  1  0.931330  0.174480  0.431760  1.0  1.0483
  Cd  Cd6  1  0.327550  0.513880  0.353220  1.0  0.953
  Cd  Cd7  1  0.568670  0.742720  0.568240  1.0  1.049
  Cd  Cd8  1  0.172450  0.160660  0.646780  1.0  0.9616
  H  H9  1  0.920600  0.476300  0.429200  1.0  0.097
  H  H10  1  0.834700  0.494400  0.536000  1.0  0.1148
  H  H11  1  0.767000  0.357000  0.395800  1.0  0.1064
  H  H12  1  0.674800  0.361500  0.266400  1.0  0.0934
  H  H13  1  0.829300  0.463000  0.291000  1.0  0.089
  H  H14  1  0.764000  0.558900  0.329800  1.0  0.105
  H  H15  1  0.337500  0.896800  0.698200  1.0  0.0859
  H  H16  1  0.460900  0.909200  0.833000  1.0  0.1039
  H  H17  1  0.196300  0.788000  0.872000  1.0  0.1301
  H  H18  1  0.079400  0.778000  0.735000  1.0  0.0788
  H  H19  1  0.475200  0.715200  0.906000  1.0  0.1019
  H  H20  1  0.561600  0.802100  0.914800  1.0  0.101
  H  H21  1  0.375300  0.836500  0.988000  1.0  0.1039
  H  H22  1  0.461800  0.923500  0.997600  1.0  0.0956
  H  H23  1  0.810000  0.928900  0.213600  1.0  0.0773
  H  H24  1  0.706200  0.914400  0.070800  1.0  0.1357
  H  H25  1  0.503400  0.675900  0.034000  1.0  0.1257
  H  H26  1  0.610900  0.699400  0.179600  1.0  0.0829
  H  H27  1  0.579400  0.047100  0.570800  1.0  0.0954
  H  H28  1  0.665300  0.958400  0.464000  1.0  0.1162
  H  H29  1  0.733000  0.961200  0.604200  1.0  0.1044
  H  H30  1  0.825200  0.095100  0.733600  1.0  0.0909
  H  H31  1  0.670700  0.172000  0.709000  1.0  0.0885
  H  H32  1  0.736000  0.229100  0.670200  1.0  0.1032
  H  H33  1  0.162500  0.198600  0.301800  1.0  0.0852
  H  H34  1  0.039100  0.076200  0.167000  1.0  0.1064
  H  H35  1  0.303700  0.916000  0.128000  1.0  0.1306
  H  H36  1  0.420600  0.043000  0.265000  1.0  0.0809
  H  H37  1  0.024800  0.809200  0.094000  1.0  0.0977
  H  H38  1  0.938400  0.887300  0.085200  1.0  0.1004
  H  H39  1  0.124700  0.848500  0.012000  1.0  0.1008
  H  H40  1  0.038200  0.925900  0.002400  1.0  0.0948
  H  H41  1  0.690000  0.715300  0.786400  1.0  0.077
  H  H42  1  0.793800  0.843600  0.929200  1.0  0.1366
  H  H43  1  0.996600  0.641900  0.966000  1.0  0.1269
  H  H44  1  0.889100  0.519800  0.820400  1.0  0.0835
  H  H45  1  0.079400  0.523700  0.570800  1.0  0.0957
  H  H46  1  0.165300  0.505600  0.464000  1.0  0.1144
  H  H47  1  0.233000  0.643000  0.604200  1.0  0.1066
  H  H48  1  0.325200  0.638500  0.733600  1.0  0.0931
  H  H49  1  0.170700  0.537000  0.709000  1.0  0.0897
  H  H50  1  0.236000  0.441100  0.670200  1.0  0.1064
  H  H51  1  0.662500  0.103200  0.301800  1.0  0.085
  H  H52  1  0.539100  0.090800  0.167000  1.0  0.1037
  H  H53  1  0.803700  0.212000  0.128000  1.0  0.1303
  H  H54  1  0.920600  0.222000  0.265000  1.0  0.0783
  H  H55  1  0.524800  0.284800  0.094000  1.0  0.1016
  H  H56  1  0.438400  0.197900  0.085200  1.0  0.1005
  H  H57  1  0.624700  0.163500  0.012000  1.0  0.103
  H  H58  1  0.538200  0.076500  0.002400  1.0  0.0961
  H  H59  1  0.190000  0.071100  0.786400  1.0  0.0771
  H  H60  1  0.293800  0.085600  0.929200  1.0  0.1365
  H  H61  1  0.496600  0.324100  0.966000  1.0  0.1259
  H  H62  1  0.389100  0.300600  0.820400  1.0  0.0832
  H  H63  1  0.420600  0.952900  0.429200  1.0  0.0955
  H  H64  1  0.334700  0.041600  0.536000  1.0  0.1166
  H  H65  1  0.267000  0.038800  0.395800  1.0  0.1057
  H  H66  1  0.174800  0.904900  0.266400  1.0  0.0918
  H  H67  1  0.329300  0.828000  0.291000  1.0  0.0873
  H  H68  1  0.264000  0.770900  0.329800  1.0  0.1001
  H  H69  1  0.837500  0.801400  0.698200  1.0  0.0848
  H  H70  1  0.960900  0.923800  0.833000  1.0  0.1068
  H  H71  1  0.696300  0.084000  0.872000  1.0  0.1301
  H  H72  1  0.579400  0.957000  0.735000  1.0  0.0795
  H  H73  1  0.975200  0.190800  0.906000  1.0  0.0972
  H  H74  1  0.061600  0.112700  0.914800  1.0  0.1007
  H  H75  1  0.875300  0.151500  0.988000  1.0  0.1022
  H  H76  1  0.961800  0.074100  0.997600  1.0  0.0947
  H  H77  1  0.310000  0.284700  0.213600  1.0  0.0774
  H  H78  1  0.206200  0.156400  0.070800  1.0  0.1361
  H  H79  1  0.003400  0.358100  0.034000  1.0  0.1269
  H  H80  1  0.110900  0.480200  0.179600  1.0  0.0824
  C  C81  1  0.866200  0.527200  0.435400  1.0  -0.1446
  C  C82  1  0.787400  0.508200  0.486000  1.0  -0.1563
  C  C83  1  0.712100  0.407370  0.406940  1.0  -0.1362
  C  C84  1  0.681000  0.426740  0.320880  1.0  -0.1439
  C  C85  1  0.788100  0.498300  0.335800  1.0  -0.2021
  C  C86  1  0.941400  0.631000  0.485600  1.0  0.7124
  C  C87  1  0.719400  0.596500  0.525200  1.0  0.6733
  C  C88  1  0.611200  0.355900  0.417200  1.0  0.6853
  C  C89  1  0.567100  0.472000  0.304600  1.0  0.6989
  C  C90  1  0.308200  0.874700  0.733600  1.0  0.1816
  C  C91  1  0.383100  0.881900  0.815000  1.0  -0.1626
  C  C92  1  0.345900  0.849900  0.869400  1.0  0.1181
  C  C93  1  0.227700  0.810600  0.837800  1.0  -0.2352
  C  C94  1  0.157500  0.805400  0.755400  1.0  0.1745
  C  C95  1  0.512700  0.785400  0.945400  1.0  -0.1559
  C  C96  1  0.423500  0.853700  0.957200  1.0  -0.1575
  C  C97  1  0.746500  0.877800  0.177800  1.0  0.201
  C  C98  1  0.684400  0.869900  0.091800  1.0  -0.1982
  C  C99  1  0.588900  0.793800  0.037600  1.0  0.1188
  C  C100  1  0.564300  0.729700  0.069800  1.0  -0.1618
  C  C101  1  0.630900  0.743700  0.157800  1.0  0.1361
  C  C102  1  0.633800  0.091800  0.564600  1.0  -0.149
  C  C103  1  0.712600  0.022200  0.514000  1.0  -0.1591
  C  C104  1  0.787900  0.000430  0.593060  1.0  -0.1385
  C  C105  1  0.819000  0.105860  0.679120  1.0  -0.1427
  C  C106  1  0.711900  0.162500  0.664200  1.0  -0.2043
  C  C107  1  0.558600  0.145400  0.514400  1.0  0.7122
  C  C108  1  0.780600  0.071300  0.474800  1.0  0.6819
  C  C109  1  0.888800  0.938700  0.582800  1.0  0.6815
  C  C110  1  0.932900  0.167400  0.695400  1.0  0.6965
  C  C111  1  0.191800  0.141100  0.266400  1.0  0.1813
  C  C112  1  0.116900  0.066900  0.185000  1.0  -0.1647
  C  C113  1  0.154100  0.980500  0.130600  1.0  0.1198
  C  C114  1  0.272300  0.972800  0.162200  1.0  -0.2337
  C  C115  1  0.342500  0.050000  0.244600  1.0  0.1731
  C  C116  1  0.987300  0.840000  0.054600  1.0  -0.1543
  C  C117  1  0.076500  0.896500  0.042800  1.0  -0.1572
  C  C118  1  0.753500  0.700000  0.822200  1.0  0.1996
  C  C119  1  0.815600  0.778100  0.908200  1.0  -0.203
  C  C120  1  0.911100  0.756200  0.962400  1.0  0.1173
  C  C121  1  0.935700  0.659900  0.930200  1.0  -0.1626
  C  C122  1  0.869100  0.585900  0.842200  1.0  0.1383
  C  C123  1  0.133800  0.472800  0.564600  1.0  -0.1447
  C  C124  1  0.212600  0.491800  0.514000  1.0  -0.1566
  C  C125  1  0.287900  0.592630  0.593060  1.0  -0.1385
  C  C126  1  0.319000  0.573260  0.679120  1.0  -0.1411
  C  C127  1  0.211900  0.501700  0.664200  1.0  -0.2006
  C  C128  1  0.058600  0.369000  0.514400  1.0  0.7135
  C  C129  1  0.280600  0.403500  0.474800  1.0  0.6727
  C  C130  1  0.388800  0.644100  0.582800  1.0  0.6852
  C  C131  1  0.432900  0.528000  0.695400  1.0  0.6964
  C  C132  1  0.691800  0.125300  0.266400  1.0  0.1819
  C  C133  1  0.616900  0.118100  0.185000  1.0  -0.1629
  C  C134  1  0.654100  0.150100  0.130600  1.0  0.1188
  C  C135  1  0.772300  0.189400  0.162200  1.0  -0.236
  C  C136  1  0.842500  0.194600  0.244600  1.0  0.1733
  C  C137  1  0.487300  0.214600  0.054600  1.0  -0.1561
  C  C138  1  0.576500  0.146300  0.042800  1.0  -0.1586
  C  C139  1  0.253500  0.122200  0.822200  1.0  0.201
  C  C140  1  0.315600  0.130100  0.908200  1.0  -0.2005
  C  C141  1  0.411100  0.206200  0.962400  1.0  0.1182
  C  C142  1  0.435700  0.270300  0.930200  1.0  -0.1638
  C  C143  1  0.369100  0.256300  0.842200  1.0  0.1369
  C  C144  1  0.366200  0.908200  0.435400  1.0  -0.1488
  C  C145  1  0.287400  0.977800  0.486000  1.0  -0.1588
  C  C146  1  0.212100  0.999570  0.406940  1.0  -0.1367
  C  C147  1  0.181000  0.894140  0.320880  1.0  -0.1453
  C  C148  1  0.288100  0.837500  0.335800  1.0  -0.205
  C  C149  1  0.441400  0.854600  0.485600  1.0  0.7128
  C  C150  1  0.219400  0.928700  0.525200  1.0  0.6797
  C  C151  1  0.111200  0.061300  0.417200  1.0  0.6794
  C  C152  1  0.067100  0.832600  0.304600  1.0  0.6987
  C  C153  1  0.808200  0.858900  0.733600  1.0  0.1805
  C  C154  1  0.883100  0.933100  0.815000  1.0  -0.1652
  C  C155  1  0.845900  0.019500  0.869400  1.0  0.118
  C  C156  1  0.727700  0.027200  0.837800  1.0  -0.2342
  C  C157  1  0.657500  0.950000  0.755400  1.0  0.1726
  C  C158  1  0.012700  0.160000  0.945400  1.0  -0.1549
  C  C159  1  0.923500  0.103500  0.957200  1.0  -0.1561
  C  C160  1  0.246500  0.300000  0.177800  1.0  0.2015
  C  C161  1  0.184400  0.221900  0.091800  1.0  -0.2029
  C  C162  1  0.088900  0.243800  0.037600  1.0  0.1169
  C  C163  1  0.064300  0.340100  0.069800  1.0  -0.166
  C  C164  1  0.130900  0.414100  0.157800  1.0  0.1392
  N  N165  1  0.196100  0.837460  0.703920  1.0  -0.3406
  N  N166  1  0.720400  0.816500  0.211200  1.0  -0.3184
  N  N167  1  0.303900  0.133540  0.296080  1.0  -0.3383
  N  N168  1  0.779600  0.605300  0.788800  1.0  -0.3178
  N  N169  1  0.803900  0.162540  0.296080  1.0  -0.3408
  N  N170  1  0.279600  0.183500  0.788800  1.0  -0.3221
  N  N171  1  0.696100  0.866460  0.703920  1.0  -0.3414
  N  N172  1  0.220400  0.394700  0.211200  1.0  -0.314
  O  O173  1  0.984100  0.662780  0.439160  1.0  -0.6839
  O  O174  1  0.964900  0.681540  0.570480  1.0  -0.6178
  O  O175  1  0.697800  0.657920  0.490640  1.0  -0.5823
  O  O176  1  0.686500  0.607750  0.594100  1.0  -0.6581
  O  O177  1  0.599600  0.378720  0.496640  1.0  -0.6882
  O  O178  1  0.542900  0.285070  0.346940  1.0  -0.5928
  O  O179  1  0.509300  0.484240  0.359280  1.0  -0.6367
  O  O180  1  0.538500  0.492440  0.238080  1.0  -0.5599
  O  O181  1  0.515900  0.223620  0.560840  1.0  -0.6758
  O  O182  1  0.535100  0.111060  0.429520  1.0  -0.614
  O  O183  1  0.802200  0.167280  0.509360  1.0  -0.5823
  O  O184  1  0.813500  0.013650  0.405900  1.0  -0.6571
  O  O185  1  0.900400  0.882080  0.503360  1.0  -0.6836
  O  O186  1  0.957100  0.938130  0.653060  1.0  -0.5904
  O  O187  1  0.990700  0.124960  0.640720  1.0  -0.6354
  O  O188  1  0.961500  0.254360  0.761920  1.0  -0.5571
  O  O189  1  0.015900  0.337220  0.560840  1.0  -0.6808
  O  O190  1  0.035100  0.318460  0.429520  1.0  -0.6172
  O  O191  1  0.302200  0.342080  0.509360  1.0  -0.5824
  O  O192  1  0.313500  0.392250  0.405900  1.0  -0.6567
  O  O193  1  0.400400  0.621280  0.503360  1.0  -0.6878
  O  O194  1  0.457100  0.714930  0.653060  1.0  -0.5933
  O  O195  1  0.490700  0.515760  0.640720  1.0  -0.6375
  O  O196  1  0.461500  0.507560  0.761920  1.0  -0.56
  O  O197  1  0.484100  0.776380  0.439160  1.0  -0.6741
  O  O198  1  0.464900  0.888940  0.570480  1.0  -0.6163
  O  O199  1  0.197800  0.832720  0.490640  1.0  -0.5805
  O  O200  1  0.186500  0.986350  0.594100  1.0  -0.6579
  O  O201  1  0.099600  0.117920  0.496640  1.0  -0.6839
  O  O202  1  0.042900  0.061870  0.346940  1.0  -0.5913
  O  O203  1  0.009300  0.875040  0.359280  1.0  -0.6362
  O  O204  1  0.038500  0.745640  0.238080  1.0  -0.5584
