# generated using pymatgen
data_Na2Zn2Mo12P8O51
_symmetry_space_group_name_H-M   'P 1'
_cell_length_a   12.39700000
_cell_length_b   15.19470000
_cell_length_c   20.95080000
_cell_angle_alpha   90.95000000
_cell_angle_beta   92.99700000
_cell_angle_gamma   96.04900000
_symmetry_Int_Tables_number   1
_chemical_formula_structural   Na2Zn2Mo12P8O51
_chemical_formula_sum   'Na4 Zn4 Mo24 P16 O102'
_cell_volume   3918.16413441
_cell_formula_units_Z   2
loop_
 _symmetry_equiv_pos_site_id
 _symmetry_equiv_pos_as_xyz
  1  'x, y, z'
loop_
 _atom_site_type_symbol
 _atom_site_label
 _atom_site_symmetry_multiplicity
 _atom_site_fract_x
 _atom_site_fract_y
 _atom_site_fract_z
 _atom_site_occupancy
 _atom_site_charge
  Na  Na1  1  0.757000  0.746800  0.250560  1.0  0.9894
  Na  Na2  1  0.243000  0.253200  0.749440  1.0  0.9905
  Na  Na3  1  0.500000  0.500000  0.000000  1.0  0.9936
  Na  Na4  1  0.000000  0.000000  0.500000  1.0  0.995
  Zn  Zn5  1  0.959670  0.126410  0.197400  1.0  1.2462
  Zn  Zn6  1  0.519180  0.376710  0.306060  1.0  1.241
  Zn  Zn7  1  0.040330  0.873590  0.802600  1.0  1.2477
  Zn  Zn8  1  0.480820  0.623290  0.693940  1.0  1.2408
  Mo  Mo9  1  0.362360  0.259440  0.030450  1.0  1.273
  Mo  Mo10  1  0.910900  0.238150  0.477910  1.0  1.2859
  Mo  Mo11  1  0.120790  0.244340  0.473590  1.0  1.3009
  Mo  Mo12  1  0.570460  0.256290  0.026200  1.0  1.2691
  Mo  Mo13  1  0.240580  0.071740  0.394930  1.0  1.2508
  Mo  Mo14  1  0.676460  0.564570  0.152850  1.0  1.2809
  Mo  Mo15  1  0.118370  0.942340  0.336990  1.0  1.2502
  Mo  Mo16  1  0.390650  0.568300  0.162550  1.0  1.2606
  Mo  Mo17  1  0.258310  0.441590  0.107570  1.0  1.2383
  Mo  Mo18  1  0.751970  0.433570  0.093810  1.0  1.2512
  Mo  Mo19  1  0.830220  0.932120  0.343980  1.0  1.8601
  Mo  Mo20  1  0.745190  0.057350  0.401960  1.0  1.277
  Mo  Mo21  1  0.637640  0.740560  0.969550  1.0  1.2716
  Mo  Mo22  1  0.089100  0.761850  0.522090  1.0  1.2849
  Mo  Mo23  1  0.879210  0.755660  0.526410  1.0  1.305
  Mo  Mo24  1  0.429540  0.743710  0.973800  1.0  1.2686
  Mo  Mo25  1  0.759420  0.928260  0.605070  1.0  1.2513
  Mo  Mo26  1  0.323540  0.435430  0.847150  1.0  1.2826
  Mo  Mo27  1  0.881630  0.057660  0.663010  1.0  1.2515
  Mo  Mo28  1  0.609350  0.431700  0.837450  1.0  1.2604
  Mo  Mo29  1  0.741690  0.558410  0.892430  1.0  1.2364
  Mo  Mo30  1  0.248030  0.566430  0.906190  1.0  1.255
  Mo  Mo31  1  0.169780  0.067880  0.656020  1.0  1.8594
  Mo  Mo32  1  0.254810  0.942650  0.598040  1.0  1.276
  P  P33  1  0.505020  0.371830  0.157900  1.0  1.7872
  P  P34  1  0.798050  0.222000  0.106820  1.0  1.7907
  P  P35  1  0.562970  0.587560  0.291730  1.0  1.7777
  P  P36  1  0.141880  0.234790  0.109600  1.0  1.7702
  P  P37  1  0.989580  0.130850  0.344280  1.0  1.8804
  P  P38  1  0.677360  0.261750  0.398750  1.0  1.7953
  P  P39  1  0.337060  0.283020  0.392490  1.0  1.744
  P  P40  1  0.949290  0.915570  0.205870  1.0  1.7549
  P  P41  1  0.494980  0.628170  0.842100  1.0  1.7873
  P  P42  1  0.201950  0.778000  0.893180  1.0  1.7917
  P  P43  1  0.437030  0.412440  0.708270  1.0  1.7765
  P  P44  1  0.858120  0.765210  0.890400  1.0  1.7691
  P  P45  1  0.010420  0.869150  0.655720  1.0  1.8802
  P  P46  1  0.322640  0.738250  0.601250  1.0  1.795
  P  P47  1  0.662940  0.716980  0.607510  1.0  1.7448
  P  P48  1  0.050710  0.084430  0.794130  1.0  1.7546
  O  O49  1  0.462800  0.188700  0.076400  1.0  -0.6415
  O  O50  1  0.012400  0.154000  0.504700  1.0  -0.722
  O  O51  1  0.475800  0.344300  0.998000  1.0  -0.731
  O  O52  1  0.014400  0.312500  0.429900  1.0  -0.6214
  O  O53  1  0.377000  0.520500  0.075200  1.0  -0.7263
  O  O54  1  0.205900  0.045000  0.303900  1.0  -0.6527
  O  O55  1  0.295900  0.472100  0.198100  1.0  -0.6498
  O  O56  1  0.648300  0.515100  0.066600  1.0  -0.7489
  O  O57  1  0.228100  0.311200  0.413500  1.0  -0.669
  O  O58  1  0.127700  0.986600  0.425400  1.0  -0.7323
  O  O59  1  0.064400  0.234100  0.050000  1.0  -0.4646
  O  O60  1  0.248900  0.200200  0.090400  1.0  -0.6755
  O  O61  1  0.676200  0.168600  0.370100  1.0  -0.6933
  O  O62  1  0.321800  0.188900  0.363600  1.0  -0.6954
  O  O63  1  0.097800  0.157100  0.382700  1.0  -0.866
  O  O64  1  0.851900  0.979600  0.431300  1.0  -0.7171
  O  O65  1  0.540700  0.634800  0.133600  1.0  -0.6703
  O  O66  1  0.751500  0.028400  0.310800  1.0  -0.6397
  O  O67  1  0.824300  0.173100  0.167100  1.0  -0.6447
  O  O68  1  0.698600  0.356700  0.011500  1.0  -0.6384
  O  O69  1  0.751100  0.465300  0.184900  1.0  -0.6664
  O  O70  1  0.736400  0.845300  0.351500  1.0  -0.6724
  O  O71  1  0.509000  0.320300  0.220800  1.0  -0.6802
  O  O72  1  0.985600  0.181500  0.282200  1.0  -0.6954
  O  O73  1  0.896500  0.151700  0.386000  1.0  -0.8759
  O  O74  1  0.093600  0.173700  0.159700  1.0  -0.6907
  O  O75  1  0.263400  0.365300  0.023100  1.0  -0.6415
  O  O76  1  0.453700  0.595300  0.253800  1.0  -0.6281
  O  O77  1  0.857300  0.893800  0.251800  1.0  -0.7783
  O  O78  1  0.167500  0.329000  0.139200  1.0  -0.7123
  O  O79  1  0.060500  0.918800  0.243800  1.0  -0.6477
  O  O80  1  0.680800  0.194400  0.083200  1.0  -0.6611
  O  O81  1  0.820500  0.321300  0.121200  1.0  -0.7273
  O  O82  1  0.416300  0.290000  0.451700  1.0  -0.536
  O  O83  1  0.228400  0.144800  0.480600  1.0  -0.6101
  O  O84  1  0.978600  0.030600  0.328700  1.0  -0.815
  O  O85  1  0.943700  0.843900  0.154200  1.0  -0.4773
  O  O86  1  0.394300  0.349000  0.121900  1.0  -0.8543
  O  O87  1  0.787400  0.132400  0.487300  1.0  -0.644
  O  O88  1  0.972600  0.867700  0.363700  1.0  -0.665
  O  O89  1  0.564700  0.497200  0.322500  1.0  -0.7115
  O  O90  1  0.656800  0.601900  0.245900  1.0  -0.7332
  O  O91  1  0.595800  0.346400  0.115800  1.0  -0.8523
  O  O92  1  0.935500  0.004500  0.175200  1.0  -0.7034
  O  O93  1  0.792400  0.296800  0.423200  1.0  -0.6416
  O  O94  1  0.522900  0.472300  0.172300  1.0  -0.8061
  O  O95  1  0.640400  0.321400  0.345900  1.0  -0.7398
  O  O96  1  0.602900  0.260200  0.455700  1.0  -0.4622
  O  O97  1  0.576800  0.659500  0.343600  1.0  -0.5235
  O  O98  1  0.378300  0.346100  0.341300  1.0  -0.662
  O  O99  1  0.867300  0.192400  0.052500  1.0  -0.4571
  O  O100  1  0.537200  0.811300  0.923600  1.0  -0.6335
  O  O101  1  0.987600  0.846000  0.495300  1.0  -0.7237
  O  O102  1  0.524200  0.655700  0.002000  1.0  -0.7331
  O  O103  1  0.985600  0.687500  0.570100  1.0  -0.6289
  O  O104  1  0.623000  0.479500  0.924800  1.0  -0.7263
  O  O105  1  0.794100  0.955000  0.696100  1.0  -0.651
  O  O106  1  0.704100  0.527900  0.801900  1.0  -0.6495
  O  O107  1  0.351700  0.484900  0.933400  1.0  -0.7468
  O  O108  1  0.771900  0.688800  0.586500  1.0  -0.6676
  O  O109  1  0.872300  0.013400  0.574600  1.0  -0.7319
  O  O110  1  0.935600  0.765900  0.950000  1.0  -0.4655
  O  O111  1  0.751100  0.799800  0.909600  1.0  -0.6758
  O  O112  1  0.323800  0.831400  0.629900  1.0  -0.6963
  O  O113  1  0.678200  0.811100  0.636400  1.0  -0.6978
  O  O114  1  0.902200  0.842900  0.617300  1.0  -0.8657
  O  O115  1  0.148100  0.020400  0.568700  1.0  -0.7176
  O  O116  1  0.459300  0.365200  0.866400  1.0  -0.6734
  O  O117  1  0.248500  0.971600  0.689200  1.0  -0.6401
  O  O118  1  0.175700  0.826900  0.832900  1.0  -0.6421
  O  O119  1  0.301400  0.643300  0.988500  1.0  -0.6356
  O  O120  1  0.248900  0.534700  0.815100  1.0  -0.6622
  O  O121  1  0.263600  0.154700  0.648500  1.0  -0.6719
  O  O122  1  0.491000  0.679700  0.779200  1.0  -0.6804
  O  O123  1  0.014400  0.818500  0.717800  1.0  -0.6941
  O  O124  1  0.103500  0.848300  0.614000  1.0  -0.8782
  O  O125  1  0.906400  0.826300  0.840300  1.0  -0.6911
  O  O126  1  0.736600  0.634700  0.976900  1.0  -0.6414
  O  O127  1  0.546300  0.404700  0.746200  1.0  -0.6322
  O  O128  1  0.142700  0.106200  0.748200  1.0  -0.778
  O  O129  1  0.832500  0.671000  0.860800  1.0  -0.7117
  O  O130  1  0.939500  0.081200  0.756200  1.0  -0.6458
  O  O131  1  0.319200  0.805600  0.916800  1.0  -0.6629
  O  O132  1  0.179500  0.678700  0.878800  1.0  -0.7266
  O  O133  1  0.583700  0.710000  0.548300  1.0  -0.536
  O  O134  1  0.771600  0.855200  0.519400  1.0  -0.6131
  O  O135  1  0.021400  0.969400  0.671300  1.0  -0.8143
  O  O136  1  0.056300  0.156100  0.845800  1.0  -0.4766
  O  O137  1  0.605700  0.651000  0.878100  1.0  -0.8548
  O  O138  1  0.212600  0.867600  0.512700  1.0  -0.6462
  O  O139  1  0.027400  0.132300  0.636300  1.0  -0.6611
  O  O140  1  0.435300  0.502800  0.677500  1.0  -0.7103
  O  O141  1  0.343200  0.398100  0.754100  1.0  -0.7357
  O  O142  1  0.404200  0.653600  0.884200  1.0  -0.85
  O  O143  1  0.064500  0.995500  0.824800  1.0  -0.7041
  O  O144  1  0.207600  0.703200  0.576800  1.0  -0.6408
  O  O145  1  0.477100  0.527700  0.827700  1.0  -0.8048
  O  O146  1  0.359600  0.678600  0.654100  1.0  -0.7393
  O  O147  1  0.397100  0.739800  0.544300  1.0  -0.4636
  O  O148  1  0.423200  0.340500  0.656400  1.0  -0.523
  O  O149  1  0.621700  0.653900  0.658700  1.0  -0.6635
  O  O150  1  0.132700  0.807600  0.947500  1.0  -0.4569
