# generated using pymatgen
data_ZnH15C23N2O5
_symmetry_space_group_name_H-M   'P 1'
_cell_length_a   22.67780000
_cell_length_b   24.15970000
_cell_length_c   25.34770000
_cell_angle_alpha   66.58060000
_cell_angle_beta   81.05400000
_cell_angle_gamma   88.03700000
_symmetry_Int_Tables_number   1
_chemical_formula_structural   ZnH15C23N2O5
_chemical_formula_sum   'Zn12 H180 C276 N24 O60'
_cell_volume   12582.81417593
_cell_formula_units_Z   12
loop_
 _symmetry_equiv_pos_site_id
 _symmetry_equiv_pos_as_xyz
  1  'x, y, z'
loop_
 _atom_site_type_symbol
 _atom_site_label
 _atom_site_symmetry_multiplicity
 _atom_site_fract_x
 _atom_site_fract_y
 _atom_site_fract_z
 _atom_site_occupancy
 _atom_site_charge
  Zn  Zn1  1  0.774160  0.163530  0.506380  1.0  0.9801
  Zn  Zn2  1  0.619370  0.137990  0.540980  1.0  0.9435
  Zn  Zn3  1  0.714450  0.498480  0.897430  1.0  0.9605
  Zn  Zn4  1  0.561300  0.471080  0.917280  1.0  0.9877
  Zn  Zn5  1  0.880430  0.151090  0.710630  1.0  0.9546
  Zn  Zn6  1  0.026420  0.187410  0.675910  1.0  0.9595
  Zn  Zn7  1  0.119570  0.848910  0.289370  1.0  0.9564
  Zn  Zn8  1  0.973580  0.812590  0.324090  1.0  0.9573
  Zn  Zn9  1  0.225840  0.836470  0.493620  1.0  0.9772
  Zn  Zn10  1  0.380630  0.862010  0.459020  1.0  0.9434
  Zn  Zn11  1  0.285550  0.501520  0.102570  1.0  0.9602
  Zn  Zn12  1  0.438700  0.528920  0.082720  1.0  0.9893
  H  H13  1  0.052100  0.230400  0.508300  1.0  0.3138
  H  H14  1  0.334600  0.168200  0.515200  1.0  0.2586
  H  H15  1  0.987300  0.405800  0.915300  1.0  0.2359
  H  H16  1  0.277800  0.399800  0.005600  1.0  0.2915
  H  H17  1  0.142900  0.173900  0.523500  1.0  0.0864
  H  H18  1  0.241500  0.178800  0.536900  1.0  0.1171
  H  H19  1  0.273200  0.317900  0.377300  1.0  0.1185
  H  H20  1  0.177700  0.309900  0.365900  1.0  0.1067
  H  H21  1  0.856700  0.208200  0.559700  1.0  0.0658
  H  H22  1  0.954100  0.228100  0.553500  1.0  0.1274
  H  H23  1  0.986700  0.190900  0.409700  1.0  0.1338
  H  H24  1  0.885200  0.169600  0.424900  1.0  0.0884
  H  H25  1  0.498200  0.079400  0.577100  1.0  0.0878
  H  H26  1  0.400700  0.100100  0.554200  1.0  0.1264
  H  H27  1  0.448800  0.272600  0.467700  1.0  0.1142
  H  H28  1  0.547000  0.246700  0.486200  1.0  0.0915
  H  H29  1  0.079700  0.379000  0.056100  1.0  0.1231
  H  H30  1  0.182900  0.376100  0.037700  1.0  0.1149
  H  H31  1  0.177800  0.445600  0.865900  1.0  0.1181
  H  H32  1  0.074500  0.448500  0.884200  1.0  0.1222
  H  H33  1  0.816400  0.445800  0.852200  1.0  0.0919
  H  H34  1  0.921900  0.427900  0.861300  1.0  0.2063
  H  H35  1  0.889700  0.464700  0.999900  1.0  0.1164
  H  H36  1  0.793700  0.490900  0.978900  1.0  0.0646
  H  H37  1  0.468600  0.443600  0.858700  1.0  0.0861
  H  H38  1  0.366000  0.432800  0.869100  1.0  0.1214
  H  H39  1  0.365300  0.406200  0.037700  1.0  0.1263
  H  H40  1  0.467100  0.423800  0.016600  1.0  0.0807
  H  H41  1  0.801400  0.943900  0.544200  1.0  0.1174
  H  H42  1  0.791600  0.847000  0.611100  1.0  0.1036
  H  H43  1  0.732000  0.902700  0.738300  1.0  0.1436
  H  H44  1  0.742900  0.999400  0.669300  1.0  0.0882
  H  H45  1  0.717300  0.665100  0.748800  1.0  0.0948
  H  H46  1  0.729700  0.762700  0.677700  1.0  0.1057
  H  H47  1  0.778600  0.815700  0.793600  1.0  0.1176
  H  H48  1  0.765400  0.717100  0.863800  1.0  0.1204
  H  H49  1  0.633300  0.940800  0.578000  1.0  0.1194
  H  H50  1  0.618000  0.834900  0.629700  1.0  0.0987
  H  H51  1  0.555900  0.863000  0.772800  1.0  0.1162
  H  H52  1  0.568700  0.962400  0.725300  1.0  0.1149
  H  H53  1  0.553900  0.646900  0.726000  1.0  0.1107
  H  H54  1  0.568100  0.747900  0.673900  1.0  0.1096
  H  H55  1  0.594200  0.769100  0.818200  1.0  0.1196
  H  H56  1  0.587000  0.666200  0.868300  1.0  0.1107
  H  H57  1  0.772400  0.275700  0.599100  1.0  0.1126
  H  H58  1  0.763700  0.323100  0.660900  1.0  0.0955
  H  H59  1  0.588400  0.290900  0.695900  1.0  0.1187
  H  H60  1  0.598600  0.248800  0.627300  1.0  0.0897
  H  H61  1  0.576200  0.381700  0.812300  1.0  0.0884
  H  H62  1  0.583500  0.334900  0.749800  1.0  0.1096
  H  H63  1  0.754100  0.363900  0.720600  1.0  0.0925
  H  H64  1  0.749000  0.405800  0.784600  1.0  0.1317
  H  H65  1  0.770300  0.245700  0.321200  1.0  0.1152
  H  H66  1  0.751200  0.306200  0.230400  1.0  0.1151
  H  H67  1  0.577800  0.298000  0.285800  1.0  0.1106
  H  H68  1  0.596500  0.238200  0.381200  1.0  0.1008
  H  H69  1  0.719900  0.440200  0.064500  1.0  0.0894
  H  H70  1  0.731500  0.395200  0.161200  1.0  0.1298
  H  H71  1  0.566400  0.320600  0.196400  1.0  0.1183
  H  H72  1  0.553700  0.382400  0.100400  1.0  0.0889
  H  H73  1  0.601100  0.091000  0.709000  1.0  0.2594
  H  H74  1  0.293900  0.166700  0.735800  1.0  0.2573
  H  H75  1  0.523100  0.082500  0.690700  1.0  0.1142
  H  H76  1  0.429000  0.085000  0.664700  1.0  0.1057
  H  H77  1  0.365700  0.162800  0.774900  1.0  0.1202
  H  H78  1  0.459800  0.160300  0.800800  1.0  0.1134
  H  H79  1  0.794500  0.105900  0.660300  1.0  0.0657
  H  H80  1  0.697400  0.088600  0.665300  1.0  0.1248
  H  H81  1  0.667100  0.149400  0.794800  1.0  0.1336
  H  H82  1  0.767900  0.163800  0.784900  1.0  0.1066
  H  H83  1  0.133800  0.118500  0.642000  1.0  0.1088
  H  H84  1  0.235000  0.117400  0.648900  1.0  0.0997
  H  H85  1  0.198800  0.175600  0.777500  1.0  0.1304
  H  H86  1  0.103800  0.199900  0.750500  1.0  0.106
  H  H87  1  0.907400  0.319900  0.559800  1.0  0.0886
  H  H88  1  0.918700  0.419800  0.494400  1.0  0.1423
  H  H89  1  0.884600  0.468000  0.631900  1.0  0.1217
  H  H90  1  0.876000  0.366300  0.693900  1.0  0.1075
  H  H91  1  0.899400  0.655700  0.515300  1.0  0.1031
  H  H92  1  0.891900  0.555500  0.577800  1.0  0.1231
  H  H93  1  0.938900  0.510800  0.445200  1.0  0.1136
  H  H94  1  0.959400  0.612300  0.383500  1.0  0.1204
  H  H95  1  0.888000  0.051000  0.600600  1.0  0.0921
  H  H96  1  0.906600  0.004600  0.535700  1.0  0.1416
  H  H97  1  0.080000  0.031700  0.521300  1.0  0.1202
  H  H98  1  0.061800  0.083800  0.580700  1.0  0.0955
  H  H99  1  0.889500  0.043500  0.889600  1.0  0.1043
  H  H100  1  0.909700  0.992700  0.983900  1.0  0.117
  H  H101  1  0.064900  0.071900  0.942900  1.0  0.119
  H  H102  1  0.051400  0.116400  0.844100  1.0  0.098
  H  H103  1  0.398900  0.909000  0.291000  1.0  0.263
  H  H104  1  0.706100  0.833300  0.264200  1.0  0.2592
  H  H105  1  0.476900  0.917500  0.309300  1.0  0.1132
  H  H106  1  0.571000  0.915000  0.335300  1.0  0.1051
  H  H107  1  0.634300  0.837200  0.225100  1.0  0.1204
  H  H108  1  0.540200  0.839700  0.199200  1.0  0.1142
  H  H109  1  0.205500  0.894100  0.339700  1.0  0.0655
  H  H110  1  0.302600  0.911400  0.334700  1.0  0.1261
  H  H111  1  0.332900  0.850600  0.205200  1.0  0.133
  H  H112  1  0.232100  0.836200  0.215100  1.0  0.1067
  H  H113  1  0.866200  0.881500  0.358000  1.0  0.1086
  H  H114  1  0.765000  0.882600  0.351100  1.0  0.1002
  H  H115  1  0.801200  0.824400  0.222500  1.0  0.1315
  H  H116  1  0.896200  0.800100  0.249500  1.0  0.1051
  H  H117  1  0.092600  0.680100  0.440200  1.0  0.0889
  H  H118  1  0.081300  0.580200  0.505600  1.0  0.1418
  H  H119  1  0.115400  0.532000  0.368100  1.0  0.1215
  H  H120  1  0.124000  0.633700  0.306100  1.0  0.1078
  H  H121  1  0.100600  0.344300  0.484700  1.0  0.1038
  H  H122  1  0.108100  0.444500  0.422200  1.0  0.1229
  H  H123  1  0.061100  0.489200  0.554800  1.0  0.1129
  H  H124  1  0.040600  0.387700  0.616500  1.0  0.1204
  H  H125  1  0.112000  0.949000  0.399400  1.0  0.0924
  H  H126  1  0.093400  0.995400  0.464300  1.0  0.1435
  H  H127  1  0.920000  0.968300  0.478700  1.0  0.1214
  H  H128  1  0.938200  0.916200  0.419300  1.0  0.0957
  H  H129  1  0.110500  0.956500  0.110400  1.0  0.1034
  H  H130  1  0.090300  0.007300  0.016100  1.0  0.1171
  H  H131  1  0.935100  0.928100  0.057100  1.0  0.1186
  H  H132  1  0.948600  0.883600  0.155900  1.0  0.0979
  H  H133  1  0.947900  0.769600  0.491700  1.0  0.3134
  H  H134  1  0.665400  0.831800  0.484800  1.0  0.26
  H  H135  1  0.012700  0.594200  0.084700  1.0  0.2376
  H  H136  1  0.722200  0.600200  0.994400  1.0  0.2923
  H  H137  1  0.857100  0.826100  0.476500  1.0  0.086
  H  H138  1  0.758500  0.821200  0.463100  1.0  0.1172
  H  H139  1  0.726800  0.682100  0.622700  1.0  0.1182
  H  H140  1  0.822300  0.690100  0.634100  1.0  0.106
  H  H141  1  0.143300  0.791800  0.440300  1.0  0.0656
  H  H142  1  0.045900  0.771900  0.446500  1.0  0.1288
  H  H143  1  0.013300  0.809100  0.590300  1.0  0.1332
  H  H144  1  0.114800  0.830400  0.575100  1.0  0.0882
  H  H145  1  0.501800  0.920600  0.422900  1.0  0.0884
  H  H146  1  0.599300  0.899900  0.445800  1.0  0.1264
  H  H147  1  0.551200  0.727400  0.532300  1.0  0.114
  H  H148  1  0.453000  0.753300  0.513800  1.0  0.0907
  H  H149  1  0.920300  0.621000  0.943900  1.0  0.1225
  H  H150  1  0.817100  0.623900  0.962300  1.0  0.1143
  H  H151  1  0.822200  0.554400  0.134100  1.0  0.1175
  H  H152  1  0.925500  0.551500  0.115800  1.0  0.1229
  H  H153  1  0.183600  0.554200  0.147800  1.0  0.0908
  H  H154  1  0.078100  0.572100  0.138700  1.0  0.2062
  H  H155  1  0.110300  0.535300  0.000100  1.0  0.1162
  H  H156  1  0.206300  0.509100  0.021100  1.0  0.0625
  H  H157  1  0.531400  0.556400  0.141300  1.0  0.0856
  H  H158  1  0.634000  0.567200  0.130900  1.0  0.1201
  H  H159  1  0.634700  0.593800  0.962300  1.0  0.127
  H  H160  1  0.532900  0.576200  0.983400  1.0  0.0801
  H  H161  1  0.198600  0.056100  0.455800  1.0  0.1175
  H  H162  1  0.208400  0.153000  0.388900  1.0  0.1037
  H  H163  1  0.268000  0.097300  0.261700  1.0  0.1444
  H  H164  1  0.257100  0.000600  0.330700  1.0  0.0879
  H  H165  1  0.282700  0.334900  0.251200  1.0  0.0951
  H  H166  1  0.270300  0.237300  0.322300  1.0  0.1063
  H  H167  1  0.221400  0.184300  0.206400  1.0  0.1157
  H  H168  1  0.234600  0.282900  0.136200  1.0  0.1211
  H  H169  1  0.366700  0.059200  0.422000  1.0  0.1196
  H  H170  1  0.382000  0.165100  0.370300  1.0  0.0984
  H  H171  1  0.444100  0.137000  0.227200  1.0  0.1157
  H  H172  1  0.431300  0.037600  0.274700  1.0  0.1145
  H  H173  1  0.446100  0.353100  0.274000  1.0  0.1108
  H  H174  1  0.431900  0.252100  0.326100  1.0  0.1095
  H  H175  1  0.405800  0.230900  0.181800  1.0  0.1198
  H  H176  1  0.413000  0.333800  0.131700  1.0  0.1099
  H  H177  1  0.227600  0.724300  0.400900  1.0  0.1125
  H  H178  1  0.236300  0.676900  0.339100  1.0  0.0965
  H  H179  1  0.411600  0.709100  0.304100  1.0  0.1192
  H  H180  1  0.401400  0.751200  0.372700  1.0  0.091
  H  H181  1  0.423800  0.618300  0.187700  1.0  0.0881
  H  H182  1  0.416500  0.665100  0.250200  1.0  0.1104
  H  H183  1  0.245900  0.636100  0.279400  1.0  0.0922
  H  H184  1  0.251000  0.594200  0.215400  1.0  0.1324
  H  H185  1  0.229700  0.754300  0.678800  1.0  0.1158
  H  H186  1  0.248800  0.693800  0.769600  1.0  0.1146
  H  H187  1  0.422200  0.702000  0.714200  1.0  0.11
  H  H188  1  0.403500  0.761800  0.618800  1.0  0.1005
  H  H189  1  0.280100  0.559800  0.935500  1.0  0.0895
  H  H190  1  0.268500  0.604800  0.838800  1.0  0.1298
  H  H191  1  0.433600  0.679400  0.803600  1.0  0.1179
  H  H192  1  0.446300  0.617600  0.899600  1.0  0.0888
  C  C193  1  0.088500  0.234300  0.431500  1.0  0.4609
  C  C194  1  0.331900  0.243200  0.466700  1.0  0.4778
  C  C195  1  0.148200  0.240200  0.445700  1.0  0.0126
  C  C196  1  0.169200  0.202300  0.494200  1.0  -0.0841
  C  C197  1  0.229200  0.203900  0.502100  1.0  -0.1944
  C  C198  1  0.270700  0.244700  0.455800  1.0  -0.0305
  C  C199  1  0.248000  0.287600  0.405800  1.0  -0.0853
  C  C200  1  0.190800  0.283900  0.400000  1.0  -0.1197
  C  C201  1  0.882900  0.204700  0.529200  1.0  0.1914
  C  C202  1  0.941300  0.217200  0.525700  1.0  -0.2133
  C  C203  1  0.982100  0.213600  0.479900  1.0  0.2441
  C  C204  1  0.961400  0.194900  0.440500  1.0  -0.1997
  C  C205  1  0.900000  0.182600  0.450300  1.0  0.1587
  C  C206  1  0.489500  0.118000  0.552200  1.0  0.1397
  C  C207  1  0.430200  0.130600  0.539200  1.0  -0.1885
  C  C208  1  0.416900  0.189500  0.503600  1.0  0.2458
  C  C209  1  0.458000  0.232400  0.487100  1.0  -0.1861
  C  C210  1  0.517500  0.216400  0.499600  1.0  0.1587
  C  C211  1  0.000100  0.421800  0.976900  1.0  0.4894
  C  C212  1  0.257300  0.407300  0.934500  1.0  0.4838
  C  C213  1  0.066800  0.414000  0.972000  1.0  -0.0258
  C  C214  1  0.099300  0.392300  0.017900  1.0  -0.0718
  C  C215  1  0.161200  0.390600  0.006900  1.0  -0.1306
  C  C216  1  0.190600  0.410500  0.950000  1.0  -0.0854
  C  C217  1  0.158100  0.432200  0.904000  1.0  -0.0439
  C  C218  1  0.096200  0.434000  0.915000  1.0  -0.1783
  C  C219  1  0.831700  0.450700  0.882100  1.0  0.1272
  C  C220  1  0.895400  0.437100  0.888300  1.0  -0.1059
  C  C221  1  0.911600  0.439500  0.937700  1.0  0.1902
  C  C222  1  0.877200  0.459700  0.968900  1.0  -0.1664
  C  C223  1  0.818400  0.475000  0.955900  1.0  0.1667
  C  C224  1  0.446000  0.440200  0.893800  1.0  0.1692
  C  C225  1  0.385400  0.430800  0.899500  1.0  -0.1667
  C  C226  1  0.356200  0.418000  0.955700  1.0  0.2204
  C  C227  1  0.385500  0.415700  0.000200  1.0  -0.2466
  C  C228  1  0.446300  0.428100  0.986400  1.0  0.2013
  C  C229  1  0.776500  0.043200  0.556600  1.0  0.6602
  C  C230  1  0.770200  0.983100  0.598700  1.0  0.0349
  C  C231  1  0.786600  0.936200  0.582900  1.0  -0.1884
  C  C232  1  0.781400  0.878000  0.623600  1.0  -0.1124
  C  C233  1  0.761600  0.862500  0.682900  1.0  0.0907
  C  C234  1  0.746100  0.909800  0.699600  1.0  -0.1922
  C  C235  1  0.752000  0.968000  0.657200  1.0  -0.0786
  C  C236  1  0.734700  0.619700  0.858800  1.0  0.6411
  C  C237  1  0.742300  0.682900  0.810800  1.0  -0.098
  C  C238  1  0.730600  0.695800  0.757900  1.0  -0.0299
  C  C239  1  0.737500  0.755100  0.714900  1.0  -0.1625
  C  C240  1  0.755500  0.801000  0.727000  1.0  0.1063
  C  C241  1  0.766100  0.785500  0.783400  1.0  -0.1361
  C  C242  1  0.758800  0.726000  0.826000  1.0  -0.0909
  C  C243  1  0.607600  0.027800  0.614700  1.0  0.6519
  C  C244  1  0.599800  0.962500  0.646700  1.0  -0.1255
  C  C245  1  0.617000  0.924700  0.617200  1.0  -0.0296
  C  C246  1  0.608800  0.860500  0.649000  1.0  -0.1398
  C  C247  1  0.588300  0.837700  0.705500  1.0  0.051
  C  C248  1  0.571800  0.878700  0.733500  1.0  -0.1362
  C  C249  1  0.578500  0.937500  0.705300  1.0  -0.0642
  C  C250  1  0.564700  0.580100  0.837000  1.0  0.6832
  C  C251  1  0.570600  0.645500  0.801100  1.0  -0.1615
  C  C252  1  0.563700  0.671200  0.744300  1.0  -0.0733
  C  C253  1  0.570800  0.732100  0.713400  1.0  -0.0965
  C  C254  1  0.582000  0.772000  0.739200  1.0  0.0491
  C  C255  1  0.587300  0.744800  0.799000  1.0  -0.0959
  C  C256  1  0.582500  0.683100  0.829200  1.0  -0.0792
  C  C257  1  0.690400  0.222600  0.571100  1.0  0.706
  C  C258  1  0.685600  0.257600  0.606700  1.0  -0.1185
  C  C259  1  0.734700  0.279800  0.617500  1.0  -0.1035
  C  C260  1  0.729200  0.308100  0.655100  1.0  -0.1068
  C  C261  1  0.675700  0.315600  0.684900  1.0  0.0593
  C  C262  1  0.625900  0.290100  0.675400  1.0  -0.1952
  C  C263  1  0.632600  0.263200  0.634800  1.0  -0.0611
  C  C264  1  0.650900  0.421200  0.852500  1.0  0.6785
  C  C265  1  0.660100  0.396600  0.808900  1.0  -0.1054
  C  C266  1  0.614200  0.376900  0.794900  1.0  -0.0653
  C  C267  1  0.618400  0.349100  0.755700  1.0  -0.1443
  C  C268  1  0.670000  0.342000  0.726400  1.0  0.078
  C  C269  1  0.716300  0.365800  0.740200  1.0  -0.0807
  C  C270  1  0.714100  0.391500  0.778600  1.0  -0.157
  C  C271  1  0.698800  0.198500  0.421600  1.0  0.7099
  C  C272  1  0.686300  0.237000  0.362500  1.0  -0.1224
  C  C273  1  0.731300  0.257000  0.315900  1.0  -0.074
  C  C274  1  0.719400  0.293900  0.260900  1.0  -0.0943
  C  C275  1  0.662900  0.313300  0.248800  1.0  0.0529
  C  C276  1  0.616900  0.289900  0.292900  1.0  -0.1478
  C  C277  1  0.628400  0.252400  0.350900  1.0  -0.0299
  C  C278  1  0.627300  0.445100  0.011200  1.0  0.6755
  C  C279  1  0.636000  0.412700  0.073900  1.0  -0.1471
  C  C280  1  0.688500  0.417100  0.091800  1.0  -0.0252
  C  C281  1  0.696700  0.388400  0.149200  1.0  -0.2053
  C  C282  1  0.651800  0.349200  0.188700  1.0  0.0516
  C  C283  1  0.597600  0.345700  0.170600  1.0  -0.1429
  C  C284  1  0.590800  0.381300  0.112000  1.0  -0.0478
  C  C285  1  0.562100  0.124600  0.762900  1.0  0.3935
  C  C286  1  0.326700  0.110900  0.707600  1.0  0.5078
  C  C287  1  0.500800  0.121100  0.748300  1.0  -0.1167
  C  C288  1  0.491500  0.098600  0.707600  1.0  -0.1344
  C  C289  1  0.435200  0.100100  0.692000  1.0  -0.1613
  C  C290  1  0.388100  0.124100  0.717300  1.0  -0.1096
  C  C291  1  0.397300  0.146700  0.758000  1.0  -0.1195
  C  C292  1  0.453600  0.145200  0.773600  1.0  -0.0319
  C  C293  1  0.768100  0.114400  0.687900  1.0  0.1251
  C  C294  1  0.710600  0.104600  0.689400  1.0  -0.1907
  C  C295  1  0.670000  0.120000  0.730300  1.0  0.1883
  C  C296  1  0.692600  0.140800  0.766700  1.0  -0.208
  C  C297  1  0.753000  0.148600  0.761000  1.0  0.1733
  C  C298  1  0.148200  0.135700  0.664700  1.0  0.1295
  C  C299  1  0.207900  0.130500  0.672600  1.0  -0.1677
  C  C300  1  0.226900  0.143800  0.713200  1.0  0.2548
  C  C301  1  0.187400  0.168300  0.747100  1.0  -0.1901
  C  C302  1  0.130400  0.180700  0.731900  1.0  0.1485
  C  C303  1  0.887600  0.268700  0.672000  1.0  0.6571
  C  C304  1  0.893200  0.332900  0.633100  1.0  -0.0372
  C  C305  1  0.904100  0.350000  0.574200  1.0  -0.0605
  C  C306  1  0.910400  0.409900  0.534300  1.0  -0.1699
  C  C307  1  0.903500  0.456900  0.557800  1.0  0.0152
  C  C308  1  0.890300  0.439000  0.616200  1.0  -0.1378
  C  C309  1  0.885100  0.377100  0.654000  1.0  -0.0628
  C  C310  1  0.948500  0.706000  0.404900  1.0  0.6799
  C  C311  1  0.935000  0.642000  0.444800  1.0  -0.0753
  C  C312  1  0.910900  0.626100  0.501300  1.0  -0.13
  C  C313  1  0.903400  0.565400  0.538200  1.0  -0.1226
  C  C314  1  0.912000  0.519600  0.519400  1.0  0.0958
  C  C315  1  0.932500  0.539600  0.461200  1.0  -0.1017
  C  C316  1  0.944800  0.601400  0.422800  1.0  -0.1241
  C  C317  1  0.961900  0.100200  0.643000  1.0  0.7134
  C  C318  1  0.973700  0.067500  0.603200  1.0  -0.0513
  C  C319  1  0.927200  0.046700  0.585700  1.0  -0.0574
  C  C320  1  0.938600  0.019300  0.545700  1.0  -0.1324
  C  C321  1  0.994000  0.013700  0.521600  1.0  -0.0428
  C  C322  1  0.041000  0.036100  0.536600  1.0  -0.1292
  C  C323  1  0.030000  0.065200  0.574500  1.0  -0.0178
  C  C324  1  0.954000  0.121000  0.797500  1.0  0.7222
  C  C325  1  0.967700  0.087100  0.856400  1.0  -0.0592
  C  C326  1  0.926700  0.048700  0.898300  1.0  -0.074
  C  C327  1  0.939800  0.016400  0.955200  1.0  -0.12
  C  C328  1  0.993900  0.018800  0.969200  1.0  0.0856
  C  C329  1  0.031400  0.061500  0.931400  1.0  -0.1147
  C  C330  1  0.021000  0.092400  0.872100  1.0  -0.0878
  C  C331  1  0.437900  0.875400  0.237100  1.0  0.3938
  C  C332  1  0.673300  0.889100  0.292400  1.0  0.5045
  C  C333  1  0.499200  0.878900  0.251700  1.0  -0.1158
  C  C334  1  0.508500  0.901400  0.292400  1.0  -0.1331
  C  C335  1  0.564800  0.899900  0.308000  1.0  -0.1606
  C  C336  1  0.611900  0.875900  0.282700  1.0  -0.111
  C  C337  1  0.602700  0.853300  0.242000  1.0  -0.1187
  C  C338  1  0.546400  0.854800  0.226400  1.0  -0.0283
  C  C339  1  0.231900  0.885600  0.312100  1.0  0.1272
  C  C340  1  0.289400  0.895400  0.310600  1.0  -0.1919
  C  C341  1  0.330000  0.880000  0.269700  1.0  0.1836
  C  C342  1  0.307400  0.859200  0.233300  1.0  -0.2082
  C  C343  1  0.247000  0.851400  0.239000  1.0  0.1728
  C  C344  1  0.851800  0.864300  0.335300  1.0  0.1293
  C  C345  1  0.792100  0.869500  0.327400  1.0  -0.1686
  C  C346  1  0.773100  0.856200  0.286800  1.0  0.2539
  C  C347  1  0.812600  0.831700  0.252900  1.0  -0.1885
  C  C348  1  0.869600  0.819300  0.268100  1.0  0.149
  C  C349  1  0.112400  0.731300  0.328000  1.0  0.657
  C  C350  1  0.106800  0.667100  0.366900  1.0  -0.0366
  C  C351  1  0.095900  0.650000  0.425800  1.0  -0.0594
  C  C352  1  0.089600  0.590100  0.465700  1.0  -0.1757
  C  C353  1  0.096500  0.543100  0.442200  1.0  0.0146
  C  C354  1  0.109700  0.561000  0.383800  1.0  -0.1375
  C  C355  1  0.114900  0.622900  0.346000  1.0  -0.059
  C  C356  1  0.051500  0.294000  0.595100  1.0  0.6798
  C  C357  1  0.065000  0.358000  0.555200  1.0  -0.0753
  C  C358  1  0.089100  0.373900  0.498700  1.0  -0.1298
  C  C359  1  0.096600  0.434600  0.461800  1.0  -0.1241
  C  C360  1  0.088000  0.480400  0.480600  1.0  0.0922
  C  C361  1  0.067500  0.460400  0.538800  1.0  -0.099
  C  C362  1  0.055200  0.398600  0.577200  1.0  -0.1234
  C  C363  1  0.038100  0.899800  0.357000  1.0  0.7142
  C  C364  1  0.026300  0.932500  0.396800  1.0  -0.0553
  C  C365  1  0.072800  0.953300  0.414300  1.0  -0.0582
  C  C366  1  0.061400  0.980700  0.454300  1.0  -0.1338
  C  C367  1  0.006000  0.986300  0.478400  1.0  -0.0418
  C  C368  1  0.959000  0.963900  0.463400  1.0  -0.1238
  C  C369  1  0.970000  0.934800  0.425500  1.0  -0.0185
  C  C370  1  0.046000  0.879000  0.202500  1.0  0.7224
  C  C371  1  0.032300  0.912900  0.143600  1.0  -0.0575
  C  C372  1  0.073300  0.951300  0.101700  1.0  -0.0715
  C  C373  1  0.060200  0.983600  0.044800  1.0  -0.1199
  C  C374  1  0.006100  0.981200  0.030800  1.0  0.0837
  C  C375  1  0.968600  0.938500  0.068600  1.0  -0.1157
  C  C376  1  0.979000  0.907600  0.127900  1.0  -0.0868
  C  C377  1  0.911500  0.765700  0.568500  1.0  0.4602
  C  C378  1  0.668100  0.756800  0.533300  1.0  0.4788
  C  C379  1  0.851800  0.759800  0.554300  1.0  0.0121
  C  C380  1  0.830800  0.797700  0.505800  1.0  -0.0833
  C  C381  1  0.770800  0.796100  0.497900  1.0  -0.1946
  C  C382  1  0.729300  0.755300  0.544200  1.0  -0.0305
  C  C383  1  0.752000  0.712400  0.594200  1.0  -0.0829
  C  C384  1  0.809200  0.716100  0.600000  1.0  -0.1181
  C  C385  1  0.117100  0.795300  0.470800  1.0  0.1912
  C  C386  1  0.058700  0.782800  0.474300  1.0  -0.2124
  C  C387  1  0.017900  0.786400  0.520100  1.0  0.2463
  C  C388  1  0.038600  0.805100  0.559500  1.0  -0.2045
  C  C389  1  0.100000  0.817400  0.549700  1.0  0.1619
  C  C390  1  0.510500  0.882000  0.447800  1.0  0.1409
  C  C391  1  0.569800  0.869400  0.460800  1.0  -0.1882
  C  C392  1  0.583100  0.810500  0.496400  1.0  0.2445
  C  C393  1  0.542000  0.767600  0.512900  1.0  -0.1858
  C  C394  1  0.482500  0.783600  0.500400  1.0  0.1593
  C  C395  1  0.999900  0.578200  0.023100  1.0  0.4893
  C  C396  1  0.742700  0.592700  0.065500  1.0  0.4905
  C  C397  1  0.933200  0.586000  0.028000  1.0  -0.0253
  C  C398  1  0.900700  0.607700  0.982100  1.0  -0.0728
  C  C399  1  0.838800  0.609400  0.993100  1.0  -0.1323
  C  C400  1  0.809400  0.589500  0.050000  1.0  -0.0838
  C  C401  1  0.841900  0.567800  0.096000  1.0  -0.0474
  C  C402  1  0.903800  0.566000  0.085000  1.0  -0.1782
  C  C403  1  0.168300  0.549300  0.117900  1.0  0.1272
  C  C404  1  0.104600  0.562900  0.111700  1.0  -0.1067
  C  C405  1  0.088400  0.560500  0.062300  1.0  0.1899
  C  C406  1  0.122800  0.540300  0.031100  1.0  -0.1671
  C  C407  1  0.181600  0.525000  0.044100  1.0  0.1661
  C  C408  1  0.554000  0.559800  0.106200  1.0  0.1677
  C  C409  1  0.614600  0.569200  0.100500  1.0  -0.1696
  C  C410  1  0.643800  0.582000  0.044300  1.0  0.2205
  C  C411  1  0.614500  0.584300  0.999800  1.0  -0.2453
  C  C412  1  0.553700  0.571900  0.013600  1.0  0.2008
  C  C413  1  0.223500  0.956800  0.443400  1.0  0.6601
  C  C414  1  0.229800  0.016900  0.401300  1.0  0.0344
  C  C415  1  0.213400  0.063800  0.417100  1.0  -0.1908
  C  C416  1  0.218600  0.122000  0.376400  1.0  -0.1106
  C  C417  1  0.238400  0.137500  0.317100  1.0  0.0899
  C  C418  1  0.253900  0.090200  0.300400  1.0  -0.1916
  C  C419  1  0.248000  0.032000  0.342800  1.0  -0.079
  C  C420  1  0.265300  0.380300  0.141200  1.0  0.6425
  C  C421  1  0.257700  0.317100  0.189200  1.0  -0.0997
  C  C422  1  0.269400  0.304200  0.242100  1.0  -0.0303
  C  C423  1  0.262500  0.244900  0.285100  1.0  -0.1641
  C  C424  1  0.244500  0.199000  0.273000  1.0  0.1068
  C  C425  1  0.233900  0.214500  0.216600  1.0  -0.135
  C  C426  1  0.241200  0.274000  0.174000  1.0  -0.0875
  C  C427  1  0.392400  0.972200  0.385300  1.0  0.6509
  C  C428  1  0.400200  0.037500  0.353300  1.0  -0.1236
  C  C429  1  0.383000  0.075300  0.382800  1.0  -0.0318
  C  C430  1  0.391200  0.139500  0.351000  1.0  -0.1404
  C  C431  1  0.411700  0.162300  0.294500  1.0  0.0512
  C  C432  1  0.428200  0.121300  0.266500  1.0  -0.1358
  C  C433  1  0.421500  0.062500  0.294700  1.0  -0.0656
  C  C434  1  0.435300  0.419900  0.163000  1.0  0.684
  C  C435  1  0.429400  0.354500  0.198900  1.0  -0.1606
  C  C436  1  0.436300  0.328800  0.255700  1.0  -0.0737
  C  C437  1  0.429200  0.267900  0.286600  1.0  -0.0977
  C  C438  1  0.418000  0.228000  0.260800  1.0  0.0486
  C  C439  1  0.412700  0.255200  0.201000  1.0  -0.0926
  C  C440  1  0.417500  0.316900  0.170800  1.0  -0.0793
  C  C441  1  0.309600  0.777400  0.428900  1.0  0.704
  C  C442  1  0.314400  0.742400  0.393300  1.0  -0.1149
  C  C443  1  0.265300  0.720200  0.382500  1.0  -0.1039
  C  C444  1  0.270800  0.691900  0.344900  1.0  -0.1071
  C  C445  1  0.324300  0.684400  0.315100  1.0  0.0591
  C  C446  1  0.374100  0.709900  0.324600  1.0  -0.195
  C  C447  1  0.367400  0.736800  0.365200  1.0  -0.0597
  C  C448  1  0.349100  0.578800  0.147500  1.0  0.6764
  C  C449  1  0.339900  0.603400  0.191100  1.0  -0.1059
  C  C450  1  0.385800  0.623100  0.205100  1.0  -0.0685
  C  C451  1  0.381600  0.650900  0.244300  1.0  -0.1439
  C  C452  1  0.330000  0.658000  0.273600  1.0  0.0781
  C  C453  1  0.283700  0.634200  0.259800  1.0  -0.0812
  C  C454  1  0.285900  0.608500  0.221400  1.0  -0.1559
  C  C455  1  0.301200  0.801500  0.578400  1.0  0.709
  C  C456  1  0.313700  0.763000  0.637500  1.0  -0.1213
  C  C457  1  0.268700  0.743000  0.684100  1.0  -0.0748
  C  C458  1  0.280600  0.706100  0.739100  1.0  -0.0956
  C  C459  1  0.337100  0.686700  0.751200  1.0  0.0526
  C  C460  1  0.383100  0.710100  0.707100  1.0  -0.1461
  C  C461  1  0.371600  0.747600  0.649100  1.0  -0.0306
  C  C462  1  0.372700  0.554900  0.988800  1.0  0.6745
  C  C463  1  0.364000  0.587300  0.926100  1.0  -0.1484
  C  C464  1  0.311500  0.582900  0.908200  1.0  -0.027
  C  C465  1  0.303300  0.611600  0.850800  1.0  -0.2068
  C  C466  1  0.348200  0.650800  0.811300  1.0  0.0525
  C  C467  1  0.402400  0.654300  0.829400  1.0  -0.1436
  C  C468  1  0.409200  0.618700  0.888000  1.0  -0.0472
  N  N469  1  0.042500  0.226700  0.478400  1.0  -0.3624
  N  N470  1  0.860100  0.188100  0.493500  1.0  -0.3386
  N  N471  1  0.357700  0.199400  0.495600  1.0  -0.3635
  N  N472  1  0.531800  0.160200  0.529400  1.0  -0.3284
  N  N473  1  0.970800  0.419800  0.940200  1.0  -0.394
  N  N474  1  0.797900  0.468500  0.916000  1.0  -0.1997
  N  N475  1  0.293500  0.407100  0.970200  1.0  -0.3823
  N  N476  1  0.476300  0.445200  0.934400  1.0  -0.3332
  N  N477  1  0.609300  0.108800  0.730500  1.0  -0.3362
  N  N478  1  0.792200  0.135000  0.721600  1.0  -0.3547
  N  N479  1  0.284000  0.142900  0.720500  1.0  -0.2667
  N  N480  1  0.112600  0.165000  0.689600  1.0  -0.3305
  N  N481  1  0.390700  0.891200  0.269500  1.0  -0.3372
  N  N482  1  0.207800  0.865000  0.278400  1.0  -0.3533
  N  N483  1  0.716000  0.857100  0.279500  1.0  -0.2674
  N  N484  1  0.887400  0.835000  0.310400  1.0  -0.3296
  N  N485  1  0.957500  0.773300  0.521600  1.0  -0.3652
  N  N486  1  0.139900  0.811900  0.506500  1.0  -0.3403
  N  N487  1  0.642300  0.800600  0.504400  1.0  -0.3627
  N  N488  1  0.468200  0.839800  0.470600  1.0  -0.327
  N  N489  1  0.029200  0.580200  0.059800  1.0  -0.3965
  N  N490  1  0.202100  0.531500  0.084000  1.0  -0.2038
  N  N491  1  0.706500  0.592900  0.029800  1.0  -0.3782
  N  N492  1  0.523700  0.554800  0.065600  1.0  -0.3316
  O  O493  1  0.078900  0.239900  0.384500  1.0  -0.422
  O  O494  1  0.361500  0.293300  0.434600  1.0  -0.479
  O  O495  1  0.980800  0.428400  0.024800  1.0  -0.4815
  O  O496  1  0.277600  0.414200  0.881500  1.0  -0.5329
  O  O497  1  0.754100  0.086500  0.572200  1.0  -0.5742
  O  O498  1  0.799300  0.058700  0.504800  1.0  -0.6108
  O  O499  1  0.720500  0.579100  0.839400  1.0  -0.5892
  O  O500  1  0.743600  0.605000  0.909500  1.0  -0.5423
  O  O501  1  0.622100  0.049600  0.558500  1.0  -0.5926
  O  O502  1  0.595800  0.063100  0.640600  1.0  -0.6046
  O  O503  1  0.575900  0.557300  0.888500  1.0  -0.586
  O  O504  1  0.550200  0.545500  0.812200  1.0  -0.6089
  O  O505  1  0.741300  0.217900  0.544200  1.0  -0.6515
  O  O506  1  0.643900  0.193400  0.572200  1.0  -0.6451
  O  O507  1  0.696100  0.449900  0.854700  1.0  -0.6234
  O  O508  1  0.602000  0.421800  0.880900  1.0  -0.6122
  O  O509  1  0.751300  0.196500  0.430400  1.0  -0.5496
  O  O510  1  0.651400  0.176300  0.457200  1.0  -0.6508
  O  O511  1  0.674900  0.470100  0.976900  1.0  -0.6567
  O  O512  1  0.579000  0.440300  0.995700  1.0  -0.6047
  O  O513  1  0.567600  0.148900  0.799200  1.0  -0.5081
  O  O514  1  0.314500  0.070400  0.689900  1.0  -0.502
  O  O515  1  0.908300  0.229500  0.651700  1.0  -0.5943
  O  O516  1  0.863800  0.250900  0.723500  1.0  -0.6103
  O  O517  1  0.942200  0.748600  0.424200  1.0  -0.6269
  O  O518  1  0.965400  0.721400  0.350900  1.0  -0.6006
  O  O519  1  0.910300  0.102800  0.665600  1.0  -0.6056
  O  O520  1  0.005500  0.125300  0.650500  1.0  -0.6605
  O  O521  1  0.904600  0.111100  0.786200  1.0  -0.5763
  O  O522  1  0.993800  0.157800  0.760200  1.0  -0.6624
  O  O523  1  0.432400  0.851100  0.200800  1.0  -0.5156
  O  O524  1  0.685500  0.929600  0.310100  1.0  -0.5002
  O  O525  1  0.091700  0.770500  0.348300  1.0  -0.5954
  O  O526  1  0.136200  0.749100  0.276500  1.0  -0.6111
  O  O527  1  0.057800  0.251400  0.575800  1.0  -0.625
  O  O528  1  0.034600  0.278600  0.649100  1.0  -0.5973
  O  O529  1  0.089700  0.897200  0.334400  1.0  -0.6056
  O  O530  1  0.994500  0.874700  0.349500  1.0  -0.6583
  O  O531  1  0.095400  0.888900  0.213800  1.0  -0.5772
  O  O532  1  0.006200  0.842200  0.239800  1.0  -0.6606
  O  O533  1  0.921100  0.760100  0.615500  1.0  -0.4205
  O  O534  1  0.638500  0.706700  0.565400  1.0  -0.4822
  O  O535  1  0.019200  0.571600  0.975200  1.0  -0.4788
  O  O536  1  0.722400  0.585800  0.118500  1.0  -0.534
  O  O537  1  0.245900  0.913500  0.427800  1.0  -0.5736
  O  O538  1  0.200700  0.941300  0.495200  1.0  -0.6083
  O  O539  1  0.279500  0.420900  0.160600  1.0  -0.5909
  O  O540  1  0.256400  0.395000  0.090500  1.0  -0.5421
  O  O541  1  0.377900  0.950400  0.441500  1.0  -0.5882
  O  O542  1  0.404200  0.936900  0.359400  1.0  -0.6053
  O  O543  1  0.424100  0.442700  0.111500  1.0  -0.5856
  O  O544  1  0.449800  0.454500  0.187800  1.0  -0.6067
  O  O545  1  0.258700  0.782100  0.455800  1.0  -0.652
  O  O546  1  0.356100  0.806600  0.427800  1.0  -0.6443
  O  O547  1  0.303900  0.550100  0.145300  1.0  -0.6255
  O  O548  1  0.398000  0.578200  0.119100  1.0  -0.6133
  O  O549  1  0.248700  0.803500  0.569600  1.0  -0.5498
  O  O550  1  0.348600  0.823700  0.542800  1.0  -0.6539
  O  O551  1  0.325100  0.529900  0.023100  1.0  -0.6549
  O  O552  1  0.421000  0.559700  0.004300  1.0  -0.6034
