# generated using pymatgen
data_Ga2P2O8F
_symmetry_space_group_name_H-M   'P 1'
_cell_length_a   27.32900000
_cell_length_b   17.37700000
_cell_length_c   10.21240000
_cell_angle_alpha   90.00000000
_cell_angle_beta   90.00000000
_cell_angle_gamma   90.00000000
_symmetry_Int_Tables_number   1
_chemical_formula_structural   Ga2P2O8F
_chemical_formula_sum   'Ga32 P32 O128 F16'
_cell_volume   4849.82824741
_cell_formula_units_Z   16
loop_
 _symmetry_equiv_pos_site_id
 _symmetry_equiv_pos_as_xyz
  1  'x, y, z'
loop_
 _atom_site_type_symbol
 _atom_site_label
 _atom_site_symmetry_multiplicity
 _atom_site_fract_x
 _atom_site_fract_y
 _atom_site_fract_z
 _atom_site_occupancy
 _atom_site_charge
  Ga  Ga1  1  0.656500  0.677700  0.110400  1.0  1.6557
  Ga  Ga2  1  0.779800  0.739700  0.088600  1.0  1.6615
  Ga  Ga3  1  0.757400  0.913300  0.925100  1.0  1.7642
  Ga  Ga4  1  0.553100  0.422700  0.900500  1.0  1.6822
  Ga  Ga5  1  0.843500  0.822300  0.610400  1.0  1.6543
  Ga  Ga6  1  0.720200  0.760300  0.588600  1.0  1.6618
  Ga  Ga7  1  0.742600  0.586700  0.425100  1.0  1.764
  Ga  Ga8  1  0.946900  0.077300  0.400500  1.0  1.6806
  Ga  Ga9  1  0.343500  0.677700  0.389600  1.0  1.6555
  Ga  Ga10  1  0.220200  0.739700  0.411400  1.0  1.6637
  Ga  Ga11  1  0.242600  0.913300  0.574900  1.0  1.7643
  Ga  Ga12  1  0.446900  0.422700  0.599500  1.0  1.6809
  Ga  Ga13  1  0.156500  0.822300  0.889600  1.0  1.6542
  Ga  Ga14  1  0.279800  0.760300  0.911400  1.0  1.6608
  Ga  Ga15  1  0.257400  0.586700  0.074900  1.0  1.7638
  Ga  Ga16  1  0.053100  0.077300  0.099500  1.0  1.6817
  Ga  Ga17  1  0.343500  0.322300  0.889600  1.0  1.654
  Ga  Ga18  1  0.220200  0.260300  0.911400  1.0  1.6625
  Ga  Ga19  1  0.242600  0.086700  0.074900  1.0  1.7635
  Ga  Ga20  1  0.446900  0.577300  0.099500  1.0  1.6805
  Ga  Ga21  1  0.156500  0.177700  0.389600  1.0  1.6557
  Ga  Ga22  1  0.279800  0.239700  0.411400  1.0  1.6627
  Ga  Ga23  1  0.257400  0.413300  0.574900  1.0  1.7637
  Ga  Ga24  1  0.053100  0.922700  0.599500  1.0  1.682
  Ga  Ga25  1  0.656500  0.322300  0.610400  1.0  1.6546
  Ga  Ga26  1  0.779800  0.260300  0.588600  1.0  1.6602
  Ga  Ga27  1  0.757400  0.086700  0.425100  1.0  1.7635
  Ga  Ga28  1  0.553100  0.577300  0.400500  1.0  1.6818
  Ga  Ga29  1  0.843500  0.177700  0.110400  1.0  1.6553
  Ga  Ga30  1  0.720200  0.239700  0.088600  1.0  1.6633
  Ga  Ga31  1  0.742600  0.413300  0.925100  1.0  1.7639
  Ga  Ga32  1  0.946900  0.922700  0.900500  1.0  1.681
  P  P33  1  0.857900  0.822400  0.904700  1.0  1.8236
  P  P34  1  0.559200  0.573400  0.096300  1.0  1.964
  P  P35  1  0.753900  0.065000  0.111600  1.0  1.8927
  P  P36  1  0.696100  0.771200  0.885200  1.0  1.8112
  P  P37  1  0.642100  0.677600  0.404700  1.0  1.8204
  P  P38  1  0.940800  0.926600  0.596300  1.0  1.9636
  P  P39  1  0.746100  0.435000  0.611600  1.0  1.8971
  P  P40  1  0.803900  0.728800  0.385200  1.0  1.8126
  P  P41  1  0.142100  0.822400  0.595300  1.0  1.8195
  P  P42  1  0.440800  0.573400  0.403700  1.0  1.9653
  P  P43  1  0.246100  0.065000  0.388400  1.0  1.8949
  P  P44  1  0.303900  0.771200  0.614800  1.0  1.8124
  P  P45  1  0.357900  0.677600  0.095300  1.0  1.8237
  P  P46  1  0.059200  0.926600  0.903700  1.0  1.9665
  P  P47  1  0.253900  0.435000  0.888400  1.0  1.8949
  P  P48  1  0.196100  0.728800  0.114800  1.0  1.8116
  P  P49  1  0.142100  0.177600  0.095300  1.0  1.8196
  P  P50  1  0.440800  0.426600  0.903700  1.0  1.9613
  P  P51  1  0.246100  0.935000  0.888400  1.0  1.897
  P  P52  1  0.303900  0.228800  0.114800  1.0  1.8127
  P  P53  1  0.357900  0.322400  0.595300  1.0  1.8231
  P  P54  1  0.059200  0.073400  0.403700  1.0  1.9617
  P  P55  1  0.253900  0.565000  0.388400  1.0  1.8927
  P  P56  1  0.196100  0.271200  0.614800  1.0  1.8113
  P  P57  1  0.857900  0.177600  0.404700  1.0  1.8238
  P  P58  1  0.559200  0.426600  0.596300  1.0  1.9617
  P  P59  1  0.753900  0.935000  0.611600  1.0  1.8949
  P  P60  1  0.696100  0.228800  0.385200  1.0  1.8114
  P  P61  1  0.642100  0.322400  0.904700  1.0  1.8206
  P  P62  1  0.940800  0.073400  0.096300  1.0  1.9605
  P  P63  1  0.746100  0.565000  0.111600  1.0  1.8951
  P  P64  1  0.803900  0.271200  0.885200  1.0  1.8124
  O  O65  1  0.838600  0.756600  0.986900  1.0  -0.7671
  O  O66  1  0.872600  0.795100  0.767200  1.0  -0.7813
  O  O67  1  0.905700  0.852900  0.970200  1.0  -0.7996
  O  O68  1  0.822300  0.890700  0.888700  1.0  -0.8882
  O  O69  1  0.597400  0.628100  0.047800  1.0  -0.7822
  O  O70  1  0.557400  0.503400  0.009100  1.0  -0.9626
  O  O71  1  0.509000  0.613300  0.095000  1.0  -0.8224
  O  O72  1  0.570600  0.544500  0.237000  1.0  -0.8702
  O  O73  1  0.716700  0.128300  0.091200  1.0  -0.768
  O  O74  1  0.740500  0.000700  0.015300  1.0  -0.9531
  O  O75  1  0.752600  0.032900  0.252200  1.0  -0.7439
  O  O76  1  0.806800  0.090500  0.078900  1.0  -0.8842
  O  O77  1  0.743700  0.731500  0.926800  1.0  -0.8057
  O  O78  1  0.701400  0.859100  0.893200  1.0  -0.8255
  O  O79  1  0.683200  0.746000  0.745300  1.0  -0.7677
  O  O80  1  0.652300  0.745800  0.972300  1.0  -0.806
  O  O81  1  0.661400  0.743400  0.486900  1.0  -0.7675
  O  O82  1  0.627400  0.704900  0.267200  1.0  -0.7818
  O  O83  1  0.594300  0.647100  0.470200  1.0  -0.7997
  O  O84  1  0.677700  0.609300  0.388700  1.0  -0.8865
  O  O85  1  0.902600  0.871900  0.547800  1.0  -0.7826
  O  O86  1  0.942600  0.996600  0.509100  1.0  -0.9611
  O  O87  1  0.991000  0.886700  0.595000  1.0  -0.8235
  O  O88  1  0.929400  0.955500  0.737000  1.0  -0.8683
  O  O89  1  0.783300  0.371700  0.591200  1.0  -0.7679
  O  O90  1  0.759500  0.499300  0.515300  1.0  -0.95
  O  O91  1  0.747400  0.467100  0.752200  1.0  -0.7434
  O  O92  1  0.693200  0.409500  0.578900  1.0  -0.885
  O  O93  1  0.756300  0.768500  0.426800  1.0  -0.805
  O  O94  1  0.798600  0.640900  0.393200  1.0  -0.8265
  O  O95  1  0.816800  0.754000  0.245300  1.0  -0.7685
  O  O96  1  0.847700  0.754200  0.472300  1.0  -0.806
  O  O97  1  0.161400  0.756600  0.513100  1.0  -0.7668
  O  O98  1  0.127400  0.795100  0.732800  1.0  -0.7806
  O  O99  1  0.094300  0.852900  0.529800  1.0  -0.8004
  O  O100  1  0.177700  0.890700  0.611300  1.0  -0.8882
  O  O101  1  0.402600  0.628100  0.452200  1.0  -0.7828
  O  O102  1  0.442600  0.503400  0.490900  1.0  -0.9627
  O  O103  1  0.491000  0.613300  0.405000  1.0  -0.8205
  O  O104  1  0.429400  0.544500  0.263000  1.0  -0.869
  O  O105  1  0.283300  0.128300  0.408800  1.0  -0.7675
  O  O106  1  0.259500  0.000700  0.484700  1.0  -0.9501
  O  O107  1  0.247400  0.032900  0.247800  1.0  -0.7443
  O  O108  1  0.193200  0.090500  0.421100  1.0  -0.8854
  O  O109  1  0.256300  0.731500  0.573200  1.0  -0.8047
  O  O110  1  0.298600  0.859100  0.606800  1.0  -0.8283
  O  O111  1  0.316800  0.746000  0.754700  1.0  -0.7692
  O  O112  1  0.347700  0.745800  0.527700  1.0  -0.8076
  O  O113  1  0.338600  0.743400  0.013100  1.0  -0.7666
  O  O114  1  0.372600  0.704900  0.232800  1.0  -0.7825
  O  O115  1  0.405700  0.647100  0.029800  1.0  -0.8005
  O  O116  1  0.322300  0.609300  0.111300  1.0  -0.887
  O  O117  1  0.097400  0.871900  0.952200  1.0  -0.7825
  O  O118  1  0.057400  0.996600  0.990900  1.0  -0.9607
  O  O119  1  0.009000  0.886700  0.905000  1.0  -0.8228
  O  O120  1  0.070600  0.955500  0.763000  1.0  -0.8684
  O  O121  1  0.216700  0.371700  0.908800  1.0  -0.7682
  O  O122  1  0.240500  0.499300  0.984700  1.0  -0.9523
  O  O123  1  0.252600  0.467100  0.747800  1.0  -0.7457
  O  O124  1  0.306800  0.409500  0.921100  1.0  -0.8849
  O  O125  1  0.243700  0.768500  0.073200  1.0  -0.8044
  O  O126  1  0.201400  0.640900  0.106800  1.0  -0.8298
  O  O127  1  0.183200  0.754000  0.254700  1.0  -0.7675
  O  O128  1  0.152300  0.754200  0.027700  1.0  -0.81
  O  O129  1  0.161400  0.243400  0.013100  1.0  -0.7676
  O  O130  1  0.127400  0.204900  0.232800  1.0  -0.782
  O  O131  1  0.094300  0.147100  0.029800  1.0  -0.8003
  O  O132  1  0.177700  0.109300  0.111300  1.0  -0.8875
  O  O133  1  0.402600  0.371900  0.952200  1.0  -0.7828
  O  O134  1  0.442600  0.496600  0.990900  1.0  -0.9618
  O  O135  1  0.491000  0.386700  0.905000  1.0  -0.823
  O  O136  1  0.429400  0.455500  0.763000  1.0  -0.8678
  O  O137  1  0.283300  0.871700  0.908800  1.0  -0.7679
  O  O138  1  0.259500  0.999300  0.984700  1.0  -0.9506
  O  O139  1  0.247400  0.967100  0.747800  1.0  -0.7447
  O  O140  1  0.193200  0.909500  0.921100  1.0  -0.8854
  O  O141  1  0.256300  0.268500  0.073200  1.0  -0.8048
  O  O142  1  0.298600  0.140900  0.106800  1.0  -0.827
  O  O143  1  0.316800  0.254000  0.254700  1.0  -0.7695
  O  O144  1  0.347700  0.254200  0.027700  1.0  -0.8066
  O  O145  1  0.338600  0.256600  0.513100  1.0  -0.7669
  O  O146  1  0.372600  0.295100  0.732800  1.0  -0.7818
  O  O147  1  0.405700  0.352900  0.529800  1.0  -0.8
  O  O148  1  0.322300  0.390700  0.611300  1.0  -0.8884
  O  O149  1  0.097400  0.128100  0.452200  1.0  -0.7827
  O  O150  1  0.057400  0.003400  0.490900  1.0  -0.9614
  O  O151  1  0.009000  0.113300  0.405000  1.0  -0.8212
  O  O152  1  0.070600  0.044500  0.263000  1.0  -0.8698
  O  O153  1  0.216700  0.628300  0.408800  1.0  -0.7672
  O  O154  1  0.240500  0.500700  0.484700  1.0  -0.9534
  O  O155  1  0.252600  0.532900  0.247800  1.0  -0.7448
  O  O156  1  0.306800  0.590500  0.421100  1.0  -0.8844
  O  O157  1  0.243700  0.231500  0.573200  1.0  -0.8046
  O  O158  1  0.201400  0.359100  0.606800  1.0  -0.8253
  O  O159  1  0.183200  0.246000  0.754700  1.0  -0.7682
  O  O160  1  0.152300  0.245800  0.527700  1.0  -0.8077
  O  O161  1  0.838600  0.243400  0.486900  1.0  -0.7671
  O  O162  1  0.872600  0.204900  0.267200  1.0  -0.7819
  O  O163  1  0.905700  0.147100  0.470200  1.0  -0.7993
  O  O164  1  0.822300  0.109300  0.388700  1.0  -0.8863
  O  O165  1  0.597400  0.371900  0.547800  1.0  -0.7822
  O  O166  1  0.557400  0.496600  0.509100  1.0  -0.9619
  O  O167  1  0.509000  0.386700  0.595000  1.0  -0.8233
  O  O168  1  0.570600  0.455500  0.737000  1.0  -0.869
  O  O169  1  0.716700  0.871700  0.591200  1.0  -0.7686
  O  O170  1  0.740500  0.999300  0.515300  1.0  -0.9537
  O  O171  1  0.752600  0.967100  0.752200  1.0  -0.7442
  O  O172  1  0.806800  0.909500  0.578900  1.0  -0.8838
  O  O173  1  0.743700  0.268500  0.426800  1.0  -0.8045
  O  O174  1  0.701400  0.140900  0.393200  1.0  -0.8255
  O  O175  1  0.683200  0.254000  0.245300  1.0  -0.7669
  O  O176  1  0.652300  0.254200  0.472300  1.0  -0.8075
  O  O177  1  0.661400  0.256600  0.986900  1.0  -0.767
  O  O178  1  0.627400  0.295100  0.767200  1.0  -0.7801
  O  O179  1  0.594300  0.352900  0.970200  1.0  -0.8004
  O  O180  1  0.677700  0.390700  0.888700  1.0  -0.888
  O  O181  1  0.902600  0.128100  0.047800  1.0  -0.7827
  O  O182  1  0.942600  0.003400  0.009100  1.0  -0.9618
  O  O183  1  0.991000  0.113300  0.095000  1.0  -0.8216
  O  O184  1  0.929400  0.044500  0.237000  1.0  -0.8694
  O  O185  1  0.783300  0.628300  0.091200  1.0  -0.7685
  O  O186  1  0.759500  0.500700  0.015300  1.0  -0.9512
  O  O187  1  0.747400  0.532900  0.252200  1.0  -0.7433
  O  O188  1  0.693200  0.590500  0.078900  1.0  -0.8846
  O  O189  1  0.756300  0.231500  0.926800  1.0  -0.8061
  O  O190  1  0.798600  0.359100  0.893200  1.0  -0.8341
  O  O191  1  0.816800  0.246000  0.745300  1.0  -0.7686
  O  O192  1  0.847700  0.245800  0.972300  1.0  -0.8083
  F  F193  1  0.766600  0.853700  0.090700  1.0  -0.4972
  F  F194  1  0.716400  0.730600  0.178700  1.0  -0.527
  F  F195  1  0.733400  0.646300  0.590700  1.0  -0.4976
  F  F196  1  0.783600  0.769400  0.678700  1.0  -0.528
  F  F197  1  0.233400  0.853700  0.409300  1.0  -0.4966
  F  F198  1  0.283600  0.730600  0.321300  1.0  -0.5279
  F  F199  1  0.266600  0.646300  0.909300  1.0  -0.4978
  F  F200  1  0.216400  0.769400  0.821300  1.0  -0.528
  F  F201  1  0.233400  0.146300  0.909300  1.0  -0.4973
  F  F202  1  0.283600  0.269400  0.821300  1.0  -0.5281
  F  F203  1  0.266600  0.353700  0.409300  1.0  -0.4973
  F  F204  1  0.216400  0.230600  0.321300  1.0  -0.5274
  F  F205  1  0.766600  0.146300  0.590700  1.0  -0.4979
  F  F206  1  0.716400  0.269400  0.678700  1.0  -0.5274
  F  F207  1  0.733400  0.353700  0.090700  1.0  -0.4966
  F  F208  1  0.783600  0.230600  0.178700  1.0  -0.5276
