# generated using pymatgen
data_CdH16C24S(N2O3)2
_symmetry_space_group_name_H-M   'P 1'
_cell_length_a   14.92560000
_cell_length_b   19.54060000
_cell_length_c   20.38740000
_cell_angle_alpha   90.00000000
_cell_angle_beta   94.37900000
_cell_angle_gamma   90.00000000
_symmetry_Int_Tables_number   1
_chemical_formula_structural   CdH16C24S(N2O3)2
_chemical_formula_sum   'Cd8 H128 C192 S8 N32 O48'
_cell_volume   5928.73300067
_cell_formula_units_Z   8
loop_
 _symmetry_equiv_pos_site_id
 _symmetry_equiv_pos_as_xyz
  1  'x, y, z'
loop_
 _atom_site_type_symbol
 _atom_site_label
 _atom_site_symmetry_multiplicity
 _atom_site_fract_x
 _atom_site_fract_y
 _atom_site_fract_z
 _atom_site_occupancy
 _atom_site_charge
  Cd  Cd1  1  0.373340  0.452830  0.667830  1.0  0.9749
  Cd  Cd2  1  0.143280  0.546680  0.672470  1.0  0.977
  Cd  Cd3  1  0.126660  0.952830  0.332170  1.0  0.9747
  Cd  Cd4  1  0.356720  0.046680  0.327530  1.0  0.9771
  Cd  Cd5  1  0.626660  0.547170  0.332170  1.0  0.9751
  Cd  Cd6  1  0.856720  0.453320  0.327530  1.0  0.9769
  Cd  Cd7  1  0.873340  0.047170  0.667830  1.0  0.9752
  Cd  Cd8  1  0.643280  0.953320  0.672470  1.0  0.9768
  H  H9  1  0.380400  0.520600  0.336800  1.0  0.2964
  H  H10  1  0.352000  0.416700  0.001100  1.0  0.3051
  H  H11  1  0.104500  0.481100  0.339500  1.0  0.2975
  H  H12  1  0.169700  0.579300  0.010000  1.0  0.309
  H  H13  1  0.349400  0.559100  0.240900  1.0  0.115
  H  H14  1  0.366300  0.583300  0.131100  1.0  0.0958
  H  H15  1  0.386800  0.387500  0.090700  1.0  0.1026
  H  H16  1  0.368100  0.360500  0.201100  1.0  0.1118
  H  H17  1  0.401200  0.555900  0.549400  1.0  0.0705
  H  H18  1  0.397100  0.567700  0.439400  1.0  0.1401
  H  H19  1  0.326000  0.371000  0.421300  1.0  0.1447
  H  H20  1  0.329800  0.366600  0.533600  1.0  0.0805
  H  H21  1  0.414000  0.547300  0.794700  1.0  0.0699
  H  H22  1  0.410100  0.553200  0.906100  1.0  0.1377
  H  H23  1  0.321500  0.363100  0.900100  1.0  0.1273
  H  H24  1  0.327300  0.362000  0.790300  1.0  0.0836
  H  H25  1  0.113000  0.639500  0.205200  1.0  0.1083
  H  H26  1  0.107800  0.613400  0.092100  1.0  0.1095
  H  H27  1  0.118500  0.416400  0.136400  1.0  0.108
  H  H28  1  0.126100  0.442300  0.247700  1.0  0.1138
  H  H29  1  0.165300  0.634800  0.541600  1.0  0.08
  H  H30  1  0.163400  0.630900  0.428500  1.0  0.1453
  H  H31  1  0.094400  0.433500  0.441400  1.0  0.1324
  H  H32  1  0.098000  0.445200  0.551500  1.0  0.0692
  H  H33  1  0.200900  0.633400  0.801800  1.0  0.0813
  H  H34  1  0.195800  0.634100  0.913100  1.0  0.1318
  H  H35  1  0.102700  0.446200  0.905900  1.0  0.1335
  H  H36  1  0.111400  0.449400  0.793600  1.0  0.0719
  H  H37  1  0.264500  0.718200  0.656400  1.0  0.1138
  H  H38  1  0.335000  0.831200  0.651100  1.0  0.1057
  H  H39  1  0.248300  0.282400  0.654600  1.0  0.1175
  H  H40  1  0.178100  0.168900  0.653800  1.0  0.0999
  H  H41  1  0.119600  0.020600  0.663200  1.0  0.2953
  H  H42  1  0.148000  0.916700  0.998900  1.0  0.3055
  H  H43  1  0.395500  0.981100  0.660500  1.0  0.2972
  H  H44  1  0.330300  0.079300  0.990000  1.0  0.3103
  H  H45  1  0.150600  0.059100  0.759100  1.0  0.1149
  H  H46  1  0.133700  0.083300  0.868900  1.0  0.0951
  H  H47  1  0.113200  0.887500  0.909300  1.0  0.1024
  H  H48  1  0.131900  0.860500  0.798900  1.0  0.1117
  H  H49  1  0.098800  0.055900  0.450600  1.0  0.0706
  H  H50  1  0.102900  0.067700  0.560600  1.0  0.14
  H  H51  1  0.174000  0.871000  0.578700  1.0  0.1453
  H  H52  1  0.170200  0.866600  0.466400  1.0  0.0805
  H  H53  1  0.086000  0.047300  0.205300  1.0  0.0703
  H  H54  1  0.089900  0.053200  0.093900  1.0  0.1382
  H  H55  1  0.178500  0.863100  0.099900  1.0  0.1276
  H  H56  1  0.172700  0.862000  0.209700  1.0  0.0834
  H  H57  1  0.387000  0.139500  0.794800  1.0  0.1082
  H  H58  1  0.392200  0.113400  0.907900  1.0  0.1099
  H  H59  1  0.381500  0.916400  0.863600  1.0  0.1081
  H  H60  1  0.373900  0.942300  0.752300  1.0  0.114
  H  H61  1  0.334700  0.134800  0.458400  1.0  0.0802
  H  H62  1  0.336600  0.130900  0.571500  1.0  0.1449
  H  H63  1  0.405600  0.933500  0.558600  1.0  0.132
  H  H64  1  0.402000  0.945200  0.448500  1.0  0.0687
  H  H65  1  0.299100  0.133400  0.198200  1.0  0.0812
  H  H66  1  0.304200  0.134100  0.086900  1.0  0.1332
  H  H67  1  0.397300  0.946200  0.094100  1.0  0.1343
  H  H68  1  0.388600  0.949400  0.206400  1.0  0.0724
  H  H69  1  0.235500  0.218200  0.343600  1.0  0.1111
  H  H70  1  0.165000  0.331200  0.348900  1.0  0.1059
  H  H71  1  0.251700  0.782400  0.345400  1.0  0.1183
  H  H72  1  0.321900  0.668900  0.346200  1.0  0.0996
  H  H73  1  0.619600  0.479400  0.663200  1.0  0.2946
  H  H74  1  0.648000  0.583300  0.998900  1.0  0.3047
  H  H75  1  0.895500  0.518900  0.660500  1.0  0.2969
  H  H76  1  0.830300  0.420700  0.990000  1.0  0.3093
  H  H77  1  0.650600  0.440900  0.759100  1.0  0.1146
  H  H78  1  0.633700  0.416700  0.868900  1.0  0.0948
  H  H79  1  0.613200  0.612500  0.909300  1.0  0.1022
  H  H80  1  0.631900  0.639500  0.798900  1.0  0.1109
  H  H81  1  0.598800  0.444100  0.450600  1.0  0.0701
  H  H82  1  0.602900  0.432300  0.560600  1.0  0.1407
  H  H83  1  0.674000  0.629000  0.578700  1.0  0.1447
  H  H84  1  0.670200  0.633400  0.466400  1.0  0.0808
  H  H85  1  0.586000  0.452700  0.205300  1.0  0.07
  H  H86  1  0.589900  0.446800  0.093900  1.0  0.1376
  H  H87  1  0.678500  0.636900  0.099900  1.0  0.1288
  H  H88  1  0.672700  0.638000  0.209700  1.0  0.0834
  H  H89  1  0.887000  0.360500  0.794800  1.0  0.1083
  H  H90  1  0.892200  0.386600  0.907900  1.0  0.1108
  H  H91  1  0.881500  0.583600  0.863600  1.0  0.1068
  H  H92  1  0.873900  0.557700  0.752300  1.0  0.1137
  H  H93  1  0.834700  0.365200  0.458400  1.0  0.08
  H  H94  1  0.836600  0.369100  0.571500  1.0  0.1471
  H  H95  1  0.905600  0.566500  0.558600  1.0  0.1307
  H  H96  1  0.902000  0.554800  0.448500  1.0  0.0687
  H  H97  1  0.799100  0.366600  0.198200  1.0  0.081
  H  H98  1  0.804200  0.365900  0.086900  1.0  0.1304
  H  H99  1  0.897300  0.553800  0.094100  1.0  0.1319
  H  H100  1  0.888600  0.550600  0.206400  1.0  0.0724
  H  H101  1  0.735500  0.281800  0.343600  1.0  0.1112
  H  H102  1  0.665000  0.168800  0.348900  1.0  0.106
  H  H103  1  0.751700  0.717600  0.345400  1.0  0.1182
  H  H104  1  0.821900  0.831100  0.346200  1.0  0.0993
  H  H105  1  0.880400  0.979400  0.336800  1.0  0.2959
  H  H106  1  0.852000  0.083300  0.001100  1.0  0.3041
  H  H107  1  0.604500  0.018900  0.339500  1.0  0.2975
  H  H108  1  0.669700  0.920700  0.010000  1.0  0.3096
  H  H109  1  0.849400  0.940900  0.240900  1.0  0.1149
  H  H110  1  0.866300  0.916700  0.131100  1.0  0.0946
  H  H111  1  0.886800  0.112500  0.090700  1.0  0.1028
  H  H112  1  0.868100  0.139500  0.201100  1.0  0.1105
  H  H113  1  0.901200  0.944100  0.549400  1.0  0.0702
  H  H114  1  0.897100  0.932300  0.439400  1.0  0.1405
  H  H115  1  0.826000  0.129000  0.421300  1.0  0.1443
  H  H116  1  0.829800  0.133400  0.533600  1.0  0.0809
  H  H117  1  0.914000  0.952700  0.794700  1.0  0.0699
  H  H118  1  0.910100  0.946800  0.906100  1.0  0.137
  H  H119  1  0.821500  0.136900  0.900100  1.0  0.1271
  H  H120  1  0.827300  0.138000  0.790300  1.0  0.0841
  H  H121  1  0.613000  0.860500  0.205200  1.0  0.1084
  H  H122  1  0.607800  0.886600  0.092100  1.0  0.11
  H  H123  1  0.618500  0.083600  0.136400  1.0  0.107
  H  H124  1  0.626100  0.057700  0.247700  1.0  0.1134
  H  H125  1  0.665300  0.865200  0.541600  1.0  0.0802
  H  H126  1  0.663400  0.869100  0.428500  1.0  0.1471
  H  H127  1  0.594400  0.066500  0.441400  1.0  0.1314
  H  H128  1  0.598000  0.054800  0.551500  1.0  0.069
  H  H129  1  0.700900  0.866600  0.801800  1.0  0.0807
  H  H130  1  0.695800  0.865900  0.913100  1.0  0.1309
  H  H131  1  0.602700  0.053800  0.905900  1.0  0.1309
  H  H132  1  0.611400  0.050600  0.793600  1.0  0.0719
  H  H133  1  0.764500  0.781800  0.656400  1.0  0.1138
  H  H134  1  0.835000  0.668800  0.651100  1.0  0.106
  H  H135  1  0.748300  0.217600  0.654600  1.0  0.1177
  H  H136  1  0.678100  0.331100  0.653800  1.0  0.0996
  C  C137  1  0.340900  0.433700  0.300700  1.0  0.531
  C  C138  1  0.378800  0.506700  0.029100  1.0  0.5523
  C  C139  1  0.356600  0.457400  0.231900  1.0  -0.0853
  C  C140  1  0.355800  0.523600  0.211200  1.0  -0.0781
  C  C141  1  0.364800  0.537800  0.144400  1.0  -0.0386
  C  C142  1  0.371300  0.488700  0.099300  1.0  -0.1174
  C  C143  1  0.376700  0.422200  0.120500  1.0  -0.0917
  C  C144  1  0.367200  0.405900  0.187400  1.0  -0.0534
  C  C145  1  0.384300  0.518400  0.523400  1.0  0.1939
  C  C146  1  0.383000  0.525700  0.457500  1.0  -0.2743
  C  C147  1  0.360900  0.470700  0.417000  1.0  0.3148
  C  C148  1  0.340700  0.409700  0.446300  1.0  -0.2803
  C  C149  1  0.343100  0.408000  0.514000  1.0  0.1897
  C  C150  1  0.395300  0.508700  0.816500  1.0  0.2028
  C  C151  1  0.393500  0.512900  0.884100  1.0  -0.2845
  C  C152  1  0.367600  0.458000  0.917600  1.0  0.3256
  C  C153  1  0.341900  0.401900  0.879500  1.0  -0.295
  C  C154  1  0.345200  0.401400  0.813200  1.0  0.1957
  C  C155  1  0.143900  0.566400  0.307100  1.0  0.529
  C  C156  1  0.116300  0.494900  0.032400  1.0  0.5378
  C  C157  1  0.128400  0.543300  0.236600  1.0  -0.0781
  C  C158  1  0.117600  0.594300  0.191500  1.0  -0.0625
  C  C159  1  0.113200  0.578500  0.123200  1.0  -0.1013
  C  C160  1  0.117000  0.511900  0.103300  1.0  -0.1154
  C  C161  1  0.119900  0.461900  0.149600  1.0  -0.0322
  C  C162  1  0.125000  0.477400  0.216800  1.0  -0.0676
  C  C163  1  0.151700  0.593300  0.520900  1.0  0.1895
  C  C164  1  0.150500  0.592100  0.452400  1.0  -0.2721
  C  C165  1  0.128900  0.530000  0.421300  1.0  0.3119
  C  C166  1  0.109600  0.475600  0.460400  1.0  -0.2795
  C  C167  1  0.112700  0.483000  0.526800  1.0  0.19
  C  C168  1  0.178900  0.594900  0.822100  1.0  0.1925
  C  C169  1  0.176300  0.595400  0.889600  1.0  -0.2821
  C  C170  1  0.145200  0.539800  0.922900  1.0  0.324
  C  C171  1  0.122200  0.485900  0.886300  1.0  -0.2727
  C  C172  1  0.127000  0.488500  0.817900  1.0  0.1929
  C  C173  1  0.371100  0.599000  0.669100  1.0  0.69
  C  C174  1  0.991500  0.154800  0.666300  1.0  0.6728
  C  C175  1  0.386200  0.673900  0.665600  1.0  -0.2223
  C  C176  1  0.326300  0.725000  0.659200  1.0  -0.05
  C  C177  1  0.367100  0.790600  0.657300  1.0  -0.0649
  C  C178  1  0.457600  0.787400  0.665400  1.0  -0.1996
  C  C179  1  0.145000  0.400200  0.669000  1.0  0.6786
  C  C180  1  0.523800  0.845200  0.670500  1.0  0.6702
  C  C181  1  0.127900  0.326600  0.665400  1.0  -0.2298
  C  C182  1  0.187300  0.275400  0.658400  1.0  -0.047
  C  C183  1  0.146700  0.209700  0.657600  1.0  -0.0695
  C  C184  1  0.057900  0.213200  0.663000  1.0  -0.1948
  C  C185  1  0.159100  0.933700  0.699300  1.0  0.5313
  C  C186  1  0.121200  0.006700  0.970900  1.0  0.5515
  C  C187  1  0.143400  0.957400  0.768100  1.0  -0.0839
  C  C188  1  0.144200  0.023600  0.788800  1.0  -0.0782
  C  C189  1  0.135200  0.037800  0.855600  1.0  -0.0379
  C  C190  1  0.128700  0.988700  0.900700  1.0  -0.1163
  C  C191  1  0.123300  0.922200  0.879500  1.0  -0.0917
  C  C192  1  0.132800  0.905900  0.812600  1.0  -0.0527
  C  C193  1  0.115700  0.018400  0.476600  1.0  0.1944
  C  C194  1  0.117000  0.025700  0.542500  1.0  -0.2772
  C  C195  1  0.139100  0.970700  0.583000  1.0  0.3152
  C  C196  1  0.159300  0.909700  0.553700  1.0  -0.279
  C  C197  1  0.156900  0.908000  0.486000  1.0  0.1894
  C  C198  1  0.104700  0.008700  0.183500  1.0  0.2023
  C  C199  1  0.106500  0.012900  0.115900  1.0  -0.2843
  C  C200  1  0.132400  0.958000  0.082400  1.0  0.3259
  C  C201  1  0.158100  0.901900  0.120500  1.0  -0.2915
  C  C202  1  0.154800  0.901400  0.186800  1.0  0.1976
  C  C203  1  0.356100  0.066400  0.692900  1.0  0.5294
  C  C204  1  0.383700  0.994900  0.967600  1.0  0.5384
  C  C205  1  0.371600  0.043300  0.763400  1.0  -0.0774
  C  C206  1  0.382400  0.094300  0.808500  1.0  -0.0621
  C  C207  1  0.386800  0.078500  0.876800  1.0  -0.1007
  C  C208  1  0.383000  0.011900  0.896700  1.0  -0.1122
  C  C209  1  0.380100  0.961900  0.850400  1.0  -0.032
  C  C210  1  0.375000  0.977400  0.783200  1.0  -0.0684
  C  C211  1  0.348300  0.093300  0.479100  1.0  0.1882
  C  C212  1  0.349500  0.092100  0.547600  1.0  -0.2734
  C  C213  1  0.371100  0.030000  0.578700  1.0  0.3121
  C  C214  1  0.390400  0.975600  0.539600  1.0  -0.2789
  C  C215  1  0.387300  0.983000  0.473200  1.0  0.1905
  C  C216  1  0.321100  0.094900  0.177900  1.0  0.1922
  C  C217  1  0.323700  0.095400  0.110400  1.0  -0.2836
  C  C218  1  0.354800  0.039800  0.077100  1.0  0.3242
  C  C219  1  0.377800  0.985900  0.113700  1.0  -0.2703
  C  C220  1  0.373000  0.988500  0.182100  1.0  0.1946
  C  C221  1  0.128900  0.099000  0.330900  1.0  0.6901
  C  C222  1  0.508500  0.654800  0.333700  1.0  0.6732
  C  C223  1  0.113800  0.173900  0.334400  1.0  -0.2236
  C  C224  1  0.173700  0.225000  0.340800  1.0  -0.0495
  C  C225  1  0.132900  0.290600  0.342700  1.0  -0.0645
  C  C226  1  0.042400  0.287400  0.334600  1.0  -0.2006
  C  C227  1  0.355000  0.900200  0.331000  1.0  0.6783
  C  C228  1  0.976200  0.345200  0.329500  1.0  0.6693
  C  C229  1  0.372100  0.826600  0.334600  1.0  -0.2272
  C  C230  1  0.312700  0.775400  0.341600  1.0  -0.0467
  C  C231  1  0.353300  0.709700  0.342400  1.0  -0.0699
  C  C232  1  0.442100  0.713200  0.337000  1.0  -0.1959
  C  C233  1  0.659100  0.566300  0.699300  1.0  0.5313
  C  C234  1  0.621200  0.493300  0.970900  1.0  0.5513
  C  C235  1  0.643400  0.542600  0.768100  1.0  -0.0838
  C  C236  1  0.644200  0.476400  0.788800  1.0  -0.0775
  C  C237  1  0.635200  0.462200  0.855600  1.0  -0.0387
  C  C238  1  0.628700  0.511300  0.900700  1.0  -0.1164
  C  C239  1  0.623300  0.577800  0.879500  1.0  -0.0925
  C  C240  1  0.632800  0.594100  0.812600  1.0  -0.0532
  C  C241  1  0.615700  0.481600  0.476600  1.0  0.1947
  C  C242  1  0.617000  0.474300  0.542500  1.0  -0.2749
  C  C243  1  0.639100  0.529300  0.583000  1.0  0.3153
  C  C244  1  0.659300  0.590300  0.553700  1.0  -0.2762
  C  C245  1  0.656900  0.592000  0.486000  1.0  0.1893
  C  C246  1  0.604700  0.491300  0.183500  1.0  0.2024
  C  C247  1  0.606500  0.487100  0.115900  1.0  -0.2841
  C  C248  1  0.632400  0.542000  0.082400  1.0  0.3254
  C  C249  1  0.658100  0.598100  0.120500  1.0  -0.2821
  C  C250  1  0.654800  0.598600  0.186800  1.0  0.1975
  C  C251  1  0.856100  0.433600  0.692900  1.0  0.5287
  C  C252  1  0.883700  0.505100  0.967600  1.0  0.5373
  C  C253  1  0.871600  0.456700  0.763400  1.0  -0.0778
  C  C254  1  0.882400  0.405700  0.808500  1.0  -0.0619
  C  C255  1  0.886800  0.421500  0.876800  1.0  -0.0986
  C  C256  1  0.883000  0.488100  0.896700  1.0  -0.1117
  C  C257  1  0.880100  0.538100  0.850400  1.0  -0.0297
  C  C258  1  0.875000  0.522600  0.783200  1.0  -0.0686
  C  C259  1  0.848300  0.406700  0.479100  1.0  0.1883
  C  C260  1  0.849500  0.407900  0.547600  1.0  -0.275
  C  C261  1  0.871100  0.470000  0.578700  1.0  0.3122
  C  C262  1  0.890400  0.524400  0.539600  1.0  -0.2799
  C  C263  1  0.887300  0.517000  0.473200  1.0  0.1901
  C  C264  1  0.821100  0.405100  0.177900  1.0  0.1926
  C  C265  1  0.823700  0.404600  0.110400  1.0  -0.2873
  C  C266  1  0.854800  0.460200  0.077100  1.0  0.3241
  C  C267  1  0.877800  0.514100  0.113700  1.0  -0.2707
  C  C268  1  0.873000  0.511500  0.182100  1.0  0.1951
  C  C269  1  0.628900  0.401000  0.330900  1.0  0.6897
  C  C270  1  0.008500  0.845200  0.333700  1.0  0.6721
  C  C271  1  0.613800  0.326100  0.334400  1.0  -0.223
  C  C272  1  0.673700  0.275000  0.340800  1.0  -0.0495
  C  C273  1  0.632900  0.209400  0.342700  1.0  -0.0649
  C  C274  1  0.542400  0.212600  0.334600  1.0  -0.2
  C  C275  1  0.855000  0.599800  0.331000  1.0  0.6792
  C  C276  1  0.476200  0.154800  0.329500  1.0  0.6698
  C  C277  1  0.872100  0.673400  0.334600  1.0  -0.2278
  C  C278  1  0.812700  0.724600  0.341600  1.0  -0.0466
  C  C279  1  0.853300  0.790300  0.342400  1.0  -0.069
  C  C280  1  0.942100  0.786800  0.337000  1.0  -0.1962
  C  C281  1  0.840900  0.066300  0.300700  1.0  0.5305
  C  C282  1  0.878800  0.993300  0.029100  1.0  0.5514
  C  C283  1  0.856600  0.042600  0.231900  1.0  -0.0849
  C  C284  1  0.855800  0.976400  0.211200  1.0  -0.077
  C  C285  1  0.864800  0.962200  0.144400  1.0  -0.0387
  C  C286  1  0.871300  0.011300  0.099300  1.0  -0.1172
  C  C287  1  0.876700  0.077800  0.120500  1.0  -0.092
  C  C288  1  0.867200  0.094100  0.187400  1.0  -0.053
  C  C289  1  0.884300  0.981600  0.523400  1.0  0.1939
  C  C290  1  0.883000  0.974300  0.457500  1.0  -0.2732
  C  C291  1  0.860900  0.029300  0.417000  1.0  0.3148
  C  C292  1  0.840700  0.090300  0.446300  1.0  -0.2782
  C  C293  1  0.843100  0.092000  0.514000  1.0  0.1895
  C  C294  1  0.895300  0.991300  0.816500  1.0  0.2031
  C  C295  1  0.893500  0.987100  0.884100  1.0  -0.284
  C  C296  1  0.867600  0.042000  0.917600  1.0  0.3249
  C  C297  1  0.841900  0.098100  0.879500  1.0  -0.284
  C  C298  1  0.845200  0.098600  0.813200  1.0  0.1966
  C  C299  1  0.643900  0.933600  0.307100  1.0  0.5293
  C  C300  1  0.616300  0.005100  0.032400  1.0  0.5375
  C  C301  1  0.628400  0.956700  0.236600  1.0  -0.0785
  C  C302  1  0.617600  0.905700  0.191500  1.0  -0.0621
  C  C303  1  0.613200  0.921500  0.123200  1.0  -0.099
  C  C304  1  0.617000  0.988100  0.103300  1.0  -0.115
  C  C305  1  0.619900  0.038100  0.149600  1.0  -0.0302
  C  C306  1  0.625000  0.022600  0.216800  1.0  -0.0685
  C  C307  1  0.651700  0.906700  0.520900  1.0  0.1901
  C  C308  1  0.650500  0.907900  0.452400  1.0  -0.2738
  C  C309  1  0.628900  0.970000  0.421300  1.0  0.312
  C  C310  1  0.609600  0.024400  0.460400  1.0  -0.2811
  C  C311  1  0.612700  0.017000  0.526800  1.0  0.1893
  C  C312  1  0.678900  0.905100  0.822100  1.0  0.1917
  C  C313  1  0.676300  0.904600  0.889600  1.0  -0.2872
  C  C314  1  0.645200  0.960200  0.922900  1.0  0.3237
  C  C315  1  0.622200  0.014100  0.886300  1.0  -0.2736
  C  C316  1  0.627000  0.011500  0.817900  1.0  0.1935
  C  C317  1  0.871100  0.901000  0.669100  1.0  0.6898
  C  C318  1  0.491500  0.345200  0.666300  1.0  0.6724
  C  C319  1  0.886200  0.826100  0.665600  1.0  -0.2221
  C  C320  1  0.826300  0.775000  0.659200  1.0  -0.0501
  C  C321  1  0.867100  0.709400  0.657300  1.0  -0.0651
  C  C322  1  0.957600  0.712600  0.665400  1.0  -0.1995
  C  C323  1  0.645000  0.099800  0.669000  1.0  0.6794
  C  C324  1  0.023800  0.654800  0.670500  1.0  0.6707
  C  C325  1  0.627900  0.173400  0.665400  1.0  -0.2303
  C  C326  1  0.687300  0.224600  0.658400  1.0  -0.0471
  C  C327  1  0.646700  0.290300  0.657600  1.0  -0.0687
  C  C328  1  0.557900  0.286800  0.663000  1.0  -0.1963
  S  S329  1  0.021160  0.295660  0.669760  1.0  0.1595
  S  S330  1  0.494870  0.704440  0.671590  1.0  0.1409
  S  S331  1  0.478840  0.795660  0.330240  1.0  0.1584
  S  S332  1  0.005130  0.204440  0.328410  1.0  0.1431
  S  S333  1  0.978840  0.704340  0.330240  1.0  0.1586
  S  S334  1  0.505130  0.295560  0.328410  1.0  0.1432
  S  S335  1  0.521160  0.204340  0.669760  1.0  0.1595
  S  S336  1  0.994870  0.795560  0.671590  1.0  0.1407
  N  N337  1  0.363300  0.481000  0.349200  1.0  -0.4028
  N  N338  1  0.362800  0.460800  0.553400  1.0  -0.3646
  N  N339  1  0.364600  0.455900  0.985000  1.0  -0.4078
  N  N340  1  0.372400  0.454100  0.780000  1.0  -0.3574
  N  N341  1  0.123200  0.520500  0.353600  1.0  -0.3914
  N  N342  1  0.135100  0.540600  0.559100  1.0  -0.3679
  N  N343  1  0.146900  0.543000  0.991700  1.0  -0.4087
  N  N344  1  0.152300  0.543300  0.785700  1.0  -0.3474
  N  N345  1  0.136700  0.981000  0.650800  1.0  -0.4043
  N  N346  1  0.137200  0.960800  0.446600  1.0  -0.3632
  N  N347  1  0.135400  0.955900  0.015000  1.0  -0.4066
  N  N348  1  0.127600  0.954100  0.220000  1.0  -0.3575
  N  N349  1  0.376800  0.020500  0.646400  1.0  -0.3903
  N  N350  1  0.364900  0.040600  0.440900  1.0  -0.367
  N  N351  1  0.353100  0.043000  0.008300  1.0  -0.4085
  N  N352  1  0.347700  0.043300  0.214300  1.0  -0.3484
  N  N353  1  0.636700  0.519000  0.650800  1.0  -0.406
  N  N354  1  0.637200  0.539200  0.446600  1.0  -0.3623
  N  N355  1  0.635400  0.544100  0.015000  1.0  -0.4052
  N  N356  1  0.627600  0.545900  0.220000  1.0  -0.3579
  N  N357  1  0.876800  0.479500  0.646400  1.0  -0.389
  N  N358  1  0.864900  0.459400  0.440900  1.0  -0.3671
  N  N359  1  0.853100  0.457000  0.008300  1.0  -0.4102
  N  N360  1  0.847700  0.456700  0.214300  1.0  -0.3481
  N  N361  1  0.863300  0.019000  0.349200  1.0  -0.4041
  N  N362  1  0.862800  0.039200  0.553400  1.0  -0.3646
  N  N363  1  0.864600  0.044100  0.985000  1.0  -0.4062
  N  N364  1  0.872400  0.045900  0.780000  1.0  -0.3577
  N  N365  1  0.623200  0.979500  0.353600  1.0  -0.3898
  N  N366  1  0.635100  0.959400  0.559100  1.0  -0.368
  N  N367  1  0.646900  0.957000  0.991700  1.0  -0.4102
  N  N368  1  0.652300  0.956700  0.785700  1.0  -0.3477
  O  O369  1  0.306400  0.379700  0.311150  1.0  -0.4629
  O  O370  1  0.397900  0.563700  0.012900  1.0  -0.501
  O  O371  1  0.175100  0.622100  0.320600  1.0  -0.4767
  O  O372  1  0.091900  0.436800  0.013200  1.0  -0.5135
  O  O373  1  0.221800  0.424300  0.665900  1.0  -0.6375
  O  O374  1  0.076100  0.438860  0.674300  1.0  -0.6022
  O  O375  1  0.910500  0.167950  0.668700  1.0  -0.6019
  O  O376  1  0.021100  0.095370  0.663950  1.0  -0.61
  O  O377  1  0.292600  0.577830  0.667700  1.0  -0.6449
  O  O378  1  0.438200  0.561270  0.673000  1.0  -0.5915
  O  O379  1  0.605700  0.832950  0.673300  1.0  -0.6063
  O  O380  1  0.492600  0.905090  0.667770  1.0  -0.6182
  O  O381  1  0.193600  0.879700  0.688850  1.0  -0.4629
  O  O382  1  0.102100  0.063700  0.987100  1.0  -0.5018
  O  O383  1  0.324900  0.122100  0.679400  1.0  -0.4758
  O  O384  1  0.408100  0.936800  0.986800  1.0  -0.5135
  O  O385  1  0.278200  0.924300  0.334100  1.0  -0.6386
  O  O386  1  0.423900  0.938860  0.325700  1.0  -0.6028
  O  O387  1  0.589500  0.667950  0.331300  1.0  -0.6025
  O  O388  1  0.478900  0.595370  0.336050  1.0  -0.6113
  O  O389  1  0.207400  0.077830  0.332300  1.0  -0.6438
  O  O390  1  0.061800  0.061270  0.327000  1.0  -0.5913
  O  O391  1  0.894300  0.332950  0.326700  1.0  -0.6064
  O  O392  1  0.007400  0.405090  0.332230  1.0  -0.6182
  O  O393  1  0.693600  0.620300  0.688850  1.0  -0.4634
  O  O394  1  0.602100  0.436300  0.987100  1.0  -0.5021
  O  O395  1  0.824900  0.377900  0.679400  1.0  -0.4752
  O  O396  1  0.908100  0.563200  0.986800  1.0  -0.5132
  O  O397  1  0.778200  0.575700  0.334100  1.0  -0.6386
  O  O398  1  0.923900  0.561140  0.325700  1.0  -0.6027
  O  O399  1  0.089500  0.832050  0.331300  1.0  -0.6026
  O  O400  1  0.978900  0.904630  0.336050  1.0  -0.6104
  O  O401  1  0.707400  0.422170  0.332300  1.0  -0.6442
  O  O402  1  0.561800  0.438730  0.327000  1.0  -0.5915
  O  O403  1  0.394300  0.167050  0.326700  1.0  -0.6058
  O  O404  1  0.507400  0.094910  0.332230  1.0  -0.6175
  O  O405  1  0.806400  0.120300  0.311150  1.0  -0.4631
  O  O406  1  0.897900  0.936300  0.012900  1.0  -0.5013
  O  O407  1  0.675100  0.877900  0.320600  1.0  -0.4758
  O  O408  1  0.591900  0.063200  0.013200  1.0  -0.5131
  O  O409  1  0.721800  0.075700  0.665900  1.0  -0.6377
  O  O410  1  0.576100  0.061140  0.674300  1.0  -0.6022
  O  O411  1  0.410500  0.332050  0.668700  1.0  -0.6021
  O  O412  1  0.521100  0.404630  0.663950  1.0  -0.6108
  O  O413  1  0.792600  0.922170  0.667700  1.0  -0.6455
  O  O414  1  0.938200  0.938730  0.673000  1.0  -0.5915
  O  O415  1  0.105700  0.667050  0.673300  1.0  -0.606
  O  O416  1  0.992600  0.594910  0.667770  1.0  -0.6191
