# generated using pymatgen
data_ZnH2(CO2)2
_symmetry_space_group_name_H-M   'P 1'
_cell_length_a   9.84860000
_cell_length_b   11.29560000
_cell_length_c   14.74930000
_cell_angle_alpha   91.30940000
_cell_angle_beta   90.00000000
_cell_angle_gamma   90.00000000
_symmetry_Int_Tables_number   1
_chemical_formula_structural   ZnH2(CO2)2
_chemical_formula_sum   'Zn12 H24 C24 O48'
_cell_volume   1640.36990327
_cell_formula_units_Z   12
loop_
 _symmetry_equiv_pos_site_id
 _symmetry_equiv_pos_as_xyz
  1  'x, y, z'
loop_
 _atom_site_type_symbol
 _atom_site_label
 _atom_site_symmetry_multiplicity
 _atom_site_fract_x
 _atom_site_fract_y
 _atom_site_fract_z
 _atom_site_occupancy
 _atom_site_charge
  Zn  Zn1  1  0.923320  0.756860  0.132350  1.0  1.0922
  Zn  Zn2  1  0.112400  0.741240  0.308760  1.0  1.0543
  Zn  Zn3  1  0.423320  0.743140  0.367650  1.0  1.0923
  Zn  Zn4  1  0.612400  0.758760  0.191240  1.0  1.0551
  Zn  Zn5  1  0.076680  0.243140  0.867650  1.0  1.0924
  Zn  Zn6  1  0.887600  0.258760  0.691240  1.0  1.055
  Zn  Zn7  1  0.576680  0.256860  0.632350  1.0  1.0924
  Zn  Zn8  1  0.387600  0.241240  0.808760  1.0  1.0541
  Zn  Zn9  1  0.000000  0.500000  0.000000  1.0  1.0849
  Zn  Zn10  1  0.500000  0.000000  0.500000  1.0  1.0849
  Zn  Zn11  1  0.000000  0.000000  0.000000  1.0  1.1014
  Zn  Zn12  1  0.500000  0.500000  0.500000  1.0  1.1014
  H  H13  1  0.757600  0.845400  0.369800  1.0  0.0057
  H  H14  1  0.055700  0.477500  0.258900  1.0  0.0137
  H  H15  1  0.617300  0.553400  0.051600  1.0  0.0095
  H  H16  1  0.198900  0.981300  0.226100  1.0  0.0035
  H  H17  1  0.154200  0.695300  0.927300  1.0  0.0167
  H  H18  1  0.707400  0.003700  0.025100  1.0  0.0106
  H  H19  1  0.257600  0.654600  0.130200  1.0  0.0055
  H  H20  1  0.555700  0.022500  0.241100  1.0  0.0132
  H  H21  1  0.117300  0.946600  0.448400  1.0  0.0102
  H  H22  1  0.698900  0.518700  0.273900  1.0  0.0033
  H  H23  1  0.654200  0.804700  0.572700  1.0  0.0171
  H  H24  1  0.207400  0.496300  0.474900  1.0  0.0108
  H  H25  1  0.242400  0.154600  0.630200  1.0  0.0053
  H  H26  1  0.944300  0.522500  0.741100  1.0  0.0134
  H  H27  1  0.382700  0.446600  0.948400  1.0  0.01
  H  H28  1  0.801100  0.018700  0.773900  1.0  0.003
  H  H29  1  0.845800  0.304700  0.072700  1.0  0.0161
  H  H30  1  0.292600  0.996300  0.974900  1.0  0.0113
  H  H31  1  0.742400  0.345400  0.869800  1.0  0.0054
  H  H32  1  0.444300  0.977500  0.758900  1.0  0.0137
  H  H33  1  0.882700  0.053400  0.551600  1.0  0.0096
  H  H34  1  0.301100  0.481300  0.726100  1.0  0.0036
  H  H35  1  0.345800  0.195300  0.427300  1.0  0.0157
  H  H36  1  0.792600  0.503700  0.525100  1.0  0.0111
  C  C37  1  0.830400  0.820370  0.331770  1.0  0.682
  C  C38  1  0.028500  0.518350  0.206350  1.0  0.6817
  C  C39  1  0.711200  0.571760  0.056060  1.0  0.6806
  C  C40  1  0.136400  0.953380  0.181480  1.0  0.6848
  C  C41  1  0.099300  0.741740  0.967340  1.0  0.7047
  C  C42  1  0.724500  0.938050  0.062550  1.0  0.6868
  C  C43  1  0.330400  0.679630  0.168230  1.0  0.6823
  C  C44  1  0.528500  0.981650  0.293650  1.0  0.6814
  C  C45  1  0.211200  0.928240  0.443940  1.0  0.6807
  C  C46  1  0.636400  0.546620  0.318520  1.0  0.6849
  C  C47  1  0.599300  0.758260  0.532660  1.0  0.705
  C  C48  1  0.224500  0.561950  0.437450  1.0  0.687
  C  C49  1  0.169600  0.179630  0.668230  1.0  0.6825
  C  C50  1  0.971500  0.481650  0.793650  1.0  0.6809
  C  C51  1  0.288800  0.428240  0.943940  1.0  0.6783
  C  C52  1  0.863600  0.046620  0.818520  1.0  0.6846
  C  C53  1  0.900700  0.258260  0.032660  1.0  0.7049
  C  C54  1  0.275500  0.061950  0.937450  1.0  0.6866
  C  C55  1  0.669600  0.320370  0.831770  1.0  0.6826
  C  C56  1  0.471500  0.018350  0.706350  1.0  0.6824
  C  C57  1  0.788800  0.071760  0.556060  1.0  0.6795
  C  C58  1  0.363600  0.453380  0.681480  1.0  0.6841
  C  C59  1  0.400700  0.241740  0.467340  1.0  0.7051
  C  C60  1  0.775500  0.438050  0.562550  1.0  0.6863
  O  O61  1  0.803870  0.804370  0.247750  1.0  -0.6444
  O  O62  1  0.942880  0.806280  0.368720  1.0  -0.5807
  O  O63  1  0.012480  0.629060  0.215310  1.0  -0.6478
  O  O64  1  0.012430  0.457790  0.136320  1.0  -0.5881
  O  O65  1  0.745340  0.655210  0.112060  1.0  -0.6744
  O  O66  1  0.789770  0.513040  0.007240  1.0  -0.5788
  O  O67  1  0.082820  0.852420  0.194560  1.0  -0.6566
  O  O68  1  0.115560  0.018330  0.117000  1.0  -0.5805
  O  O69  1  0.024520  0.685190  0.023270  1.0  -0.6568
  O  O70  1  0.106950  0.849490  0.960440  1.0  -0.582
  O  O71  1  0.847350  0.901230  0.065960  1.0  -0.6467
  O  O72  1  0.625650  0.896670  0.103230  1.0  -0.5837
  O  O73  1  0.303870  0.695630  0.252250  1.0  -0.6438
  O  O74  1  0.442880  0.693720  0.131280  1.0  -0.5797
  O  O75  1  0.512480  0.870940  0.284690  1.0  -0.6476
  O  O76  1  0.512430  0.042210  0.363680  1.0  -0.5889
  O  O77  1  0.245340  0.844790  0.387940  1.0  -0.674
  O  O78  1  0.289770  0.986960  0.492760  1.0  -0.5786
  O  O79  1  0.582820  0.647580  0.305440  1.0  -0.6571
  O  O80  1  0.615560  0.481670  0.383000  1.0  -0.5815
  O  O81  1  0.524520  0.814810  0.476730  1.0  -0.6557
  O  O82  1  0.606950  0.650510  0.539560  1.0  -0.5814
  O  O83  1  0.347350  0.598770  0.434040  1.0  -0.6467
  O  O84  1  0.125650  0.603330  0.396770  1.0  -0.5842
  O  O85  1  0.196130  0.195630  0.752250  1.0  -0.6438
  O  O86  1  0.057120  0.193720  0.631280  1.0  -0.5797
  O  O87  1  0.987520  0.370940  0.784690  1.0  -0.648
  O  O88  1  0.987570  0.542210  0.863680  1.0  -0.5886
  O  O89  1  0.254660  0.344790  0.887940  1.0  -0.6718
  O  O90  1  0.210230  0.486960  0.992760  1.0  -0.5799
  O  O91  1  0.917180  0.147580  0.805440  1.0  -0.6563
  O  O92  1  0.884440  0.981670  0.883000  1.0  -0.5815
  O  O93  1  0.975480  0.314810  0.976730  1.0  -0.6562
  O  O94  1  0.893050  0.150510  0.039560  1.0  -0.5811
  O  O95  1  0.152650  0.098770  0.934040  1.0  -0.6471
  O  O96  1  0.374350  0.103330  0.896770  1.0  -0.5841
  O  O97  1  0.696130  0.304370  0.747750  1.0  -0.6445
  O  O98  1  0.557120  0.306280  0.868720  1.0  -0.5811
  O  O99  1  0.487520  0.129060  0.715310  1.0  -0.6479
  O  O100  1  0.487570  0.957790  0.636320  1.0  -0.5879
  O  O101  1  0.754660  0.155210  0.612060  1.0  -0.6725
  O  O102  1  0.710230  0.013040  0.507240  1.0  -0.5798
  O  O103  1  0.417180  0.352420  0.694560  1.0  -0.6562
  O  O104  1  0.384440  0.518330  0.617000  1.0  -0.5809
  O  O105  1  0.475480  0.185190  0.523270  1.0  -0.657
  O  O106  1  0.393050  0.349490  0.460440  1.0  -0.5815
  O  O107  1  0.652650  0.401230  0.565960  1.0  -0.647
  O  O108  1  0.874350  0.396670  0.603230  1.0  -0.5834
