# generated using pymatgen
data_ZnH2(CO2)2
_symmetry_space_group_name_H-M   'P 1'
_cell_length_a   9.82500000
_cell_length_b   11.29580000
_cell_length_c   14.73290000
_cell_angle_alpha   91.49430000
_cell_angle_beta   90.00000000
_cell_angle_gamma   90.00000000
_symmetry_Int_Tables_number   1
_chemical_formula_structural   ZnH2(CO2)2
_chemical_formula_sum   'Zn12 H24 C24 O48'
_cell_volume   1634.51938756
_cell_formula_units_Z   12
loop_
 _symmetry_equiv_pos_site_id
 _symmetry_equiv_pos_as_xyz
  1  'x, y, z'
loop_
 _atom_site_type_symbol
 _atom_site_label
 _atom_site_symmetry_multiplicity
 _atom_site_fract_x
 _atom_site_fract_y
 _atom_site_fract_z
 _atom_site_occupancy
 _atom_site_charge
  Zn  Zn1  1  0.926330  0.756950  0.131710  1.0  1.0942
  Zn  Zn2  1  0.115040  0.741720  0.307920  1.0  1.0585
  Zn  Zn3  1  0.426330  0.743050  0.368290  1.0  1.0943
  Zn  Zn4  1  0.615040  0.758280  0.192080  1.0  1.0579
  Zn  Zn5  1  0.073670  0.243050  0.868290  1.0  1.0941
  Zn  Zn6  1  0.884960  0.258280  0.692080  1.0  1.0581
  Zn  Zn7  1  0.573670  0.256950  0.631710  1.0  1.0939
  Zn  Zn8  1  0.384960  0.241720  0.807920  1.0  1.0587
  Zn  Zn9  1  0.000000  0.500000  0.000000  1.0  1.0808
  Zn  Zn10  1  0.500000  0.000000  0.500000  1.0  1.0808
  Zn  Zn11  1  0.000000  0.000000  0.000000  1.0  1.0918
  Zn  Zn12  1  0.500000  0.500000  0.500000  1.0  1.0918
  H  H13  1  0.762700  0.855500  0.368200  1.0  0.0043
  H  H14  1  0.049800  0.478100  0.259900  1.0  0.0123
  H  H15  1  0.618100  0.560800  0.046200  1.0  0.0065
  H  H16  1  0.207400  0.979100  0.222800  1.0  0.0005
  H  H17  1  0.163600  0.695800  0.928800  1.0  0.0256
  H  H18  1  0.706500  0.998100  0.021800  1.0  0.0108
  H  H19  1  0.262700  0.644500  0.131800  1.0  0.0036
  H  H20  1  0.549800  0.021900  0.240100  1.0  0.0119
  H  H21  1  0.118100  0.939200  0.453800  1.0  0.0069
  H  H22  1  0.707400  0.520900  0.277200  1.0  0.0004
  H  H23  1  0.663600  0.804200  0.571200  1.0  0.0258
  H  H24  1  0.206500  0.501900  0.478200  1.0  0.0107
  H  H25  1  0.237300  0.144500  0.631800  1.0  0.0043
  H  H26  1  0.950200  0.521900  0.740100  1.0  0.0122
  H  H27  1  0.381900  0.439200  0.953800  1.0  0.0073
  H  H28  1  0.792600  0.020900  0.777200  1.0  -0.0
  H  H29  1  0.836400  0.304200  0.071200  1.0  0.0252
  H  H30  1  0.293500  0.001900  0.978200  1.0  0.0109
  H  H31  1  0.737300  0.355500  0.868200  1.0  0.0042
  H  H32  1  0.450200  0.978100  0.759900  1.0  0.0124
  H  H33  1  0.881900  0.060800  0.546200  1.0  0.0072
  H  H34  1  0.292600  0.479100  0.722800  1.0  0.0005
  H  H35  1  0.336400  0.195800  0.428800  1.0  0.025
  H  H36  1  0.793500  0.498100  0.521800  1.0  0.011
  C  C37  1  0.834600  0.826500  0.330800  1.0  0.6845
  C  C38  1  0.023600  0.519000  0.207100  1.0  0.6803
  C  C39  1  0.712700  0.576700  0.052100  1.0  0.6872
  C  C40  1  0.141900  0.952200  0.179500  1.0  0.6863
  C  C41  1  0.105700  0.741600  0.967600  1.0  0.7086
  C  C42  1  0.724800  0.934300  0.060700  1.0  0.6919
  C  C43  1  0.334600  0.673500  0.169200  1.0  0.6849
  C  C44  1  0.523600  0.981000  0.292900  1.0  0.6806
  C  C45  1  0.212700  0.923300  0.447900  1.0  0.6863
  C  C46  1  0.641900  0.547800  0.320500  1.0  0.6857
  C  C47  1  0.605700  0.758400  0.532400  1.0  0.7096
  C  C48  1  0.224800  0.565700  0.439300  1.0  0.6921
  C  C49  1  0.165400  0.173500  0.669200  1.0  0.6849
  C  C50  1  0.976400  0.481000  0.792900  1.0  0.6801
  C  C51  1  0.287300  0.423300  0.947900  1.0  0.6852
  C  C52  1  0.858100  0.047800  0.820500  1.0  0.6854
  C  C53  1  0.894300  0.258400  0.032400  1.0  0.7098
  C  C54  1  0.275200  0.065700  0.939300  1.0  0.6918
  C  C55  1  0.665400  0.326500  0.830800  1.0  0.6848
  C  C56  1  0.476400  0.019000  0.707100  1.0  0.6809
  C  C57  1  0.787300  0.076700  0.552100  1.0  0.6861
  C  C58  1  0.358100  0.452200  0.679500  1.0  0.6854
  C  C59  1  0.394300  0.241600  0.467600  1.0  0.7093
  C  C60  1  0.775200  0.434300  0.560700  1.0  0.6914
  O  O61  1  0.807200  0.807290  0.247390  1.0  -0.6503
  O  O62  1  0.946500  0.810790  0.368090  1.0  -0.5814
  O  O63  1  0.012800  0.630010  0.215310  1.0  -0.6564
  O  O64  1  0.003600  0.457800  0.137600  1.0  -0.5924
  O  O65  1  0.748300  0.655000  0.112100  1.0  -0.6531
  O  O66  1  0.790800  0.519930  0.000930  1.0  -0.578
  O  O67  1  0.087300  0.851160  0.193160  1.0  -0.6622
  O  O68  1  0.118500  0.017800  0.116300  1.0  -0.5818
  O  O69  1  0.029300  0.685010  0.023510  1.0  -0.6645
  O  O70  1  0.109400  0.849280  0.960780  1.0  -0.5834
  O  O71  1  0.848500  0.899690  0.064890  1.0  -0.6528
  O  O72  1  0.626600  0.893760  0.101860  1.0  -0.5782
  O  O73  1  0.307200  0.692710  0.252610  1.0  -0.65
  O  O74  1  0.446500  0.689210  0.131910  1.0  -0.5816
  O  O75  1  0.512800  0.869990  0.284690  1.0  -0.6568
  O  O76  1  0.503600  0.042200  0.362400  1.0  -0.5933
  O  O77  1  0.248300  0.845000  0.387900  1.0  -0.6519
  O  O78  1  0.290800  0.980070  0.499070  1.0  -0.5782
  O  O79  1  0.587300  0.648840  0.306840  1.0  -0.662
  O  O80  1  0.618500  0.482200  0.383700  1.0  -0.5843
  O  O81  1  0.529300  0.814990  0.476490  1.0  -0.6644
  O  O82  1  0.609400  0.650720  0.539220  1.0  -0.5837
  O  O83  1  0.348500  0.600310  0.435110  1.0  -0.6532
  O  O84  1  0.126600  0.606240  0.398140  1.0  -0.5785
  O  O85  1  0.192800  0.192710  0.752610  1.0  -0.65
  O  O86  1  0.053500  0.189210  0.631910  1.0  -0.5812
  O  O87  1  0.987200  0.369990  0.784690  1.0  -0.657
  O  O88  1  0.996400  0.542200  0.862400  1.0  -0.5937
  O  O89  1  0.251700  0.345000  0.887900  1.0  -0.6515
  O  O90  1  0.209200  0.480070  0.999070  1.0  -0.5793
  O  O91  1  0.912700  0.148840  0.806840  1.0  -0.6618
  O  O92  1  0.881500  0.982200  0.883700  1.0  -0.5844
  O  O93  1  0.970700  0.314990  0.976490  1.0  -0.665
  O  O94  1  0.890600  0.150720  0.039220  1.0  -0.5833
  O  O95  1  0.151500  0.100310  0.935110  1.0  -0.6537
  O  O96  1  0.373400  0.106240  0.898140  1.0  -0.5784
  O  O97  1  0.692800  0.307290  0.747390  1.0  -0.6503
  O  O98  1  0.553500  0.310790  0.868090  1.0  -0.5815
  O  O99  1  0.487200  0.130010  0.715310  1.0  -0.6564
  O  O100  1  0.496400  0.957800  0.637600  1.0  -0.593
  O  O101  1  0.751700  0.155000  0.612100  1.0  -0.6528
  O  O102  1  0.709200  0.019930  0.500930  1.0  -0.5787
  O  O103  1  0.412700  0.351160  0.693160  1.0  -0.6622
  O  O104  1  0.381500  0.517800  0.616300  1.0  -0.5823
  O  O105  1  0.470700  0.185010  0.523510  1.0  -0.6651
  O  O106  1  0.390600  0.349280  0.460780  1.0  -0.5827
  O  O107  1  0.651500  0.399690  0.564890  1.0  -0.653
  O  O108  1  0.873400  0.393760  0.601860  1.0  -0.5778
