# generated using pymatgen
data_ZnH2(CO2)2
_symmetry_space_group_name_H-M   'P 1'
_cell_length_a   9.75050000
_cell_length_b   11.21770000
_cell_length_c   14.37360000
_cell_angle_alpha   91.28910000
_cell_angle_beta   90.00000000
_cell_angle_gamma   90.00000000
_symmetry_Int_Tables_number   1
_chemical_formula_structural   ZnH2(CO2)2
_chemical_formula_sum   'Zn12 H24 C24 O48'
_cell_volume   1571.76036159
_cell_formula_units_Z   12
loop_
 _symmetry_equiv_pos_site_id
 _symmetry_equiv_pos_as_xyz
  1  'x, y, z'
loop_
 _atom_site_type_symbol
 _atom_site_label
 _atom_site_symmetry_multiplicity
 _atom_site_fract_x
 _atom_site_fract_y
 _atom_site_fract_z
 _atom_site_occupancy
 _atom_site_charge
  Zn  Zn1  1  0.918950  0.756720  0.131860  1.0  1.0832
  Zn  Zn2  1  0.103220  0.740200  0.314800  1.0  1.064
  Zn  Zn3  1  0.418950  0.743280  0.368140  1.0  1.0834
  Zn  Zn4  1  0.603220  0.759800  0.185200  1.0  1.0643
  Zn  Zn5  1  0.081050  0.243280  0.868140  1.0  1.0834
  Zn  Zn6  1  0.896780  0.259800  0.685200  1.0  1.0647
  Zn  Zn7  1  0.581050  0.256720  0.631860  1.0  1.0832
  Zn  Zn8  1  0.396780  0.240200  0.814800  1.0  1.0643
  Zn  Zn9  1  0.000000  0.500000  0.000000  1.0  1.0759
  Zn  Zn10  1  0.500000  0.000000  0.500000  1.0  1.0759
  Zn  Zn11  1  0.000000  0.000000  0.000000  1.0  1.0869
  Zn  Zn12  1  0.500000  0.500000  0.500000  1.0  1.0869
  H  H13  1  0.747900  0.861600  0.368600  1.0  0.0005
  H  H14  1  0.022500  0.473900  0.268700  1.0  0.0073
  H  H15  1  0.613100  0.561400  0.035400  1.0  0.016
  H  H16  1  0.174400  0.990600  0.241000  1.0  0.0063
  H  H17  1  0.172100  0.696700  0.934400  1.0  0.0207
  H  H18  1  0.700200  0.985800  0.999900  1.0  0.0072
  H  H19  1  0.247900  0.638400  0.131400  1.0  0.0002
  H  H20  1  0.522500  0.026100  0.231300  1.0  0.0071
  H  H21  1  0.113100  0.938600  0.464600  1.0  0.0161
  H  H22  1  0.674400  0.509400  0.259000  1.0  0.0073
  H  H23  1  0.672100  0.803300  0.565600  1.0  0.0214
  H  H24  1  0.200200  0.514200  0.500100  1.0  0.0069
  H  H25  1  0.252100  0.138400  0.631400  1.0  0.0004
  H  H26  1  0.977500  0.526100  0.731300  1.0  0.0073
  H  H27  1  0.386900  0.438600  0.964600  1.0  0.0164
  H  H28  1  0.825600  0.009400  0.759000  1.0  0.0061
  H  H29  1  0.827900  0.303300  0.065600  1.0  0.0212
  H  H30  1  0.299800  0.014200  0.000100  1.0  0.0066
  H  H31  1  0.752100  0.361600  0.868600  1.0  0.0006
  H  H32  1  0.477500  0.973900  0.768700  1.0  0.0074
  H  H33  1  0.886900  0.061400  0.535400  1.0  0.0167
  H  H34  1  0.325600  0.490600  0.741000  1.0  0.0069
  H  H35  1  0.327900  0.196700  0.434400  1.0  0.0202
  H  H36  1  0.799800  0.485800  0.499900  1.0  0.0069
  C  C37  1  0.821000  0.831300  0.331300  1.0  0.6821
  C  C38  1  0.005500  0.516100  0.213300  1.0  0.6975
  C  C39  1  0.707900  0.576800  0.044700  1.0  0.6772
  C  C40  1  0.119600  0.960000  0.191300  1.0  0.6836
  C  C41  1  0.112600  0.742600  0.973300  1.0  0.6881
  C  C42  1  0.716900  0.926800  0.044900  1.0  0.6835
  C  C43  1  0.321000  0.668700  0.168700  1.0  0.6824
  C  C44  1  0.505500  0.983900  0.286700  1.0  0.6986
  C  C45  1  0.207900  0.923200  0.455300  1.0  0.6767
  C  C46  1  0.619600  0.540000  0.308700  1.0  0.6831
  C  C47  1  0.612600  0.757400  0.526700  1.0  0.688
  C  C48  1  0.216900  0.573200  0.455100  1.0  0.6837
  C  C49  1  0.179000  0.168700  0.668700  1.0  0.6826
  C  C50  1  0.994500  0.483900  0.786700  1.0  0.6975
  C  C51  1  0.292100  0.423200  0.955300  1.0  0.6761
  C  C52  1  0.880400  0.040000  0.808700  1.0  0.6826
  C  C53  1  0.887400  0.257400  0.026700  1.0  0.6876
  C  C54  1  0.283100  0.073200  0.955100  1.0  0.6833
  C  C55  1  0.679000  0.331300  0.831300  1.0  0.6825
  C  C56  1  0.494500  0.016100  0.713300  1.0  0.6987
  C  C57  1  0.792100  0.076800  0.544700  1.0  0.6769
  C  C58  1  0.380400  0.460000  0.691300  1.0  0.6827
  C  C59  1  0.387400  0.242600  0.473300  1.0  0.6887
  C  C60  1  0.783100  0.426800  0.544900  1.0  0.683
  O  O61  1  0.795000  0.812310  0.244910  1.0  -0.642
  O  O62  1  0.931200  0.814300  0.371000  1.0  -0.5771
  O  O63  1  0.000500  0.628560  0.220960  1.0  -0.6561
  O  O64  1  0.990600  0.455790  0.141690  1.0  -0.5851
  O  O65  1  0.740600  0.652800  0.109000  1.0  -0.6518
  O  O66  1  0.789900  0.521990  0.993890  1.0  -0.5695
  O  O67  1  0.079500  0.852060  0.196860  1.0  -0.6579
  O  O68  1  0.093900  0.028390  0.127590  1.0  -0.5724
  O  O69  1  0.028700  0.684950  0.024550  1.0  -0.6691
  O  O70  1  0.123200  0.851460  0.969860  1.0  -0.5826
  O  O71  1  0.841300  0.896020  0.056720  1.0  -0.6541
  O  O72  1  0.615000  0.887580  0.086180  1.0  -0.5819
  O  O73  1  0.295000  0.687690  0.255090  1.0  -0.6419
  O  O74  1  0.431200  0.685700  0.129000  1.0  -0.5761
  O  O75  1  0.500500  0.871440  0.279040  1.0  -0.6557
  O  O76  1  0.490600  0.044210  0.358310  1.0  -0.5849
  O  O77  1  0.240600  0.847200  0.391000  1.0  -0.6511
  O  O78  1  0.289900  0.978010  0.506110  1.0  -0.569
  O  O79  1  0.579500  0.647940  0.303140  1.0  -0.6578
  O  O80  1  0.593900  0.471610  0.372410  1.0  -0.5722
  O  O81  1  0.528700  0.815050  0.475450  1.0  -0.668
  O  O82  1  0.623200  0.648540  0.530140  1.0  -0.5815
  O  O83  1  0.341300  0.603980  0.443280  1.0  -0.6545
  O  O84  1  0.115000  0.612420  0.413820  1.0  -0.5823
  O  O85  1  0.205000  0.187690  0.755090  1.0  -0.6419
  O  O86  1  0.068800  0.185700  0.629000  1.0  -0.5775
  O  O87  1  0.999500  0.371440  0.779040  1.0  -0.6556
  O  O88  1  0.009400  0.544210  0.858310  1.0  -0.5853
  O  O89  1  0.259400  0.347200  0.891000  1.0  -0.6511
  O  O90  1  0.210100  0.478010  0.006110  1.0  -0.5699
  O  O91  1  0.920500  0.147940  0.803140  1.0  -0.6582
  O  O92  1  0.906100  0.971610  0.872410  1.0  -0.573
  O  O93  1  0.971300  0.315050  0.975450  1.0  -0.6678
  O  O94  1  0.876800  0.148540  0.030140  1.0  -0.5817
  O  O95  1  0.158700  0.103980  0.943280  1.0  -0.6547
  O  O96  1  0.385000  0.112420  0.913820  1.0  -0.5823
  O  O97  1  0.705000  0.312310  0.744910  1.0  -0.642
  O  O98  1  0.568800  0.314300  0.871000  1.0  -0.5786
  O  O99  1  0.499500  0.128560  0.720960  1.0  -0.6559
  O  O100  1  0.509400  0.955790  0.641690  1.0  -0.5857
  O  O101  1  0.759400  0.152800  0.609000  1.0  -0.6521
  O  O102  1  0.710100  0.021990  0.493890  1.0  -0.5699
  O  O103  1  0.420500  0.352060  0.696860  1.0  -0.6583
  O  O104  1  0.406100  0.528390  0.627590  1.0  -0.5735
  O  O105  1  0.471300  0.184950  0.524550  1.0  -0.6685
  O  O106  1  0.376800  0.351460  0.469860  1.0  -0.5825
  O  O107  1  0.658700  0.396020  0.556720  1.0  -0.654
  O  O108  1  0.885000  0.387580  0.586180  1.0  -0.5818
