# generated using pymatgen
data_ZnH2(CO2)2
_symmetry_space_group_name_H-M   'P 1'
_cell_length_a   9.66820000
_cell_length_b   11.21510000
_cell_length_c   14.43620000
_cell_angle_alpha   91.25890000
_cell_angle_beta   90.00000000
_cell_angle_gamma   90.00000000
_symmetry_Int_Tables_number   1
_chemical_formula_structural   ZnH2(CO2)2
_chemical_formula_sum   'Zn12 H24 C24 O48'
_cell_volume   1564.93688363
_cell_formula_units_Z   12
loop_
 _symmetry_equiv_pos_site_id
 _symmetry_equiv_pos_as_xyz
  1  'x, y, z'
loop_
 _atom_site_type_symbol
 _atom_site_label
 _atom_site_symmetry_multiplicity
 _atom_site_fract_x
 _atom_site_fract_y
 _atom_site_fract_z
 _atom_site_occupancy
 _atom_site_charge
  Zn  Zn1  1  0.917150  0.756580  0.130990  1.0  1.083
  Zn  Zn2  1  0.099610  0.739330  0.315410  1.0  1.0655
  Zn  Zn3  1  0.417150  0.743420  0.369010  1.0  1.0831
  Zn  Zn4  1  0.599610  0.760670  0.184590  1.0  1.0659
  Zn  Zn5  1  0.082850  0.243420  0.869010  1.0  1.083
  Zn  Zn6  1  0.900390  0.260670  0.684590  1.0  1.0663
  Zn  Zn7  1  0.582850  0.256580  0.630990  1.0  1.083
  Zn  Zn8  1  0.400390  0.239330  0.815410  1.0  1.0661
  Zn  Zn9  1  0.000000  0.500000  0.000000  1.0  1.0422
  Zn  Zn10  1  0.500000  0.000000  0.500000  1.0  1.0422
  Zn  Zn11  1  0.000000  0.000000  0.000000  1.0  1.0815
  Zn  Zn12  1  0.500000  0.500000  0.500000  1.0  1.0815
  H  H13  1  0.743700  0.867300  0.364200  1.0  0.0037
  H  H14  1  0.019400  0.471700  0.268200  1.0  0.0107
  H  H15  1  0.610600  0.563600  0.033900  1.0  0.012
  H  H16  1  0.184200  0.984700  0.237300  1.0  0.0068
  H  H17  1  0.180800  0.696600  0.938600  1.0  0.0304
  H  H18  1  0.696500  0.993900  0.005900  1.0  0.0098
  H  H19  1  0.243700  0.632700  0.135800  1.0  0.0028
  H  H20  1  0.519400  0.028300  0.231800  1.0  0.0099
  H  H21  1  0.110600  0.936400  0.466100  1.0  0.0123
  H  H22  1  0.684200  0.515300  0.262700  1.0  0.0066
  H  H23  1  0.680800  0.803400  0.561400  1.0  0.0307
  H  H24  1  0.196500  0.506100  0.494100  1.0  0.0099
  H  H25  1  0.256300  0.132700  0.635800  1.0  0.0032
  H  H26  1  0.980600  0.528300  0.731800  1.0  0.0101
  H  H27  1  0.389400  0.436400  0.966100  1.0  0.0125
  H  H28  1  0.815800  0.015300  0.762700  1.0  0.006
  H  H29  1  0.819200  0.303400  0.061400  1.0  0.0302
  H  H30  1  0.303500  0.006100  0.994100  1.0  0.0099
  H  H31  1  0.756300  0.367300  0.864200  1.0  0.0032
  H  H32  1  0.480600  0.971700  0.768200  1.0  0.0107
  H  H33  1  0.889400  0.063600  0.533900  1.0  0.0122
  H  H34  1  0.315800  0.484700  0.737300  1.0  0.0065
  H  H35  1  0.319200  0.196600  0.438600  1.0  0.0302
  H  H36  1  0.803500  0.493900  0.505900  1.0  0.0096
  C  C37  1  0.817700  0.835700  0.328000  1.0  0.6806
  C  C38  1  0.002300  0.514600  0.213400  1.0  0.6776
  C  C39  1  0.706200  0.578700  0.043600  1.0  0.6825
  C  C40  1  0.125900  0.956000  0.188800  1.0  0.6844
  C  C41  1  0.115500  0.741800  0.973800  1.0  0.6913
  C  C42  1  0.713100  0.931300  0.047700  1.0  0.689
  C  C43  1  0.317700  0.664300  0.172000  1.0  0.6807
  C  C44  1  0.502300  0.985400  0.286600  1.0  0.6769
  C  C45  1  0.206200  0.921300  0.456400  1.0  0.6821
  C  C46  1  0.625900  0.544000  0.311200  1.0  0.6842
  C  C47  1  0.615500  0.758200  0.526200  1.0  0.6908
  C  C48  1  0.213100  0.568700  0.452300  1.0  0.6894
  C  C49  1  0.182300  0.164300  0.672000  1.0  0.6805
  C  C50  1  0.997700  0.485400  0.786600  1.0  0.677
  C  C51  1  0.293800  0.421300  0.956400  1.0  0.682
  C  C52  1  0.874100  0.044000  0.811200  1.0  0.6838
  C  C53  1  0.884500  0.258200  0.026200  1.0  0.6905
  C  C54  1  0.286900  0.068700  0.952300  1.0  0.6899
  C  C55  1  0.682300  0.335700  0.828000  1.0  0.6808
  C  C56  1  0.497700  0.014600  0.713400  1.0  0.6782
  C  C57  1  0.793800  0.078700  0.543600  1.0  0.6824
  C  C58  1  0.374100  0.456000  0.688800  1.0  0.684
  C  C59  1  0.384500  0.241800  0.473800  1.0  0.6918
  C  C60  1  0.786900  0.431300  0.547700  1.0  0.6893
  O  O61  1  0.792700  0.814210  0.242810  1.0  -0.6465
  O  O62  1  0.929500  0.819420  0.368920  1.0  -0.586
  O  O63  1  0.994900  0.627720  0.221920  1.0  -0.6609
  O  O64  1  0.989500  0.455060  0.140960  1.0  -0.5841
  O  O65  1  0.737300  0.652930  0.108430  1.0  -0.66
  O  O66  1  0.788000  0.524490  0.992190  1.0  -0.5669
  O  O67  1  0.079700  0.849330  0.195930  1.0  -0.655
  O  O68  1  0.102400  0.024750  0.125550  1.0  -0.5672
  O  O69  1  0.030800  0.683390  0.025390  1.0  -0.6552
  O  O70  1  0.118700  0.850550  0.966550  1.0  -0.581
  O  O71  1  0.839100  0.897540  0.057140  1.0  -0.6466
  O  O72  1  0.611100  0.889860  0.087860  1.0  -0.5789
  O  O73  1  0.292700  0.685790  0.257190  1.0  -0.6467
  O  O74  1  0.429500  0.680580  0.131080  1.0  -0.5854
  O  O75  1  0.494900  0.872280  0.278080  1.0  -0.6604
  O  O76  1  0.489500  0.044940  0.359040  1.0  -0.5845
  O  O77  1  0.237300  0.847070  0.391570  1.0  -0.6592
  O  O78  1  0.288000  0.975510  0.507810  1.0  -0.5666
  O  O79  1  0.579700  0.650670  0.304070  1.0  -0.6551
  O  O80  1  0.602400  0.475250  0.374450  1.0  -0.5669
  O  O81  1  0.530800  0.816610  0.474610  1.0  -0.6549
  O  O82  1  0.618700  0.649450  0.533450  1.0  -0.5808
  O  O83  1  0.339100  0.602460  0.442860  1.0  -0.6468
  O  O84  1  0.111100  0.610140  0.412140  1.0  -0.5792
  O  O85  1  0.207300  0.185790  0.757190  1.0  -0.6466
  O  O86  1  0.070500  0.180580  0.631080  1.0  -0.5866
  O  O87  1  0.005100  0.372280  0.778080  1.0  -0.6603
  O  O88  1  0.010500  0.544940  0.859040  1.0  -0.5847
  O  O89  1  0.262700  0.347070  0.891570  1.0  -0.6589
  O  O90  1  0.212000  0.475510  0.007810  1.0  -0.5669
  O  O91  1  0.920300  0.150670  0.804070  1.0  -0.6553
  O  O92  1  0.897600  0.975250  0.874450  1.0  -0.5674
  O  O93  1  0.969200  0.316610  0.974610  1.0  -0.6552
  O  O94  1  0.881300  0.149450  0.033450  1.0  -0.5807
  O  O95  1  0.160900  0.102460  0.942860  1.0  -0.6467
  O  O96  1  0.388900  0.110140  0.912140  1.0  -0.579
  O  O97  1  0.707300  0.314210  0.742810  1.0  -0.6466
  O  O98  1  0.570500  0.319420  0.868920  1.0  -0.5875
  O  O99  1  0.505100  0.127720  0.721920  1.0  -0.6608
  O  O100  1  0.510500  0.955060  0.640960  1.0  -0.5842
  O  O101  1  0.762700  0.152930  0.608430  1.0  -0.6598
  O  O102  1  0.712000  0.024490  0.492190  1.0  -0.5667
  O  O103  1  0.420300  0.349330  0.695930  1.0  -0.6554
  O  O104  1  0.397600  0.524750  0.625550  1.0  -0.5677
  O  O105  1  0.469200  0.183390  0.525390  1.0  -0.6553
  O  O106  1  0.381300  0.350550  0.466550  1.0  -0.5806
  O  O107  1  0.660900  0.397540  0.557140  1.0  -0.6465
  O  O108  1  0.888900  0.389860  0.587860  1.0  -0.5786
