# generated using pymatgen
data_CuH18C30(NO2)4
_symmetry_space_group_name_H-M   'P 1'
_cell_length_a   14.91790000
_cell_length_b   16.76600000
_cell_length_c   17.80570000
_cell_angle_alpha   61.91340000
_cell_angle_beta   65.23430000
_cell_angle_gamma   90.00000000
_symmetry_Int_Tables_number   1
_chemical_formula_structural   CuH18C30(NO2)4
_chemical_formula_sum   'Cu4 H72 C120 N16 O32'
_cell_volume   3457.82988847
_cell_formula_units_Z   4
loop_
 _symmetry_equiv_pos_site_id
 _symmetry_equiv_pos_as_xyz
  1  'x, y, z'
loop_
 _atom_site_type_symbol
 _atom_site_label
 _atom_site_symmetry_multiplicity
 _atom_site_fract_x
 _atom_site_fract_y
 _atom_site_fract_z
 _atom_site_occupancy
 _atom_site_charge
  Cu  Cu1  1  0.000000  0.000000  0.500000  1.0  0.8296
  Cu  Cu2  1  0.500000  0.000000  0.500000  1.0  0.8296
  Cu  Cu3  1  0.500000  0.500000  0.500000  1.0  0.8296
  Cu  Cu4  1  0.000000  0.500000  0.500000  1.0  0.8296
  H  H5  1  0.976100  0.194700  0.415800  1.0  0.0783
  H  H6  1  0.063000  0.344800  0.353200  1.0  0.1388
  H  H7  1  0.289400  0.239700  0.397400  1.0  0.1368
  H  H8  1  0.195300  0.089200  0.463800  1.0  0.0889
  H  H9  1  0.276500  0.402500  0.364600  1.0  0.1068
  H  H10  1  0.199300  0.446200  0.324400  1.0  0.1086
  H  H11  1  0.378100  0.549800  0.944400  1.0  0.1161
  H  H12  1  0.051900  0.179800  0.201600  1.0  0.1166
  H  H13  1  0.049400  0.238400  0.055200  1.0  0.1078
  H  H14  1  0.608100  0.889500  0.415800  1.0  0.0785
  H  H15  1  0.583800  0.802000  0.353200  1.0  0.1401
  H  H16  1  0.313200  0.862900  0.397400  1.0  0.136
  H  H17  1  0.340900  0.947000  0.463800  1.0  0.091
  H  H18  1  0.358900  0.732900  0.364600  1.0  0.1068
  H  H19  1  0.476300  0.729400  0.324400  1.0  0.1076
  H  H20  1  0.677500  0.005800  0.944400  1.0  0.1178
  H  H21  1  0.746500  0.118600  0.201600  1.0  0.1183
  H  H22  1  0.895400  0.206400  0.055200  1.0  0.1086
  H  H23  1  0.023900  0.805300  0.584200  1.0  0.0782
  H  H24  1  0.937000  0.655200  0.646800  1.0  0.1394
  H  H25  1  0.710600  0.760300  0.602600  1.0  0.1366
  H  H26  1  0.804700  0.910800  0.536200  1.0  0.0899
  H  H27  1  0.723500  0.597500  0.635400  1.0  0.1068
  H  H28  1  0.800700  0.553800  0.675600  1.0  0.1073
  H  H29  1  0.621900  0.450200  0.055600  1.0  0.115
  H  H30  1  0.948100  0.820200  0.798400  1.0  0.1169
  H  H31  1  0.950600  0.761600  0.944800  1.0  0.1074
  H  H32  1  0.391900  0.110500  0.584200  1.0  0.0783
  H  H33  1  0.416200  0.198000  0.646800  1.0  0.1397
  H  H34  1  0.686800  0.137100  0.602600  1.0  0.1367
  H  H35  1  0.659100  0.053000  0.536200  1.0  0.0909
  H  H36  1  0.641100  0.267100  0.635400  1.0  0.1063
  H  H37  1  0.523700  0.270600  0.675600  1.0  0.1079
  H  H38  1  0.322500  0.994200  0.055600  1.0  0.1181
  H  H39  1  0.253500  0.881400  0.798400  1.0  0.1181
  H  H40  1  0.104600  0.793600  0.944800  1.0  0.1084
  H  H41  1  0.523900  0.610500  0.584200  1.0  0.0787
  H  H42  1  0.437000  0.698000  0.646800  1.0  0.1384
  H  H43  1  0.210600  0.637100  0.602600  1.0  0.1371
  H  H44  1  0.304700  0.553000  0.536200  1.0  0.088
  H  H45  1  0.223500  0.767100  0.635400  1.0  0.1067
  H  H46  1  0.300700  0.770600  0.675600  1.0  0.1066
  H  H47  1  0.121900  0.494200  0.055600  1.0  0.1175
  H  H48  1  0.448100  0.381400  0.798400  1.0  0.1169
  H  H49  1  0.450600  0.293600  0.944800  1.0  0.1069
  H  H50  1  0.891900  0.305300  0.584200  1.0  0.0784
  H  H51  1  0.916200  0.155200  0.646800  1.0  0.1388
  H  H52  1  0.186800  0.260300  0.602600  1.0  0.1366
  H  H53  1  0.159100  0.410800  0.536200  1.0  0.0897
  H  H54  1  0.141100  0.097500  0.635400  1.0  0.1068
  H  H55  1  0.023700  0.053800  0.675600  1.0  0.1074
  H  H56  1  0.822500  0.950200  0.055600  1.0  0.1163
  H  H57  1  0.753500  0.320200  0.798400  1.0  0.1174
  H  H58  1  0.604600  0.261600  0.944800  1.0  0.1083
  H  H59  1  0.476100  0.389500  0.415800  1.0  0.0783
  H  H60  1  0.563000  0.302000  0.353200  1.0  0.139
  H  H61  1  0.789400  0.362900  0.397400  1.0  0.1377
  H  H62  1  0.695300  0.447000  0.463800  1.0  0.0888
  H  H63  1  0.776500  0.232900  0.364600  1.0  0.1073
  H  H64  1  0.699300  0.229400  0.324400  1.0  0.1073
  H  H65  1  0.878100  0.505800  0.944400  1.0  0.1172
  H  H66  1  0.551900  0.618600  0.201600  1.0  0.1168
  H  H67  1  0.549400  0.706400  0.055200  1.0  0.1075
  H  H68  1  0.108100  0.694700  0.415800  1.0  0.0785
  H  H69  1  0.083800  0.844800  0.353200  1.0  0.1392
  H  H70  1  0.813200  0.739700  0.397400  1.0  0.1359
  H  H71  1  0.840900  0.589200  0.463800  1.0  0.0895
  H  H72  1  0.858900  0.902500  0.364600  1.0  0.1065
  H  H73  1  0.976300  0.946200  0.324400  1.0  0.1072
  H  H74  1  0.177500  0.049800  0.944400  1.0  0.116
  H  H75  1  0.246500  0.679800  0.201600  1.0  0.1175
  H  H76  1  0.395400  0.738400  0.055200  1.0  0.1084
  C  C77  1  0.040600  0.203300  0.413000  1.0  0.1719
  C  C78  1  0.092500  0.293800  0.374400  1.0  -0.2038
  C  C79  1  0.186100  0.307700  0.367400  1.0  0.122
  C  C80  1  0.224400  0.231600  0.401000  1.0  -0.1972
  C  C81  1  0.167700  0.141200  0.440800  1.0  0.1676
  C  C82  1  0.245500  0.403800  0.324600  1.0  -0.0482
  C  C83  1  0.424300  0.427700  0.200400  1.0  0.4904
  C  C84  1  0.308300  0.478300  0.146000  1.0  0.4971
  C  C85  1  0.404800  0.493900  0.062200  1.0  -0.0973
  C  C86  1  0.426600  0.530100  0.966400  1.0  -0.0009
  C  C87  1  0.524900  0.534600  0.906400  1.0  -0.0937
  C  C88  1  0.905400  0.083400  0.381200  1.0  0.6503
  C  C89  1  0.901100  0.115300  0.287800  1.0  -0.0855
  C  C90  1  0.989900  0.167600  0.201400  1.0  -0.0708
  C  C91  1  0.988600  0.202100  0.114600  1.0  -0.1092
  C  C92  1  0.546400  0.883700  0.413000  1.0  0.1695
  C  C93  1  0.533100  0.831800  0.374400  1.0  -0.2062
  C  C94  1  0.446500  0.824900  0.367400  1.0  0.1207
  C  C95  1  0.374600  0.867400  0.401000  1.0  -0.203
  C  C96  1  0.391500  0.918000  0.440800  1.0  0.1688
  C  C97  1  0.429900  0.771600  0.324600  1.0  -0.0463
  C  C98  1  0.375300  0.871900  0.200400  1.0  0.4909
  C  C99  1  0.545700  0.875700  0.146000  1.0  0.4946
  C  C100  1  0.533000  0.943900  0.062200  1.0  -0.0962
  C  C101  1  0.607000  0.003500  0.966400  1.0  -0.0004
  C  C102  1  0.568700  0.059000  0.906400  1.0  -0.0925
  C  C103  1  0.713400  0.035400  0.381200  1.0  0.6512
  C  C104  1  0.811100  0.096900  0.287800  1.0  -0.0849
  C  C105  1  0.808700  0.131000  0.201400  1.0  -0.0686
  C  C106  1  0.896800  0.183300  0.114600  1.0  -0.1047
  C  C107  1  0.959400  0.796700  0.587000  1.0  0.1718
  C  C108  1  0.907500  0.706200  0.625600  1.0  -0.2041
  C  C109  1  0.813900  0.692300  0.632600  1.0  0.1203
  C  C110  1  0.775600  0.768400  0.599000  1.0  -0.1966
  C  C111  1  0.832300  0.858800  0.559200  1.0  0.1669
  C  C112  1  0.754500  0.596200  0.675400  1.0  -0.0464
  C  C113  1  0.575700  0.572300  0.799600  1.0  0.4959
  C  C114  1  0.691700  0.521700  0.854000  1.0  0.493
  C  C115  1  0.595200  0.506100  0.937800  1.0  -0.0964
  C  C116  1  0.573400  0.469900  0.033600  1.0  0.0021
  C  C117  1  0.475100  0.465400  0.093600  1.0  -0.0935
  C  C118  1  0.094600  0.916600  0.618800  1.0  0.6517
  C  C119  1  0.098900  0.884700  0.712200  1.0  -0.0854
  C  C120  1  0.010100  0.832400  0.798600  1.0  -0.0696
  C  C121  1  0.011400  0.797900  0.885400  1.0  -0.1094
  C  C122  1  0.453600  0.116300  0.587000  1.0  0.1704
  C  C123  1  0.466900  0.168200  0.625600  1.0  -0.2051
  C  C124  1  0.553500  0.175100  0.632600  1.0  0.1207
  C  C125  1  0.625400  0.132600  0.599000  1.0  -0.2033
  C  C126  1  0.608500  0.082000  0.559200  1.0  0.1685
  C  C127  1  0.570100  0.228400  0.675400  1.0  -0.0465
  C  C128  1  0.624700  0.128100  0.799600  1.0  0.492
  C  C129  1  0.454300  0.124300  0.854000  1.0  0.4917
  C  C130  1  0.467000  0.056100  0.937800  1.0  -0.0962
  C  C131  1  0.393000  0.996500  0.033600  1.0  -0.0
  C  C132  1  0.431300  0.941000  0.093600  1.0  -0.0933
  C  C133  1  0.286600  0.964600  0.618800  1.0  0.6499
  C  C134  1  0.188900  0.903100  0.712200  1.0  -0.0841
  C  C135  1  0.191300  0.869000  0.798600  1.0  -0.0734
  C  C136  1  0.103200  0.816700  0.885400  1.0  -0.1042
  C  C137  1  0.459400  0.616300  0.587000  1.0  0.1702
  C  C138  1  0.407500  0.668200  0.625600  1.0  -0.2042
  C  C139  1  0.313900  0.675100  0.632600  1.0  0.1209
  C  C140  1  0.275600  0.632600  0.599000  1.0  -0.2018
  C  C141  1  0.332300  0.582000  0.559200  1.0  0.1657
  C  C142  1  0.254500  0.728400  0.675400  1.0  -0.047
  C  C143  1  0.075700  0.628100  0.799600  1.0  0.4935
  C  C144  1  0.191700  0.624300  0.854000  1.0  0.4974
  C  C145  1  0.095200  0.556100  0.937800  1.0  -0.0979
  C  C146  1  0.073400  0.496500  0.033600  1.0  0.0007
  C  C147  1  0.975100  0.441000  0.093600  1.0  -0.0959
  C  C148  1  0.594600  0.464600  0.618800  1.0  0.6514
  C  C149  1  0.598900  0.403100  0.712200  1.0  -0.086
  C  C150  1  0.510100  0.369000  0.798600  1.0  -0.0695
  C  C151  1  0.511400  0.316700  0.885400  1.0  -0.1083
  C  C152  1  0.953600  0.296700  0.587000  1.0  0.1692
  C  C153  1  0.966900  0.206200  0.625600  1.0  -0.2045
  C  C154  1  0.053500  0.192300  0.632600  1.0  0.1221
  C  C155  1  0.125400  0.268400  0.599000  1.0  -0.1971
  C  C156  1  0.108500  0.358800  0.559200  1.0  0.1679
  C  C157  1  0.070100  0.096200  0.675400  1.0  -0.0477
  C  C158  1  0.124700  0.072300  0.799600  1.0  0.4907
  C  C159  1  0.954300  0.021700  0.854000  1.0  0.4933
  C  C160  1  0.967000  0.006100  0.937800  1.0  -0.096
  C  C161  1  0.893000  0.969900  0.033600  1.0  1e-04
  C  C162  1  0.931300  0.965400  0.093600  1.0  -0.0938
  C  C163  1  0.786600  0.416600  0.618800  1.0  0.6496
  C  C164  1  0.688900  0.384700  0.712200  1.0  -0.0843
  C  C165  1  0.691300  0.332400  0.798600  1.0  -0.0722
  C  C166  1  0.603200  0.297900  0.885400  1.0  -0.1053
  C  C167  1  0.540600  0.383700  0.413000  1.0  0.1703
  C  C168  1  0.592500  0.331800  0.374400  1.0  -0.2038
  C  C169  1  0.686100  0.324900  0.367400  1.0  0.12
  C  C170  1  0.724400  0.367400  0.401000  1.0  -0.2038
  C  C171  1  0.667700  0.418000  0.440800  1.0  0.1655
  C  C172  1  0.745500  0.271600  0.324600  1.0  -0.0459
  C  C173  1  0.924300  0.371900  0.200400  1.0  0.4944
  C  C174  1  0.808300  0.375700  0.146000  1.0  0.4939
  C  C175  1  0.904800  0.443900  0.062200  1.0  -0.0973
  C  C176  1  0.926600  0.503500  0.966400  1.0  0.0007
  C  C177  1  0.024900  0.559000  0.906400  1.0  -0.0952
  C  C178  1  0.405400  0.535400  0.381200  1.0  0.6518
  C  C179  1  0.401100  0.596900  0.287800  1.0  -0.0861
  C  C180  1  0.489900  0.631000  0.201400  1.0  -0.0701
  C  C181  1  0.488600  0.683300  0.114600  1.0  -0.1082
  C  C182  1  0.046400  0.703300  0.413000  1.0  0.169
  C  C183  1  0.033100  0.793800  0.374400  1.0  -0.2061
  C  C184  1  0.946500  0.807700  0.367400  1.0  0.122
  C  C185  1  0.874600  0.731600  0.401000  1.0  -0.1964
  C  C186  1  0.891500  0.641200  0.440800  1.0  0.1697
  C  C187  1  0.929900  0.903800  0.324600  1.0  -0.0482
  C  C188  1  0.875300  0.927700  0.200400  1.0  0.4937
  C  C189  1  0.045700  0.978300  0.146000  1.0  0.49
  C  C190  1  0.033000  0.993900  0.062200  1.0  -0.0962
  C  C191  1  0.107000  0.030100  0.966400  1.0  0.0008
  C  C192  1  0.068700  0.034600  0.906400  1.0  -0.0937
  C  C193  1  0.213400  0.583400  0.381200  1.0  0.6493
  C  C194  1  0.311100  0.615300  0.287800  1.0  -0.0859
  C  C195  1  0.308700  0.667600  0.201400  1.0  -0.07
  C  C196  1  0.396800  0.702100  0.114600  1.0  -0.1053
  N  N197  1  0.076600  0.127500  0.446400  1.0  -0.3263
  N  N198  1  0.326040  0.438540  0.225120  1.0  -0.2254
  N  N199  1  0.477000  0.926100  0.446400  1.0  -0.3256
  N  N200  1  0.448840  0.836340  0.225120  1.0  -0.2245
  N  N201  1  0.923400  0.872500  0.553600  1.0  -0.3276
  N  N202  1  0.673960  0.561460  0.774880  1.0  -0.224
  N  N203  1  0.523000  0.073900  0.553600  1.0  -0.3264
  N  N204  1  0.551160  0.163660  0.774880  1.0  -0.2239
  N  N205  1  0.423400  0.573900  0.553600  1.0  -0.3229
  N  N206  1  0.173960  0.663660  0.774880  1.0  -0.223
  N  N207  1  0.023000  0.372500  0.553600  1.0  -0.3237
  N  N208  1  0.051160  0.061460  0.774880  1.0  -0.224
  N  N209  1  0.576600  0.426100  0.446400  1.0  -0.323
  N  N210  1  0.826040  0.336340  0.225120  1.0  -0.2229
  N  N211  1  0.977000  0.627500  0.446400  1.0  -0.3227
  N  N212  1  0.948840  0.938540  0.225120  1.0  -0.2244
  O  O213  1  0.978170  0.047170  0.387660  1.0  -0.5931
  O  O214  1  0.839580  0.095980  0.443240  1.0  -0.5879
  O  O215  1  0.458330  0.394830  0.256140  1.0  -0.4403
  O  O216  1  0.228260  0.494160  0.148680  1.0  -0.4417
  O  O217  1  0.634170  0.065170  0.387660  1.0  -0.5924
  O  O218  1  0.717180  0.960780  0.443240  1.0  -0.5877
  O  O219  1  0.285530  0.849030  0.256140  1.0  -0.4363
  O  O220  1  0.623060  0.857160  0.148680  1.0  -0.4382
  O  O221  1  0.021830  0.952830  0.612340  1.0  -0.5921
  O  O222  1  0.160420  0.904020  0.556760  1.0  -0.5887
  O  O223  1  0.541670  0.605170  0.743860  1.0  -0.4379
  O  O224  1  0.771740  0.505840  0.851320  1.0  -0.4412
  O  O225  1  0.365830  0.934830  0.612340  1.0  -0.5935
  O  O226  1  0.282820  0.039220  0.556760  1.0  -0.5875
  O  O227  1  0.714470  0.150970  0.743860  1.0  -0.4356
  O  O228  1  0.376940  0.142840  0.851320  1.0  -0.4375
  O  O229  1  0.521830  0.434830  0.612340  1.0  -0.593
  O  O230  1  0.660420  0.539220  0.556760  1.0  -0.5868
  O  O231  1  0.041670  0.650970  0.743860  1.0  -0.436
  O  O232  1  0.271740  0.642840  0.851320  1.0  -0.4399
  O  O233  1  0.865830  0.452830  0.612340  1.0  -0.5939
  O  O234  1  0.782820  0.404020  0.556760  1.0  -0.5889
  O  O235  1  0.214470  0.105170  0.743860  1.0  -0.4365
  O  O236  1  0.876940  0.005840  0.851320  1.0  -0.4395
  O  O237  1  0.478170  0.565170  0.387660  1.0  -0.5937
  O  O238  1  0.339580  0.460780  0.443240  1.0  -0.5857
  O  O239  1  0.958330  0.349030  0.256140  1.0  -0.4362
  O  O240  1  0.728260  0.357160  0.148680  1.0  -0.4408
  O  O241  1  0.134170  0.547170  0.387660  1.0  -0.5937
  O  O242  1  0.217180  0.595980  0.443240  1.0  -0.5894
  O  O243  1  0.785530  0.894830  0.256140  1.0  -0.4371
  O  O244  1  0.123060  0.994160  0.148680  1.0  -0.4391
