# generated using pymatgen
data_CuH18C30(NO2)4
_symmetry_space_group_name_H-M   'P 1'
_cell_length_a   14.79320000
_cell_length_b   16.78850000
_cell_length_c   27.77250000
_cell_angle_alpha   90.00000000
_cell_angle_beta   90.00000000
_cell_angle_gamma   90.00000000
_symmetry_Int_Tables_number   1
_chemical_formula_structural   CuH18C30(NO2)4
_chemical_formula_sum   'Cu8 H144 C240 N32 O64'
_cell_volume   6897.45696191
_cell_formula_units_Z   8
loop_
 _symmetry_equiv_pos_site_id
 _symmetry_equiv_pos_as_xyz
  1  'x, y, z'
loop_
 _atom_site_type_symbol
 _atom_site_label
 _atom_site_symmetry_multiplicity
 _atom_site_fract_x
 _atom_site_fract_y
 _atom_site_fract_z
 _atom_site_occupancy
 _atom_site_charge
  Cu  Cu1  1  0.250000  0.250000  0.250000  1.0  0.8149
  Cu  Cu2  1  0.250000  0.750000  0.750000  1.0  0.8149
  Cu  Cu3  1  0.750000  0.750000  0.750000  1.0  0.8149
  Cu  Cu4  1  0.750000  0.250000  0.250000  1.0  0.8149
  Cu  Cu5  1  0.750000  0.750000  0.250000  1.0  0.8149
  Cu  Cu6  1  0.750000  0.250000  0.750000  1.0  0.8149
  Cu  Cu7  1  0.250000  0.250000  0.750000  1.0  0.8149
  Cu  Cu8  1  0.250000  0.750000  0.250000  1.0  0.8149
  H  H9  1  0.428400  0.178900  0.269100  1.0  0.0746
  H  H10  1  0.345300  0.274700  0.100800  1.0  0.1144
  H  H11  1  0.491800  0.063500  0.301100  1.0  0.1349
  H  H12  1  0.349800  0.973900  0.527400  1.0  0.0995
  H  H13  1  0.364400  0.891300  0.338200  1.0  0.1042
  H  H14  1  0.463100  0.915200  0.319300  1.0  0.1069
  H  H15  1  0.240300  0.980200  0.323900  1.0  0.1267
  H  H16  1  0.183400  0.096500  0.291200  1.0  0.0885
  H  H17  1  0.422100  0.262900  0.028300  1.0  0.1121
  H  H18  1  0.928400  0.678900  0.769100  1.0  0.0746
  H  H19  1  0.845300  0.774700  0.600800  1.0  0.1144
  H  H20  1  0.991800  0.563500  0.801100  1.0  0.1349
  H  H21  1  0.849800  0.473900  0.027400  1.0  0.0995
  H  H22  1  0.864400  0.391300  0.838200  1.0  0.1042
  H  H23  1  0.963100  0.415200  0.819300  1.0  0.1069
  H  H24  1  0.740300  0.480200  0.823900  1.0  0.1267
  H  H25  1  0.683400  0.596500  0.791200  1.0  0.0885
  H  H26  1  0.922100  0.762900  0.528300  1.0  0.1121
  H  H27  1  0.071600  0.821100  0.769100  1.0  0.0748
  H  H28  1  0.154700  0.725300  0.600800  1.0  0.1139
  H  H29  1  0.008200  0.936500  0.801100  1.0  0.1339
  H  H30  1  0.150200  0.026100  0.027400  1.0  0.0988
  H  H31  1  0.135600  0.108700  0.838200  1.0  0.1031
  H  H32  1  0.036900  0.084800  0.819300  1.0  0.1063
  H  H33  1  0.259700  0.019800  0.823900  1.0  0.1267
  H  H34  1  0.316600  0.903500  0.791200  1.0  0.0888
  H  H35  1  0.077900  0.737100  0.528300  1.0  0.1125
  H  H36  1  0.571600  0.321100  0.269100  1.0  0.0748
  H  H37  1  0.654700  0.225300  0.100800  1.0  0.1139
  H  H38  1  0.508200  0.436500  0.301100  1.0  0.1339
  H  H39  1  0.650200  0.526100  0.527400  1.0  0.0988
  H  H40  1  0.635600  0.608700  0.338200  1.0  0.1031
  H  H41  1  0.536900  0.584800  0.319300  1.0  0.1063
  H  H42  1  0.759700  0.519800  0.323900  1.0  0.1267
  H  H43  1  0.816600  0.403500  0.291200  1.0  0.0888
  H  H44  1  0.577900  0.237100  0.028300  1.0  0.1125
  H  H45  1  0.571600  0.821100  0.730900  1.0  0.0747
  H  H46  1  0.654700  0.725300  0.899200  1.0  0.1138
  H  H47  1  0.508200  0.936500  0.698900  1.0  0.1335
  H  H48  1  0.650200  0.026100  0.472600  1.0  0.0997
  H  H49  1  0.635600  0.108700  0.661800  1.0  0.1024
  H  H50  1  0.536900  0.084800  0.680700  1.0  0.1058
  H  H51  1  0.759700  0.019800  0.676100  1.0  0.1272
  H  H52  1  0.816600  0.903500  0.708800  1.0  0.0886
  H  H53  1  0.577900  0.737100  0.971700  1.0  0.1128
  H  H54  1  0.071600  0.321100  0.230900  1.0  0.0747
  H  H55  1  0.154700  0.225300  0.399200  1.0  0.1138
  H  H56  1  0.008200  0.436500  0.198900  1.0  0.1335
  H  H57  1  0.150200  0.526100  0.972600  1.0  0.0997
  H  H58  1  0.135600  0.608700  0.161800  1.0  0.1024
  H  H59  1  0.036900  0.584800  0.180700  1.0  0.1058
  H  H60  1  0.259700  0.519800  0.176100  1.0  0.1272
  H  H61  1  0.316600  0.403500  0.208800  1.0  0.0886
  H  H62  1  0.077900  0.237100  0.471700  1.0  0.1128
  H  H63  1  0.928400  0.178900  0.230900  1.0  0.0747
  H  H64  1  0.845300  0.274700  0.399200  1.0  0.1155
  H  H65  1  0.991800  0.063500  0.198900  1.0  0.1351
  H  H66  1  0.849800  0.973900  0.972600  1.0  0.0996
  H  H67  1  0.864400  0.891300  0.161800  1.0  0.1035
  H  H68  1  0.963100  0.915200  0.180700  1.0  0.1062
  H  H69  1  0.740300  0.980200  0.176100  1.0  0.1264
  H  H70  1  0.683400  0.096500  0.208800  1.0  0.0885
  H  H71  1  0.922100  0.262900  0.471700  1.0  0.1132
  H  H72  1  0.428400  0.678900  0.730900  1.0  0.0747
  H  H73  1  0.345300  0.774700  0.899200  1.0  0.1155
  H  H74  1  0.491800  0.563500  0.698900  1.0  0.1351
  H  H75  1  0.349800  0.473900  0.472600  1.0  0.0996
  H  H76  1  0.364400  0.391300  0.661800  1.0  0.1035
  H  H77  1  0.463100  0.415200  0.680700  1.0  0.1062
  H  H78  1  0.240300  0.480200  0.676100  1.0  0.1264
  H  H79  1  0.183400  0.596500  0.708800  1.0  0.0885
  H  H80  1  0.422100  0.762900  0.971700  1.0  0.1132
  H  H81  1  0.571600  0.678900  0.230900  1.0  0.075
  H  H82  1  0.654700  0.774700  0.399200  1.0  0.1135
  H  H83  1  0.508200  0.563500  0.198900  1.0  0.1338
  H  H84  1  0.650200  0.473900  0.972600  1.0  0.0992
  H  H85  1  0.635600  0.391300  0.161800  1.0  0.1029
  H  H86  1  0.536900  0.415200  0.180700  1.0  0.1055
  H  H87  1  0.759700  0.480200  0.176100  1.0  0.1271
  H  H88  1  0.816600  0.596500  0.208800  1.0  0.0886
  H  H89  1  0.577900  0.762900  0.471700  1.0  0.1126
  H  H90  1  0.071600  0.178900  0.730900  1.0  0.075
  H  H91  1  0.154700  0.274700  0.899200  1.0  0.1135
  H  H92  1  0.008200  0.063500  0.698900  1.0  0.1338
  H  H93  1  0.150200  0.973900  0.472600  1.0  0.0992
  H  H94  1  0.135600  0.891300  0.661800  1.0  0.1029
  H  H95  1  0.036900  0.915200  0.680700  1.0  0.1055
  H  H96  1  0.259700  0.980200  0.676100  1.0  0.1271
  H  H97  1  0.316600  0.096500  0.708800  1.0  0.0886
  H  H98  1  0.077900  0.262900  0.971700  1.0  0.1126
  H  H99  1  0.928400  0.321100  0.730900  1.0  0.0747
  H  H100  1  0.845300  0.225300  0.899200  1.0  0.1155
  H  H101  1  0.991800  0.436500  0.698900  1.0  0.1346
  H  H102  1  0.849800  0.526100  0.472600  1.0  0.1
  H  H103  1  0.864400  0.608700  0.661800  1.0  0.1037
  H  H104  1  0.963100  0.584800  0.680700  1.0  0.1065
  H  H105  1  0.740300  0.519800  0.676100  1.0  0.127
  H  H106  1  0.683400  0.403500  0.708800  1.0  0.0884
  H  H107  1  0.922100  0.237100  0.971700  1.0  0.1135
  H  H108  1  0.428400  0.821100  0.230900  1.0  0.0747
  H  H109  1  0.345300  0.725300  0.399200  1.0  0.1155
  H  H110  1  0.491800  0.936500  0.198900  1.0  0.1346
  H  H111  1  0.349800  0.026100  0.972600  1.0  0.1
  H  H112  1  0.364400  0.108700  0.161800  1.0  0.1037
  H  H113  1  0.463100  0.084800  0.180700  1.0  0.1065
  H  H114  1  0.240300  0.019800  0.176100  1.0  0.127
  H  H115  1  0.183400  0.903500  0.208800  1.0  0.0884
  H  H116  1  0.422100  0.737100  0.471700  1.0  0.1135
  H  H117  1  0.428400  0.321100  0.769100  1.0  0.0749
  H  H118  1  0.345300  0.225300  0.600800  1.0  0.1143
  H  H119  1  0.491800  0.436500  0.801100  1.0  0.1344
  H  H120  1  0.349800  0.526100  0.027400  1.0  0.0994
  H  H121  1  0.364400  0.608700  0.838200  1.0  0.1045
  H  H122  1  0.463100  0.584800  0.819300  1.0  0.1069
  H  H123  1  0.240300  0.519800  0.823900  1.0  0.1268
  H  H124  1  0.183400  0.403500  0.791200  1.0  0.0885
  H  H125  1  0.422100  0.237100  0.528300  1.0  0.112
  H  H126  1  0.928400  0.821100  0.269100  1.0  0.0749
  H  H127  1  0.845300  0.725300  0.100800  1.0  0.1143
  H  H128  1  0.991800  0.936500  0.301100  1.0  0.1344
  H  H129  1  0.849800  0.026100  0.527400  1.0  0.0994
  H  H130  1  0.864400  0.108700  0.338200  1.0  0.1045
  H  H131  1  0.963100  0.084800  0.319300  1.0  0.1069
  H  H132  1  0.740300  0.019800  0.323900  1.0  0.1268
  H  H133  1  0.683400  0.903500  0.291200  1.0  0.0885
  H  H134  1  0.922100  0.737100  0.028300  1.0  0.112
  H  H135  1  0.071600  0.678900  0.269100  1.0  0.0749
  H  H136  1  0.154700  0.774700  0.100800  1.0  0.1141
  H  H137  1  0.008200  0.563500  0.301100  1.0  0.1345
  H  H138  1  0.150200  0.473900  0.527400  1.0  0.0989
  H  H139  1  0.135600  0.391300  0.338200  1.0  0.1034
  H  H140  1  0.036900  0.415200  0.319300  1.0  0.1062
  H  H141  1  0.259700  0.480200  0.323900  1.0  0.1269
  H  H142  1  0.316600  0.596500  0.291200  1.0  0.0888
  H  H143  1  0.077900  0.762900  0.028300  1.0  0.1125
  H  H144  1  0.571600  0.178900  0.769100  1.0  0.0749
  H  H145  1  0.654700  0.274700  0.600800  1.0  0.1141
  H  H146  1  0.508200  0.063500  0.801100  1.0  0.1345
  H  H147  1  0.650200  0.973900  0.027400  1.0  0.0989
  H  H148  1  0.635600  0.891300  0.838200  1.0  0.1034
  H  H149  1  0.536900  0.915200  0.819300  1.0  0.1062
  H  H150  1  0.759700  0.980200  0.823900  1.0  0.1269
  H  H151  1  0.816600  0.096500  0.791200  1.0  0.0888
  H  H152  1  0.577900  0.262900  0.528300  1.0  0.1125
  C  C153  1  0.380200  0.948500  0.426980  1.0  0.4821
  C  C154  1  0.402800  0.271800  0.190740  1.0  0.6546
  C  C155  1  0.389500  0.137800  0.280230  1.0  0.1808
  C  C156  1  0.408600  0.264900  0.100870  1.0  -0.048
  C  C157  1  0.453800  0.258050  0.144280  1.0  -0.0913
  C  C158  1  0.428000  0.069100  0.299380  1.0  -0.2041
  C  C159  1  0.409500  0.984000  0.516550  1.0  0.0014
  C  C160  1  0.525700  0.974200  0.400310  1.0  0.5362
  C  C161  1  0.435200  0.973700  0.469260  1.0  -0.0947
  C  C162  1  0.410700  0.933810  0.338450  1.0  -0.0581
  C  C163  1  0.280500  0.020200  0.312710  1.0  -0.203
  C  C164  1  0.371900  0.009020  0.315850  1.0  0.1255
  C  C165  1  0.477300  0.010300  0.547020  1.0  -0.0933
  C  C166  1  0.247100  0.089700  0.293250  1.0  0.1709
  C  C167  1  0.453800  0.257600  0.057920  1.0  -0.1131
  C  C168  1  0.880200  0.448500  0.926980  1.0  0.4821
  C  C169  1  0.902800  0.771800  0.690740  1.0  0.6546
  C  C170  1  0.889500  0.637800  0.780230  1.0  0.1808
  C  C171  1  0.908600  0.764900  0.600870  1.0  -0.048
  C  C172  1  0.953800  0.758050  0.644280  1.0  -0.0913
  C  C173  1  0.928000  0.569100  0.799380  1.0  -0.2041
  C  C174  1  0.909500  0.484000  0.016550  1.0  0.0014
  C  C175  1  0.025700  0.474200  0.900310  1.0  0.5362
  C  C176  1  0.935200  0.473700  0.969260  1.0  -0.0947
  C  C177  1  0.910700  0.433810  0.838450  1.0  -0.0581
  C  C178  1  0.780500  0.520200  0.812710  1.0  -0.203
  C  C179  1  0.871900  0.509020  0.815850  1.0  0.1255
  C  C180  1  0.977300  0.510300  0.047020  1.0  -0.0933
  C  C181  1  0.747100  0.589700  0.793250  1.0  0.1709
  C  C182  1  0.953800  0.757600  0.557920  1.0  -0.1131
  C  C183  1  0.119800  0.051500  0.926980  1.0  0.4823
  C  C184  1  0.097200  0.728200  0.690740  1.0  0.6556
  C  C185  1  0.110500  0.862200  0.780230  1.0  0.1821
  C  C186  1  0.091400  0.735100  0.600870  1.0  -0.0537
  C  C187  1  0.046200  0.741950  0.644280  1.0  -0.09
  C  C188  1  0.072000  0.930900  0.799380  1.0  -0.2014
  C  C189  1  0.090500  0.016000  0.016550  1.0  0.0017
  C  C190  1  0.974300  0.025800  0.900310  1.0  0.5394
  C  C191  1  0.064800  0.026300  0.969260  1.0  -0.0941
  C  C192  1  0.089300  0.066190  0.838450  1.0  -0.0573
  C  C193  1  0.219500  0.979800  0.812710  1.0  -0.2041
  C  C194  1  0.128100  0.990980  0.815850  1.0  0.1258
  C  C195  1  0.022700  0.989700  0.047020  1.0  -0.0941
  C  C196  1  0.252900  0.910300  0.793250  1.0  0.1705
  C  C197  1  0.046200  0.742400  0.557920  1.0  -0.1135
  C  C198  1  0.619800  0.551500  0.426980  1.0  0.4823
  C  C199  1  0.597200  0.228200  0.190740  1.0  0.6556
  C  C200  1  0.610500  0.362200  0.280230  1.0  0.1821
  C  C201  1  0.591400  0.235100  0.100870  1.0  -0.0537
  C  C202  1  0.546200  0.241950  0.144280  1.0  -0.09
  C  C203  1  0.572000  0.430900  0.299380  1.0  -0.2014
  C  C204  1  0.590500  0.516000  0.516550  1.0  0.0017
  C  C205  1  0.474300  0.525800  0.400310  1.0  0.5394
  C  C206  1  0.564800  0.526300  0.469260  1.0  -0.0941
  C  C207  1  0.589300  0.566190  0.338450  1.0  -0.0573
  C  C208  1  0.719500  0.479800  0.312710  1.0  -0.2041
  C  C209  1  0.628100  0.490980  0.315850  1.0  0.1258
  C  C210  1  0.522700  0.489700  0.547020  1.0  -0.0941
  C  C211  1  0.752900  0.410300  0.293250  1.0  0.1705
  C  C212  1  0.546200  0.242400  0.057920  1.0  -0.1135
  C  C213  1  0.619800  0.051500  0.573020  1.0  0.4781
  C  C214  1  0.597200  0.728200  0.809260  1.0  0.6545
  C  C215  1  0.610500  0.862200  0.719770  1.0  0.1808
  C  C216  1  0.591400  0.735100  0.899130  1.0  -0.0521
  C  C217  1  0.546200  0.741950  0.855720  1.0  -0.0896
  C  C218  1  0.572000  0.930900  0.700620  1.0  -0.203
  C  C219  1  0.590500  0.016000  0.483450  1.0  0.0002
  C  C220  1  0.474300  0.025800  0.599690  1.0  0.5386
  C  C221  1  0.564800  0.026300  0.530740  1.0  -0.0934
  C  C222  1  0.589300  0.066190  0.661550  1.0  -0.058
  C  C223  1  0.719500  0.979800  0.687290  1.0  -0.2038
  C  C224  1  0.628100  0.990980  0.684150  1.0  0.1253
  C  C225  1  0.522700  0.989700  0.452980  1.0  -0.0938
  C  C226  1  0.752900  0.910300  0.706750  1.0  0.17
  C  C227  1  0.546200  0.742400  0.942080  1.0  -0.1104
  C  C228  1  0.119800  0.551500  0.073020  1.0  0.4781
  C  C229  1  0.097200  0.228200  0.309260  1.0  0.6545
  C  C230  1  0.110500  0.362200  0.219770  1.0  0.1808
  C  C231  1  0.091400  0.235100  0.399130  1.0  -0.0521
  C  C232  1  0.046200  0.241950  0.355720  1.0  -0.0896
  C  C233  1  0.072000  0.430900  0.200620  1.0  -0.203
  C  C234  1  0.090500  0.516000  0.983450  1.0  0.0002
  C  C235  1  0.974300  0.525800  0.099690  1.0  0.5386
  C  C236  1  0.064800  0.526300  0.030740  1.0  -0.0934
  C  C237  1  0.089300  0.566190  0.161550  1.0  -0.058
  C  C238  1  0.219500  0.479800  0.187290  1.0  -0.2038
  C  C239  1  0.128100  0.490980  0.184150  1.0  0.1253
  C  C240  1  0.022700  0.489700  0.952980  1.0  -0.0938
  C  C241  1  0.252900  0.410300  0.206750  1.0  0.17
  C  C242  1  0.046200  0.242400  0.442080  1.0  -0.1104
  C  C243  1  0.880200  0.948500  0.073020  1.0  0.4794
  C  C244  1  0.902800  0.271800  0.309260  1.0  0.6538
  C  C245  1  0.889500  0.137800  0.219770  1.0  0.1819
  C  C246  1  0.908600  0.264900  0.399130  1.0  -0.0537
  C  C247  1  0.953800  0.258050  0.355720  1.0  -0.0906
  C  C248  1  0.928000  0.069100  0.200620  1.0  -0.2042
  C  C249  1  0.909500  0.984000  0.983450  1.0  -0.0004
  C  C250  1  0.025700  0.974200  0.099690  1.0  0.535
  C  C251  1  0.935200  0.973700  0.030740  1.0  -0.0942
  C  C252  1  0.910700  0.933810  0.161550  1.0  -0.0588
  C  C253  1  0.780500  0.020200  0.187290  1.0  -0.2032
  C  C254  1  0.871900  0.009020  0.184150  1.0  0.125
  C  C255  1  0.977300  0.010300  0.952980  1.0  -0.0936
  C  C256  1  0.747100  0.089700  0.206750  1.0  0.1706
  C  C257  1  0.953800  0.257600  0.442080  1.0  -0.1108
  C  C258  1  0.380200  0.448500  0.573020  1.0  0.4794
  C  C259  1  0.402800  0.771800  0.809260  1.0  0.6538
  C  C260  1  0.389500  0.637800  0.719770  1.0  0.1819
  C  C261  1  0.408600  0.764900  0.899130  1.0  -0.0537
  C  C262  1  0.453800  0.758050  0.855720  1.0  -0.0906
  C  C263  1  0.428000  0.569100  0.700620  1.0  -0.2042
  C  C264  1  0.409500  0.484000  0.483450  1.0  -0.0004
  C  C265  1  0.525700  0.474200  0.599690  1.0  0.535
  C  C266  1  0.435200  0.473700  0.530740  1.0  -0.0942
  C  C267  1  0.410700  0.433810  0.661550  1.0  -0.0588
  C  C268  1  0.280500  0.520200  0.687290  1.0  -0.2032
  C  C269  1  0.371900  0.509020  0.684150  1.0  0.125
  C  C270  1  0.477300  0.510300  0.452980  1.0  -0.0936
  C  C271  1  0.247100  0.589700  0.706750  1.0  0.1706
  C  C272  1  0.453800  0.757600  0.942080  1.0  -0.1108
  C  C273  1  0.619800  0.448500  0.073020  1.0  0.4816
  C  C274  1  0.597200  0.771800  0.309260  1.0  0.6545
  C  C275  1  0.610500  0.637800  0.219770  1.0  0.1829
  C  C276  1  0.591400  0.764900  0.399130  1.0  -0.0523
  C  C277  1  0.546200  0.758050  0.355720  1.0  -0.0895
  C  C278  1  0.572000  0.569100  0.200620  1.0  -0.2025
  C  C279  1  0.590500  0.484000  0.983450  1.0  0.0013
  C  C280  1  0.474300  0.474200  0.099690  1.0  0.5381
  C  C281  1  0.564800  0.473700  0.030740  1.0  -0.0935
  C  C282  1  0.589300  0.433810  0.161550  1.0  -0.0588
  C  C283  1  0.719500  0.520200  0.187290  1.0  -0.2047
  C  C284  1  0.628100  0.509020  0.184150  1.0  0.1248
  C  C285  1  0.522700  0.510300  0.952980  1.0  -0.0942
  C  C286  1  0.752900  0.589700  0.206750  1.0  0.1705
  C  C287  1  0.546200  0.757600  0.442080  1.0  -0.1105
  C  C288  1  0.119800  0.948500  0.573020  1.0  0.4816
  C  C289  1  0.097200  0.271800  0.809260  1.0  0.6545
  C  C290  1  0.110500  0.137800  0.719770  1.0  0.1829
  C  C291  1  0.091400  0.264900  0.899130  1.0  -0.0523
  C  C292  1  0.046200  0.258050  0.855720  1.0  -0.0895
  C  C293  1  0.072000  0.069100  0.700620  1.0  -0.2025
  C  C294  1  0.090500  0.984000  0.483450  1.0  0.0013
  C  C295  1  0.974300  0.974200  0.599690  1.0  0.5381
  C  C296  1  0.064800  0.973700  0.530740  1.0  -0.0935
  C  C297  1  0.089300  0.933810  0.661550  1.0  -0.0588
  C  C298  1  0.219500  0.020200  0.687290  1.0  -0.2047
  C  C299  1  0.128100  0.009020  0.684150  1.0  0.1248
  C  C300  1  0.022700  0.010300  0.452980  1.0  -0.0942
  C  C301  1  0.252900  0.089700  0.706750  1.0  0.1705
  C  C302  1  0.046200  0.257600  0.942080  1.0  -0.1105
  C  C303  1  0.880200  0.551500  0.573020  1.0  0.4834
  C  C304  1  0.902800  0.228200  0.809260  1.0  0.6539
  C  C305  1  0.889500  0.362200  0.719770  1.0  0.179
  C  C306  1  0.908600  0.235100  0.899130  1.0  -0.0533
  C  C307  1  0.953800  0.241950  0.855720  1.0  -0.091
  C  C308  1  0.928000  0.430900  0.700620  1.0  -0.2058
  C  C309  1  0.909500  0.516000  0.483450  1.0  0.0004
  C  C310  1  0.025700  0.525800  0.599690  1.0  0.5369
  C  C311  1  0.935200  0.526300  0.530740  1.0  -0.0939
  C  C312  1  0.910700  0.566190  0.661550  1.0  -0.0577
  C  C313  1  0.780500  0.479800  0.687290  1.0  -0.2026
  C  C314  1  0.871900  0.490980  0.684150  1.0  0.1257
  C  C315  1  0.977300  0.489700  0.452980  1.0  -0.0929
  C  C316  1  0.747100  0.410300  0.706750  1.0  0.1706
  C  C317  1  0.953800  0.242400  0.942080  1.0  -0.1107
  C  C318  1  0.380200  0.051500  0.073020  1.0  0.4834
  C  C319  1  0.402800  0.728200  0.309260  1.0  0.6539
  C  C320  1  0.389500  0.862200  0.219770  1.0  0.179
  C  C321  1  0.408600  0.735100  0.399130  1.0  -0.0533
  C  C322  1  0.453800  0.741950  0.355720  1.0  -0.091
  C  C323  1  0.428000  0.930900  0.200620  1.0  -0.2058
  C  C324  1  0.409500  0.016000  0.983450  1.0  0.0004
  C  C325  1  0.525700  0.025800  0.099690  1.0  0.5369
  C  C326  1  0.435200  0.026300  0.030740  1.0  -0.0939
  C  C327  1  0.410700  0.066190  0.161550  1.0  -0.0577
  C  C328  1  0.280500  0.979800  0.187290  1.0  -0.2026
  C  C329  1  0.371900  0.990980  0.184150  1.0  0.1257
  C  C330  1  0.477300  0.989700  0.952980  1.0  -0.0929
  C  C331  1  0.247100  0.910300  0.206750  1.0  0.1706
  C  C332  1  0.453800  0.742400  0.442080  1.0  -0.1107
  C  C333  1  0.380200  0.551500  0.926980  1.0  0.4783
  C  C334  1  0.402800  0.228200  0.690740  1.0  0.6549
  C  C335  1  0.389500  0.362200  0.780230  1.0  0.1811
  C  C336  1  0.408600  0.235100  0.600870  1.0  -0.0477
  C  C337  1  0.453800  0.241950  0.644280  1.0  -0.0916
  C  C338  1  0.428000  0.430900  0.799380  1.0  -0.2046
  C  C339  1  0.409500  0.516000  0.016550  1.0  0.0002
  C  C340  1  0.525700  0.525800  0.900310  1.0  0.537
  C  C341  1  0.435200  0.526300  0.969260  1.0  -0.0947
  C  C342  1  0.410700  0.566190  0.838450  1.0  -0.0572
  C  C343  1  0.280500  0.479800  0.812710  1.0  -0.2025
  C  C344  1  0.371900  0.490980  0.815850  1.0  0.1263
  C  C345  1  0.477300  0.489700  0.047020  1.0  -0.0928
  C  C346  1  0.247100  0.410300  0.793250  1.0  0.1712
  C  C347  1  0.453800  0.242400  0.557920  1.0  -0.1132
  C  C348  1  0.880200  0.051500  0.426980  1.0  0.4783
  C  C349  1  0.902800  0.728200  0.190740  1.0  0.6549
  C  C350  1  0.889500  0.862200  0.280230  1.0  0.1811
  C  C351  1  0.908600  0.735100  0.100870  1.0  -0.0477
  C  C352  1  0.953800  0.741950  0.144280  1.0  -0.0916
  C  C353  1  0.928000  0.930900  0.299380  1.0  -0.2046
  C  C354  1  0.909500  0.016000  0.516550  1.0  0.0002
  C  C355  1  0.025700  0.025800  0.400310  1.0  0.537
  C  C356  1  0.935200  0.026300  0.469260  1.0  -0.0947
  C  C357  1  0.910700  0.066190  0.338450  1.0  -0.0572
  C  C358  1  0.780500  0.979800  0.312710  1.0  -0.2025
  C  C359  1  0.871900  0.990980  0.315850  1.0  0.1263
  C  C360  1  0.977300  0.989700  0.547020  1.0  -0.0928
  C  C361  1  0.747100  0.910300  0.293250  1.0  0.1712
  C  C362  1  0.953800  0.742400  0.057920  1.0  -0.1132
  C  C363  1  0.119800  0.448500  0.426980  1.0  0.4779
  C  C364  1  0.097200  0.771800  0.190740  1.0  0.6552
  C  C365  1  0.110500  0.637800  0.280230  1.0  0.1808
  C  C366  1  0.091400  0.764900  0.100870  1.0  -0.0539
  C  C367  1  0.046200  0.758050  0.144280  1.0  -0.0899
  C  C368  1  0.072000  0.569100  0.299380  1.0  -0.2022
  C  C369  1  0.090500  0.484000  0.516550  1.0  0.0012
  C  C370  1  0.974300  0.474200  0.400310  1.0  0.5382
  C  C371  1  0.064800  0.473700  0.469260  1.0  -0.0941
  C  C372  1  0.089300  0.433810  0.338450  1.0  -0.0579
  C  C373  1  0.219500  0.520200  0.312710  1.0  -0.2052
  C  C374  1  0.128100  0.509020  0.315850  1.0  0.1253
  C  C375  1  0.022700  0.510300  0.547020  1.0  -0.0945
  C  C376  1  0.252900  0.589700  0.293250  1.0  0.1708
  C  C377  1  0.046200  0.757600  0.057920  1.0  -0.1135
  C  C378  1  0.619800  0.948500  0.926980  1.0  0.4779
  C  C379  1  0.597200  0.271800  0.690740  1.0  0.6552
  C  C380  1  0.610500  0.137800  0.780230  1.0  0.1808
  C  C381  1  0.591400  0.264900  0.600870  1.0  -0.0539
  C  C382  1  0.546200  0.258050  0.644280  1.0  -0.0899
  C  C383  1  0.572000  0.069100  0.799380  1.0  -0.2022
  C  C384  1  0.590500  0.984000  0.016550  1.0  0.0012
  C  C385  1  0.474300  0.974200  0.900310  1.0  0.5382
  C  C386  1  0.564800  0.973700  0.969260  1.0  -0.0941
  C  C387  1  0.589300  0.933810  0.838450  1.0  -0.0579
  C  C388  1  0.719500  0.020200  0.812710  1.0  -0.2052
  C  C389  1  0.628100  0.009020  0.815850  1.0  0.1253
  C  C390  1  0.522700  0.010300  0.047020  1.0  -0.0945
  C  C391  1  0.752900  0.089700  0.793250  1.0  0.1708
  C  C392  1  0.546200  0.257600  0.557920  1.0  -0.1135
  N  N393  1  0.439100  0.949230  0.387770  1.0  -0.2248
  N  N394  1  0.301200  0.148260  0.276940  1.0  -0.3104
  N  N395  1  0.939100  0.449230  0.887770  1.0  -0.2248
  N  N396  1  0.801200  0.648260  0.776940  1.0  -0.3104
  N  N397  1  0.060900  0.050770  0.887770  1.0  -0.2253
  N  N398  1  0.198800  0.851740  0.776940  1.0  -0.3109
  N  N399  1  0.560900  0.550770  0.387770  1.0  -0.2253
  N  N400  1  0.698800  0.351740  0.276940  1.0  -0.3109
  N  N401  1  0.560900  0.050770  0.612230  1.0  -0.2261
  N  N402  1  0.698800  0.851740  0.723060  1.0  -0.3106
  N  N403  1  0.060900  0.550770  0.112230  1.0  -0.2261
  N  N404  1  0.198800  0.351740  0.223060  1.0  -0.3106
  N  N405  1  0.939100  0.949230  0.112230  1.0  -0.2248
  N  N406  1  0.801200  0.148260  0.223060  1.0  -0.3108
  N  N407  1  0.439100  0.449230  0.612230  1.0  -0.2248
  N  N408  1  0.301200  0.648260  0.723060  1.0  -0.3108
  N  N409  1  0.560900  0.449230  0.112230  1.0  -0.225
  N  N410  1  0.698800  0.648260  0.223060  1.0  -0.3114
  N  N411  1  0.060900  0.949230  0.612230  1.0  -0.225
  N  N412  1  0.198800  0.148260  0.723060  1.0  -0.3114
  N  N413  1  0.939100  0.550770  0.612230  1.0  -0.2258
  N  N414  1  0.801200  0.351740  0.723060  1.0  -0.3112
  N  N415  1  0.439100  0.050770  0.112230  1.0  -0.2258
  N  N416  1  0.301200  0.851740  0.223060  1.0  -0.3112
  N  N417  1  0.439100  0.550770  0.887770  1.0  -0.2247
  N  N418  1  0.301200  0.351740  0.776940  1.0  -0.3113
  N  N419  1  0.939100  0.050770  0.387770  1.0  -0.2247
  N  N420  1  0.801200  0.851740  0.276940  1.0  -0.3113
  N  N421  1  0.060900  0.449230  0.387770  1.0  -0.2251
  N  N422  1  0.198800  0.648260  0.276940  1.0  -0.3109
  N  N423  1  0.560900  0.949230  0.887770  1.0  -0.2251
  N  N424  1  0.698800  0.148260  0.776940  1.0  -0.3109
  O  O425  1  0.324610  0.237760  0.192700  1.0  -0.5975
  O  O426  1  0.301050  0.930970  0.425490  1.0  -0.4482
  O  O427  1  0.434970  0.314970  0.222020  1.0  -0.5733
  O  O428  1  0.588240  0.981340  0.372530  1.0  -0.4557
  O  O429  1  0.824610  0.737760  0.692700  1.0  -0.5975
  O  O430  1  0.801050  0.430970  0.925490  1.0  -0.4482
  O  O431  1  0.934970  0.814970  0.722020  1.0  -0.5733
  O  O432  1  0.088240  0.481340  0.872530  1.0  -0.4557
  O  O433  1  0.175390  0.762240  0.692700  1.0  -0.5965
  O  O434  1  0.198950  0.069030  0.925490  1.0  -0.4491
  O  O435  1  0.065030  0.685030  0.722020  1.0  -0.5717
  O  O436  1  0.911760  0.018660  0.872530  1.0  -0.456
  O  O437  1  0.675390  0.262240  0.192700  1.0  -0.5965
  O  O438  1  0.698950  0.569030  0.425490  1.0  -0.4491
  O  O439  1  0.565030  0.185030  0.222020  1.0  -0.5717
  O  O440  1  0.411760  0.518660  0.372530  1.0  -0.456
  O  O441  1  0.675390  0.762240  0.807300  1.0  -0.5972
  O  O442  1  0.698950  0.069030  0.574510  1.0  -0.4493
  O  O443  1  0.565030  0.685030  0.777980  1.0  -0.5737
  O  O444  1  0.411760  0.018660  0.627470  1.0  -0.4563
  O  O445  1  0.175390  0.262240  0.307300  1.0  -0.5972
  O  O446  1  0.198950  0.569030  0.074510  1.0  -0.4493
  O  O447  1  0.065030  0.185030  0.277980  1.0  -0.5737
  O  O448  1  0.911760  0.518660  0.127470  1.0  -0.4563
  O  O449  1  0.824610  0.237760  0.307300  1.0  -0.598
  O  O450  1  0.801050  0.930970  0.074510  1.0  -0.4492
  O  O451  1  0.934970  0.314970  0.277980  1.0  -0.5744
  O  O452  1  0.088240  0.981340  0.127470  1.0  -0.4562
  O  O453  1  0.324610  0.737760  0.807300  1.0  -0.598
  O  O454  1  0.301050  0.430970  0.574510  1.0  -0.4492
  O  O455  1  0.434970  0.814970  0.777980  1.0  -0.5744
  O  O456  1  0.588240  0.481340  0.627470  1.0  -0.4562
  O  O457  1  0.675390  0.737760  0.307300  1.0  -0.5973
  O  O458  1  0.698950  0.430970  0.074510  1.0  -0.4493
  O  O459  1  0.565030  0.814970  0.277980  1.0  -0.5731
  O  O460  1  0.411760  0.481340  0.127470  1.0  -0.4561
  O  O461  1  0.175390  0.237760  0.807300  1.0  -0.5973
  O  O462  1  0.198950  0.930970  0.574510  1.0  -0.4493
  O  O463  1  0.065030  0.314970  0.777980  1.0  -0.5731
  O  O464  1  0.911760  0.981340  0.627470  1.0  -0.4561
  O  O465  1  0.824610  0.262240  0.807300  1.0  -0.598
  O  O466  1  0.801050  0.569030  0.574510  1.0  -0.4489
  O  O467  1  0.934970  0.185030  0.777980  1.0  -0.5748
  O  O468  1  0.088240  0.518660  0.627470  1.0  -0.4561
  O  O469  1  0.324610  0.762240  0.307300  1.0  -0.598
  O  O470  1  0.301050  0.069030  0.074510  1.0  -0.4489
  O  O471  1  0.434970  0.685030  0.277980  1.0  -0.5748
  O  O472  1  0.588240  0.018660  0.127470  1.0  -0.4561
  O  O473  1  0.324610  0.262240  0.692700  1.0  -0.5972
  O  O474  1  0.301050  0.569030  0.925490  1.0  -0.4484
  O  O475  1  0.434970  0.185030  0.722020  1.0  -0.5736
  O  O476  1  0.588240  0.518660  0.872530  1.0  -0.4558
  O  O477  1  0.824610  0.762240  0.192700  1.0  -0.5972
  O  O478  1  0.801050  0.069030  0.425490  1.0  -0.4484
  O  O479  1  0.934970  0.685030  0.222020  1.0  -0.5736
  O  O480  1  0.088240  0.018660  0.372530  1.0  -0.4558
  O  O481  1  0.175390  0.737760  0.192700  1.0  -0.5967
  O  O482  1  0.198950  0.430970  0.425490  1.0  -0.4486
  O  O483  1  0.065030  0.814970  0.222020  1.0  -0.5713
  O  O484  1  0.911760  0.481340  0.372530  1.0  -0.456
  O  O485  1  0.675390  0.237760  0.692700  1.0  -0.5967
  O  O486  1  0.698950  0.930970  0.925490  1.0  -0.4486
  O  O487  1  0.565030  0.314970  0.722020  1.0  -0.5713
  O  O488  1  0.411760  0.981340  0.872530  1.0  -0.456
