# generated using pymatgen
data_CuH26C32(N2O5)2
_symmetry_space_group_name_H-M   'P 1'
_cell_length_a   15.31070000
_cell_length_b   16.72840000
_cell_length_c   17.78820000
_cell_angle_alpha   118.04800000
_cell_angle_beta   115.49100000
_cell_angle_gamma   89.99990000
_symmetry_Int_Tables_number   1
_chemical_formula_structural   CuH26C32(N2O5)2
_chemical_formula_sum   'Cu4 H104 C128 N16 O40'
_cell_volume   3510.42182232
_cell_formula_units_Z   4
loop_
 _symmetry_equiv_pos_site_id
 _symmetry_equiv_pos_as_xyz
  1  'x, y, z'
loop_
 _atom_site_type_symbol
 _atom_site_label
 _atom_site_symmetry_multiplicity
 _atom_site_fract_x
 _atom_site_fract_y
 _atom_site_fract_z
 _atom_site_occupancy
 _atom_site_charge
  Cu  Cu1  1  0.000000  0.500000  0.500000  1.0  0.8691
  Cu  Cu2  1  0.500000  0.500000  0.500000  1.0  0.8691
  Cu  Cu3  1  0.500000  0.000000  0.500000  1.0  0.8691
  Cu  Cu4  1  0.000000  0.000000  0.500000  1.0  0.8691
  H  H5  1  0.107100  0.388000  0.583400  1.0  0.0857
  H  H6  1  0.085800  0.302200  0.647800  1.0  0.1364
  H  H7  1  0.817000  0.360800  0.601000  1.0  0.1455
  H  H8  1  0.845100  0.445900  0.538800  1.0  0.0875
  H  H9  1  0.980800  0.227600  0.677800  1.0  0.1105
  H  H10  1  0.865100  0.228700  0.635600  1.0  0.1029
  H  H11  1  0.174700  0.506700  0.061000  1.0  0.1212
  H  H12  1  0.748000  0.382600  0.200200  1.0  0.1154
  H  H13  1  0.600900  0.292600  0.053200  1.0  0.1041
  H  H14  1  0.945200  0.323800  0.261400  1.0  0.0482
  H  H15  1  0.053200  0.383500  0.301000  1.0  0.0502
  H  H16  1  0.037300  0.276500  0.272400  1.0  0.0761
  H  H17  1  0.055800  0.421700  0.430400  1.0  0.2491
  H  H18  1  0.476300  0.695400  0.583400  1.0  0.0862
  H  H19  1  0.562000  0.845600  0.647800  1.0  0.1345
  H  H20  1  0.784000  0.740200  0.601000  1.0  0.146
  H  H21  1  0.693700  0.592900  0.538800  1.0  0.085
  H  H22  1  0.697000  0.950200  0.677800  1.0  0.1126
  H  H23  1  0.770500  0.906900  0.635600  1.0  0.1026
  H  H24  1  0.886300  0.054300  0.061000  1.0  0.1181
  H  H25  1  0.452200  0.317600  0.200200  1.0  0.1144
  H  H26  1  0.452300  0.260600  0.053200  1.0  0.1048
  H  H27  1  0.316200  0.437600  0.261400  1.0  0.0555
  H  H28  1  0.247800  0.417500  0.301000  1.0  0.0473
  H  H29  1  0.235100  0.495900  0.272400  1.0  0.0671
  H  H30  1  0.374600  0.508700  0.430400  1.0  0.2491
  H  H31  1  0.892900  0.612000  0.416600  1.0  0.0856
  H  H32  1  0.914200  0.697800  0.352200  1.0  0.1355
  H  H33  1  0.183000  0.639200  0.399000  1.0  0.1458
  H  H34  1  0.154900  0.554100  0.461200  1.0  0.0855
  H  H35  1  0.019200  0.772400  0.322200  1.0  0.1104
  H  H36  1  0.134900  0.771300  0.364400  1.0  0.1025
  H  H37  1  0.825300  0.493300  0.939000  1.0  0.121
  H  H38  1  0.252000  0.617400  0.799800  1.0  0.1144
  H  H39  1  0.399100  0.707400  0.946800  1.0  0.1048
  H  H40  1  0.054800  0.676200  0.738600  1.0  0.0473
  H  H41  1  0.946800  0.616500  0.699000  1.0  0.0516
  H  H42  1  0.962700  0.723500  0.727600  1.0  0.0787
  H  H43  1  0.944200  0.578300  0.569600  1.0  0.2504
  H  H44  1  0.523700  0.304600  0.416600  1.0  0.0862
  H  H45  1  0.438000  0.154400  0.352200  1.0  0.1339
  H  H46  1  0.216000  0.259800  0.399000  1.0  0.1463
  H  H47  1  0.306300  0.407100  0.461200  1.0  0.0846
  H  H48  1  0.303000  0.049800  0.322200  1.0  0.1116
  H  H49  1  0.229500  0.093100  0.364400  1.0  0.102
  H  H50  1  0.113700  0.945700  0.939000  1.0  0.1185
  H  H51  1  0.547800  0.682400  0.799800  1.0  0.115
  H  H52  1  0.547700  0.739400  0.946800  1.0  0.105
  H  H53  1  0.683800  0.562400  0.738600  1.0  0.058
  H  H54  1  0.752200  0.582500  0.699000  1.0  0.0522
  H  H55  1  0.764900  0.504100  0.727600  1.0  0.0678
  H  H56  1  0.625400  0.491300  0.569600  1.0  0.248
  H  H57  1  0.392900  0.804600  0.416600  1.0  0.086
  H  H58  1  0.414200  0.654400  0.352200  1.0  0.1347
  H  H59  1  0.683000  0.759800  0.399000  1.0  0.1463
  H  H60  1  0.654900  0.907100  0.461200  1.0  0.0848
  H  H61  1  0.519200  0.549800  0.322200  1.0  0.1104
  H  H62  1  0.634900  0.593100  0.364400  1.0  0.1036
  H  H63  1  0.325300  0.445700  0.939000  1.0  0.1203
  H  H64  1  0.752000  0.182400  0.799800  1.0  0.1161
  H  H65  1  0.899100  0.239400  0.946800  1.0  0.1056
  H  H66  1  0.554800  0.062400  0.738600  1.0  0.0461
  H  H67  1  0.446800  0.082500  0.699000  1.0  0.0514
  H  H68  1  0.462700  0.004100  0.727600  1.0  0.0674
  H  H69  1  0.444200  0.991300  0.569600  1.0  0.2477
  H  H70  1  0.023700  0.112000  0.416600  1.0  0.0871
  H  H71  1  0.938000  0.197800  0.352200  1.0  0.1361
  H  H72  1  0.716000  0.139200  0.399000  1.0  0.1459
  H  H73  1  0.806300  0.054100  0.461200  1.0  0.0849
  H  H74  1  0.803000  0.272400  0.322200  1.0  0.1099
  H  H75  1  0.729500  0.271300  0.364400  1.0  0.1021
  H  H76  1  0.613700  0.993300  0.939000  1.0  0.1194
  H  H77  1  0.047800  0.117400  0.799800  1.0  0.1151
  H  H78  1  0.047700  0.207400  0.946800  1.0  0.1041
  H  H79  1  0.183800  0.176200  0.738600  1.0  0.0567
  H  H80  1  0.252200  0.116500  0.699000  1.0  0.0484
  H  H81  1  0.264900  0.223500  0.727600  1.0  0.0786
  H  H82  1  0.125400  0.078300  0.569600  1.0  0.2492
  H  H83  1  0.607100  0.195400  0.583400  1.0  0.0858
  H  H84  1  0.585800  0.345600  0.647800  1.0  0.1347
  H  H85  1  0.317000  0.240200  0.601000  1.0  0.1461
  H  H86  1  0.345100  0.092900  0.538800  1.0  0.0855
  H  H87  1  0.480800  0.450200  0.677800  1.0  0.1097
  H  H88  1  0.365100  0.406900  0.635600  1.0  0.1032
  H  H89  1  0.674700  0.554300  0.061000  1.0  0.1201
  H  H90  1  0.248000  0.817600  0.200200  1.0  0.1166
  H  H91  1  0.100900  0.760600  0.053200  1.0  0.1051
  H  H92  1  0.445200  0.937600  0.261400  1.0  0.045
  H  H93  1  0.553200  0.917500  0.301000  1.0  0.0516
  H  H94  1  0.537300  0.995900  0.272400  1.0  0.068
  H  H95  1  0.555800  0.008700  0.430400  1.0  0.2481
  H  H96  1  0.976300  0.888000  0.583400  1.0  0.0867
  H  H97  1  0.062000  0.802200  0.647800  1.0  0.1348
  H  H98  1  0.284000  0.860800  0.601000  1.0  0.1465
  H  H99  1  0.193700  0.945900  0.538800  1.0  0.0839
  H  H100  1  0.197000  0.727600  0.677800  1.0  0.1099
  H  H101  1  0.270500  0.728700  0.635600  1.0  0.1017
  H  H102  1  0.386300  0.006700  0.061000  1.0  0.1181
  H  H103  1  0.952200  0.882600  0.200200  1.0  0.1143
  H  H104  1  0.952300  0.792600  0.053200  1.0  0.104
  H  H105  1  0.816200  0.823800  0.261400  1.0  0.0563
  H  H106  1  0.747800  0.883500  0.301000  1.0  0.0462
  H  H107  1  0.735100  0.776500  0.272400  1.0  0.072
  H  H108  1  0.874600  0.921700  0.430400  1.0  0.2497
  C  C109  1  0.047730  0.382730  0.587460  1.0  0.1859
  C  C110  1  0.035420  0.331220  0.625840  1.0  -0.2071
  C  C111  1  0.949220  0.322120  0.632040  1.0  0.1194
  C  C112  1  0.877280  0.365880  0.598360  1.0  -0.2101
  C  C113  1  0.894540  0.416340  0.561280  1.0  0.1656
  C  C114  1  0.934390  0.268690  0.676180  1.0  -0.0439
  C  C115  1  0.048160  0.375560  0.856320  1.0  0.4949
  C  C116  1  0.879290  0.369590  0.798180  1.0  0.4701
  C  C117  1  0.034390  0.443790  0.940180  1.0  -0.0963
  C  C118  1  0.105360  0.503960  0.036720  1.0  -0.0008
  C  C119  1  0.067020  0.559720  0.094840  1.0  -0.0975
  C  C120  1  0.783290  0.467590  0.382980  1.0  0.6262
  C  C121  1  0.689040  0.405240  0.289080  1.0  -0.0854
  C  C122  1  0.687830  0.369830  0.200660  1.0  -0.066
  C  C123  1  0.600630  0.316230  0.113260  1.0  -0.1026
  C  C124  1  0.017400  0.334500  0.300600  1.0  0.0579
  C  C125  1  0.539730  0.704730  0.587460  1.0  0.1876
  C  C126  1  0.590420  0.794620  0.625840  1.0  -0.203
  C  C127  1  0.682820  0.809920  0.632040  1.0  0.1182
  C  C128  1  0.721080  0.732480  0.598360  1.0  -0.212
  C  C129  1  0.666740  0.644940  0.561280  1.0  0.1653
  C  C130  1  0.741790  0.907490  0.676180  1.0  -0.0441
  C  C131  1  0.808160  0.980760  0.856320  1.0  0.4934
  C  C132  1  0.918890  0.928590  0.798180  1.0  0.4711
  C  C133  1  0.905790  0.996390  0.940180  1.0  -0.0986
  C  C134  1  0.931360  0.032760  0.036720  1.0  -0.0008
  C  C135  1  0.027820  0.035120  0.094840  1.0  -0.0973
  C  C136  1  0.599690  0.415390  0.382980  1.0  0.6259
  C  C137  1  0.600040  0.383840  0.289080  1.0  -0.0875
  C  C138  1  0.512830  0.330830  0.200660  1.0  -0.0721
  C  C139  1  0.512630  0.297030  0.113260  1.0  -0.1116
  C  C140  1  0.283200  0.466100  0.300600  1.0  0.0577
  C  C141  1  0.952270  0.617270  0.412540  1.0  0.1861
  C  C142  1  0.964580  0.668780  0.374160  1.0  -0.2069
  C  C143  1  0.050780  0.677880  0.367960  1.0  0.1192
  C  C144  1  0.122720  0.634120  0.401640  1.0  -0.2102
  C  C145  1  0.105460  0.583660  0.438720  1.0  0.1646
  C  C146  1  0.065610  0.731310  0.323820  1.0  -0.044
  C  C147  1  0.951840  0.624440  0.143680  1.0  0.4913
  C  C148  1  0.120710  0.630410  0.201820  1.0  0.4716
  C  C149  1  0.965610  0.556210  0.059820  1.0  -0.097
  C  C150  1  0.894640  0.496040  0.963280  1.0  -0.001
  C  C151  1  0.932980  0.440280  0.905160  1.0  -0.0974
  C  C152  1  0.216710  0.532410  0.617020  1.0  0.625
  C  C153  1  0.310960  0.594760  0.710920  1.0  -0.0862
  C  C154  1  0.312170  0.630170  0.799340  1.0  -0.0684
  C  C155  1  0.399370  0.683770  0.886740  1.0  -0.1019
  C  C156  1  0.982600  0.665500  0.699400  1.0  0.0575
  C  C157  1  0.460270  0.295270  0.412540  1.0  0.1879
  C  C158  1  0.409580  0.205380  0.374160  1.0  -0.205
  C  C159  1  0.317180  0.190080  0.367960  1.0  0.1185
  C  C160  1  0.278920  0.267520  0.401640  1.0  -0.2124
  C  C161  1  0.333260  0.355060  0.438720  1.0  0.1643
  C  C162  1  0.258210  0.092510  0.323820  1.0  -0.045
  C  C163  1  0.191840  0.019240  0.143680  1.0  0.494
  C  C164  1  0.081110  0.071410  0.201820  1.0  0.4749
  C  C165  1  0.094210  0.003610  0.059820  1.0  -0.0962
  C  C166  1  0.068640  0.967240  0.963280  1.0  -0.0013
  C  C167  1  0.972180  0.964880  0.905160  1.0  -0.0973
  C  C168  1  0.400310  0.584610  0.617020  1.0  0.6266
  C  C169  1  0.399960  0.616160  0.710920  1.0  -0.0868
  C  C170  1  0.487170  0.669170  0.799340  1.0  -0.0748
  C  C171  1  0.487370  0.702970  0.886740  1.0  -0.1084
  C  C172  1  0.716800  0.533900  0.699400  1.0  0.0558
  C  C173  1  0.452270  0.795270  0.412540  1.0  0.1838
  C  C174  1  0.464580  0.705380  0.374160  1.0  -0.2058
  C  C175  1  0.550780  0.690080  0.367960  1.0  0.1197
  C  C176  1  0.622720  0.767520  0.401640  1.0  -0.2111
  C  C177  1  0.605460  0.855060  0.438720  1.0  0.166
  C  C178  1  0.565610  0.592510  0.323820  1.0  -0.0446
  C  C179  1  0.451840  0.519240  0.143680  1.0  0.492
  C  C180  1  0.620710  0.571410  0.201820  1.0  0.4708
  C  C181  1  0.465610  0.503610  0.059820  1.0  -0.0963
  C  C182  1  0.394640  0.467240  0.963280  1.0  -0.0014
  C  C183  1  0.432980  0.464880  0.905160  1.0  -0.0972
  C  C184  1  0.716710  0.084610  0.617020  1.0  0.6262
  C  C185  1  0.810960  0.116160  0.710920  1.0  -0.0862
  C  C186  1  0.812170  0.169170  0.799340  1.0  -0.0702
  C  C187  1  0.899370  0.202970  0.886740  1.0  -0.1034
  C  C188  1  0.482600  0.033900  0.699400  1.0  0.0596
  C  C189  1  0.960270  0.117270  0.412540  1.0  0.1849
  C  C190  1  0.909580  0.168780  0.374160  1.0  -0.2048
  C  C191  1  0.817180  0.177880  0.367960  1.0  0.1205
  C  C192  1  0.778920  0.134120  0.401640  1.0  -0.2134
  C  C193  1  0.833260  0.083660  0.438720  1.0  0.1651
  C  C194  1  0.758210  0.231310  0.323820  1.0  -0.0433
  C  C195  1  0.691840  0.124440  0.143680  1.0  0.4948
  C  C196  1  0.581110  0.130410  0.201820  1.0  0.4736
  C  C197  1  0.594210  0.056210  0.059820  1.0  -0.097
  C  C198  1  0.568640  0.996040  0.963280  1.0  0.0003
  C  C199  1  0.472180  0.940280  0.905160  1.0  -0.0975
  C  C200  1  0.900310  0.032410  0.617020  1.0  0.6266
  C  C201  1  0.899960  0.094760  0.710920  1.0  -0.0854
  C  C202  1  0.987170  0.130170  0.799340  1.0  -0.0726
  C  C203  1  0.987370  0.183770  0.886740  1.0  -0.1069
  C  C204  1  0.216800  0.165500  0.699400  1.0  0.0587
  C  C205  1  0.547730  0.204730  0.587460  1.0  0.185
  C  C206  1  0.535420  0.294620  0.625840  1.0  -0.2069
  C  C207  1  0.449220  0.309920  0.632040  1.0  0.1194
  C  C208  1  0.377280  0.232480  0.598360  1.0  -0.2113
  C  C209  1  0.394540  0.144940  0.561280  1.0  0.1656
  C  C210  1  0.434390  0.407490  0.676180  1.0  -0.0443
  C  C211  1  0.548160  0.480760  0.856320  1.0  0.4928
  C  C212  1  0.379290  0.428590  0.798180  1.0  0.4723
  C  C213  1  0.534390  0.496390  0.940180  1.0  -0.0963
  C  C214  1  0.605360  0.532760  0.036720  1.0  -0.001
  C  C215  1  0.567020  0.535120  0.094840  1.0  -0.0966
  C  C216  1  0.283290  0.915390  0.382980  1.0  0.6253
  C  C217  1  0.189040  0.883840  0.289080  1.0  -0.0875
  C  C218  1  0.187830  0.830830  0.200660  1.0  -0.0701
  C  C219  1  0.100630  0.797030  0.113260  1.0  -0.1053
  C  C220  1  0.517400  0.966100  0.300600  1.0  0.0564
  C  C221  1  0.039730  0.882730  0.587460  1.0  0.1861
  C  C222  1  0.090420  0.831220  0.625840  1.0  -0.2039
  C  C223  1  0.182820  0.822120  0.632040  1.0  0.1216
  C  C224  1  0.221080  0.865880  0.598360  1.0  -0.2118
  C  C225  1  0.166740  0.916340  0.561280  1.0  0.1635
  C  C226  1  0.241790  0.768690  0.676180  1.0  -0.043
  C  C227  1  0.308160  0.875560  0.856320  1.0  0.4902
  C  C228  1  0.418890  0.869590  0.798180  1.0  0.4753
  C  C229  1  0.405790  0.943790  0.940180  1.0  -0.0973
  C  C230  1  0.431360  0.003960  0.036720  1.0  0.0002
  C  C231  1  0.527820  0.059720  0.094840  1.0  -0.0976
  C  C232  1  0.099690  0.967590  0.382980  1.0  0.6261
  C  C233  1  0.100040  0.905240  0.289080  1.0  -0.0872
  C  C234  1  0.012830  0.869830  0.200660  1.0  -0.0714
  C  C235  1  0.012630  0.816230  0.113260  1.0  -0.1078
  C  C236  1  0.783200  0.834500  0.300600  1.0  0.0564
  N  N237  1  0.978630  0.425930  0.555260  1.0  -0.3479
  N  N238  1  0.952940  0.333940  0.775280  1.0  -0.2281
  N  N239  1  0.576630  0.629330  0.555260  1.0  -0.3473
  N  N240  1  0.822340  0.941340  0.775280  1.0  -0.2294
  N  N241  1  0.021370  0.574070  0.444740  1.0  -0.3467
  N  N242  1  0.047060  0.666060  0.224720  1.0  -0.2291
  N  N243  1  0.423370  0.370670  0.444740  1.0  -0.3464
  N  N244  1  0.177660  0.058660  0.224720  1.0  -0.231
  N  N245  1  0.521370  0.870670  0.444740  1.0  -0.3466
  N  N246  1  0.547060  0.558660  0.224720  1.0  -0.2308
  N  N247  1  0.923370  0.074070  0.444740  1.0  -0.3453
  N  N248  1  0.677660  0.166060  0.224720  1.0  -0.2286
  N  N249  1  0.478630  0.129330  0.555260  1.0  -0.3473
  N  N250  1  0.452940  0.441340  0.775280  1.0  -0.2297
  N  N251  1  0.076630  0.925930  0.555260  1.0  -0.3467
  N  N252  1  0.322340  0.833940  0.775280  1.0  -0.2278
  O  O253  1  0.125080  0.358480  0.855960  1.0  -0.4388
  O  O254  1  0.791230  0.346730  0.740260  1.0  -0.417
  O  O255  1  0.862700  0.439550  0.390200  1.0  -0.591
  O  O256  1  0.779070  0.542900  0.445360  1.0  -0.5425
  O  O257  1  0.041320  0.362920  0.396640  1.0  -0.4945
  O  O258  1  0.730880  0.997480  0.855960  1.0  -0.4403
  O  O259  1  0.949030  0.893530  0.740260  1.0  -0.4187
  O  O260  1  0.527500  0.450650  0.390200  1.0  -0.5926
  O  O261  1  0.666290  0.402460  0.445360  1.0  -0.5427
  O  O262  1  0.355320  0.533720  0.396640  1.0  -0.4953
  O  O263  1  0.874920  0.641520  0.144040  1.0  -0.4387
  O  O264  1  0.208770  0.653270  0.259740  1.0  -0.4165
  O  O265  1  0.137300  0.560450  0.609800  1.0  -0.5919
  O  O266  1  0.220930  0.457100  0.554640  1.0  -0.541
  O  O267  1  0.958680  0.637080  0.603360  1.0  -0.4935
  O  O268  1  0.269120  0.002520  0.144040  1.0  -0.4416
  O  O269  1  0.050970  0.106470  0.259740  1.0  -0.4181
  O  O270  1  0.472500  0.549350  0.609800  1.0  -0.5912
  O  O271  1  0.333710  0.597540  0.554640  1.0  -0.5419
  O  O272  1  0.644680  0.466280  0.603360  1.0  -0.4938
  O  O273  1  0.374920  0.502520  0.144040  1.0  -0.4403
  O  O274  1  0.708770  0.606470  0.259740  1.0  -0.418
  O  O275  1  0.637300  0.049350  0.609800  1.0  -0.5916
  O  O276  1  0.720930  0.097540  0.554640  1.0  -0.5429
  O  O277  1  0.458680  0.966280  0.603360  1.0  -0.4958
  O  O278  1  0.769120  0.141520  0.144040  1.0  -0.4414
  O  O279  1  0.550970  0.153270  0.259740  1.0  -0.4162
  O  O280  1  0.972500  0.060450  0.609800  1.0  -0.5905
  O  O281  1  0.833710  0.957100  0.554640  1.0  -0.5423
  O  O282  1  0.144680  0.137080  0.603360  1.0  -0.4955
  O  O283  1  0.625080  0.497480  0.855960  1.0  -0.4398
  O  O284  1  0.291230  0.393530  0.740260  1.0  -0.4183
  O  O285  1  0.362700  0.950650  0.390200  1.0  -0.5913
  O  O286  1  0.279070  0.902460  0.445360  1.0  -0.5418
  O  O287  1  0.541320  0.033720  0.396640  1.0  -0.4953
  O  O288  1  0.230880  0.858480  0.855960  1.0  -0.4407
  O  O289  1  0.449030  0.846730  0.740260  1.0  -0.417
  O  O290  1  0.027500  0.939550  0.390200  1.0  -0.5914
  O  O291  1  0.166290  0.042900  0.445360  1.0  -0.5437
  O  O292  1  0.855320  0.862920  0.396640  1.0  -0.4936
