# generated using pymatgen
data_CuH18C30(NO2)4
_symmetry_space_group_name_H-M   'P 1'
_cell_length_a   15.28410000
_cell_length_b   16.72790000
_cell_length_c   17.83740000
_cell_angle_alpha   117.96300000
_cell_angle_beta   115.36800000
_cell_angle_gamma   90.00000000
_symmetry_Int_Tables_number   1
_chemical_formula_structural   CuH18C30(NO2)4
_chemical_formula_sum   'Cu4 H72 C120 N16 O32'
_cell_volume   3522.46569798
_cell_formula_units_Z   4
loop_
 _symmetry_equiv_pos_site_id
 _symmetry_equiv_pos_as_xyz
  1  'x, y, z'
loop_
 _atom_site_type_symbol
 _atom_site_label
 _atom_site_symmetry_multiplicity
 _atom_site_fract_x
 _atom_site_fract_y
 _atom_site_fract_z
 _atom_site_occupancy
 _atom_site_charge
  Cu  Cu1  1  0.500000  0.000000  0.500000  1.0  0.6641
  Cu  Cu2  1  0.000000  0.000000  0.500000  1.0  0.6641
  Cu  Cu3  1  0.000000  0.500000  0.500000  1.0  0.6641
  Cu  Cu4  1  0.500000  0.500000  0.500000  1.0  0.6641
  H  H5  1  0.607100  0.889600  0.584000  1.0  0.0875
  H  H6  1  0.584700  0.801100  0.647200  1.0  0.1311
  H  H7  1  0.316700  0.861000  0.601600  1.0  0.133
  H  H8  1  0.345800  0.946200  0.538000  1.0  0.0861
  H  H9  1  0.480200  0.728300  0.678200  1.0  0.1168
  H  H10  1  0.364600  0.730300  0.636800  1.0  0.1099
  H  H11  1  0.325400  0.992700  0.939000  1.0  0.112
  H  H12  1  0.248800  0.882600  0.201600  1.0  0.1133
  H  H13  1  0.101000  0.794200  0.054600  1.0  0.1162
  H  H14  1  0.976900  0.194400  0.584000  1.0  0.0874
  H  H15  1  0.062500  0.346100  0.647200  1.0  0.1301
  H  H16  1  0.284900  0.240600  0.601600  1.0  0.1339
  H  H17  1  0.192200  0.091800  0.538000  1.0  0.0856
  H  H18  1  0.198000  0.449900  0.678200  1.0  0.1171
  H  H19  1  0.272200  0.406500  0.636800  1.0  0.1094
  H  H20  1  0.613600  0.446300  0.939000  1.0  0.1111
  H  H21  1  0.952800  0.819000  0.201600  1.0  0.1123
  H  H22  1  0.953600  0.760400  0.054600  1.0  0.1156
  H  H23  1  0.392900  0.110400  0.416000  1.0  0.0876
  H  H24  1  0.415300  0.198900  0.352800  1.0  0.1303
  H  H25  1  0.683300  0.139000  0.398400  1.0  0.1339
  H  H26  1  0.654200  0.053800  0.462000  1.0  0.0862
  H  H27  1  0.519800  0.271700  0.321800  1.0  0.1175
  H  H28  1  0.635400  0.269700  0.363200  1.0  0.1093
  H  H29  1  0.674600  0.007300  0.061000  1.0  0.1119
  H  H30  1  0.751200  0.117400  0.798400  1.0  0.1136
  H  H31  1  0.899000  0.205800  0.945400  1.0  0.1161
  H  H32  1  0.023100  0.805600  0.416000  1.0  0.0871
  H  H33  1  0.937500  0.653900  0.352800  1.0  0.1307
  H  H34  1  0.715100  0.759400  0.398400  1.0  0.1338
  H  H35  1  0.807800  0.908200  0.462000  1.0  0.0853
  H  H36  1  0.802000  0.550100  0.321800  1.0  0.1159
  H  H37  1  0.727800  0.593500  0.363200  1.0  0.1097
  H  H38  1  0.386400  0.553700  0.061000  1.0  0.1099
  H  H39  1  0.047200  0.181000  0.798400  1.0  0.112
  H  H40  1  0.046400  0.239600  0.945400  1.0  0.1161
  H  H41  1  0.892900  0.305600  0.416000  1.0  0.0874
  H  H42  1  0.915300  0.153900  0.352800  1.0  0.1298
  H  H43  1  0.183300  0.259400  0.398400  1.0  0.1348
  H  H44  1  0.154200  0.408200  0.462000  1.0  0.0856
  H  H45  1  0.019800  0.050100  0.321800  1.0  0.1172
  H  H46  1  0.135400  0.093500  0.363200  1.0  0.1106
  H  H47  1  0.174600  0.053700  0.061000  1.0  0.1113
  H  H48  1  0.251200  0.681000  0.798400  1.0  0.1148
  H  H49  1  0.399000  0.739600  0.945400  1.0  0.1174
  H  H50  1  0.523100  0.610400  0.416000  1.0  0.0875
  H  H51  1  0.437500  0.698900  0.352800  1.0  0.1298
  H  H52  1  0.215100  0.639000  0.398400  1.0  0.1329
  H  H53  1  0.307800  0.553800  0.462000  1.0  0.0847
  H  H54  1  0.302000  0.771700  0.321800  1.0  0.1166
  H  H55  1  0.227800  0.769700  0.363200  1.0  0.1095
  H  H56  1  0.886400  0.507300  0.061000  1.0  0.1122
  H  H57  1  0.547200  0.617400  0.798400  1.0  0.1122
  H  H58  1  0.546400  0.705800  0.945400  1.0  0.1147
  H  H59  1  0.107100  0.694400  0.584000  1.0  0.0872
  H  H60  1  0.084700  0.846100  0.647200  1.0  0.1307
  H  H61  1  0.816700  0.740600  0.601600  1.0  0.1346
  H  H62  1  0.845800  0.591800  0.538000  1.0  0.0858
  H  H63  1  0.980200  0.949900  0.678200  1.0  0.1169
  H  H64  1  0.864600  0.906500  0.636800  1.0  0.11
  H  H65  1  0.825400  0.946300  0.939000  1.0  0.1108
  H  H66  1  0.748800  0.319000  0.201600  1.0  0.1135
  H  H67  1  0.601000  0.260400  0.054600  1.0  0.117
  H  H68  1  0.476900  0.389600  0.584000  1.0  0.0875
  H  H69  1  0.562500  0.301100  0.647200  1.0  0.1297
  H  H70  1  0.784900  0.361000  0.601600  1.0  0.1339
  H  H71  1  0.692200  0.446200  0.538000  1.0  0.0849
  H  H72  1  0.698000  0.228300  0.678200  1.0  0.1168
  H  H73  1  0.772200  0.230300  0.636800  1.0  0.1089
  H  H74  1  0.113600  0.492700  0.939000  1.0  0.1128
  H  H75  1  0.452800  0.382600  0.201600  1.0  0.1133
  H  H76  1  0.453600  0.294200  0.054600  1.0  0.1156
  C  C77  1  0.547390  0.883490  0.587580  1.0  0.1579
  C  C78  1  0.534960  0.831060  0.626120  1.0  -0.189
  C  C79  1  0.449270  0.823670  0.632940  1.0  0.0938
  C  C80  1  0.377200  0.866200  0.599000  1.0  -0.2165
  C  C81  1  0.395070  0.916770  0.560940  1.0  0.1911
  C  C82  1  0.434060  0.769760  0.676920  1.0  -0.0483
  C  C83  1  0.379510  0.870110  0.798820  1.0  0.4581
  C  C84  1  0.433590  0.940490  0.905980  1.0  -0.0852
  C  C85  1  0.534550  0.943650  0.939700  1.0  -0.0854
  C  C86  1  0.547630  0.875930  0.856260  1.0  0.5053
  C  C87  1  0.394810  0.995710  0.963420  1.0  0.0043
  C  C88  1  0.282370  0.967470  0.382540  1.0  0.6993
  C  C89  1  0.189810  0.905210  0.290420  1.0  -0.0813
  C  C90  1  0.188560  0.870060  0.202120  1.0  -0.063
  C  C91  1  0.100600  0.816800  0.114200  1.0  -0.0978
  C  C92  1  0.040190  0.204090  0.587580  1.0  0.1595
  C  C93  1  0.091160  0.295060  0.626120  1.0  -0.1855
  C  C94  1  0.183670  0.309270  0.632940  1.0  0.0924
  C  C95  1  0.221800  0.232800  0.599000  1.0  -0.2142
  C  C96  1  0.165870  0.144170  0.560940  1.0  0.1911
  C  C97  1  0.242860  0.407160  0.676920  1.0  -0.0476
  C  C98  1  0.419310  0.428710  0.798820  1.0  0.4569
  C  C99  1  0.472390  0.465490  0.905980  1.0  -0.0852
  C  C100  1  0.405150  0.496050  0.939700  1.0  -0.0876
  C  C101  1  0.308630  0.480330  0.856260  1.0  0.5067
  C  C102  1  0.568610  0.467710  0.963420  1.0  0.0045
  C  C103  1  0.100170  0.915070  0.382540  1.0  0.6906
  C  C104  1  0.100610  0.885210  0.290420  1.0  -0.0822
  C  C105  1  0.013560  0.832060  0.202120  1.0  -0.0686
  C  C106  1  0.013600  0.797400  0.114200  1.0  -0.1057
  C  C107  1  0.452610  0.116510  0.412420  1.0  0.1589
  C  C108  1  0.465040  0.168940  0.373880  1.0  -0.1864
  C  C109  1  0.550730  0.176330  0.367060  1.0  0.0929
  C  C110  1  0.622800  0.133800  0.401000  1.0  -0.2172
  C  C111  1  0.604930  0.083230  0.439060  1.0  0.1903
  C  C112  1  0.565940  0.230240  0.323080  1.0  -0.0483
  C  C113  1  0.620490  0.129890  0.201180  1.0  0.4542
  C  C114  1  0.566410  0.059510  0.094020  1.0  -0.0844
  C  C115  1  0.465450  0.056350  0.060300  1.0  -0.0867
  C  C116  1  0.452370  0.124070  0.143740  1.0  0.5115
  C  C117  1  0.605190  0.004290  0.036580  1.0  0.003
  C  C118  1  0.717630  0.032530  0.617460  1.0  0.6988
  C  C119  1  0.810190  0.094790  0.709580  1.0  -0.0814
  C  C120  1  0.811440  0.129940  0.797880  1.0  -0.0621
  C  C121  1  0.899400  0.183200  0.885800  1.0  -0.0964
  C  C122  1  0.959810  0.795910  0.412420  1.0  0.1587
  C  C123  1  0.908840  0.704940  0.373880  1.0  -0.188
  C  C124  1  0.816330  0.690730  0.367060  1.0  0.0913
  C  C125  1  0.778200  0.767200  0.401000  1.0  -0.2128
  C  C126  1  0.834130  0.855830  0.439060  1.0  0.1918
  C  C127  1  0.757140  0.592840  0.323080  1.0  -0.0482
  C  C128  1  0.580690  0.571290  0.201180  1.0  0.4585
  C  C129  1  0.527610  0.534510  0.094020  1.0  -0.0853
  C  C130  1  0.594850  0.503950  0.060300  1.0  -0.086
  C  C131  1  0.691370  0.519670  0.143740  1.0  0.5125
  C  C132  1  0.431390  0.532290  0.036580  1.0  0.0036
  C  C133  1  0.899830  0.084930  0.617460  1.0  0.6988
  C  C134  1  0.899390  0.114790  0.709580  1.0  -0.0816
  C  C135  1  0.986440  0.167940  0.797880  1.0  -0.0709
  C  C136  1  0.986400  0.202600  0.885800  1.0  -0.1028
  C  C137  1  0.952610  0.295910  0.412420  1.0  0.1578
  C  C138  1  0.965040  0.204940  0.373880  1.0  -0.1851
  C  C139  1  0.050730  0.190730  0.367060  1.0  0.0939
  C  C140  1  0.122800  0.267200  0.401000  1.0  -0.2132
  C  C141  1  0.104930  0.355830  0.439060  1.0  0.1935
  C  C142  1  0.065940  0.092840  0.323080  1.0  -0.0494
  C  C143  1  0.120490  0.071290  0.201180  1.0  0.4549
  C  C144  1  0.066410  0.034510  0.094020  1.0  -0.0856
  C  C145  1  0.965450  0.003950  0.060300  1.0  -0.0856
  C  C146  1  0.952370  0.019670  0.143740  1.0  0.5064
  C  C147  1  0.105190  0.032290  0.036580  1.0  0.0036
  C  C148  1  0.217630  0.584930  0.617460  1.0  0.6974
  C  C149  1  0.310190  0.614790  0.709580  1.0  -0.0818
  C  C150  1  0.311440  0.667940  0.797880  1.0  -0.0629
  C  C151  1  0.399400  0.702600  0.885800  1.0  -0.0955
  C  C152  1  0.459810  0.616510  0.412420  1.0  0.1564
  C  C153  1  0.408840  0.668940  0.373880  1.0  -0.1881
  C  C154  1  0.316330  0.676330  0.367060  1.0  0.0953
  C  C155  1  0.278200  0.633800  0.401000  1.0  -0.2148
  C  C156  1  0.334130  0.583230  0.439060  1.0  0.1889
  C  C157  1  0.257140  0.730240  0.323080  1.0  -0.0483
  C  C158  1  0.080690  0.629890  0.201180  1.0  0.4569
  C  C159  1  0.027610  0.559510  0.094020  1.0  -0.0877
  C  C160  1  0.094850  0.556350  0.060300  1.0  -0.0866
  C  C161  1  0.191370  0.624070  0.143740  1.0  0.5086
  C  C162  1  0.931390  0.504290  0.036580  1.0  0.0028
  C  C163  1  0.399830  0.532530  0.617460  1.0  0.6928
  C  C164  1  0.399390  0.594790  0.709580  1.0  -0.0827
  C  C165  1  0.486440  0.629940  0.797880  1.0  -0.0704
  C  C166  1  0.486400  0.683200  0.885800  1.0  -0.102
  C  C167  1  0.047390  0.704090  0.587580  1.0  0.1578
  C  C168  1  0.034960  0.795060  0.626120  1.0  -0.1864
  C  C169  1  0.949270  0.809270  0.632940  1.0  0.0956
  C  C170  1  0.877200  0.732800  0.599000  1.0  -0.215
  C  C171  1  0.895070  0.644170  0.560940  1.0  0.1922
  C  C172  1  0.934060  0.907160  0.676920  1.0  -0.0483
  C  C173  1  0.879510  0.928710  0.798820  1.0  0.4566
  C  C174  1  0.933590  0.965490  0.905980  1.0  -0.0858
  C  C175  1  0.034550  0.996050  0.939700  1.0  -0.0856
  C  C176  1  0.047630  0.980330  0.856260  1.0  0.5076
  C  C177  1  0.894810  0.967710  0.963420  1.0  0.0032
  C  C178  1  0.782370  0.415070  0.382540  1.0  0.6977
  C  C179  1  0.689810  0.385210  0.290420  1.0  -0.0815
  C  C180  1  0.688560  0.332060  0.202120  1.0  -0.0644
  C  C181  1  0.600600  0.297400  0.114200  1.0  -0.0992
  C  C182  1  0.540190  0.383490  0.587580  1.0  0.1565
  C  C183  1  0.591160  0.331060  0.626120  1.0  -0.1867
  C  C184  1  0.683670  0.323670  0.632940  1.0  0.0957
  C  C185  1  0.721800  0.366200  0.599000  1.0  -0.2156
  C  C186  1  0.665870  0.416770  0.560940  1.0  0.1881
  C  C187  1  0.742860  0.269760  0.676920  1.0  -0.0482
  C  C188  1  0.919310  0.370110  0.798820  1.0  0.4583
  C  C189  1  0.972390  0.440490  0.905980  1.0  -0.087
  C  C190  1  0.905150  0.443650  0.939700  1.0  -0.0875
  C  C191  1  0.808630  0.375930  0.856260  1.0  0.5101
  C  C192  1  0.068610  0.495710  0.963420  1.0  0.0028
  C  C193  1  0.600170  0.467470  0.382540  1.0  0.6987
  C  C194  1  0.600610  0.405210  0.290420  1.0  -0.0834
  C  C195  1  0.513560  0.370060  0.202120  1.0  -0.0672
  C  C196  1  0.513600  0.316800  0.114200  1.0  -0.1041
  N  N197  1  0.478130  0.925430  0.555460  1.0  -0.2999
  N  N198  1  0.452950  0.834950  0.775700  1.0  -0.179
  N  N199  1  0.077330  0.130030  0.555460  1.0  -0.2997
  N  N200  1  0.322750  0.440750  0.775700  1.0  -0.18
  N  N201  1  0.521870  0.074570  0.444540  1.0  -0.301
  N  N202  1  0.547050  0.165050  0.224300  1.0  -0.181
  N  N203  1  0.922670  0.869970  0.444540  1.0  -0.3007
  N  N204  1  0.677250  0.559250  0.224300  1.0  -0.182
  N  N205  1  0.021870  0.369970  0.444540  1.0  -0.2971
  N  N206  1  0.047050  0.059250  0.224300  1.0  -0.181
  N  N207  1  0.422670  0.574570  0.444540  1.0  -0.2948
  N  N208  1  0.177250  0.665050  0.224300  1.0  -0.18
  N  N209  1  0.978130  0.630030  0.555460  1.0  -0.2964
  N  N210  1  0.952950  0.940750  0.775700  1.0  -0.1792
  N  N211  1  0.577330  0.425430  0.555460  1.0  -0.298
  N  N212  1  0.822750  0.334950  0.775700  1.0  -0.1788
  O  O213  1  0.624700  0.858800  0.855600  1.0  -0.4773
  O  O214  1  0.291410  0.847610  0.742020  1.0  -0.4388
  O  O215  1  0.362320  0.939320  0.390240  1.0  -0.6076
  O  O216  1  0.279450  0.042350  0.445100  1.0  -0.5704
  O  O217  1  0.230900  0.496800  0.855600  1.0  -0.4797
  O  O218  1  0.450610  0.394410  0.742020  1.0  -0.4395
  O  O219  1  0.027920  0.950920  0.390240  1.0  -0.6069
  O  O220  1  0.165650  0.902750  0.445100  1.0  -0.5711
  O  O221  1  0.375300  0.141200  0.144400  1.0  -0.4777
  O  O222  1  0.708590  0.152390  0.257980  1.0  -0.437
  O  O223  1  0.637680  0.060680  0.609760  1.0  -0.6077
  O  O224  1  0.720550  0.957650  0.554900  1.0  -0.5716
  O  O225  1  0.769100  0.503200  0.144400  1.0  -0.4814
  O  O226  1  0.549390  0.605590  0.257980  1.0  -0.4391
  O  O227  1  0.972080  0.049080  0.609760  1.0  -0.607
  O  O228  1  0.834350  0.097250  0.554900  1.0  -0.5715
  O  O229  1  0.875300  0.003200  0.144400  1.0  -0.4787
  O  O230  1  0.208590  0.105590  0.257980  1.0  -0.4382
  O  O231  1  0.137680  0.549080  0.609760  1.0  -0.6064
  O  O232  1  0.220550  0.597250  0.554900  1.0  -0.572
  O  O233  1  0.269100  0.641200  0.144400  1.0  -0.4797
  O  O234  1  0.049390  0.652390  0.257980  1.0  -0.4348
  O  O235  1  0.472080  0.560680  0.609760  1.0  -0.6078
  O  O236  1  0.334350  0.457650  0.554900  1.0  -0.5696
  O  O237  1  0.124700  0.996800  0.855600  1.0  -0.4782
  O  O238  1  0.791410  0.894410  0.742020  1.0  -0.4384
  O  O239  1  0.862320  0.450920  0.390240  1.0  -0.6079
  O  O240  1  0.779450  0.402750  0.445100  1.0  -0.5719
  O  O241  1  0.730900  0.358800  0.855600  1.0  -0.4786
  O  O242  1  0.950610  0.347610  0.742020  1.0  -0.4375
  O  O243  1  0.527920  0.439320  0.390240  1.0  -0.6068
  O  O244  1  0.665650  0.542350  0.445100  1.0  -0.5703
