# generated using pymatgen
data_EuH31(C18O5)2
_symmetry_space_group_name_H-M   'P 1'
_cell_length_a   9.38240000
_cell_length_b   13.61130000
_cell_length_c   18.27010000
_cell_angle_alpha   74.73190000
_cell_angle_beta   86.38240000
_cell_angle_gamma   88.51070000
_symmetry_Int_Tables_number   1
_chemical_formula_structural   EuH31(C18O5)2
_chemical_formula_sum   'Eu2 H62 C72 O20'
_cell_volume   2246.26922439
_cell_formula_units_Z   2
loop_
 _symmetry_equiv_pos_site_id
 _symmetry_equiv_pos_as_xyz
  1  'x, y, z'
loop_
 _atom_site_type_symbol
 _atom_site_label
 _atom_site_symmetry_multiplicity
 _atom_site_fract_x
 _atom_site_fract_y
 _atom_site_fract_z
 _atom_site_occupancy
 _atom_site_charge
  Eu  Eu1  1  0.223050  0.032010  0.997120  1.0  2.1623
  Eu  Eu2  1  0.776950  0.967990  0.002880  1.0  2.1617
  H  H3  1  0.336600  0.809500  0.029800  1.0  0.4691
  H  H4  1  0.759900  0.021800  0.185600  1.0  0.099
  H  H5  1  0.674200  0.031600  0.305500  1.0  0.0931
  H  H6  1  0.988500  0.230300  0.306700  1.0  0.0955
  H  H7  1  0.078100  0.214200  0.189100  1.0  0.1093
  H  H8  1  0.507300  0.121600  0.522200  1.0  0.0996
  H  H9  1  0.980300  0.123100  0.432700  1.0  0.0964
  H  H10  1  0.499700  0.197600  0.624500  1.0  0.1119
  H  H11  1  0.416700  0.161000  0.750100  1.0  0.0964
  H  H12  1  0.732800  0.952700  0.807900  1.0  0.1078
  H  H13  1  0.814400  0.986500  0.680700  1.0  0.0944
  H  H14  1  0.011800  0.045900  0.599500  1.0  0.0605
  H  H15  1  0.946200  0.146100  0.620000  1.0  0.0678
  H  H16  1  0.281200  0.221000  0.540800  1.0  0.0912
  H  H17  1  0.189600  0.187600  0.620000  1.0  0.0797
  H  H18  1  0.255300  0.102800  0.581000  1.0  0.0865
  H  H19  1  0.462500  0.087500  0.378400  1.0  0.0731
  H  H20  1  0.544800  0.183000  0.322800  1.0  0.0694
  H  H21  1  0.217500  0.271700  0.383800  1.0  0.0905
  H  H22  1  0.301600  0.256700  0.308500  1.0  0.0957
  H  H23  1  0.241000  0.159900  0.372100  1.0  0.0825
  H  H24  1  0.187400  0.265300  0.795200  1.0  0.1034
  H  H25  1  0.197300  0.381000  0.675800  1.0  0.1093
  H  H26  1  0.783700  0.324000  0.652900  1.0  0.1086
  H  H27  1  0.775700  0.205800  0.771400  1.0  0.0992
  H  H28  1  0.910200  0.335900  0.525300  1.0  0.1032
  H  H29  1  0.055000  0.545900  0.670100  1.0  0.0822
  H  H30  1  0.075300  0.654100  0.608800  1.0  0.0842
  H  H31  1  0.407600  0.571600  0.688400  1.0  0.1128
  H  H32  1  0.306200  0.670300  0.674600  1.0  0.0851
  H  H33  1  0.252400  0.565200  0.731000  1.0  0.0997
  H  H34  1  0.663400  0.190500  0.970200  1.0  0.4692
  H  H35  1  0.240100  0.978200  0.814400  1.0  0.0989
  H  H36  1  0.325800  0.968400  0.694500  1.0  0.0933
  H  H37  1  0.011500  0.769700  0.693300  1.0  0.0958
  H  H38  1  0.921900  0.785800  0.810900  1.0  0.1077
  H  H39  1  0.492700  0.878400  0.477800  1.0  0.0994
  H  H40  1  0.019700  0.876900  0.567300  1.0  0.0962
  H  H41  1  0.500300  0.802400  0.375500  1.0  0.1105
  H  H42  1  0.583300  0.839000  0.249900  1.0  0.0964
  H  H43  1  0.267200  0.047300  0.192100  1.0  0.107
  H  H44  1  0.185600  0.013500  0.319300  1.0  0.0935
  H  H45  1  0.988200  0.954100  0.400500  1.0  0.06
  H  H46  1  0.053800  0.853900  0.380000  1.0  0.0676
  H  H47  1  0.718800  0.779000  0.459200  1.0  0.0913
  H  H48  1  0.810400  0.812400  0.380000  1.0  0.0804
  H  H49  1  0.744700  0.897200  0.419000  1.0  0.086
  H  H50  1  0.537500  0.912500  0.621600  1.0  0.0713
  H  H51  1  0.455200  0.817000  0.677200  1.0  0.0698
  H  H52  1  0.782500  0.728300  0.616200  1.0  0.0892
  H  H53  1  0.698400  0.743300  0.691500  1.0  0.0937
  H  H54  1  0.759000  0.840100  0.627900  1.0  0.0819
  H  H55  1  0.812600  0.734700  0.204800  1.0  0.1022
  H  H56  1  0.802700  0.619000  0.324200  1.0  0.1074
  H  H57  1  0.216300  0.676000  0.347100  1.0  0.109
  H  H58  1  0.224300  0.794200  0.228600  1.0  0.0987
  H  H59  1  0.089800  0.664100  0.474700  1.0  0.1032
  H  H60  1  0.945000  0.454100  0.329900  1.0  0.0824
  H  H61  1  0.924700  0.345900  0.391200  1.0  0.0861
  H  H62  1  0.592400  0.428400  0.311600  1.0  0.1128
  H  H63  1  0.693800  0.329700  0.325400  1.0  0.091
  H  H64  1  0.747600  0.434800  0.269000  1.0  0.0983
  C  C65  1  0.990400  0.101700  0.101700  1.0  0.727
  C  C66  1  0.928200  0.116400  0.176000  1.0  -0.1392
  C  C67  1  0.807600  0.063000  0.210800  1.0  -0.0234
  C  C68  1  0.756200  0.069300  0.282000  1.0  -0.1468
  C  C69  1  0.823900  0.131100  0.320200  1.0  0.0274
  C  C70  1  0.942900  0.186200  0.283100  1.0  -0.1775
  C  C71  1  0.995200  0.177700  0.212600  1.0  -0.0431
  C  C72  1  0.778500  0.130200  0.400300  1.0  0.004
  C  C73  1  0.633500  0.133200  0.427200  1.0  0.0182
  C  C74  1  0.604400  0.121900  0.504000  1.0  -0.1569
  C  C75  1  0.710700  0.110700  0.556700  1.0  0.0015
  C  C76  1  0.853700  0.114700  0.529400  1.0  0.0391
  C  C77  1  0.883300  0.122800  0.451100  1.0  -0.1405
  C  C78  1  0.664700  0.094200  0.638300  1.0  0.0442
  C  C79  1  0.546600  0.146700  0.661300  1.0  -0.1544
  C  C80  1  0.498000  0.125400  0.736100  1.0  -0.0751
  C  C81  1  0.565400  0.053000  0.791600  1.0  -0.1084
  C  C82  1  0.684500  0.001800  0.770400  1.0  -0.0635
  C  C83  1  0.733100  0.022200  0.694500  1.0  -0.1216
  C  C84  1  0.510200  0.028000  0.873900  1.0  0.7297
  C  C85  1  0.977100  0.116200  0.577700  1.0  0.0145
  C  C86  1  0.212900  0.171300  0.571500  1.0  -0.0156
  C  C87  1  0.509800  0.152500  0.376000  1.0  -0.0092
  C  C88  1  0.283400  0.227300  0.363200  1.0  -0.0189
  C  C89  1  0.976800  0.150400  0.873200  1.0  0.7179
  C  C90  1  0.980200  0.225200  0.795700  1.0  -0.1406
  C  C91  1  0.105000  0.277200  0.766300  1.0  -0.0218
  C  C92  1  0.110900  0.346200  0.695400  1.0  -0.1451
  C  C93  1  0.989700  0.364800  0.652700  1.0  0.0803
  C  C94  1  0.866300  0.312200  0.681700  1.0  -0.1078
  C  C95  1  0.861100  0.242200  0.752500  1.0  -0.0323
  C  C96  1  0.946300  0.403000  0.515100  1.0  -0.134
  C  C97  1  0.995300  0.436700  0.574700  1.0  0.0248
  C  C98  1  0.051000  0.535200  0.558600  1.0  0.0246
  C  C99  1  0.101100  0.580900  0.620100  1.0  0.0284
  C  C100  1  0.308500  0.596100  0.683900  1.0  -0.0379
  C  C101  1  0.009600  0.898300  0.898300  1.0  0.7287
  C  C102  1  0.071800  0.883600  0.824000  1.0  -0.1393
  C  C103  1  0.192400  0.937000  0.789200  1.0  -0.0236
  C  C104  1  0.243800  0.930700  0.718000  1.0  -0.1476
  C  C105  1  0.176100  0.868900  0.679800  1.0  0.0268
  C  C106  1  0.057100  0.813800  0.716900  1.0  -0.1763
  C  C107  1  0.004800  0.822300  0.787400  1.0  -0.0457
  C  C108  1  0.221500  0.869800  0.599700  1.0  0.0052
  C  C109  1  0.366500  0.866800  0.572800  1.0  0.0193
  C  C110  1  0.395600  0.878100  0.496000  1.0  -0.1561
  C  C111  1  0.289300  0.889300  0.443300  1.0  0.0018
  C  C112  1  0.146300  0.885300  0.470600  1.0  0.0394
  C  C113  1  0.116700  0.877200  0.548900  1.0  -0.1401
  C  C114  1  0.335300  0.905800  0.361700  1.0  0.0437
  C  C115  1  0.453400  0.853300  0.338700  1.0  -0.1535
  C  C116  1  0.502000  0.874600  0.263900  1.0  -0.0772
  C  C117  1  0.434600  0.947000  0.208400  1.0  -0.105
  C  C118  1  0.315500  0.998200  0.229600  1.0  -0.0629
  C  C119  1  0.266900  0.977800  0.305500  1.0  -0.1218
  C  C120  1  0.489800  0.972000  0.126100  1.0  0.7296
  C  C121  1  0.022900  0.883800  0.422300  1.0  0.0179
  C  C122  1  0.787100  0.828700  0.428500  1.0  -0.0168
  C  C123  1  0.490200  0.847500  0.624000  1.0  -0.0079
  C  C124  1  0.716600  0.772700  0.636800  1.0  -0.0189
  C  C125  1  0.023200  0.849600  0.126800  1.0  0.7183
  C  C126  1  0.019800  0.774800  0.204300  1.0  -0.1391
  C  C127  1  0.895000  0.722800  0.233700  1.0  -0.0221
  C  C128  1  0.889100  0.653800  0.304600  1.0  -0.1444
  C  C129  1  0.010300  0.635200  0.347300  1.0  0.0816
  C  C130  1  0.133700  0.687800  0.318300  1.0  -0.1094
  C  C131  1  0.138900  0.757800  0.247500  1.0  -0.031
  C  C132  1  0.053700  0.597000  0.484900  1.0  -0.1331
  C  C133  1  0.004700  0.563300  0.425300  1.0  0.024
  C  C134  1  0.949000  0.464800  0.441400  1.0  0.0239
  C  C135  1  0.898900  0.419100  0.379900  1.0  0.0274
  C  C136  1  0.691500  0.403900  0.316100  1.0  -0.0364
  O  O137  1  0.117600  0.128700  0.082100  1.0  -0.6498
  O  O138  1  0.915700  0.060200  0.063500  1.0  -0.8072
  O  O139  1  0.413800  0.218100  0.399700  1.0  -0.2817
  O  O140  1  0.087200  0.174800  0.532200  1.0  -0.2724
  O  O141  1  0.389700  0.060600  0.888800  1.0  -0.701
  O  O142  1  0.588200  0.974200  0.921900  1.0  -0.7364
  O  O143  1  0.866900  0.096600  0.894500  1.0  -0.7132
  O  O144  1  0.083400  0.148700  0.911200  1.0  -0.7436
  O  O145  1  0.249000  0.568400  0.621600  1.0  -0.2818
  O  O146  1  0.352100  0.869400  0.002000  1.0  -0.7019
  O  O147  1  0.882400  0.871300  0.917900  1.0  -0.6494
  O  O148  1  0.084300  0.939800  0.936500  1.0  -0.8055
  O  O149  1  0.586200  0.781900  0.600300  1.0  -0.2809
  O  O150  1  0.912800  0.825200  0.467800  1.0  -0.2737
  O  O151  1  0.610300  0.939400  0.111200  1.0  -0.7008
  O  O152  1  0.411800  0.025800  0.078100  1.0  -0.7348
  O  O153  1  0.133100  0.903400  0.105500  1.0  -0.7119
  O  O154  1  0.916600  0.851300  0.088800  1.0  -0.747
  O  O155  1  0.751000  0.431600  0.378400  1.0  -0.2848
  O  O156  1  0.647900  0.130600  0.998000  1.0  -0.7013
