# generated using pymatgen
data_CdH36C48(N2O)6
_symmetry_space_group_name_H-M   'P 1'
_cell_length_a   21.43930000
_cell_length_b   21.43930000
_cell_length_c   21.43930000
_cell_angle_alpha   109.47100000
_cell_angle_beta   109.47100000
_cell_angle_gamma   109.47100000
_symmetry_Int_Tables_number   1
_chemical_formula_structural   CdH36C48(N2O)6
_chemical_formula_sum   'Cd4 H144 C192 N48 O24'
_cell_volume   7586.01087664
_cell_formula_units_Z   4
loop_
 _symmetry_equiv_pos_site_id
 _symmetry_equiv_pos_as_xyz
  1  'x, y, z'
loop_
 _atom_site_type_symbol
 _atom_site_label
 _atom_site_symmetry_multiplicity
 _atom_site_fract_x
 _atom_site_fract_y
 _atom_site_fract_z
 _atom_site_occupancy
 _atom_site_charge
  Cd  Cd1  1  0.000000  0.000000  0.000000  1.0  0.7216
  Cd  Cd2  1  0.500000  0.000000  0.500000  1.0  0.7216
  Cd  Cd3  1  0.000000  0.500000  0.500000  1.0  0.7216
  Cd  Cd4  1  0.500000  0.500000  0.000000  1.0  0.7216
  H  H5  1  0.916400  0.840400  0.998000  1.0  0.0645
  H  H6  1  0.863700  0.782600  0.054500  1.0  0.122
  H  H7  1  0.894400  0.987600  0.185000  1.0  0.1146
  H  H8  1  0.940000  0.032800  0.119800  1.0  0.063
  H  H9  1  0.835700  0.713000  0.236900  1.0  0.1029
  H  H10  1  0.838400  0.885300  0.202500  1.0  0.2581
  H  H11  1  0.342400  0.918400  0.502000  1.0  0.0635
  H  H12  1  0.228100  0.809200  0.445500  1.0  0.122
  H  H13  1  0.302600  0.709400  0.315000  1.0  0.1147
  H  H14  1  0.413000  0.820200  0.380200  1.0  0.0612
  H  H15  1  0.976100  0.598800  0.263100  1.0  0.1021
  H  H16  1  0.182800  0.635900  0.297500  1.0  0.2608
  H  H17  1  0.157600  0.659600  0.576000  1.0  0.0651
  H  H18  1  0.271900  0.717400  0.581100  1.0  0.1241
  H  H19  1  0.197400  0.512400  0.406800  1.0  0.1151
  H  H20  1  0.087000  0.467200  0.407200  1.0  0.0655
  H  H21  1  0.523900  0.787000  0.622700  1.0  0.1014
  H  H22  1  0.317200  0.614700  0.453100  1.0  0.2602
  H  H23  1  0.583600  0.581600  0.924000  1.0  0.0653
  H  H24  1  0.636300  0.690800  0.918900  1.0  0.1241
  H  H25  1  0.605600  0.790600  0.093200  1.0  0.1158
  H  H26  1  0.560000  0.679800  0.092800  1.0  0.0626
  H  H27  1  0.664300  0.901200  0.877300  1.0  0.1026
  H  H28  1  0.661600  0.864100  0.046900  1.0  0.2562
  H  H29  1  0.076000  0.157600  0.159600  1.0  0.0642
  H  H30  1  0.081100  0.271900  0.217400  1.0  0.1224
  H  H31  1  0.906800  0.197400  0.012400  1.0  0.1153
  H  H32  1  0.907200  0.087000  0.967200  1.0  0.0632
  H  H33  1  0.122700  0.523900  0.287000  1.0  0.105
  H  H34  1  0.953100  0.317200  0.114700  1.0  0.2608
  H  H35  1  0.424000  0.583600  0.081600  1.0  0.0636
  H  H36  1  0.418900  0.636300  0.190800  1.0  0.1211
  H  H37  1  0.593200  0.605600  0.290600  1.0  0.1143
  H  H38  1  0.592800  0.560000  0.179800  1.0  0.0625
  H  H39  1  0.377300  0.664300  0.401200  1.0  0.1025
  H  H40  1  0.546900  0.661600  0.364100  1.0  0.2579
  H  H41  1  0.498000  0.916400  0.340400  1.0  0.0649
  H  H42  1  0.554500  0.863700  0.282600  1.0  0.1232
  H  H43  1  0.685000  0.894400  0.487600  1.0  0.1144
  H  H44  1  0.619800  0.940000  0.532800  1.0  0.0642
  H  H45  1  0.736900  0.835700  0.213000  1.0  0.1011
  H  H46  1  0.702500  0.838400  0.385300  1.0  0.2589
  H  H47  1  0.002000  0.342400  0.418400  1.0  0.0642
  H  H48  1  0.945500  0.228100  0.309200  1.0  0.1223
  H  H49  1  0.815000  0.302600  0.209400  1.0  0.1147
  H  H50  1  0.880200  0.413000  0.320200  1.0  0.0632
  H  H51  1  0.763100  0.976100  0.098800  1.0  0.1026
  H  H52  1  0.797500  0.182800  0.135900  1.0  0.2594
  H  H53  1  0.918400  0.002000  0.842400  1.0  0.0658
  H  H54  1  0.809200  0.945500  0.728100  1.0  0.123
  H  H55  1  0.709400  0.815000  0.802600  1.0  0.1134
  H  H56  1  0.820200  0.880200  0.913000  1.0  0.0642
  H  H57  1  0.598800  0.763100  0.476100  1.0  0.1037
  H  H58  1  0.635900  0.797500  0.682800  1.0  0.2594
  H  H59  1  0.840400  0.498000  0.416400  1.0  0.0635
  H  H60  1  0.782600  0.554500  0.363700  1.0  0.1226
  H  H61  1  0.987600  0.685000  0.394400  1.0  0.115
  H  H62  1  0.032800  0.619800  0.440000  1.0  0.063
  H  H63  1  0.713000  0.736900  0.335700  1.0  0.1028
  H  H64  1  0.885300  0.702500  0.338400  1.0  0.2591
  H  H65  1  0.581600  0.424000  0.083600  1.0  0.0636
  H  H66  1  0.690800  0.418900  0.136300  1.0  0.1239
  H  H67  1  0.790600  0.593200  0.105600  1.0  0.1152
  H  H68  1  0.679800  0.592800  0.060000  1.0  0.0613
  H  H69  1  0.901200  0.377300  0.164300  1.0  0.1041
  H  H70  1  0.864100  0.546900  0.161600  1.0  0.2575
  H  H71  1  0.659600  0.076000  0.657600  1.0  0.0638
  H  H72  1  0.717400  0.081100  0.771900  1.0  0.123
  H  H73  1  0.512400  0.906800  0.697400  1.0  0.1155
  H  H74  1  0.467200  0.907200  0.587000  1.0  0.0636
  H  H75  1  0.787000  0.122700  0.023900  1.0  0.1036
  H  H76  1  0.614700  0.953100  0.817200  1.0  0.2584
  H  H77  1  0.083600  0.159600  0.002000  1.0  0.0631
  H  H78  1  0.136300  0.217400  0.945500  1.0  0.1227
  H  H79  1  0.105600  0.012400  0.815000  1.0  0.1152
  H  H80  1  0.060000  0.967200  0.880200  1.0  0.0629
  H  H81  1  0.164300  0.287000  0.763100  1.0  0.1013
  H  H82  1  0.161600  0.114700  0.797500  1.0  0.26
  H  H83  1  0.657600  0.081600  0.498000  1.0  0.0635
  H  H84  1  0.771900  0.190800  0.554500  1.0  0.1221
  H  H85  1  0.697400  0.290600  0.685000  1.0  0.1148
  H  H86  1  0.587000  0.179800  0.619800  1.0  0.0617
  H  H87  1  0.023900  0.401200  0.736900  1.0  0.1025
  H  H88  1  0.817200  0.364100  0.702500  1.0  0.2572
  H  H89  1  0.842400  0.340400  0.424000  1.0  0.063
  H  H90  1  0.728100  0.282600  0.418900  1.0  0.1233
  H  H91  1  0.802600  0.487600  0.593200  1.0  0.1153
  H  H92  1  0.913000  0.532800  0.592800  1.0  0.0643
  H  H93  1  0.476100  0.213000  0.377300  1.0  0.1012
  H  H94  1  0.682800  0.385300  0.546900  1.0  0.2568
  H  H95  1  0.416400  0.418400  0.076000  1.0  0.063
  H  H96  1  0.363700  0.309200  0.081100  1.0  0.1233
  H  H97  1  0.394400  0.209400  0.906800  1.0  0.1152
  H  H98  1  0.440000  0.320200  0.907200  1.0  0.0637
  H  H99  1  0.335700  0.098800  0.122700  1.0  0.1018
  H  H100  1  0.338400  0.135900  0.953100  1.0  0.2579
  H  H101  1  0.924000  0.842400  0.840400  1.0  0.0623
  H  H102  1  0.918900  0.728100  0.782600  1.0  0.1223
  H  H103  1  0.093200  0.802600  0.987600  1.0  0.1149
  H  H104  1  0.092800  0.913000  0.032800  1.0  0.0635
  H  H105  1  0.877300  0.476100  0.713000  1.0  0.1064
  H  H106  1  0.046900  0.682800  0.885300  1.0  0.2584
  H  H107  1  0.576000  0.416400  0.918400  1.0  0.0639
  H  H108  1  0.581100  0.363700  0.809200  1.0  0.1219
  H  H109  1  0.406800  0.394400  0.709400  1.0  0.1148
  H  H110  1  0.407200  0.440000  0.820200  1.0  0.0625
  H  H111  1  0.622700  0.335700  0.598800  1.0  0.1007
  H  H112  1  0.453100  0.338400  0.635900  1.0  0.2571
  H  H113  1  0.502000  0.083600  0.659600  1.0  0.0647
  H  H114  1  0.445500  0.136300  0.717400  1.0  0.1222
  H  H115  1  0.315000  0.105600  0.512400  1.0  0.1159
  H  H116  1  0.380200  0.060000  0.467200  1.0  0.0658
  H  H117  1  0.263100  0.164300  0.787000  1.0  0.1025
  H  H118  1  0.297500  0.161600  0.614700  1.0  0.2602
  H  H119  1  0.998000  0.657600  0.581600  1.0  0.0613
  H  H120  1  0.054500  0.771900  0.690800  1.0  0.1225
  H  H121  1  0.185000  0.697400  0.790600  1.0  0.1145
  H  H122  1  0.119800  0.587000  0.679800  1.0  0.0635
  H  H123  1  0.236900  0.023900  0.901200  1.0  0.1031
  H  H124  1  0.202500  0.817200  0.864100  1.0  0.2591
  H  H125  1  0.081600  0.998000  0.157600  1.0  0.0646
  H  H126  1  0.190800  0.054500  0.271900  1.0  0.1221
  H  H127  1  0.290600  0.185000  0.197400  1.0  0.1157
  H  H128  1  0.179800  0.119800  0.087000  1.0  0.0653
  H  H129  1  0.401200  0.236900  0.523900  1.0  0.1031
  H  H130  1  0.364100  0.202500  0.317200  1.0  0.2582
  H  H131  1  0.159600  0.502000  0.583600  1.0  0.0632
  H  H132  1  0.217400  0.445500  0.636300  1.0  0.1229
  H  H133  1  0.012400  0.315000  0.605600  1.0  0.1132
  H  H134  1  0.967200  0.380200  0.560000  1.0  0.0643
  H  H135  1  0.287000  0.263100  0.664300  1.0  0.1029
  H  H136  1  0.114700  0.297500  0.661600  1.0  0.2597
  H  H137  1  0.418400  0.576000  0.916400  1.0  0.0623
  H  H138  1  0.309200  0.581100  0.863700  1.0  0.1248
  H  H139  1  0.209400  0.406800  0.894400  1.0  0.1157
  H  H140  1  0.320200  0.407200  0.940000  1.0  0.0611
  H  H141  1  0.098800  0.622700  0.835700  1.0  0.1034
  H  H142  1  0.135900  0.453100  0.838400  1.0  0.2554
  H  H143  1  0.340400  0.924000  0.342400  1.0  0.0624
  H  H144  1  0.282600  0.918900  0.228100  1.0  0.1208
  H  H145  1  0.487600  0.093200  0.302600  1.0  0.1155
  H  H146  1  0.532800  0.092800  0.413000  1.0  0.0638
  H  H147  1  0.213000  0.877300  0.976100  1.0  0.1045
  H  H148  1  0.385300  0.046900  0.182800  1.0  0.2594
  C  C149  1  0.911300  0.870600  0.036500  1.0  0.1709
  C  C150  1  0.879700  0.833800  0.069500  1.0  -0.2155
  C  C151  1  0.872600  0.879500  0.127500  1.0  0.2053
  C  C152  1  0.897800  0.955600  0.146000  1.0  -0.2205
  C  C153  1  0.925400  0.982300  0.107100  1.0  0.164
  C  C154  1  0.821600  0.785300  0.165700  1.0  0.4885
  C  C155  1  0.791500  0.775800  0.218100  1.0  -0.0382
  C  C156  1  0.805400  0.732900  0.246700  1.0  -0.1485
  C  C157  1  0.334100  0.874800  0.463500  1.0  0.1707
  C  C158  1  0.264300  0.810200  0.430500  1.0  -0.2099
  C  C159  1  0.252000  0.745100  0.372500  1.0  0.2057
  C  C160  1  0.309600  0.751800  0.354000  1.0  -0.2191
  C  C161  1  0.375200  0.818300  0.392900  1.0  0.1641
  C  C162  1  0.119600  0.655900  0.334300  1.0  0.4862
  C  C163  1  0.057700  0.573400  0.281900  1.0  -0.0371
  C  C164  1  0.986200  0.558700  0.253300  1.0  -0.1583
  C  C165  1  0.165900  0.629400  0.540700  1.0  0.1691
  C  C166  1  0.235700  0.666200  0.545900  1.0  -0.2182
  C  C167  1  0.248000  0.620500  0.493100  1.0  0.2045
  C  C168  1  0.190400  0.544400  0.442200  1.0  -0.2255
  C  C169  1  0.124800  0.517700  0.443100  1.0  0.1679
  C  C170  1  0.380400  0.714700  0.536300  1.0  0.4904
  C  C171  1  0.442300  0.724200  0.515700  1.0  -0.025
  C  C172  1  0.513800  0.767100  0.572500  1.0  -0.1566
  C  C173  1  0.588700  0.625200  0.959300  1.0  0.1698
  C  C174  1  0.620300  0.689800  0.954100  1.0  -0.2093
  C  C175  1  0.627400  0.754900  0.006900  1.0  0.2058
  C  C176  1  0.602200  0.748200  0.057800  1.0  -0.2262
  C  C177  1  0.574600  0.681700  0.056900  1.0  0.1657
  C  C178  1  0.678400  0.844100  0.963700  1.0  0.4898
  C  C179  1  0.708500  0.926600  0.984300  1.0  -0.0409
  C  C180  1  0.694600  0.941300  0.927500  1.0  -0.1522
  C  C181  1  0.040700  0.165900  0.129400  1.0  0.1704
  C  C182  1  0.045900  0.235700  0.166200  1.0  -0.2143
  C  C183  1  0.993100  0.248000  0.120500  1.0  0.2063
  C  C184  1  0.942200  0.190400  0.044400  1.0  -0.2192
  C  C185  1  0.943100  0.124800  0.017700  1.0  0.1645
  C  C186  1  0.036300  0.380400  0.214700  1.0  0.4898
  C  C187  1  0.015700  0.442300  0.224200  1.0  -0.0265
  C  C188  1  0.072500  0.513800  0.267100  1.0  -0.1578
  C  C189  1  0.459300  0.588700  0.125200  1.0  0.1717
  C  C190  1  0.454100  0.620300  0.189800  1.0  -0.2069
  C  C191  1  0.506900  0.627400  0.254900  1.0  0.2053
  C  C192  1  0.557800  0.602200  0.248200  1.0  -0.2145
  C  C193  1  0.556900  0.574600  0.181700  1.0  0.1658
  C  C194  1  0.463700  0.678400  0.344100  1.0  0.4855
  C  C195  1  0.484300  0.708500  0.426600  1.0  -0.0439
  C  C196  1  0.427500  0.694600  0.441300  1.0  -0.1516
  C  C197  1  0.536500  0.911300  0.370600  1.0  0.1696
  C  C198  1  0.569500  0.879700  0.333800  1.0  -0.2092
  C  C199  1  0.627500  0.872600  0.379500  1.0  0.2048
  C  C200  1  0.646000  0.897800  0.455600  1.0  -0.2238
  C  C201  1  0.607100  0.925400  0.482300  1.0  0.1639
  C  C202  1  0.665700  0.821600  0.285300  1.0  0.4847
  C  C203  1  0.718100  0.791500  0.275800  1.0  -0.0359
  C  C204  1  0.746700  0.805400  0.232900  1.0  -0.1477
  C  C205  1  0.963500  0.334100  0.374800  1.0  0.1714
  C  C206  1  0.930500  0.264300  0.310200  1.0  -0.2172
  C  C207  1  0.872500  0.252000  0.245100  1.0  0.2058
  C  C208  1  0.854000  0.309600  0.251800  1.0  -0.224
  C  C209  1  0.892900  0.375200  0.318300  1.0  0.1646
  C  C210  1  0.834300  0.119600  0.155900  1.0  0.4921
  C  C211  1  0.781900  0.057700  0.073400  1.0  -0.0367
  C  C212  1  0.753300  0.986200  0.058700  1.0  -0.1532
  C  C213  1  0.874800  0.963500  0.834100  1.0  0.17
  C  C214  1  0.810200  0.930500  0.764300  1.0  -0.2135
  C  C215  1  0.745100  0.872500  0.752000  1.0  0.205
  C  C216  1  0.751800  0.854000  0.809600  1.0  -0.2226
  C  C217  1  0.818300  0.892900  0.875200  1.0  0.1679
  C  C218  1  0.655900  0.834300  0.619600  1.0  0.4909
  C  C219  1  0.573400  0.781900  0.557700  1.0  -0.0368
  C  C220  1  0.558700  0.753300  0.486200  1.0  -0.1546
  C  C221  1  0.870600  0.536500  0.411300  1.0  0.1716
  C  C222  1  0.833800  0.569500  0.379700  1.0  -0.2117
  C  C223  1  0.879500  0.627500  0.372600  1.0  0.2056
  C  C224  1  0.955600  0.646000  0.397800  1.0  -0.2225
  C  C225  1  0.982300  0.607100  0.425400  1.0  0.1628
  C  C226  1  0.785300  0.665700  0.321600  1.0  0.4929
  C  C227  1  0.775800  0.718100  0.291500  1.0  -0.035
  C  C228  1  0.732900  0.746700  0.305400  1.0  -0.1508
  C  C229  1  0.625200  0.459300  0.088700  1.0  0.1708
  C  C230  1  0.689800  0.454100  0.120300  1.0  -0.218
  C  C231  1  0.754900  0.506900  0.127400  1.0  0.2055
  C  C232  1  0.748200  0.557800  0.102200  1.0  -0.2204
  C  C233  1  0.681700  0.556900  0.074600  1.0  0.1651
  C  C234  1  0.844100  0.463700  0.178400  1.0  0.4855
  C  C235  1  0.926600  0.484300  0.208500  1.0  -0.0432
  C  C236  1  0.941300  0.427500  0.194600  1.0  -0.155
  C  C237  1  0.629400  0.040700  0.665900  1.0  0.17
  C  C238  1  0.666200  0.045900  0.735700  1.0  -0.2132
  C  C239  1  0.620500  0.993100  0.748000  1.0  0.2057
  C  C240  1  0.544400  0.942200  0.690400  1.0  -0.2187
  C  C241  1  0.517700  0.943100  0.624800  1.0  0.1664
  C  C242  1  0.714700  0.036300  0.880400  1.0  0.4892
  C  C243  1  0.724200  0.015700  0.942300  1.0  -0.0255
  C  C244  1  0.767100  0.072500  0.013800  1.0  -0.1539
  C  C245  1  0.088700  0.129400  0.963500  1.0  0.1691
  C  C246  1  0.120300  0.166200  0.930500  1.0  -0.2147
  C  C247  1  0.127400  0.120500  0.872500  1.0  0.2057
  C  C248  1  0.102200  0.044400  0.854000  1.0  -0.2184
  C  C249  1  0.074600  0.017700  0.892900  1.0  0.1671
  C  C250  1  0.178400  0.214700  0.834300  1.0  0.4874
  C  C251  1  0.208500  0.224200  0.781900  1.0  -0.039
  C  C252  1  0.194600  0.267100  0.753300  1.0  -0.1462
  C  C253  1  0.665900  0.125200  0.536500  1.0  0.1715
  C  C254  1  0.735700  0.189800  0.569500  1.0  -0.2096
  C  C255  1  0.748000  0.254900  0.627500  1.0  0.2043
  C  C256  1  0.690400  0.248200  0.646000  1.0  -0.2195
  C  C257  1  0.624800  0.181700  0.607100  1.0  0.1644
  C  C258  1  0.880400  0.344100  0.665700  1.0  0.4855
  C  C259  1  0.942300  0.426600  0.718100  1.0  -0.0324
  C  C260  1  0.013800  0.441300  0.746700  1.0  -0.1566
  C  C261  1  0.834100  0.370600  0.459300  1.0  0.169
  C  C262  1  0.764300  0.333800  0.454100  1.0  -0.2192
  C  C263  1  0.752000  0.379500  0.506900  1.0  0.2058
  C  C264  1  0.809600  0.455600  0.557800  1.0  -0.2285
  C  C265  1  0.875200  0.482300  0.556900  1.0  0.162
  C  C266  1  0.619600  0.285300  0.463700  1.0  0.4892
  C  C267  1  0.557700  0.275800  0.484300  1.0  -0.0258
  C  C268  1  0.486200  0.232900  0.427500  1.0  -0.1583
  C  C269  1  0.411300  0.374800  0.040700  1.0  0.1697
  C  C270  1  0.379700  0.310200  0.045900  1.0  -0.2118
  C  C271  1  0.372600  0.245100  0.993100  1.0  0.205
  C  C272  1  0.397800  0.251800  0.942200  1.0  -0.2244
  C  C273  1  0.425400  0.318300  0.943100  1.0  0.166
  C  C274  1  0.321600  0.155900  0.036300  1.0  0.489
  C  C275  1  0.291500  0.073400  0.015700  1.0  -0.0407
  C  C276  1  0.305400  0.058700  0.072500  1.0  -0.1527
  C  C277  1  0.959300  0.834100  0.870600  1.0  0.1701
  C  C278  1  0.954100  0.764300  0.833800  1.0  -0.2145
  C  C279  1  0.006900  0.752000  0.879500  1.0  0.2054
  C  C280  1  0.057800  0.809600  0.955600  1.0  -0.2175
  C  C281  1  0.056900  0.875200  0.982300  1.0  0.1658
  C  C282  1  0.963700  0.619600  0.785300  1.0  0.4896
  C  C283  1  0.984300  0.557700  0.775800  1.0  -0.022
  C  C284  1  0.927500  0.486200  0.732900  1.0  -0.1575
  C  C285  1  0.540700  0.411300  0.874800  1.0  0.1739
  C  C286  1  0.545900  0.379700  0.810200  1.0  -0.2075
  C  C287  1  0.493100  0.372600  0.745100  1.0  0.2049
  C  C288  1  0.442200  0.397800  0.751800  1.0  -0.2173
  C  C289  1  0.443100  0.425400  0.818300  1.0  0.1665
  C  C290  1  0.536300  0.321600  0.655900  1.0  0.484
  C  C291  1  0.515700  0.291500  0.573400  1.0  -0.0427
  C  C292  1  0.572500  0.305400  0.558700  1.0  -0.1536
  C  C293  1  0.463500  0.088700  0.629400  1.0  0.1701
  C  C294  1  0.430500  0.120300  0.666200  1.0  -0.2114
  C  C295  1  0.372500  0.127400  0.620500  1.0  0.2048
  C  C296  1  0.354000  0.102200  0.544400  1.0  -0.2249
  C  C297  1  0.392900  0.074600  0.517700  1.0  0.1649
  C  C298  1  0.334300  0.178400  0.714700  1.0  0.4821
  C  C299  1  0.281900  0.208500  0.724200  1.0  -0.0391
  C  C300  1  0.253300  0.194600  0.767100  1.0  -0.1478
  C  C301  1  0.036500  0.665900  0.625200  1.0  0.1698
  C  C302  1  0.069500  0.735700  0.689800  1.0  -0.2151
  C  C303  1  0.127500  0.748000  0.754900  1.0  0.2061
  C  C304  1  0.146000  0.690400  0.748200  1.0  -0.2236
  C  C305  1  0.107100  0.624800  0.681700  1.0  0.1636
  C  C306  1  0.165700  0.880400  0.844100  1.0  0.4924
  C  C307  1  0.218100  0.942300  0.926600  1.0  -0.0369
  C  C308  1  0.246700  0.013800  0.941300  1.0  -0.1556
  C  C309  1  0.125200  0.036500  0.165900  1.0  0.1691
  C  C310  1  0.189800  0.069500  0.235700  1.0  -0.2123
  C  C311  1  0.254900  0.127500  0.248000  1.0  0.2046
  C  C312  1  0.248200  0.146000  0.190400  1.0  -0.2223
  C  C313  1  0.181700  0.107100  0.124800  1.0  0.166
  C  C314  1  0.344100  0.165700  0.380400  1.0  0.4879
  C  C315  1  0.426600  0.218100  0.442300  1.0  -0.0385
  C  C316  1  0.441300  0.246700  0.513800  1.0  -0.154
  C  C317  1  0.129400  0.463500  0.588700  1.0  0.1709
  C  C318  1  0.166200  0.430500  0.620300  1.0  -0.2124
  C  C319  1  0.120500  0.372500  0.627400  1.0  0.2063
  C  C320  1  0.044400  0.354000  0.602200  1.0  -0.2239
  C  C321  1  0.017700  0.392900  0.574600  1.0  0.1648
  C  C322  1  0.214700  0.334300  0.678400  1.0  0.4933
  C  C323  1  0.224200  0.281900  0.708500  1.0  -0.0373
  C  C324  1  0.267100  0.253300  0.694600  1.0  -0.1509
  C  C325  1  0.374800  0.540700  0.911300  1.0  0.1692
  C  C326  1  0.310200  0.545900  0.879700  1.0  -0.2159
  C  C327  1  0.245100  0.493100  0.872600  1.0  0.2055
  C  C328  1  0.251800  0.442200  0.897800  1.0  -0.22
  C  C329  1  0.318300  0.443100  0.925400  1.0  0.1645
  C  C330  1  0.155900  0.536300  0.821600  1.0  0.4869
  C  C331  1  0.073400  0.515700  0.791500  1.0  -0.0373
  C  C332  1  0.058700  0.572500  0.805400  1.0  -0.1544
  C  C333  1  0.370600  0.959300  0.334100  1.0  0.1707
  C  C334  1  0.333800  0.954100  0.264300  1.0  -0.2147
  C  C335  1  0.379500  0.006900  0.252000  1.0  0.2047
  C  C336  1  0.455600  0.057800  0.309600  1.0  -0.2181
  C  C337  1  0.482300  0.056900  0.375200  1.0  0.1663
  C  C338  1  0.285300  0.963700  0.119600  1.0  0.4876
  C  C339  1  0.275800  0.984300  0.057700  1.0  -0.0262
  C  C340  1  0.232900  0.927500  0.986200  1.0  -0.155
  N  N341  1  0.935000  0.941200  0.052600  1.0  -0.352
  N  N342  1  0.842500  0.853100  0.169400  1.0  -0.3983
  N  N343  1  0.388600  0.882400  0.447400  1.0  -0.3635
  N  N344  1  0.183700  0.673100  0.330600  1.0  -0.3987
  N  N345  1  0.111400  0.558800  0.493800  1.0  -0.3662
  N  N346  1  0.316300  0.646900  0.489400  1.0  -0.3978
  N  N347  1  0.565000  0.617600  0.006200  1.0  -0.3677
  N  N348  1  0.657500  0.826900  0.010600  1.0  -0.4007
  N  N349  1  0.993800  0.111400  0.058800  1.0  -0.3607
  N  N350  1  0.989400  0.316300  0.146900  1.0  -0.3982
  N  N351  1  0.506200  0.565000  0.117600  1.0  -0.369
  N  N352  1  0.510600  0.657500  0.326900  1.0  -0.3973
  N  N353  1  0.552600  0.935000  0.441200  1.0  -0.3521
  N  N354  1  0.669400  0.842500  0.353100  1.0  -0.3964
  N  N355  1  0.947400  0.388600  0.382400  1.0  -0.3633
  N  N356  1  0.830600  0.183700  0.173100  1.0  -0.3991
  N  N357  1  0.882400  0.947400  0.888600  1.0  -0.3631
  N  N358  1  0.673100  0.830600  0.683700  1.0  -0.3978
  N  N359  1  0.941200  0.552600  0.435000  1.0  -0.3519
  N  N360  1  0.853100  0.669400  0.342500  1.0  -0.396
  N  N361  1  0.617600  0.506200  0.065000  1.0  -0.3685
  N  N362  1  0.826900  0.510600  0.157500  1.0  -0.3975
  N  N363  1  0.558800  0.993800  0.611400  1.0  -0.3655
  N  N364  1  0.646900  0.989400  0.816300  1.0  -0.3982
  N  N365  1  0.065000  0.058800  0.947400  1.0  -0.3512
  N  N366  1  0.157500  0.146900  0.830600  1.0  -0.3972
  N  N367  1  0.611400  0.117600  0.552600  1.0  -0.3643
  N  N368  1  0.816300  0.326900  0.669400  1.0  -0.3992
  N  N369  1  0.888600  0.441200  0.506200  1.0  -0.3639
  N  N370  1  0.683700  0.353100  0.510600  1.0  -0.3997
  N  N371  1  0.435000  0.382400  0.993800  1.0  -0.3689
  N  N372  1  0.342500  0.173100  0.989400  1.0  -0.3982
  N  N373  1  0.006200  0.888600  0.941200  1.0  -0.3629
  N  N374  1  0.010600  0.683700  0.853100  1.0  -0.3975
  N  N375  1  0.493800  0.435000  0.882400  1.0  -0.3682
  N  N376  1  0.489400  0.342500  0.673100  1.0  -0.3956
  N  N377  1  0.447400  0.065000  0.558800  1.0  -0.351
  N  N378  1  0.330600  0.157500  0.646900  1.0  -0.3992
  N  N379  1  0.052600  0.611400  0.617600  1.0  -0.3623
  N  N380  1  0.169400  0.816300  0.826900  1.0  -0.3964
  N  N381  1  0.117600  0.052600  0.111400  1.0  -0.3652
  N  N382  1  0.326900  0.169400  0.316300  1.0  -0.3974
  N  N383  1  0.058800  0.447400  0.565000  1.0  -0.3536
  N  N384  1  0.146900  0.330600  0.657500  1.0  -0.3989
  N  N385  1  0.382400  0.493800  0.935000  1.0  -0.3681
  N  N386  1  0.173100  0.489400  0.842500  1.0  -0.3975
  N  N387  1  0.441200  0.006200  0.388600  1.0  -0.364
  N  N388  1  0.353100  0.010600  0.183700  1.0  -0.3971
  O  O389  1  0.825400  0.734700  0.122500  1.0  -0.4935
  O  O390  1  0.112200  0.702900  0.377500  1.0  -0.4902
  O  O391  1  0.387800  0.765300  0.590700  1.0  -0.4914
  O  O392  1  0.674600  0.797100  0.909300  1.0  -0.4941
  O  O393  1  0.090700  0.387800  0.265300  1.0  -0.4923
  O  O394  1  0.409300  0.674600  0.297100  1.0  -0.4926
  O  O395  1  0.622500  0.825400  0.234700  1.0  -0.4945
  O  O396  1  0.877500  0.112200  0.202900  1.0  -0.4926
  O  O397  1  0.702900  0.877500  0.612200  1.0  -0.4954
  O  O398  1  0.734700  0.622500  0.325400  1.0  -0.4923
  O  O399  1  0.797100  0.409300  0.174600  1.0  -0.493
  O  O400  1  0.765300  0.090700  0.887800  1.0  -0.4923
  O  O401  1  0.174600  0.265300  0.877500  1.0  -0.4927
  O  O402  1  0.887800  0.297100  0.622500  1.0  -0.4924
  O  O403  1  0.612200  0.234700  0.409300  1.0  -0.4903
  O  O404  1  0.325400  0.202900  0.090700  1.0  -0.4915
  O  O405  1  0.909300  0.612200  0.734700  1.0  -0.4926
  O  O406  1  0.590700  0.325400  0.702900  1.0  -0.4927
  O  O407  1  0.377500  0.174600  0.765300  1.0  -0.4951
  O  O408  1  0.122500  0.887800  0.797100  1.0  -0.4902
  O  O409  1  0.297100  0.122500  0.387800  1.0  -0.4958
  O  O410  1  0.265300  0.377500  0.674600  1.0  -0.4907
  O  O411  1  0.202900  0.590700  0.825400  1.0  -0.4917
  O  O412  1  0.234700  0.909300  0.112200  1.0  -0.4923
