# generated using pymatgen
data_Ce2CoH8C24(NO2)8
_symmetry_space_group_name_H-M   'P 1'
_cell_length_a   6.20350000
_cell_length_b   12.04450000
_cell_length_c   22.73730000
_cell_angle_alpha   90.00000000
_cell_angle_beta   90.00000000
_cell_angle_gamma   91.66900000
_symmetry_Int_Tables_number   1
_chemical_formula_structural   Ce2CoH8C24(NO2)8
_chemical_formula_sum   'Ce4 Co2 H16 C48 N16 O32'
_cell_volume   1698.16612140
_cell_formula_units_Z   2
loop_
 _symmetry_equiv_pos_site_id
 _symmetry_equiv_pos_as_xyz
  1  'x, y, z'
loop_
 _atom_site_type_symbol
 _atom_site_label
 _atom_site_symmetry_multiplicity
 _atom_site_fract_x
 _atom_site_fract_y
 _atom_site_fract_z
 _atom_site_occupancy
 _atom_site_charge
  Ce  Ce1  1  0.440660  0.936660  0.853390  1.0  2.1814
  Ce  Ce2  1  0.059340  0.563340  0.353390  1.0  2.181
  Ce  Ce3  1  0.559340  0.063340  0.146610  1.0  2.1821
  Ce  Ce4  1  0.940660  0.436660  0.646610  1.0  2.1809
  Co  Co5  1  0.000000  0.500000  0.000000  1.0  0.9525
  Co  Co6  1  0.500000  0.000000  0.500000  1.0  0.9525
  H  H7  1  0.054800  0.601800  0.785900  1.0  0.0804
  H  H8  1  0.528300  0.421700  0.819600  1.0  0.0773
  H  H9  1  0.916200  0.741500  0.842800  1.0  0.0896
  H  H10  1  0.812300  0.388200  0.881000  1.0  0.1131
  H  H11  1  0.445200  0.898200  0.285900  1.0  0.0806
  H  H12  1  0.971700  0.078300  0.319600  1.0  0.077
  H  H13  1  0.583800  0.758500  0.342800  1.0  0.0916
  H  H14  1  0.687700  0.111800  0.381000  1.0  0.1128
  H  H15  1  0.945200  0.398200  0.214100  1.0  0.081
  H  H16  1  0.471700  0.578300  0.180400  1.0  0.0771
  H  H17  1  0.083800  0.258500  0.157200  1.0  0.0918
  H  H18  1  0.187700  0.611800  0.119000  1.0  0.1128
  H  H19  1  0.554800  0.101800  0.714100  1.0  0.0808
  H  H20  1  0.028300  0.921700  0.680400  1.0  0.0774
  H  H21  1  0.416200  0.241500  0.657200  1.0  0.0887
  H  H22  1  0.312300  0.888200  0.619000  1.0  0.1131
  C  C23  1  0.463200  0.537800  0.686700  1.0  0.7151
  C  C24  1  0.916700  0.626200  0.778300  1.0  0.1504
  C  C25  1  0.598800  0.613300  0.727360  1.0  0.0899
  C  C26  1  0.657700  0.651400  0.006600  1.0  0.626
  C  C27  1  0.609600  0.585600  0.950730  1.0  0.0222
  C  C28  1  0.330100  0.769700  0.736600  1.0  0.6387
  C  C29  1  0.261900  0.683500  0.925700  1.0  0.7363
  C  C30  1  0.528400  0.707400  0.755310  1.0  0.1104
  C  C31  1  0.545400  0.464700  0.853400  1.0  0.1509
  C  C32  1  0.436700  0.601900  0.913300  1.0  0.0822
  C  C33  1  0.836600  0.713400  0.811200  1.0  0.1536
  C  C34  1  0.718100  0.444300  0.890100  1.0  0.0996
  C  C35  1  0.036800  0.962200  0.186700  1.0  0.7161
  C  C36  1  0.583300  0.873800  0.278300  1.0  0.151
  C  C37  1  0.901200  0.886700  0.227360  1.0  0.0894
  C  C38  1  0.842300  0.848600  0.506600  1.0  0.6272
  C  C39  1  0.890400  0.914400  0.450730  1.0  0.0207
  C  C40  1  0.169900  0.730300  0.236600  1.0  0.6402
  C  C41  1  0.238100  0.816500  0.425700  1.0  0.7366
  C  C42  1  0.971600  0.792600  0.255310  1.0  0.1108
  C  C43  1  0.954600  0.035300  0.353400  1.0  0.1506
  C  C44  1  0.063300  0.898100  0.413300  1.0  0.0811
  C  C45  1  0.663400  0.786600  0.311200  1.0  0.1572
  C  C46  1  0.781900  0.055700  0.390100  1.0  0.1
  C  C47  1  0.536800  0.462200  0.313300  1.0  0.7181
  C  C48  1  0.083300  0.373800  0.221700  1.0  0.1516
  C  C49  1  0.401200  0.386700  0.272640  1.0  0.0925
  C  C50  1  0.342300  0.348600  0.993400  1.0  0.6265
  C  C51  1  0.390400  0.414400  0.049270  1.0  0.0203
  C  C52  1  0.669900  0.230300  0.263400  1.0  0.64
  C  C53  1  0.738100  0.316500  0.074300  1.0  0.7361
  C  C54  1  0.471600  0.292600  0.244690  1.0  0.1113
  C  C55  1  0.454600  0.535300  0.146600  1.0  0.1499
  C  C56  1  0.563300  0.398100  0.086700  1.0  0.081
  C  C57  1  0.163400  0.286600  0.188800  1.0  0.1554
  C  C58  1  0.281900  0.555700  0.109900  1.0  0.0978
  C  C59  1  0.963200  0.037800  0.813300  1.0  0.7189
  C  C60  1  0.416700  0.126200  0.721700  1.0  0.1507
  C  C61  1  0.098800  0.113300  0.772640  1.0  0.0932
  C  C62  1  0.157700  0.151400  0.493400  1.0  0.6306
  C  C63  1  0.109600  0.085600  0.549270  1.0  0.02
  C  C64  1  0.830100  0.269700  0.763400  1.0  0.6383
  C  C65  1  0.761900  0.183500  0.574300  1.0  0.737
  C  C66  1  0.028400  0.207400  0.744690  1.0  0.1105
  C  C67  1  0.045400  0.964700  0.646600  1.0  0.1506
  C  C68  1  0.936700  0.101900  0.586700  1.0  0.082
  C  C69  1  0.336600  0.213400  0.688800  1.0  0.1539
  C  C70  1  0.218100  0.944300  0.609900  1.0  0.0995
  N  N71  1  0.800100  0.577100  0.736110  1.0  -0.4106
  N  N72  1  0.749300  0.504800  0.938630  1.0  -0.2791
  N  N73  1  0.647000  0.757600  0.798090  1.0  -0.4427
  N  N74  1  0.404200  0.542100  0.863820  1.0  -0.3408
  N  N75  1  0.699900  0.922900  0.236110  1.0  -0.41
  N  N76  1  0.750700  0.995200  0.438630  1.0  -0.2826
  N  N77  1  0.853000  0.742400  0.298090  1.0  -0.4416
  N  N78  1  0.095800  0.957900  0.363820  1.0  -0.335
  N  N79  1  0.199900  0.422900  0.263890  1.0  -0.4112
  N  N80  1  0.250700  0.495200  0.061370  1.0  -0.282
  N  N81  1  0.353000  0.242400  0.201910  1.0  -0.4425
  N  N82  1  0.595800  0.457900  0.136180  1.0  -0.3366
  N  N83  1  0.300100  0.077100  0.763890  1.0  -0.411
  N  N84  1  0.249300  0.004800  0.561370  1.0  -0.2783
  N  N85  1  0.147000  0.257600  0.701910  1.0  -0.443
  N  N86  1  0.904200  0.042100  0.636180  1.0  -0.344
  O  O87  1  0.563900  0.499100  0.643030  1.0  -0.7192
  O  O88  1  0.271400  0.515000  0.699610  1.0  -0.6979
  O  O89  1  0.799400  0.611600  0.040020  1.0  -0.5687
  O  O90  1  0.111100  0.651900  0.958440  1.0  -0.5484
  O  O91  1  0.264500  0.841200  0.771750  1.0  -0.6738
  O  O92  1  0.557200  0.737900  0.013960  1.0  -0.6069
  O  O93  1  0.271200  0.774800  0.899500  1.0  -0.7708
  O  O94  1  0.259000  0.748500  0.687520  1.0  -0.5415
  O  O95  1  0.936100  0.000900  0.143030  1.0  -0.718
  O  O96  1  0.228600  0.985000  0.199610  1.0  -0.6983
  O  O97  1  0.700600  0.888400  0.540020  1.0  -0.5689
  O  O98  1  0.388900  0.848100  0.458440  1.0  -0.5526
  O  O99  1  0.235500  0.658800  0.271750  1.0  -0.6745
  O  O100  1  0.942800  0.762100  0.513960  1.0  -0.6056
  O  O101  1  0.228800  0.725200  0.399500  1.0  -0.7729
  O  O102  1  0.241000  0.751500  0.187520  1.0  -0.5396
  O  O103  1  0.436100  0.500900  0.356970  1.0  -0.7161
  O  O104  1  0.728600  0.485000  0.300390  1.0  -0.698
  O  O105  1  0.200600  0.388400  0.959980  1.0  -0.5691
  O  O106  1  0.888900  0.348100  0.041560  1.0  -0.5517
  O  O107  1  0.735500  0.158800  0.228250  1.0  -0.6757
  O  O108  1  0.442800  0.262100  0.986040  1.0  -0.6068
  O  O109  1  0.728800  0.225200  0.100500  1.0  -0.7711
  O  O110  1  0.741000  0.251500  0.312480  1.0  -0.5377
  O  O111  1  0.063900  0.999100  0.856970  1.0  -0.7162
  O  O112  1  0.771400  0.015000  0.800390  1.0  -0.6979
  O  O113  1  0.299400  0.111600  0.459980  1.0  -0.5695
  O  O114  1  0.611100  0.151900  0.541560  1.0  -0.5474
  O  O115  1  0.764500  0.341200  0.728250  1.0  -0.6742
  O  O116  1  0.057200  0.237900  0.486040  1.0  -0.6074
  O  O117  1  0.771200  0.274800  0.600500  1.0  -0.769
  O  O118  1  0.759000  0.248500  0.812480  1.0  -0.5415
