# generated using pymatgen
data_Zn3H36C54(NO6)2
_symmetry_space_group_name_H-M   'P 1'
_cell_length_a   14.58600000
_cell_length_b   18.06800000
_cell_length_c   24.84600000
_cell_angle_alpha   90.00000000
_cell_angle_beta   90.00000000
_cell_angle_gamma   90.00000000
_symmetry_Int_Tables_number   1
_chemical_formula_structural   Zn3H36C54(NO6)2
_chemical_formula_sum   'Zn12 H144 C216 N8 O48'
_cell_volume   6547.91106341
_cell_formula_units_Z   4
loop_
 _symmetry_equiv_pos_site_id
 _symmetry_equiv_pos_as_xyz
  1  'x, y, z'
loop_
 _atom_site_type_symbol
 _atom_site_label
 _atom_site_symmetry_multiplicity
 _atom_site_fract_x
 _atom_site_fract_y
 _atom_site_fract_z
 _atom_site_occupancy
 _atom_site_charge
  Zn  Zn1  1  0.460490  0.939620  0.144070  1.0  0.9478
  Zn  Zn2  1  0.496290  0.746820  0.144980  1.0  1.081
  Zn  Zn3  1  0.534160  0.552730  0.143610  1.0  0.9798
  Zn  Zn4  1  0.960490  0.560380  0.644070  1.0  0.9478
  Zn  Zn5  1  0.996290  0.753180  0.644980  1.0  1.0809
  Zn  Zn6  1  0.034160  0.947270  0.643610  1.0  0.981
  Zn  Zn7  1  0.039510  0.439620  0.355930  1.0  0.9473
  Zn  Zn8  1  0.003710  0.246820  0.355020  1.0  1.0808
  Zn  Zn9  1  0.965840  0.052730  0.356390  1.0  0.9796
  Zn  Zn10  1  0.539510  0.060380  0.855930  1.0  0.9473
  Zn  Zn11  1  0.503710  0.253180  0.855020  1.0  1.0808
  Zn  Zn12  1  0.465840  0.447270  0.856390  1.0  0.9807
  H  H13  1  0.541800  0.059000  0.077400  1.0  0.084
  H  H14  1  0.562200  0.187300  0.076900  1.0  0.1214
  H  H15  1  0.348600  0.244300  0.216900  1.0  0.1239
  H  H16  1  0.438500  0.235400  0.253300  1.0  0.108
  H  H17  1  0.361100  0.172700  0.254100  1.0  0.115
  H  H18  1  0.399100  0.068900  0.210300  1.0  0.0995
  H  H19  1  0.454700  0.432500  0.075000  1.0  0.1018
  H  H20  1  0.431400  0.305400  0.077900  1.0  0.1183
  H  H21  1  0.608700  0.230300  0.222500  1.0  0.1173
  H  H22  1  0.601400  0.300400  0.261700  1.0  0.126
  H  H23  1  0.683200  0.295100  0.218900  1.0  0.1226
  H  H24  1  0.601400  0.424600  0.208100  1.0  0.0889
  H  H25  1  0.162900  0.911000  0.172500  1.0  0.1023
  H  H26  1  0.010900  0.863800  0.171700  1.0  0.118
  H  H27  1  0.107300  0.671200  0.107200  1.0  0.1231
  H  H28  1  0.255400  0.717100  0.110700  1.0  0.0944
  H  H29  1  0.984500  0.625300  0.147900  1.0  0.115
  H  H30  1  0.837300  0.578700  0.155000  1.0  0.1044
  H  H31  1  0.733900  0.783600  0.139600  1.0  0.1095
  H  H32  1  0.883500  0.830800  0.130900  1.0  0.1151
  H  H33  1  0.620900  0.976700  0.002800  1.0  0.1049
  H  H34  1  0.714400  0.975900  0.927500  1.0  0.1061
  H  H35  1  0.750700  0.753900  0.943000  1.0  0.1227
  H  H36  1  0.658900  0.756200  0.021200  1.0  0.1006
  H  H37  1  0.840400  0.971600  0.880900  1.0  0.1063
  H  H38  1  0.924600  0.973000  0.801800  1.0  0.1176
  H  H39  1  0.840600  0.764100  0.770600  1.0  0.1133
  H  H40  1  0.774100  0.758300  0.854700  1.0  0.1044
  H  H41  1  0.647800  0.965000  0.272600  1.0  0.1058
  H  H42  1  0.743700  0.962100  0.348600  1.0  0.129
  H  H43  1  0.652800  0.759100  0.386500  1.0  0.1194
  H  H44  1  0.564300  0.757500  0.306500  1.0  0.095
  H  H45  1  0.774200  0.976000  0.427600  1.0  0.144
  H  H46  1  0.870200  0.978700  0.503100  1.0  0.0961
  H  H47  1  0.868300  0.756300  0.510000  1.0  0.1058
  H  H48  1  0.772800  0.752000  0.435100  1.0  0.1189
  H  H49  1  0.041800  0.441000  0.577400  1.0  0.0842
  H  H50  1  0.062200  0.312700  0.576900  1.0  0.1216
  H  H51  1  0.848600  0.255700  0.716900  1.0  0.1237
  H  H52  1  0.938500  0.264600  0.753300  1.0  0.1079
  H  H53  1  0.861100  0.327300  0.754100  1.0  0.1143
  H  H54  1  0.899100  0.431100  0.710300  1.0  0.0994
  H  H55  1  0.954700  0.067500  0.575000  1.0  0.1017
  H  H56  1  0.931400  0.194600  0.577900  1.0  0.1181
  H  H57  1  0.108700  0.269700  0.722500  1.0  0.1166
  H  H58  1  0.101400  0.199600  0.761700  1.0  0.1266
  H  H59  1  0.183200  0.204900  0.718900  1.0  0.1225
  H  H60  1  0.101400  0.075400  0.708100  1.0  0.0892
  H  H61  1  0.662900  0.589000  0.672500  1.0  0.1025
  H  H62  1  0.510900  0.636200  0.671700  1.0  0.1181
  H  H63  1  0.607300  0.828800  0.607200  1.0  0.1238
  H  H64  1  0.755400  0.782900  0.610700  1.0  0.0945
  H  H65  1  0.484500  0.874700  0.647900  1.0  0.1159
  H  H66  1  0.337300  0.921300  0.655000  1.0  0.1045
  H  H67  1  0.233900  0.716400  0.639600  1.0  0.109
  H  H68  1  0.383500  0.669200  0.630900  1.0  0.1159
  H  H69  1  0.120900  0.523300  0.502800  1.0  0.1048
  H  H70  1  0.214400  0.524100  0.427500  1.0  0.106
  H  H71  1  0.250700  0.746100  0.443000  1.0  0.1225
  H  H72  1  0.158900  0.743800  0.521200  1.0  0.101
  H  H73  1  0.340400  0.528400  0.380900  1.0  0.1066
  H  H74  1  0.424600  0.527000  0.301800  1.0  0.1178
  H  H75  1  0.340600  0.735900  0.270600  1.0  0.1136
  H  H76  1  0.274100  0.741700  0.354700  1.0  0.1041
  H  H77  1  0.147800  0.535000  0.772600  1.0  0.1059
  H  H78  1  0.243700  0.537900  0.848600  1.0  0.1284
  H  H79  1  0.152800  0.740900  0.886500  1.0  0.1193
  H  H80  1  0.064300  0.742500  0.806500  1.0  0.095
  H  H81  1  0.274200  0.524000  0.927600  1.0  0.1441
  H  H82  1  0.370200  0.521300  0.003100  1.0  0.0959
  H  H83  1  0.368300  0.743700  0.010000  1.0  0.1059
  H  H84  1  0.272800  0.748000  0.935100  1.0  0.1195
  H  H85  1  0.958200  0.559000  0.422600  1.0  0.0839
  H  H86  1  0.937800  0.687300  0.423100  1.0  0.1224
  H  H87  1  0.151400  0.744300  0.283100  1.0  0.1237
  H  H88  1  0.061500  0.735400  0.246700  1.0  0.1075
  H  H89  1  0.138900  0.672700  0.245900  1.0  0.1137
  H  H90  1  0.100900  0.568900  0.289700  1.0  0.1002
  H  H91  1  0.045300  0.932500  0.425000  1.0  0.1021
  H  H92  1  0.068600  0.805400  0.422100  1.0  0.1178
  H  H93  1  0.891300  0.730300  0.277500  1.0  0.1153
  H  H94  1  0.898600  0.800400  0.238300  1.0  0.1259
  H  H95  1  0.816800  0.795100  0.281100  1.0  0.1238
  H  H96  1  0.898600  0.924600  0.291900  1.0  0.0896
  H  H97  1  0.337100  0.411000  0.327500  1.0  0.1026
  H  H98  1  0.489100  0.363800  0.328300  1.0  0.1195
  H  H99  1  0.392700  0.171200  0.392800  1.0  0.1229
  H  H100  1  0.244600  0.217100  0.389300  1.0  0.0948
  H  H101  1  0.515500  0.125300  0.352100  1.0  0.1149
  H  H102  1  0.662700  0.078700  0.345000  1.0  0.104
  H  H103  1  0.766100  0.283600  0.360400  1.0  0.1093
  H  H104  1  0.616500  0.330800  0.369100  1.0  0.1148
  H  H105  1  0.879100  0.476700  0.497200  1.0  0.105
  H  H106  1  0.785600  0.475900  0.572500  1.0  0.107
  H  H107  1  0.749300  0.253900  0.557000  1.0  0.1222
  H  H108  1  0.841100  0.256200  0.478800  1.0  0.1006
  H  H109  1  0.659600  0.471600  0.619100  1.0  0.1065
  H  H110  1  0.575400  0.473000  0.698200  1.0  0.1174
  H  H111  1  0.659400  0.264100  0.729400  1.0  0.1129
  H  H112  1  0.725900  0.258300  0.645300  1.0  0.1044
  H  H113  1  0.852200  0.465000  0.227400  1.0  0.106
  H  H114  1  0.756300  0.462100  0.151400  1.0  0.1282
  H  H115  1  0.847200  0.259100  0.113500  1.0  0.1188
  H  H116  1  0.935700  0.257500  0.193500  1.0  0.0953
  H  H117  1  0.725800  0.476000  0.072400  1.0  0.1442
  H  H118  1  0.629800  0.478700  0.996900  1.0  0.0968
  H  H119  1  0.631700  0.256300  0.990000  1.0  0.1056
  H  H120  1  0.727200  0.252000  0.064900  1.0  0.1168
  H  H121  1  0.458200  0.941000  0.922600  1.0  0.0838
  H  H122  1  0.437800  0.812700  0.923100  1.0  0.1223
  H  H123  1  0.651400  0.755700  0.783100  1.0  0.1238
  H  H124  1  0.561500  0.764600  0.746700  1.0  0.1069
  H  H125  1  0.638900  0.827300  0.745900  1.0  0.1141
  H  H126  1  0.600900  0.931100  0.789700  1.0  0.1001
  H  H127  1  0.545300  0.567500  0.925000  1.0  0.1027
  H  H128  1  0.568600  0.694600  0.922100  1.0  0.1181
  H  H129  1  0.391300  0.769700  0.777500  1.0  0.1176
  H  H130  1  0.398600  0.699600  0.738300  1.0  0.1262
  H  H131  1  0.316800  0.704900  0.781100  1.0  0.1242
  H  H132  1  0.398600  0.575400  0.791900  1.0  0.0893
  H  H133  1  0.837100  0.089000  0.827500  1.0  0.1022
  H  H134  1  0.989100  0.136200  0.828300  1.0  0.1195
  H  H135  1  0.892700  0.328800  0.892800  1.0  0.1234
  H  H136  1  0.744600  0.282900  0.889300  1.0  0.0946
  H  H137  1  0.015500  0.374700  0.852100  1.0  0.1156
  H  H138  1  0.162700  0.421300  0.845000  1.0  0.1044
  H  H139  1  0.266100  0.216400  0.860400  1.0  0.1092
  H  H140  1  0.116500  0.169200  0.869100  1.0  0.1158
  H  H141  1  0.379100  0.023300  0.997200  1.0  0.1047
  H  H142  1  0.285600  0.024100  0.072500  1.0  0.1062
  H  H143  1  0.249300  0.246100  0.057000  1.0  0.1233
  H  H144  1  0.341100  0.243800  0.978800  1.0  0.1009
  H  H145  1  0.159600  0.028400  0.119100  1.0  0.106
  H  H146  1  0.075400  0.027000  0.198200  1.0  0.1175
  H  H147  1  0.159400  0.235900  0.229400  1.0  0.1131
  H  H148  1  0.225900  0.241700  0.145300  1.0  0.1046
  H  H149  1  0.352200  0.035000  0.727400  1.0  0.106
  H  H150  1  0.256300  0.037900  0.651400  1.0  0.128
  H  H151  1  0.347200  0.240900  0.613500  1.0  0.12
  H  H152  1  0.435700  0.242500  0.693500  1.0  0.0954
  H  H153  1  0.225800  0.024000  0.572400  1.0  0.1438
  H  H154  1  0.129800  0.021300  0.496900  1.0  0.0964
  H  H155  1  0.131700  0.243700  0.490000  1.0  0.1062
  H  H156  1  0.227200  0.248000  0.564900  1.0  0.1171
  C  C157  1  0.515300  0.087700  0.105400  1.0  0.168
  C  C158  1  0.528400  0.164000  0.104900  1.0  -0.193
  C  C159  1  0.490700  0.204700  0.146300  1.0  0.0435
  C  C160  1  0.440500  0.169600  0.186100  1.0  0.0919
  C  C161  1  0.393100  0.208900  0.231600  1.0  -0.359
  C  C162  1  0.432100  0.093600  0.182700  1.0  0.0987
  C  C163  1  0.479300  0.404500  0.103900  1.0  0.1602
  C  C164  1  0.466500  0.328900  0.105100  1.0  -0.1481
  C  C165  1  0.505700  0.286600  0.146900  1.0  0.0016
  C  C166  1  0.560500  0.323000  0.184700  1.0  0.0734
  C  C167  1  0.618400  0.283800  0.225500  1.0  -0.3698
  C  C168  1  0.566600  0.399300  0.181500  1.0  0.1445
  C  C169  1  0.319200  0.848300  0.138200  1.0  0.6759
  C  C170  1  0.224100  0.818900  0.140500  1.0  -0.1344
  C  C171  1  0.151300  0.862600  0.159300  1.0  -0.0315
  C  C172  1  0.060200  0.834600  0.158400  1.0  -0.1485
  C  C173  1  0.043700  0.763500  0.137800  1.0  0.0198
  C  C174  1  0.117900  0.719800  0.120300  1.0  -0.1604
  C  C175  1  0.206000  0.747500  0.122200  1.0  -0.0113
  C  C176  1  0.948400  0.733800  0.139700  1.0  0.0349
  C  C177  1  0.933600  0.658000  0.146000  1.0  -0.1404
  C  C178  1  0.846400  0.630200  0.149600  1.0  -0.0543
  C  C179  1  0.772400  0.676300  0.145400  1.0  -0.1163
  C  C180  1  0.785100  0.751100  0.140300  1.0  -0.0724
  C  C181  1  0.874500  0.779200  0.136200  1.0  -0.1288
  C  C182  1  0.676300  0.646100  0.151100  1.0  0.6879
  C  C183  1  0.575300  0.866500  0.069800  1.0  0.6804
  C  C184  1  0.634100  0.866800  0.021100  1.0  -0.1375
  C  C185  1  0.648700  0.931700  0.991600  1.0  -0.0327
  C  C186  1  0.703300  0.931000  0.946300  1.0  -0.1092
  C  C187  1  0.742100  0.865700  0.927600  1.0  0.0079
  C  C188  1  0.725400  0.799200  0.955500  1.0  -0.1302
  C  C189  1  0.670800  0.800900  0.002300  1.0  -0.0297
  C  C190  1  0.796700  0.865100  0.876900  1.0  0.0809
  C  C191  1  0.842600  0.928200  0.859300  1.0  -0.1455
  C  C192  1  0.891000  0.930100  0.811700  1.0  -0.1094
  C  C193  1  0.889700  0.868600  0.778800  1.0  -0.1165
  C  C194  1  0.843300  0.805600  0.794000  1.0  -0.1141
  C  C195  1  0.801200  0.803400  0.843100  1.0  -0.137
  C  C196  1  0.933200  0.871800  0.722900  1.0  0.7052
  C  C197  1  0.543800  0.861800  0.231400  1.0  0.7206
  C  C198  1  0.600900  0.862300  0.279900  1.0  -0.1108
  C  C199  1  0.650200  0.921600  0.294100  1.0  -0.0666
  C  C200  1  0.705900  0.920600  0.340800  1.0  -0.1312
  C  C201  1  0.706300  0.861700  0.374500  1.0  -0.014
  C  C202  1  0.653500  0.800400  0.362800  1.0  -0.159
  C  C203  1  0.600400  0.799600  0.315100  1.0  -0.0546
  C  C204  1  0.763600  0.863700  0.423900  1.0  0.0158
  C  C205  1  0.792700  0.931100  0.444300  1.0  -0.17
  C  C206  1  0.849400  0.932400  0.489600  1.0  -0.0192
  C  C207  1  0.875600  0.868900  0.515000  1.0  -0.1233
  C  C208  1  0.848200  0.801000  0.493700  1.0  -0.0504
  C  C209  1  0.792100  0.798500  0.449000  1.0  -0.1138
  C  C210  1  0.939200  0.870600  0.562400  1.0  0.6917
  C  C211  1  0.015300  0.412300  0.605400  1.0  0.1686
  C  C212  1  0.028400  0.336000  0.604900  1.0  -0.1927
  C  C213  1  0.990700  0.295300  0.646300  1.0  0.0429
  C  C214  1  0.940500  0.330400  0.686100  1.0  0.0921
  C  C215  1  0.893100  0.291100  0.731600  1.0  -0.3591
  C  C216  1  0.932100  0.406400  0.682700  1.0  0.0981
  C  C217  1  0.979300  0.095500  0.603900  1.0  0.1596
  C  C218  1  0.966500  0.171100  0.605100  1.0  -0.1486
  C  C219  1  0.005700  0.213400  0.646900  1.0  0.002
  C  C220  1  0.060500  0.177000  0.684700  1.0  0.0732
  C  C221  1  0.118400  0.216200  0.725500  1.0  -0.3696
  C  C222  1  0.066600  0.100700  0.681500  1.0  0.1443
  C  C223  1  0.819200  0.651700  0.638200  1.0  0.676
  C  C224  1  0.724100  0.681100  0.640500  1.0  -0.1354
  C  C225  1  0.651300  0.637400  0.659300  1.0  -0.0304
  C  C226  1  0.560200  0.665400  0.658400  1.0  -0.1478
  C  C227  1  0.543700  0.736500  0.637800  1.0  0.0197
  C  C228  1  0.617900  0.780200  0.620300  1.0  -0.1607
  C  C229  1  0.706000  0.752500  0.622200  1.0  -0.0115
  C  C230  1  0.448400  0.766200  0.639700  1.0  0.0348
  C  C231  1  0.433600  0.842000  0.646000  1.0  -0.1371
  C  C232  1  0.346400  0.869800  0.649600  1.0  -0.0536
  C  C233  1  0.272400  0.823700  0.645400  1.0  -0.1149
  C  C234  1  0.285100  0.748900  0.640300  1.0  -0.0722
  C  C235  1  0.374500  0.720800  0.636200  1.0  -0.1303
  C  C236  1  0.176300  0.853900  0.651100  1.0  0.6877
  C  C237  1  0.075300  0.633500  0.569800  1.0  0.6807
  C  C238  1  0.134100  0.633200  0.521100  1.0  -0.1378
  C  C239  1  0.148700  0.568300  0.491600  1.0  -0.0315
  C  C240  1  0.203300  0.569000  0.446300  1.0  -0.109
  C  C241  1  0.242100  0.634300  0.427600  1.0  0.0078
  C  C242  1  0.225400  0.700800  0.455500  1.0  -0.13
  C  C243  1  0.170800  0.699100  0.502300  1.0  -0.0305
  C  C244  1  0.296700  0.634900  0.376900  1.0  0.0808
  C  C245  1  0.342600  0.571800  0.359300  1.0  -0.1458
  C  C246  1  0.391000  0.569900  0.311700  1.0  -0.1087
  C  C247  1  0.389700  0.631400  0.278800  1.0  -0.116
  C  C248  1  0.343300  0.694400  0.294000  1.0  -0.1154
  C  C249  1  0.301200  0.696600  0.343100  1.0  -0.1382
  C  C250  1  0.433200  0.628200  0.222900  1.0  0.7052
  C  C251  1  0.043800  0.638200  0.731400  1.0  0.7204
  C  C252  1  0.100900  0.637700  0.779900  1.0  -0.1107
  C  C253  1  0.150200  0.578400  0.794100  1.0  -0.0663
  C  C254  1  0.205900  0.579400  0.840800  1.0  -0.132
  C  C255  1  0.206300  0.638300  0.874500  1.0  -0.014
  C  C256  1  0.153500  0.699600  0.862800  1.0  -0.1593
  C  C257  1  0.100400  0.700400  0.815100  1.0  -0.0557
  C  C258  1  0.263600  0.636300  0.923900  1.0  0.0158
  C  C259  1  0.292700  0.568900  0.944300  1.0  -0.1679
  C  C260  1  0.349400  0.567600  0.989600  1.0  -0.021
  C  C261  1  0.375600  0.631100  0.015000  1.0  -0.1232
  C  C262  1  0.348200  0.699000  0.993700  1.0  -0.0517
  C  C263  1  0.292100  0.701500  0.949000  1.0  -0.1137
  C  C264  1  0.439200  0.629400  0.062400  1.0  0.6915
  C  C265  1  0.984700  0.587700  0.394600  1.0  0.1699
  C  C266  1  0.971600  0.664000  0.395100  1.0  -0.1921
  C  C267  1  0.009300  0.704700  0.353700  1.0  0.0443
  C  C268  1  0.059500  0.669600  0.313900  1.0  0.0908
  C  C269  1  0.106900  0.708900  0.268400  1.0  -0.3596
  C  C270  1  0.067900  0.593600  0.317300  1.0  0.0972
  C  C271  1  0.020700  0.904500  0.396100  1.0  0.1612
  C  C272  1  0.033500  0.828900  0.394900  1.0  -0.1501
  C  C273  1  0.994300  0.786600  0.353100  1.0  0.0034
  C  C274  1  0.939500  0.823000  0.315300  1.0  0.0731
  C  C275  1  0.881600  0.783800  0.274500  1.0  -0.3694
  C  C276  1  0.933400  0.899300  0.318500  1.0  0.1455
  C  C277  1  0.180800  0.348300  0.361800  1.0  0.6751
  C  C278  1  0.275900  0.318900  0.359500  1.0  -0.1349
  C  C279  1  0.348700  0.362600  0.340700  1.0  -0.0319
  C  C280  1  0.439800  0.334600  0.341600  1.0  -0.1483
  C  C281  1  0.456300  0.263500  0.362200  1.0  0.0202
  C  C282  1  0.382100  0.219800  0.379700  1.0  -0.1616
  C  C283  1  0.294000  0.247500  0.377800  1.0  -0.0106
  C  C284  1  0.551600  0.233800  0.360300  1.0  0.0386
  C  C285  1  0.566400  0.158000  0.354000  1.0  -0.1385
  C  C286  1  0.653600  0.130200  0.350400  1.0  -0.0537
  C  C287  1  0.727600  0.176300  0.354600  1.0  -0.1147
  C  C288  1  0.714900  0.251100  0.359700  1.0  -0.0718
  C  C289  1  0.625500  0.279200  0.363800  1.0  -0.1279
  C  C290  1  0.823700  0.146100  0.348900  1.0  0.6874
  C  C291  1  0.924700  0.366500  0.430200  1.0  0.6803
  C  C292  1  0.865900  0.366800  0.478900  1.0  -0.1367
  C  C293  1  0.851300  0.431700  0.508400  1.0  -0.0339
  C  C294  1  0.796700  0.431000  0.553700  1.0  -0.1073
  C  C295  1  0.757900  0.365700  0.572400  1.0  0.0082
  C  C296  1  0.774600  0.299200  0.544500  1.0  -0.1307
  C  C297  1  0.829200  0.300900  0.497700  1.0  -0.0318
  C  C298  1  0.703300  0.365100  0.623100  1.0  0.0816
  C  C299  1  0.657400  0.428200  0.640700  1.0  -0.1465
  C  C300  1  0.609000  0.430100  0.688300  1.0  -0.1099
  C  C301  1  0.610300  0.368600  0.721200  1.0  -0.1164
  C  C302  1  0.656700  0.305600  0.706000  1.0  -0.1142
  C  C303  1  0.698800  0.303400  0.656900  1.0  -0.1392
  C  C304  1  0.566800  0.371800  0.777100  1.0  0.7045
  C  C305  1  0.956200  0.361800  0.268600  1.0  0.7225
  C  C306  1  0.899100  0.362300  0.220100  1.0  -0.1103
  C  C307  1  0.849800  0.421600  0.205900  1.0  -0.0675
  C  C308  1  0.794100  0.420600  0.159200  1.0  -0.1295
  C  C309  1  0.793700  0.361700  0.125500  1.0  -0.0166
  C  C310  1  0.846500  0.300400  0.137200  1.0  -0.1603
  C  C311  1  0.899600  0.299600  0.184900  1.0  -0.0556
  C  C312  1  0.736400  0.363700  0.076100  1.0  0.0147
  C  C313  1  0.707300  0.431100  0.055700  1.0  -0.1697
  C  C314  1  0.650600  0.432400  0.010400  1.0  -0.0207
  C  C315  1  0.624400  0.368900  0.985000  1.0  -0.122
  C  C316  1  0.651800  0.301000  0.006300  1.0  -0.0504
  C  C317  1  0.707900  0.298500  0.051000  1.0  -0.1148
  C  C318  1  0.560800  0.370600  0.937600  1.0  0.6912
  C  C319  1  0.484700  0.912300  0.894600  1.0  0.17
  C  C320  1  0.471600  0.836000  0.895100  1.0  -0.1921
  C  C321  1  0.509300  0.795300  0.853700  1.0  0.0436
  C  C322  1  0.559500  0.830400  0.813900  1.0  0.091
  C  C323  1  0.606900  0.791100  0.768400  1.0  -0.3599
  C  C324  1  0.567900  0.906400  0.817300  1.0  0.098
  C  C325  1  0.520700  0.595500  0.896100  1.0  0.1603
  C  C326  1  0.533500  0.671100  0.894900  1.0  -0.1506
  C  C327  1  0.494300  0.713400  0.853100  1.0  0.0041
  C  C328  1  0.439500  0.677000  0.815300  1.0  0.0729
  C  C329  1  0.381600  0.716200  0.774500  1.0  -0.3688
  C  C330  1  0.433400  0.600700  0.818500  1.0  0.1453
  C  C331  1  0.680800  0.151700  0.861800  1.0  0.6756
  C  C332  1  0.775900  0.181100  0.859500  1.0  -0.1359
  C  C333  1  0.848700  0.137400  0.840700  1.0  -0.0313
  C  C334  1  0.939800  0.165400  0.841600  1.0  -0.1493
  C  C335  1  0.956300  0.236500  0.862200  1.0  0.0197
  C  C336  1  0.882100  0.280200  0.879700  1.0  -0.162
  C  C337  1  0.794000  0.252500  0.877800  1.0  -0.0109
  C  C338  1  0.051600  0.266200  0.860300  1.0  0.0391
  C  C339  1  0.066400  0.342000  0.854000  1.0  -0.1393
  C  C340  1  0.153600  0.369800  0.850400  1.0  -0.0528
  C  C341  1  0.227600  0.323700  0.854600  1.0  -0.1146
  C  C342  1  0.214900  0.248900  0.859700  1.0  -0.072
  C  C343  1  0.125500  0.220800  0.863800  1.0  -0.1274
  C  C344  1  0.323700  0.353900  0.848900  1.0  0.6873
  C  C345  1  0.424700  0.133500  0.930200  1.0  0.6807
  C  C346  1  0.365900  0.133200  0.978900  1.0  -0.137
  C  C347  1  0.351300  0.068300  0.008400  1.0  -0.0346
  C  C348  1  0.296700  0.069000  0.053700  1.0  -0.1072
  C  C349  1  0.257900  0.134300  0.072400  1.0  0.0081
  C  C350  1  0.274600  0.200800  0.044500  1.0  -0.1302
  C  C351  1  0.329200  0.199100  0.997700  1.0  -0.0317
  C  C352  1  0.203300  0.134900  0.123100  1.0  0.0815
  C  C353  1  0.157400  0.071800  0.140700  1.0  -0.1464
  C  C354  1  0.109000  0.069900  0.188300  1.0  -0.1093
  C  C355  1  0.110300  0.131400  0.221200  1.0  -0.1164
  C  C356  1  0.156700  0.194400  0.206000  1.0  -0.1158
  C  C357  1  0.198800  0.196600  0.156900  1.0  -0.1394
  C  C358  1  0.066800  0.128200  0.277100  1.0  0.7046
  C  C359  1  0.456200  0.138200  0.768600  1.0  0.7225
  C  C360  1  0.399100  0.137700  0.720100  1.0  -0.1099
  C  C361  1  0.349800  0.078400  0.705900  1.0  -0.0663
  C  C362  1  0.294100  0.079400  0.659200  1.0  -0.1301
  C  C363  1  0.293700  0.138300  0.625500  1.0  -0.0163
  C  C364  1  0.346500  0.199600  0.637200  1.0  -0.1589
  C  C365  1  0.399600  0.200400  0.684900  1.0  -0.057
  C  C366  1  0.236400  0.136300  0.576100  1.0  0.0146
  C  C367  1  0.207300  0.068900  0.555700  1.0  -0.1699
  C  C368  1  0.150600  0.067600  0.510400  1.0  -0.022
  C  C369  1  0.124400  0.131100  0.485000  1.0  -0.122
  C  C370  1  0.151800  0.199000  0.506300  1.0  -0.052
  C  C371  1  0.207900  0.201500  0.551000  1.0  -0.1154
  C  C372  1  0.060800  0.129400  0.437600  1.0  0.6907
  N  N373  1  0.467000  0.053090  0.143600  1.0  -0.3048
  N  N374  1  0.526200  0.439200  0.143200  1.0  -0.3296
  N  N375  1  0.967000  0.446910  0.643600  1.0  -0.303
  N  N376  1  0.026200  0.060800  0.643200  1.0  -0.3287
  N  N377  1  0.033000  0.553090  0.356400  1.0  -0.3047
  N  N378  1  0.973800  0.939200  0.356800  1.0  -0.3296
  N  N379  1  0.533000  0.946910  0.856400  1.0  -0.303
  N  N380  1  0.473800  0.560800  0.856800  1.0  -0.3285
  O  O381  1  0.330400  0.914600  0.151100  1.0  -0.5908
  O  O382  1  0.382400  0.808300  0.120490  1.0  -0.6471
  O  O383  1  0.663900  0.578300  0.142400  1.0  -0.609
  O  O384  1  0.614400  0.688900  0.166660  1.0  -0.6384
  O  O385  1  0.526100  0.925100  0.077340  1.0  -0.6138
  O  O386  1  0.584100  0.816000  0.102160  1.0  -0.6048
  O  O387  1  0.979600  0.929700  0.712790  1.0  -0.5917
  O  O388  1  0.911600  0.824800  0.687800  1.0  -0.6139
  O  O389  1  0.532000  0.922000  0.209320  1.0  -0.5851
  O  O390  1  0.505600  0.801800  0.217670  1.0  -0.6259
  O  O391  1  0.958200  0.931800  0.580830  1.0  -0.5814
  O  O392  1  0.983200  0.811000  0.574650  1.0  -0.632
  O  O393  1  0.830400  0.585400  0.651100  1.0  -0.5903
  O  O394  1  0.882400  0.691700  0.620490  1.0  -0.6474
  O  O395  1  0.163900  0.921700  0.642400  1.0  -0.609
  O  O396  1  0.114400  0.811100  0.666667  1.0  -0.6385
  O  O397  1  0.026100  0.574900  0.577340  1.0  -0.6141
  O  O398  1  0.084100  0.684000  0.602160  1.0  -0.6048
  O  O399  1  0.479600  0.570300  0.212790  1.0  -0.5915
  O  O400  1  0.411600  0.675200  0.187800  1.0  -0.612
  O  O401  1  0.032000  0.578000  0.709320  1.0  -0.5855
  O  O402  1  0.005600  0.698200  0.717670  1.0  -0.6265
  O  O403  1  0.458200  0.568200  0.080830  1.0  -0.5823
  O  O404  1  0.483200  0.689000  0.074650  1.0  -0.6323
  O  O405  1  0.169600  0.414600  0.348900  1.0  -0.5909
  O  O406  1  0.117600  0.308300  0.379510  1.0  -0.6466
  O  O407  1  0.836100  0.078300  0.357600  1.0  -0.6098
  O  O408  1  0.885600  0.188900  0.333333  1.0  -0.6377
  O  O409  1  0.973900  0.425100  0.422660  1.0  -0.6149
  O  O410  1  0.915900  0.316000  0.397840  1.0  -0.6042
  O  O411  1  0.520400  0.429700  0.787210  1.0  -0.5909
  O  O412  1  0.588400  0.324800  0.812200  1.0  -0.6147
  O  O413  1  0.968000  0.422000  0.290680  1.0  -0.5852
  O  O414  1  0.994400  0.301800  0.282330  1.0  -0.6256
  O  O415  1  0.541800  0.431800  0.919170  1.0  -0.5811
  O  O416  1  0.516800  0.311000  0.925350  1.0  -0.6322
  O  O417  1  0.669600  0.085400  0.848900  1.0  -0.5906
  O  O418  1  0.617600  0.191700  0.879510  1.0  -0.6473
  O  O419  1  0.336100  0.421700  0.857600  1.0  -0.6104
  O  O420  1  0.385600  0.311100  0.833340  1.0  -0.6381
  O  O421  1  0.473900  0.074900  0.922660  1.0  -0.615
  O  O422  1  0.415900  0.184000  0.897840  1.0  -0.6048
  O  O423  1  0.020400  0.070300  0.287210  1.0  -0.5904
  O  O424  1  0.088400  0.175200  0.312200  1.0  -0.6123
  O  O425  1  0.468000  0.078000  0.790680  1.0  -0.5851
  O  O426  1  0.494400  0.198200  0.782330  1.0  -0.626
  O  O427  1  0.041800  0.068200  0.419170  1.0  -0.5812
  O  O428  1  0.016800  0.189000  0.425350  1.0  -0.6327
