# generated using pymatgen
data_Co6P8H70C39O44
_symmetry_space_group_name_H-M   'P 1'
_cell_length_a   15.74400000
_cell_length_b   17.89200000
_cell_length_c   18.30200000
_cell_angle_alpha   98.08600000
_cell_angle_beta   111.63400000
_cell_angle_gamma   104.92300000
_symmetry_Int_Tables_number   1
_chemical_formula_structural   Co6P8H70C39O44
_chemical_formula_sum   'Co12 P16 H140 C78 O88'
_cell_volume   4468.58143457
_cell_formula_units_Z   2
loop_
 _symmetry_equiv_pos_site_id
 _symmetry_equiv_pos_as_xyz
  1  'x, y, z'
loop_
 _atom_site_type_symbol
 _atom_site_label
 _atom_site_symmetry_multiplicity
 _atom_site_fract_x
 _atom_site_fract_y
 _atom_site_fract_z
 _atom_site_occupancy
 _atom_site_charge
  Co  Co1  1  0.260620  0.244660  0.260930  1.0  0.9262
  Co  Co2  1  0.261840  0.265170  0.768060  1.0  0.8777
  Co  Co3  1  0.981050  0.365160  0.599610  1.0  0.902
  Co  Co4  1  0.726790  0.101070  0.394850  1.0  0.8752
  Co  Co5  1  0.236690  0.724370  0.217820  1.0  0.8705
  Co  Co6  1  0.238110  0.555910  0.929720  1.0  0.764
  Co  Co7  1  0.739380  0.755340  0.739070  1.0  0.9278
  Co  Co8  1  0.738160  0.734830  0.231940  1.0  0.8758
  Co  Co9  1  0.018950  0.634840  0.400390  1.0  0.902
  Co  Co10  1  0.273210  0.898930  0.605150  1.0  0.8748
  Co  Co11  1  0.763310  0.275630  0.782180  1.0  0.8731
  Co  Co12  1  0.761890  0.444090  0.070280  1.0  0.7654
  P  P13  1  0.366740  0.344920  0.369610  1.0  0.9088
  P  P14  1  0.159420  0.147080  0.148900  1.0  0.9527
  P  P15  1  0.214880  0.388860  0.649370  1.0  1.4344
  P  P16  1  0.410810  0.649500  0.221720  1.0  1.3782
  P  P17  1  0.750610  0.255240  0.529700  1.0  1.391
  P  P18  1  0.753020  0.985780  0.162440  1.0  1.4518
  P  P19  1  0.304140  0.847550  0.102840  1.0  1.3982
  P  P20  1  0.084540  0.272100  0.827230  1.0  1.3405
  P  P21  1  0.633260  0.655080  0.630390  1.0  0.9089
  P  P22  1  0.840580  0.852920  0.851100  1.0  0.9531
  P  P23  1  0.785120  0.611140  0.350630  1.0  1.4338
  P  P24  1  0.589190  0.350500  0.778280  1.0  1.3792
  P  P25  1  0.249390  0.744760  0.470300  1.0  1.3908
  P  P26  1  0.246980  0.014220  0.837560  1.0  1.4517
  P  P27  1  0.695860  0.152450  0.897160  1.0  1.3992
  P  P28  1  0.915460  0.727900  0.172770  1.0  1.3411
  H  H29  1  0.648400  0.045000  0.135000  1.0  0.4051
  H  H30  1  0.031600  0.984700  0.111300  1.0  0.0956
  H  H31  1  0.882000  0.927300  0.114400  1.0  0.0882
  H  H32  1  0.874100  0.148900  0.188100  1.0  0.1011
  H  H33  1  0.023800  0.206400  0.185000  1.0  0.094
  H  H34  1  0.575700  0.434100  0.431100  1.0  0.094
  H  H35  1  0.715900  0.402000  0.493100  1.0  0.0973
  H  H36  1  0.550200  0.180700  0.478500  1.0  0.1029
  H  H37  1  0.410100  0.212800  0.416500  1.0  0.0997
  H  H38  1  0.199300  0.374700  0.377500  1.0  0.0986
  H  H39  1  0.142600  0.390700  0.478200  1.0  0.0929
  H  H40  1  0.385900  0.369300  0.642200  1.0  0.0914
  H  H41  1  0.442600  0.353300  0.541500  1.0  0.0982
  H  H42  1  0.339000  0.498200  0.402100  1.0  0.0986
  H  H43  1  0.349400  0.606000  0.342900  1.0  0.0953
  H  H44  1  0.460300  0.504100  0.204100  1.0  0.0987
  H  H45  1  0.450000  0.396400  0.263400  1.0  0.1
  H  H46  1  0.226200  0.079200  0.033000  1.0  0.0951
  H  H47  1  0.277400  0.968700  0.016700  1.0  0.1029
  H  H48  1  0.249600  0.921700  0.218500  1.0  0.0977
  H  H49  1  0.198500  0.032200  0.234900  1.0  0.1034
  H  H50  1  0.434700  0.374000  0.827000  1.0  0.4225
  H  H51  1  0.370000  0.411000  0.799000  1.0  0.4041
  H  H52  1  0.167000  0.116000  0.730000  1.0  0.4047
  H  H53  1  0.109000  0.160000  0.729000  1.0  0.3776
  H  H54  1  0.390000  0.233000  0.702000  1.0  0.4075
  H  H55  1  0.395600  0.243000  0.887000  1.0  0.3107
  H  H56  1  0.317000  0.181800  0.874000  1.0  0.4336
  H  H57  1  0.253200  0.282600  0.967300  1.0  0.1006
  H  H58  1  0.962600  0.180300  0.889700  1.0  0.096
  H  H59  1  0.988600  0.135300  0.007300  1.0  0.0982
  H  H60  1  0.278800  0.240900  0.087000  1.0  0.0942
  H  H61  1  0.022000  0.387000  0.753000  1.0  0.3346
  H  H62  1  0.072000  0.457700  0.749000  1.0  0.341
  H  H63  1  0.999000  0.229000  0.656000  1.0  0.4087
  H  H64  1  0.053700  0.262000  0.621000  1.0  0.396
  H  H65  1  0.940000  0.494000  0.608000  1.0  0.353
  H  H66  1  0.017000  0.509000  0.590000  1.0  0.3377
  H  H67  1  0.967000  0.291000  0.458000  1.0  0.389
  H  H68  1  0.878000  0.282000  0.456000  1.0  0.4253
  H  H69  1  0.731000  0.980000  0.311000  1.0  0.4151
  H  H70  1  0.657000  0.941500  0.327000  1.0  0.3926
  H  H71  1  0.673000  0.097300  0.506000  1.0  0.4114
  H  H72  1  0.594400  0.038000  0.448000  1.0  0.4121
  H  H73  1  0.353000  0.798000  0.368100  1.0  0.4053
  H  H74  1  0.401000  0.766000  0.333000  1.0  0.4304
  H  H75  1  0.119500  0.796000  0.262000  1.0  0.4111
  H  H76  1  0.208000  0.806000  0.318100  1.0  0.3761
  H  H77  1  0.056000  0.663000  0.124000  1.0  0.4298
  H  H78  1  0.100000  0.675000  0.073500  1.0  0.3927
  H  H79  1  0.171000  0.648000  0.313000  1.0  0.3975
  H  H80  1  0.150000  0.590400  0.248000  1.0  0.3093
  H  H81  1  0.768000  0.112000  0.273200  1.0  0.4257
  H  H82  1  0.851000  0.162000  0.333000  1.0  0.4
  H  H83  1  0.569000  0.082000  0.261200  1.0  0.3604
  H  H84  1  0.542000  0.074000  0.320000  1.0  0.4211
  H  H85  1  0.895000  0.076000  0.478000  1.0  0.3367
  H  H86  1  0.907000  0.147000  0.523000  1.0  0.4188
  H  H87  1  0.260000  0.643000  0.067000  1.0  0.4004
  H  H88  1  0.234000  0.689800  0.019000  1.0  0.4274
  H  H89  1  0.124000  0.491000  0.985900  1.0  0.3103
  H  H90  1  0.097000  0.442000  0.914000  1.0  0.3842
  H  H91  1  0.367000  0.646000  0.884000  1.0  0.3962
  H  H92  1  0.391000  0.671000  0.963000  1.0  0.3506
  H  H93  1  0.369000  0.553000  0.064100  1.0  0.4264
  H  H94  1  0.355000  0.490000  0.007000  1.0  0.2994
  H  H95  1  0.094000  0.596000  0.839000  1.0  0.4066
  H  H96  1  0.161000  0.622000  0.813000  1.0  0.3507
  H  H97  1  0.259000  0.471000  0.810000  1.0  0.4241
  H  H98  1  0.214000  0.416000  0.836000  1.0  0.3555
  H  H99  1  0.351600  0.955000  0.865000  1.0  0.4042
  H  H100  1  0.968400  0.015300  0.888700  1.0  0.0955
  H  H101  1  0.118000  0.072700  0.885600  1.0  0.0882
  H  H102  1  0.125900  0.851100  0.811900  1.0  0.1009
  H  H103  1  0.976200  0.793600  0.815000  1.0  0.0943
  H  H104  1  0.424300  0.565900  0.568900  1.0  0.0936
  H  H105  1  0.284100  0.598000  0.506900  1.0  0.0974
  H  H106  1  0.449800  0.819300  0.521500  1.0  0.1029
  H  H107  1  0.589900  0.787200  0.583500  1.0  0.0995
  H  H108  1  0.800700  0.625300  0.622500  1.0  0.0986
  H  H109  1  0.857400  0.609300  0.521800  1.0  0.0935
  H  H110  1  0.614100  0.630700  0.357800  1.0  0.0911
  H  H111  1  0.557400  0.646700  0.458500  1.0  0.0983
  H  H112  1  0.661000  0.501800  0.597900  1.0  0.0988
  H  H113  1  0.650600  0.394000  0.657100  1.0  0.0956
  H  H114  1  0.539700  0.495900  0.795900  1.0  0.0986
  H  H115  1  0.550000  0.603600  0.736600  1.0  0.0995
  H  H116  1  0.773800  0.920800  0.967000  1.0  0.0952
  H  H117  1  0.722600  0.031300  0.983300  1.0  0.1029
  H  H118  1  0.750400  0.078300  0.781500  1.0  0.0976
  H  H119  1  0.801500  0.967800  0.765100  1.0  0.1041
  H  H120  1  0.565300  0.626000  0.173000  1.0  0.4231
  H  H121  1  0.630000  0.589000  0.201000  1.0  0.4048
  H  H122  1  0.833000  0.884000  0.270000  1.0  0.4034
  H  H123  1  0.891000  0.840000  0.271000  1.0  0.3769
  H  H124  1  0.610000  0.767000  0.298000  1.0  0.406
  H  H125  1  0.604400  0.757000  0.113000  1.0  0.3083
  H  H126  1  0.683000  0.818200  0.126000  1.0  0.4341
  H  H127  1  0.746800  0.717400  0.032700  1.0  0.0996
  H  H128  1  0.037400  0.819700  0.110300  1.0  0.0959
  H  H129  1  0.011400  0.864700  0.992700  1.0  0.0985
  H  H130  1  0.721200  0.759100  0.913000  1.0  0.0932
  H  H131  1  0.978000  0.613000  0.247000  1.0  0.335
  H  H132  1  0.928000  0.542300  0.251000  1.0  0.34
  H  H133  1  0.001000  0.771000  0.344000  1.0  0.4086
  H  H134  1  0.946300  0.738000  0.379000  1.0  0.3973
  H  H135  1  0.060000  0.506000  0.392000  1.0  0.3519
  H  H136  1  0.983000  0.491000  0.410000  1.0  0.3434
  H  H137  1  0.033000  0.709000  0.542000  1.0  0.3888
  H  H138  1  0.122000  0.718000  0.544000  1.0  0.4216
  H  H139  1  0.269000  0.020000  0.689000  1.0  0.4153
  H  H140  1  0.343000  0.058500  0.673000  1.0  0.3948
  H  H141  1  0.327000  0.902700  0.494000  1.0  0.4085
  H  H142  1  0.405600  0.962000  0.552000  1.0  0.4137
  H  H143  1  0.647000  0.202000  0.631900  1.0  0.404
  H  H144  1  0.599000  0.234000  0.667000  1.0  0.4302
  H  H145  1  0.880500  0.204000  0.738000  1.0  0.4107
  H  H146  1  0.792000  0.194000  0.681900  1.0  0.3776
  H  H147  1  0.944000  0.337000  0.876000  1.0  0.4297
  H  H148  1  0.900000  0.325000  0.926500  1.0  0.3918
  H  H149  1  0.829000  0.352000  0.687000  1.0  0.3985
  H  H150  1  0.850000  0.409600  0.752000  1.0  0.3084
  H  H151  1  0.232000  0.888000  0.726800  1.0  0.4251
  H  H152  1  0.149000  0.838000  0.667000  1.0  0.3993
  H  H153  1  0.431000  0.918000  0.738800  1.0  0.3593
  H  H154  1  0.458000  0.926000  0.680000  1.0  0.4188
  H  H155  1  0.105000  0.924000  0.522000  1.0  0.3377
  H  H156  1  0.093000  0.853000  0.477000  1.0  0.4172
  H  H157  1  0.740000  0.357000  0.933000  1.0  0.4008
  H  H158  1  0.766000  0.310200  0.981000  1.0  0.4258
  H  H159  1  0.876000  0.509000  0.014100  1.0  0.3097
  H  H160  1  0.903000  0.558000  0.086000  1.0  0.3838
  H  H161  1  0.633000  0.354000  0.116000  1.0  0.396
  H  H162  1  0.609000  0.329000  0.037000  1.0  0.3524
  H  H163  1  0.631000  0.447000  0.935900  1.0  0.4254
  H  H164  1  0.645000  0.510000  0.993000  1.0  0.3011
  H  H165  1  0.906000  0.404000  0.161000  1.0  0.4094
  H  H166  1  0.839000  0.378000  0.187000  1.0  0.3489
  H  H167  1  0.741000  0.529000  0.190000  1.0  0.4235
  H  H168  1  0.786000  0.584000  0.164000  1.0  0.3572
  C  C169  1  0.360000  0.228400  0.242700  1.0  0.2178
  C  C170  1  0.215400  0.191300  0.322400  1.0  0.2138
  C  C171  1  0.203000  0.312700  0.218100  1.0  0.2111
  C  C172  1  0.041730  0.100940  0.147880  1.0  -0.2641
  C  C173  1  0.999620  0.018050  0.126920  1.0  -0.0725
  C  C174  1  0.910700  0.983930  0.128740  1.0  -0.036
  C  C175  1  0.863980  0.032690  0.151530  1.0  -0.3522
  C  C176  1  0.906100  0.115580  0.172490  1.0  -0.0537
  C  C177  1  0.995000  0.149700  0.170670  1.0  -0.0467
  C  C178  1  0.479730  0.326450  0.417970  1.0  -0.2367
  C  C179  1  0.570600  0.382670  0.440730  1.0  -0.0584
  C  C180  1  0.653810  0.363610  0.477570  1.0  -0.046
  C  C181  1  0.646230  0.288330  0.491650  1.0  -0.306
  C  C182  1  0.555400  0.232120  0.468890  1.0  -0.0883
  C  C183  1  0.472150  0.251180  0.432050  1.0  -0.0588
  C  C184  1  0.326260  0.362470  0.450000  1.0  -0.2831
  C  C185  1  0.237170  0.373570  0.431210  1.0  -0.0611
  C  C186  1  0.203500  0.383080  0.491060  1.0  -0.0502
  C  C187  1  0.258920  0.381490  0.569700  1.0  -0.3517
  C  C188  1  0.348010  0.370390  0.588490  1.0  -0.049
  C  C189  1  0.381690  0.360890  0.528640  1.0  -0.046
  C  C190  1  0.393500  0.437190  0.338340  1.0  -0.2921
  C  C191  1  0.363600  0.499420  0.361940  1.0  -0.0678
  C  C192  1  0.369800  0.563420  0.326730  1.0  -0.0572
  C  C193  1  0.405800  0.565170  0.267920  1.0  -0.3544
  C  C194  1  0.435700  0.502940  0.244320  1.0  -0.069
  C  C195  1  0.429500  0.438940  0.279530  1.0  -0.059
  C  C196  1  0.207500  0.066050  0.135530  1.0  -0.2676
  C  C197  1  0.231000  0.047210  0.070700  1.0  -0.0579
  C  C198  1  0.261400  0.981600  0.060960  1.0  -0.0586
  C  C199  1  0.268300  0.934830  0.116050  1.0  -0.3027
  C  C200  1  0.244900  0.953670  0.180880  1.0  -0.0696
  C  C201  1  0.214500  0.019280  0.190620  1.0  -0.0632
  C  C202  1  0.135400  0.182000  0.057700  1.0  -0.2351
  C  C203  1  0.105300  0.235800  0.917300  1.0  -0.3593
  C  C204  1  0.199500  0.253300  0.975700  1.0  -0.0218
  C  C205  1  0.026900  0.192000  0.929500  1.0  -0.0696
  C  C206  1  0.042400  0.165300  0.999400  1.0  -0.0338
  C  C207  1  0.214700  0.227600  0.046300  1.0  -0.0482
  C  C208  1  0.640000  0.771600  0.757300  1.0  0.216
  C  C209  1  0.784600  0.808700  0.677600  1.0  0.2132
  C  C210  1  0.797000  0.687300  0.781900  1.0  0.212
  C  C211  1  0.958270  0.899060  0.852120  1.0  -0.2684
  C  C212  1  0.000380  0.981950  0.873080  1.0  -0.0721
  C  C213  1  0.089300  0.016070  0.871260  1.0  -0.0365
  C  C214  1  0.136020  0.967310  0.848470  1.0  -0.3505
  C  C215  1  0.093900  0.884420  0.827510  1.0  -0.0547
  C  C216  1  0.005000  0.850300  0.829330  1.0  -0.047
  C  C217  1  0.520270  0.673550  0.582030  1.0  -0.2375
  C  C218  1  0.429400  0.617330  0.559270  1.0  -0.0564
  C  C219  1  0.346190  0.636390  0.522430  1.0  -0.0418
  C  C220  1  0.353770  0.711670  0.508350  1.0  -0.303
  C  C221  1  0.444600  0.767880  0.531110  1.0  -0.089
  C  C222  1  0.527850  0.748820  0.567950  1.0  -0.0604
  C  C223  1  0.673740  0.637530  0.550000  1.0  -0.2824
  C  C224  1  0.762830  0.626430  0.568790  1.0  -0.0581
  C  C225  1  0.796500  0.616920  0.508940  1.0  -0.05
  C  C226  1  0.741080  0.618510  0.430300  1.0  -0.3529
  C  C227  1  0.651990  0.629610  0.411510  1.0  -0.0487
  C  C228  1  0.618310  0.639110  0.471360  1.0  -0.0456
  C  C229  1  0.606500  0.562810  0.661660  1.0  -0.2891
  C  C230  1  0.636400  0.500580  0.638060  1.0  -0.07
  C  C231  1  0.630200  0.436580  0.673270  1.0  -0.0576
  C  C232  1  0.594200  0.434830  0.732080  1.0  -0.353
  C  C233  1  0.564300  0.497060  0.755680  1.0  -0.0657
  C  C234  1  0.570500  0.561060  0.720470  1.0  -0.0579
  C  C235  1  0.792500  0.933950  0.864470  1.0  -0.2679
  C  C236  1  0.769000  0.952790  0.929300  1.0  -0.0572
  C  C237  1  0.738600  0.018400  0.939040  1.0  -0.0591
  C  C238  1  0.731700  0.065170  0.883950  1.0  -0.3054
  C  C239  1  0.755100  0.046330  0.819120  1.0  -0.0708
  C  C240  1  0.785500  0.980720  0.809380  1.0  -0.0638
  C  C241  1  0.864600  0.818000  0.942300  1.0  -0.2354
  C  C242  1  0.894700  0.764200  0.082700  1.0  -0.3607
  C  C243  1  0.800500  0.746700  0.024300  1.0  -0.0241
  C  C244  1  0.973100  0.808000  0.070500  1.0  -0.071
  C  C245  1  0.957600  0.834700  0.000600  1.0  -0.0345
  C  C246  1  0.785300  0.772400  0.953700  1.0  -0.0468
  O  O247  1  0.422500  0.217200  0.231170  1.0  -0.3612
  O  O248  1  0.187100  0.158600  0.362300  1.0  -0.3261
  O  O249  1  0.168100  0.355500  0.189500  1.0  -0.3872
  O  O250  1  0.295700  0.453620  0.722850  1.0  -0.6844
  O  O251  1  0.123400  0.410370  0.615340  1.0  -0.8113
  O  O252  1  0.193700  0.306200  0.666790  1.0  -0.8053
  O  O253  1  0.478600  0.724840  0.289120  1.0  -0.6901
  O  O254  1  0.305600  0.648280  0.182210  1.0  -0.8249
  O  O255  1  0.447900  0.633140  0.156970  1.0  -0.7303
  O  O256  1  0.724200  0.192710  0.574050  1.0  -0.7215
  O  O257  1  0.838400  0.327910  0.585450  1.0  -0.7728
  O  O258  1  0.761200  0.218000  0.454590  1.0  -0.8048
  O  O259  1  0.788800  0.965280  0.244930  1.0  -0.7682
  O  O260  1  0.706100  0.049620  0.167020  1.0  -0.676
  O  O261  1  0.693200  0.912200  0.092220  1.0  -0.717
  O  O262  1  0.411400  0.874950  0.123060  1.0  -0.6401
  O  O263  1  0.248100  0.802260  0.008940  1.0  -0.5885
  O  O264  1  0.271500  0.795370  0.150000  1.0  -0.7955
  O  O265  1  0.039200  0.337170  0.837360  1.0  -0.6286
  O  O266  1  0.013000  0.201630  0.754480  1.0  -0.6743
  O  O267  1  0.379400  0.374640  0.823330  1.0  -0.7637
  O  O268  1  0.182100  0.306930  0.824370  1.0  -0.805
  O  O269  1  0.151300  0.154430  0.712130  1.0  -0.7312
  O  O270  1  0.337000  0.222060  0.705400  1.0  -0.7308
  O  O271  1  0.334500  0.229210  0.869310  1.0  -0.7636
  O  O272  1  0.020300  0.417860  0.721540  1.0  -0.677
  O  O273  1  0.996500  0.251850  0.617820  1.0  -0.6367
  O  O274  1  0.961400  0.474740  0.576010  1.0  -0.7849
  O  O275  1  0.935000  0.314670  0.475020  1.0  -0.7857
  O  O276  1  0.705300  0.984370  0.344010  1.0  -0.7622
  O  O277  1  0.655900  0.055020  0.468520  1.0  -0.7599
  O  O278  1  0.360300  0.790100  0.324190  1.0  -0.7523
  O  O279  1  0.176500  0.800420  0.267800  1.0  -0.7132
  O  O280  1  0.104200  0.659300  0.115800  1.0  -0.7485
  O  O281  1  0.185600  0.637920  0.273880  1.0  -0.7462
  O  O282  1  0.790400  0.144300  0.320590  1.0  -0.7394
  O  O283  1  0.590700  0.099800  0.312800  1.0  -0.7934
  O  O284  1  0.864100  0.108100  0.483100  1.0  -0.7679
  O  O285  1  0.235400  0.642470  0.017210  1.0  -0.7266
  O  O286  1  0.117200  0.480170  0.937230  1.0  -0.7404
  O  O287  1  0.343500  0.643300  0.919100  1.0  -0.7969
  O  O288  1  0.325300  0.518300  0.021660  1.0  -0.7749
  O  O289  1  0.139900  0.585000  0.832300  1.0  -0.7756
  O  O290  1  0.234700  0.466300  0.843590  1.0  -0.6557
  O  O291  1  0.577500  0.782800  0.768830  1.0  -0.3586
  O  O292  1  0.812900  0.841400  0.637700  1.0  -0.3232
  O  O293  1  0.831900  0.644500  0.810500  1.0  -0.3863
  O  O294  1  0.704300  0.546380  0.277150  1.0  -0.6866
  O  O295  1  0.876600  0.589630  0.384660  1.0  -0.8107
  O  O296  1  0.806300  0.693800  0.333210  1.0  -0.8048
  O  O297  1  0.521400  0.275160  0.710880  1.0  -0.6909
  O  O298  1  0.694400  0.351720  0.817790  1.0  -0.8248
  O  O299  1  0.552100  0.366860  0.843030  1.0  -0.7309
  O  O300  1  0.275800  0.807290  0.425950  1.0  -0.7207
  O  O301  1  0.161600  0.672090  0.414550  1.0  -0.7709
  O  O302  1  0.238800  0.782000  0.545410  1.0  -0.8053
  O  O303  1  0.211200  0.034720  0.755070  1.0  -0.7693
  O  O304  1  0.293900  0.950380  0.832980  1.0  -0.6762
  O  O305  1  0.306800  0.087800  0.907780  1.0  -0.7162
  O  O306  1  0.588600  0.125050  0.876940  1.0  -0.6338
  O  O307  1  0.751900  0.197740  0.991060  1.0  -0.5893
  O  O308  1  0.728500  0.204630  0.850000  1.0  -0.7968
  O  O309  1  0.960800  0.662830  0.162640  1.0  -0.6274
  O  O310  1  0.987000  0.798370  0.245520  1.0  -0.6768
  O  O311  1  0.620600  0.625360  0.176670  1.0  -0.7663
  O  O312  1  0.817900  0.693070  0.175630  1.0  -0.8028
  O  O313  1  0.848700  0.845570  0.287870  1.0  -0.7314
  O  O314  1  0.663000  0.777940  0.294600  1.0  -0.7326
  O  O315  1  0.665500  0.770790  0.130690  1.0  -0.7637
  O  O316  1  0.979700  0.582140  0.278460  1.0  -0.6759
  O  O317  1  0.003500  0.748150  0.382180  1.0  -0.6351
  O  O318  1  0.038600  0.525260  0.423990  1.0  -0.7843
  O  O319  1  0.065000  0.685330  0.524980  1.0  -0.7889
  O  O320  1  0.294700  0.015630  0.655990  1.0  -0.7656
  O  O321  1  0.344100  0.944980  0.531480  1.0  -0.7593
  O  O322  1  0.639700  0.209900  0.675810  1.0  -0.7477
  O  O323  1  0.823500  0.199580  0.732200  1.0  -0.7123
  O  O324  1  0.895800  0.340700  0.884200  1.0  -0.7477
  O  O325  1  0.814400  0.362080  0.726120  1.0  -0.7412
  O  O326  1  0.209600  0.855700  0.679410  1.0  -0.7407
  O  O327  1  0.409300  0.900200  0.687200  1.0  -0.7962
  O  O328  1  0.135900  0.891900  0.516900  1.0  -0.7664
  O  O329  1  0.764600  0.357530  0.982790  1.0  -0.7233
  O  O330  1  0.882800  0.519830  0.062770  1.0  -0.7416
  O  O331  1  0.656500  0.356700  0.080900  1.0  -0.7958
  O  O332  1  0.674700  0.481700  0.978340  1.0  -0.7715
  O  O333  1  0.860100  0.415000  0.167700  1.0  -0.7732
  O  O334  1  0.765300  0.533700  0.156410  1.0  -0.6552
