# generated using pymatgen
data_CdH8C6N6Cl
_symmetry_space_group_name_H-M   'P 1'
_cell_length_a   18.91200000
_cell_length_b   7.59560000
_cell_length_c   13.89240000
_cell_angle_alpha   90.00000000
_cell_angle_beta   90.00000000
_cell_angle_gamma   90.00000000
_symmetry_Int_Tables_number   1
_chemical_formula_structural   CdH8C6N6Cl
_chemical_formula_sum   'Cd4 H32 C24 N24 Cl4'
_cell_volume   1995.61529738
_cell_formula_units_Z   4
loop_
 _symmetry_equiv_pos_site_id
 _symmetry_equiv_pos_as_xyz
  1  'x, y, z'
loop_
 _atom_site_type_symbol
 _atom_site_label
 _atom_site_symmetry_multiplicity
 _atom_site_fract_x
 _atom_site_fract_y
 _atom_site_fract_z
 _atom_site_occupancy
 _atom_site_charge
  Cd  Cd1  1  0.500000  0.500000  0.500000  1.0  0.6849
  Cd  Cd2  1  0.000000  0.500000  0.000000  1.0  0.6849
  Cd  Cd3  1  0.500000  0.000000  0.500000  1.0  0.6849
  Cd  Cd4  1  0.000000  0.000000  0.000000  1.0  0.6849
  H  H5  1  0.696300  0.354600  0.170600  1.0  0.0743
  H  H6  1  0.782600  0.354400  0.294400  1.0  0.0719
  H  H7  1  0.629700  0.507400  0.316200  1.0  0.0666
  H  H8  1  0.851200  0.509500  0.152700  1.0  0.0685
  H  H9  1  0.803700  0.645400  0.670600  1.0  0.0746
  H  H10  1  0.717400  0.645600  0.794400  1.0  0.0721
  H  H11  1  0.870300  0.492600  0.816200  1.0  0.0673
  H  H12  1  0.648800  0.490500  0.652700  1.0  0.0675
  H  H13  1  0.303700  0.854600  0.829400  1.0  0.0738
  H  H14  1  0.217400  0.854400  0.705600  1.0  0.0733
  H  H15  1  0.370300  0.007400  0.683800  1.0  0.0668
  H  H16  1  0.148800  0.009500  0.847300  1.0  0.068
  H  H17  1  0.196300  0.145400  0.329400  1.0  0.0744
  H  H18  1  0.282600  0.145600  0.205600  1.0  0.0725
  H  H19  1  0.129700  0.992600  0.183800  1.0  0.0668
  H  H20  1  0.351200  0.990500  0.347300  1.0  0.0675
  H  H21  1  0.303700  0.645400  0.829400  1.0  0.0741
  H  H22  1  0.217400  0.645600  0.705600  1.0  0.0725
  H  H23  1  0.370300  0.492600  0.683800  1.0  0.0672
  H  H24  1  0.148800  0.490500  0.847300  1.0  0.0676
  H  H25  1  0.196300  0.354600  0.329400  1.0  0.0742
  H  H26  1  0.282600  0.354400  0.205600  1.0  0.0732
  H  H27  1  0.129700  0.507400  0.183800  1.0  0.0663
  H  H28  1  0.351200  0.509500  0.347300  1.0  0.0682
  H  H29  1  0.696300  0.145400  0.170600  1.0  0.0737
  H  H30  1  0.782600  0.145600  0.294400  1.0  0.0714
  H  H31  1  0.629700  0.992600  0.316200  1.0  0.0671
  H  H32  1  0.851200  0.990500  0.152700  1.0  0.0675
  H  H33  1  0.803700  0.854600  0.670600  1.0  0.0748
  H  H34  1  0.717400  0.854400  0.794400  1.0  0.0725
  H  H35  1  0.870300  0.007400  0.816200  1.0  0.0666
  H  H36  1  0.648800  0.009500  0.652700  1.0  0.0682
  C  C37  1  0.619800  0.389600  0.331900  1.0  0.1235
  C  C38  1  0.861600  0.391700  0.137700  1.0  0.0967
  C  C39  1  0.880200  0.610400  0.831900  1.0  0.1229
  C  C40  1  0.638400  0.608300  0.637700  1.0  0.0969
  C  C41  1  0.380200  0.889600  0.668100  1.0  0.1227
  C  C42  1  0.138400  0.891700  0.862300  1.0  0.0969
  C  C43  1  0.119800  0.110400  0.168100  1.0  0.1232
  C  C44  1  0.361600  0.108300  0.362300  1.0  0.097
  C  C45  1  0.380200  0.610400  0.668100  1.0  0.123
  C  C46  1  0.138400  0.608300  0.862300  1.0  0.0966
  C  C47  1  0.119800  0.389600  0.168100  1.0  0.123
  C  C48  1  0.361600  0.391700  0.362300  1.0  0.0971
  C  C49  1  0.619800  0.110400  0.331900  1.0  0.123
  C  C50  1  0.861600  0.108300  0.137700  1.0  0.0972
  C  C51  1  0.880200  0.889600  0.831900  1.0  0.1234
  C  C52  1  0.638400  0.891700  0.637700  1.0  0.0967
  C  C53  1  0.702700  0.250000  0.211000  1.0  -0.0489
  C  C54  1  0.776500  0.250000  0.253700  1.0  -0.0319
  C  C55  1  0.797300  0.750000  0.711000  1.0  -0.0508
  C  C56  1  0.723500  0.750000  0.753700  1.0  -0.0325
  C  C57  1  0.297300  0.750000  0.789000  1.0  -0.0547
  C  C58  1  0.223500  0.750000  0.746300  1.0  -0.0336
  C  C59  1  0.202700  0.250000  0.289000  1.0  -0.0545
  C  C60  1  0.276500  0.250000  0.246300  1.0  -0.035
  N  N61  1  0.575100  0.341300  0.397300  1.0  -0.2769
  N  N62  1  0.908500  0.341400  0.074800  1.0  -0.2583
  N  N63  1  0.924900  0.658700  0.897300  1.0  -0.2756
  N  N64  1  0.591500  0.658600  0.574800  1.0  -0.2559
  N  N65  1  0.424900  0.841300  0.602700  1.0  -0.2768
  N  N66  1  0.091500  0.841400  0.925200  1.0  -0.2571
  N  N67  1  0.075100  0.158700  0.102700  1.0  -0.2747
  N  N68  1  0.408500  0.158600  0.425200  1.0  -0.2561
  N  N69  1  0.424900  0.658700  0.602700  1.0  -0.2752
  N  N70  1  0.091500  0.658600  0.925200  1.0  -0.2556
  N  N71  1  0.075100  0.341300  0.102700  1.0  -0.2759
  N  N72  1  0.408500  0.341400  0.425200  1.0  -0.2576
  N  N73  1  0.575100  0.158700  0.397300  1.0  -0.2758
  N  N74  1  0.908500  0.158600  0.074800  1.0  -0.257
  N  N75  1  0.924900  0.841300  0.897300  1.0  -0.2767
  N  N76  1  0.591500  0.841400  0.574800  1.0  -0.2569
  N  N77  1  0.650300  0.250000  0.289300  1.0  -0.0173
  N  N78  1  0.830100  0.250000  0.178500  1.0  0.0046
  N  N79  1  0.849700  0.750000  0.789300  1.0  -0.0197
  N  N80  1  0.669900  0.750000  0.678500  1.0  0.0047
  N  N81  1  0.349700  0.750000  0.710700  1.0  -0.0199
  N  N82  1  0.169900  0.750000  0.821500  1.0  0.0048
  N  N83  1  0.150300  0.250000  0.210700  1.0  -0.0176
  N  N84  1  0.330100  0.250000  0.321500  1.0  0.0045
  Cl  Cl85  1  0.509250  0.250000  0.627950  1.0  -0.5234
  Cl  Cl86  1  0.990750  0.750000  0.127950  1.0  -0.5231
  Cl  Cl87  1  0.490750  0.750000  0.372050  1.0  -0.5222
  Cl  Cl88  1  0.009250  0.250000  0.872050  1.0  -0.5222
