# generated using pymatgen
data_CdH8C6N6Cl
_symmetry_space_group_name_H-M   'P 1'
_cell_length_a   7.62000000
_cell_length_b   20.96300000
_cell_length_c   9.87600000
_cell_angle_alpha   90.00000000
_cell_angle_beta   90.00000000
_cell_angle_gamma   90.00000000
_symmetry_Int_Tables_number   1
_chemical_formula_structural   CdH8C6N6Cl
_chemical_formula_sum   'Cd4 H32 C24 N24 Cl4'
_cell_volume   1577.57308056
_cell_formula_units_Z   4
loop_
 _symmetry_equiv_pos_site_id
 _symmetry_equiv_pos_as_xyz
  1  'x, y, z'
loop_
 _atom_site_type_symbol
 _atom_site_label
 _atom_site_symmetry_multiplicity
 _atom_site_fract_x
 _atom_site_fract_y
 _atom_site_fract_z
 _atom_site_occupancy
 _atom_site_charge
  Cd  Cd1  1  0.750000  0.250000  0.250000  1.0  0.6991
  Cd  Cd2  1  0.250000  0.250000  0.250000  1.0  0.6991
  Cd  Cd3  1  0.250000  0.750000  0.750000  1.0  0.6991
  Cd  Cd4  1  0.750000  0.750000  0.750000  1.0  0.6991
  H  H5  1  0.756600  0.109000  0.053200  1.0  0.0777
  H  H6  1  0.396800  0.024400  0.893300  1.0  0.0886
  H  H7  1  0.256600  0.609000  0.553200  1.0  0.0777
  H  H8  1  0.896800  0.524400  0.393300  1.0  0.0886
  H  H9  1  0.243400  0.391000  0.053200  1.0  0.0792
  H  H10  1  0.603200  0.475600  0.893300  1.0  0.0872
  H  H11  1  0.743400  0.891000  0.553200  1.0  0.0792
  H  H12  1  0.103200  0.975600  0.393300  1.0  0.0872
  H  H13  1  0.243400  0.609000  0.946800  1.0  0.0789
  H  H14  1  0.603200  0.524400  0.106700  1.0  0.0871
  H  H15  1  0.743400  0.109000  0.446800  1.0  0.0789
  H  H16  1  0.103200  0.024400  0.606700  1.0  0.0871
  H  H17  1  0.756600  0.891000  0.946800  1.0  0.0776
  H  H18  1  0.396800  0.975600  0.106700  1.0  0.0887
  H  H19  1  0.256600  0.391000  0.446800  1.0  0.0776
  H  H20  1  0.896800  0.475600  0.606700  1.0  0.0887
  H  H21  1  0.243400  0.891000  0.946800  1.0  0.0787
  H  H22  1  0.603200  0.975600  0.106700  1.0  0.0876
  H  H23  1  0.743400  0.391000  0.446800  1.0  0.0787
  H  H24  1  0.103200  0.475600  0.606700  1.0  0.0876
  H  H25  1  0.756600  0.609000  0.946800  1.0  0.0778
  H  H26  1  0.396800  0.524400  0.106700  1.0  0.0885
  H  H27  1  0.256600  0.109000  0.446800  1.0  0.0778
  H  H28  1  0.896800  0.024400  0.606700  1.0  0.0885
  H  H29  1  0.756600  0.391000  0.053200  1.0  0.0775
  H  H30  1  0.396800  0.475600  0.893300  1.0  0.0885
  H  H31  1  0.256600  0.891000  0.553200  1.0  0.0775
  H  H32  1  0.896800  0.975600  0.393300  1.0  0.0885
  H  H33  1  0.243400  0.109000  0.053200  1.0  0.0794
  H  H34  1  0.603200  0.024400  0.893300  1.0  0.0873
  H  H35  1  0.743400  0.609000  0.553200  1.0  0.0794
  H  H36  1  0.103200  0.524400  0.393300  1.0  0.0873
  C  C37  1  0.640700  0.120800  0.069100  1.0  0.0986
  C  C38  1  0.140700  0.620800  0.569100  1.0  0.0986
  C  C39  1  0.359300  0.379200  0.069100  1.0  0.0965
  C  C40  1  0.859300  0.879200  0.569100  1.0  0.0965
  C  C41  1  0.359300  0.620800  0.930900  1.0  0.0959
  C  C42  1  0.859300  0.120800  0.430900  1.0  0.0959
  C  C43  1  0.640700  0.879200  0.930900  1.0  0.0983
  C  C44  1  0.140700  0.379200  0.430900  1.0  0.0983
  C  C45  1  0.359300  0.879200  0.930900  1.0  0.0962
  C  C46  1  0.859300  0.379200  0.430900  1.0  0.0962
  C  C47  1  0.640700  0.620800  0.930900  1.0  0.0984
  C  C48  1  0.140700  0.120800  0.430900  1.0  0.0984
  C  C49  1  0.640700  0.379200  0.069100  1.0  0.0981
  C  C50  1  0.140700  0.879200  0.569100  1.0  0.0981
  C  C51  1  0.359300  0.120800  0.069100  1.0  0.0967
  C  C52  1  0.859300  0.620800  0.569100  1.0  0.0967
  C  C53  1  0.500000  0.026900  0.950500  1.0  -0.0536
  C  C54  1  0.000000  0.526900  0.450500  1.0  -0.0536
  C  C55  1  0.500000  0.473100  0.950500  1.0  -0.0534
  C  C56  1  0.000000  0.973100  0.450500  1.0  -0.0534
  C  C57  1  0.500000  0.526900  0.049500  1.0  -0.0575
  C  C58  1  0.000000  0.026900  0.549500  1.0  -0.0575
  C  C59  1  0.500000  0.973100  0.049500  1.0  -0.0567
  C  C60  1  0.000000  0.473100  0.549500  1.0  -0.0567
  N  N61  1  0.590300  0.171300  0.136200  1.0  -0.2997
  N  N62  1  0.090300  0.671300  0.636200  1.0  -0.2997
  N  N63  1  0.409700  0.328700  0.136200  1.0  -0.2998
  N  N64  1  0.909700  0.828700  0.636200  1.0  -0.2998
  N  N65  1  0.409700  0.671300  0.863800  1.0  -0.3004
  N  N66  1  0.909700  0.171300  0.363800  1.0  -0.3004
  N  N67  1  0.590300  0.828700  0.863800  1.0  -0.3001
  N  N68  1  0.090300  0.328700  0.363800  1.0  -0.3001
  N  N69  1  0.409700  0.828700  0.863800  1.0  -0.3011
  N  N70  1  0.909700  0.328700  0.363800  1.0  -0.3011
  N  N71  1  0.590300  0.671300  0.863800  1.0  -0.3001
  N  N72  1  0.090300  0.171300  0.363800  1.0  -0.3001
  N  N73  1  0.590300  0.328700  0.136200  1.0  -0.299
  N  N74  1  0.090300  0.828700  0.636200  1.0  -0.299
  N  N75  1  0.409700  0.171300  0.136200  1.0  -0.3001
  N  N76  1  0.909700  0.671300  0.636200  1.0  -0.3001
  N  N77  1  0.500000  0.088900  0.027500  1.0  0.0348
  N  N78  1  0.000000  0.588900  0.527500  1.0  0.0348
  N  N79  1  0.500000  0.411100  0.027500  1.0  0.0347
  N  N80  1  0.000000  0.911100  0.527500  1.0  0.0347
  N  N81  1  0.500000  0.588900  0.972500  1.0  0.0343
  N  N82  1  0.000000  0.088900  0.472500  1.0  0.0343
  N  N83  1  0.500000  0.911100  0.972500  1.0  0.0343
  N  N84  1  0.000000  0.411100  0.472500  1.0  0.0343
  Cl  Cl85  1  0.000000  0.250000  0.070200  1.0  -0.5124
  Cl  Cl86  1  0.500000  0.750000  0.570200  1.0  -0.5124
  Cl  Cl87  1  0.000000  0.750000  0.929800  1.0  -0.5114
  Cl  Cl88  1  0.500000  0.250000  0.429800  1.0  -0.5114
