# generated using pymatgen
data_Pr3P4(CO3)8
_symmetry_space_group_name_H-M   'P 1'
_cell_length_a   11.01290000
_cell_length_b   13.35540000
_cell_length_c   15.84300000
_cell_angle_alpha   114.92900000
_cell_angle_beta   110.33800000
_cell_angle_gamma   90.00000000
_symmetry_Int_Tables_number   1
_chemical_formula_structural   Pr3P4(CO3)8
_chemical_formula_sum   'Pr6 P8 C16 O48'
_cell_volume   1951.74929537
_cell_formula_units_Z   2
loop_
 _symmetry_equiv_pos_site_id
 _symmetry_equiv_pos_as_xyz
  1  'x, y, z'
loop_
 _atom_site_type_symbol
 _atom_site_label
 _atom_site_symmetry_multiplicity
 _atom_site_fract_x
 _atom_site_fract_y
 _atom_site_fract_z
 _atom_site_occupancy
 _atom_site_charge
  Pr  Pr1  1  0.485300  0.068610  0.442400  1.0  2.2007
  Pr  Pr2  1  0.042900  0.931390  0.557600  1.0  2.2018
  Pr  Pr3  1  0.542900  0.626210  0.557600  1.0  2.201
  Pr  Pr4  1  0.985300  0.373790  0.442400  1.0  2.201
  Pr  Pr5  1  0.982100  0.000000  0.000000  1.0  1.8297
  Pr  Pr6  1  0.482100  0.000000  0.000000  1.0  1.8296
  P  P7  1  0.785400  0.010400  0.389000  1.0  1.5002
  P  P8  1  0.025800  0.885900  0.178600  1.0  1.3162
  P  P9  1  0.396400  0.989600  0.611000  1.0  1.5066
  P  P10  1  0.847200  0.114100  0.821400  1.0  1.3221
  P  P11  1  0.896400  0.621400  0.611000  1.0  1.5078
  P  P12  1  0.347200  0.707300  0.821400  1.0  1.3187
  P  P13  1  0.285400  0.378600  0.389000  1.0  1.5034
  P  P14  1  0.525800  0.292700  0.178600  1.0  1.3175
  C  C15  1  0.913000  0.134500  0.457200  1.0  0.1344
  C  C16  1  0.056800  0.152800  0.476400  1.0  0.5429
  C  C17  1  0.127600  0.024000  0.253400  1.0  0.1189
  C  C18  1  0.222500  0.059400  0.214400  1.0  0.5215
  C  C19  1  0.455800  0.865500  0.542800  1.0  0.1375
  C  C20  1  0.580400  0.847200  0.523600  1.0  0.5422
  C  C21  1  0.874200  0.976000  0.746600  1.0  0.1185
  C  C22  1  0.008100  0.940600  0.785600  1.0  0.5202
  C  C23  1  0.955800  0.677300  0.542800  1.0  0.1348
  C  C24  1  0.080400  0.676400  0.523600  1.0  0.5444
  C  C25  1  0.374200  0.770600  0.746600  1.0  0.117
  C  C26  1  0.508100  0.845000  0.785600  1.0  0.5186
  C  C27  1  0.413000  0.322700  0.457200  1.0  0.1346
  C  C28  1  0.556800  0.323600  0.476400  1.0  0.5425
  C  C29  1  0.627600  0.229400  0.253400  1.0  0.1168
  C  C30  1  0.722500  0.155000  0.214400  1.0  0.5203
  O  O31  1  0.655200  0.053500  0.381600  1.0  -0.7785
  O  O32  1  0.809500  0.934000  0.441600  1.0  -0.7357
  O  O33  1  0.797200  0.944100  0.286600  1.0  -0.5581
  O  O34  1  0.844700  0.222900  0.458000  1.0  -0.6124
  O  O35  1  0.119600  0.077200  0.494200  1.0  -0.5894
  O  O36  1  0.109200  0.198400  0.438000  1.0  -0.5968
  O  O37  1  0.966100  0.865400  0.245200  1.0  -0.5097
  O  O38  1  0.117500  0.801000  0.150400  1.0  -0.4836
  O  O39  1  0.918600  0.879800  0.082600  1.0  -0.6751
  O  O40  1  0.215400  0.025600  0.344600  1.0  -0.5333
  O  O41  1  0.339100  0.085900  0.284800  1.0  -0.5675
  O  O42  1  0.217500  0.977800  0.132400  1.0  -0.6172
  O  O43  1  0.273600  0.946500  0.618400  1.0  -0.7779
  O  O44  1  0.367900  0.066000  0.558400  1.0  -0.7368
  O  O45  1  0.510600  0.055900  0.713400  1.0  -0.5601
  O  O46  1  0.386700  0.777100  0.542000  1.0  -0.6126
  O  O47  1  0.625400  0.922800  0.505800  1.0  -0.5924
  O  O48  1  0.671200  0.801600  0.562000  1.0  -0.5972
  O  O49  1  0.720900  0.134600  0.754800  1.0  -0.5081
  O  O50  1  0.967100  0.199000  0.849600  1.0  -0.4854
  O  O51  1  0.836000  0.120200  0.917400  1.0  -0.6623
  O  O52  1  0.870800  0.974400  0.655400  1.0  -0.5321
  O  O53  1  0.054300  0.914100  0.715200  1.0  -0.5719
  O  O54  1  0.085100  0.022200  0.867600  1.0  -0.6119
  O  O55  1  0.773600  0.671900  0.618400  1.0  -0.7781
  O  O56  1  0.867900  0.492400  0.558400  1.0  -0.7366
  O  O57  1  0.010600  0.657500  0.713400  1.0  -0.5541
  O  O58  1  0.886700  0.764900  0.542000  1.0  -0.6127
  O  O59  1  0.125400  0.583000  0.505800  1.0  -0.5877
  O  O60  1  0.171200  0.760400  0.562000  1.0  -0.5973
  O  O61  1  0.220900  0.620200  0.754800  1.0  -0.5082
  O  O62  1  0.467100  0.650600  0.849600  1.0  -0.4838
  O  O63  1  0.336000  0.797200  0.917400  1.0  -0.6766
  O  O64  1  0.370800  0.681000  0.655400  1.0  -0.533
  O  O65  1  0.554300  0.801100  0.715200  1.0  -0.5735
  O  O66  1  0.585100  0.845400  0.867600  1.0  -0.6177
  O  O67  1  0.155200  0.328100  0.381600  1.0  -0.7786
  O  O68  1  0.309500  0.507600  0.441600  1.0  -0.7361
  O  O69  1  0.297200  0.342500  0.286600  1.0  -0.555
  O  O70  1  0.344700  0.235100  0.458000  1.0  -0.6135
  O  O71  1  0.619600  0.417000  0.494200  1.0  -0.5875
  O  O72  1  0.609200  0.239600  0.438000  1.0  -0.5972
  O  O73  1  0.466100  0.379800  0.245200  1.0  -0.5068
  O  O74  1  0.617500  0.349400  0.150400  1.0  -0.4837
  O  O75  1  0.418600  0.202800  0.082600  1.0  -0.6778
  O  O76  1  0.715400  0.319000  0.344600  1.0  -0.5331
  O  O77  1  0.839100  0.198900  0.284800  1.0  -0.5682
  O  O78  1  0.717500  0.154600  0.132400  1.0  -0.6185
