# generated using pymatgen
data_Zr2P3HO12F
_symmetry_space_group_name_H-M   'P 1'
_cell_length_a   17.27700000
_cell_length_b   6.62000000
_cell_length_c   23.10400000
_cell_angle_alpha   90.00000000
_cell_angle_beta   94.21000000
_cell_angle_gamma   90.00000000
_symmetry_Int_Tables_number   1
_chemical_formula_structural   Zr2P3HO12F
_chemical_formula_sum   'Zr16 P24 H8 O96 F8'
_cell_volume   2635.36060178
_cell_formula_units_Z   8
loop_
 _symmetry_equiv_pos_site_id
 _symmetry_equiv_pos_as_xyz
  1  'x, y, z'
loop_
 _atom_site_type_symbol
 _atom_site_label
 _atom_site_symmetry_multiplicity
 _atom_site_fract_x
 _atom_site_fract_y
 _atom_site_fract_z
 _atom_site_occupancy
 _atom_site_charge
  Zr  Zr1  1  0.358870  0.999970  0.299320  1.0  2.0873
  Zr  Zr2  1  0.218530  0.495380  0.424720  1.0  2.1006
  Zr  Zr3  1  0.858870  0.499970  0.299320  1.0  2.0873
  Zr  Zr4  1  0.718530  0.995380  0.424720  1.0  2.1006
  Zr  Zr5  1  0.641130  0.999970  0.200680  1.0  2.0916
  Zr  Zr6  1  0.781470  0.495380  0.075280  1.0  2.0999
  Zr  Zr7  1  0.141130  0.499970  0.200680  1.0  2.0916
  Zr  Zr8  1  0.281470  0.995380  0.075280  1.0  2.0999
  Zr  Zr9  1  0.641130  0.000030  0.700680  1.0  2.0915
  Zr  Zr10  1  0.781470  0.504620  0.575280  1.0  2.0999
  Zr  Zr11  1  0.141130  0.500030  0.700680  1.0  2.0915
  Zr  Zr12  1  0.281470  0.004620  0.575280  1.0  2.0999
  Zr  Zr13  1  0.358870  0.000030  0.799320  1.0  2.0878
  Zr  Zr14  1  0.218530  0.504620  0.924720  1.0  2.1008
  Zr  Zr15  1  0.858870  0.500030  0.799320  1.0  2.0878
  Zr  Zr16  1  0.718530  0.004620  0.924720  1.0  2.1008
  P  P17  1  0.307040  0.500180  0.292290  1.0  1.8081
  P  P18  1  0.268720  0.997960  0.430490  1.0  1.7704
  P  P19  1  0.443810  0.072220  0.165330  1.0  1.8237
  P  P20  1  0.807040  0.000180  0.292290  1.0  1.8081
  P  P21  1  0.768720  0.497960  0.430490  1.0  1.7704
  P  P22  1  0.943810  0.572220  0.165330  1.0  1.8237
  P  P23  1  0.692960  0.500180  0.207710  1.0  1.8079
  P  P24  1  0.731280  0.997960  0.069510  1.0  1.7712
  P  P25  1  0.556190  0.072220  0.334670  1.0  1.8231
  P  P26  1  0.192960  0.000180  0.207710  1.0  1.8079
  P  P27  1  0.231280  0.497960  0.069510  1.0  1.7712
  P  P28  1  0.056190  0.572220  0.334670  1.0  1.8231
  P  P29  1  0.692960  0.499820  0.707710  1.0  1.8083
  P  P30  1  0.731280  0.002040  0.569510  1.0  1.7712
  P  P31  1  0.556190  0.927780  0.834670  1.0  1.8242
  P  P32  1  0.192960  0.999820  0.707710  1.0  1.8083
  P  P33  1  0.231280  0.502040  0.569510  1.0  1.7712
  P  P34  1  0.056190  0.427780  0.834670  1.0  1.8242
  P  P35  1  0.307040  0.499820  0.792290  1.0  1.8087
  P  P36  1  0.268720  0.002040  0.930490  1.0  1.7704
  P  P37  1  0.443810  0.927780  0.665330  1.0  1.8234
  P  P38  1  0.807040  0.999820  0.792290  1.0  1.8087
  P  P39  1  0.768720  0.502040  0.930490  1.0  1.7704
  P  P40  1  0.943810  0.427780  0.665330  1.0  1.8234
  H  H41  1  0.463800  0.352600  0.194400  1.0  0.3894
  H  H42  1  0.963800  0.852600  0.194400  1.0  0.3894
  H  H43  1  0.536200  0.352600  0.305600  1.0  0.39
  H  H44  1  0.036200  0.852600  0.305600  1.0  0.39
  H  H45  1  0.536200  0.647400  0.805600  1.0  0.39
  H  H46  1  0.036200  0.147400  0.805600  1.0  0.39
  H  H47  1  0.463800  0.647400  0.694400  1.0  0.3898
  H  H48  1  0.963800  0.147400  0.694400  1.0  0.3898
  O  O49  1  0.361360  0.684100  0.292490  1.0  -0.7986
  O  O50  1  0.252900  0.496500  0.236710  1.0  -0.8552
  O  O51  1  0.257900  0.510600  0.344530  1.0  -0.8617
  O  O52  1  0.357990  0.310500  0.296050  1.0  -0.8179
  O  O53  1  0.315600  0.009500  0.489850  1.0  -0.7156
  O  O54  1  0.217930  0.808700  0.428020  1.0  -0.8002
  O  O55  1  0.325100  0.990900  0.382260  1.0  -0.8098
  O  O56  1  0.408500  0.003100  0.219970  1.0  -0.8542
  O  O57  1  0.215980  0.182400  0.422480  1.0  -0.7879
  O  O58  1  0.396700  0.006200  0.110250  1.0  -0.7687
  O  O59  1  0.526600  0.996300  0.163720  1.0  -0.8182
  O  O60  1  0.443600  0.308800  0.161980  1.0  -0.6446
  O  O61  1  0.861360  0.184100  0.292490  1.0  -0.7987
  O  O62  1  0.752900  0.996500  0.236710  1.0  -0.8552
  O  O63  1  0.757900  0.010600  0.344530  1.0  -0.8617
  O  O64  1  0.857990  0.810500  0.296050  1.0  -0.8179
  O  O65  1  0.815600  0.509500  0.489850  1.0  -0.7156
  O  O66  1  0.717930  0.308700  0.428020  1.0  -0.8002
  O  O67  1  0.825100  0.490900  0.382260  1.0  -0.8098
  O  O68  1  0.908500  0.503100  0.219970  1.0  -0.8542
  O  O69  1  0.715980  0.682400  0.422480  1.0  -0.7879
  O  O70  1  0.896700  0.506200  0.110250  1.0  -0.7687
  O  O71  1  0.026600  0.496300  0.163720  1.0  -0.8182
  O  O72  1  0.943600  0.808800  0.161980  1.0  -0.6446
  O  O73  1  0.638640  0.684100  0.207510  1.0  -0.7977
  O  O74  1  0.747100  0.496500  0.263290  1.0  -0.8545
  O  O75  1  0.742100  0.510600  0.155470  1.0  -0.8612
  O  O76  1  0.642010  0.310500  0.203950  1.0  -0.8185
  O  O77  1  0.684400  0.009500  0.010150  1.0  -0.7155
  O  O78  1  0.782070  0.808700  0.071980  1.0  -0.7989
  O  O79  1  0.674900  0.990900  0.117740  1.0  -0.8091
  O  O80  1  0.591500  0.003100  0.280030  1.0  -0.8543
  O  O81  1  0.784020  0.182400  0.077520  1.0  -0.7883
  O  O82  1  0.603300  0.006200  0.389750  1.0  -0.7676
  O  O83  1  0.473400  0.996300  0.336280  1.0  -0.8183
  O  O84  1  0.556400  0.308800  0.338020  1.0  -0.6424
  O  O85  1  0.138640  0.184100  0.207510  1.0  -0.7976
  O  O86  1  0.247100  0.996500  0.263290  1.0  -0.8545
  O  O87  1  0.242100  0.010600  0.155470  1.0  -0.8612
  O  O88  1  0.142010  0.810500  0.203950  1.0  -0.8185
  O  O89  1  0.184400  0.509500  0.010150  1.0  -0.7155
  O  O90  1  0.282070  0.308700  0.071980  1.0  -0.7989
  O  O91  1  0.174900  0.490900  0.117740  1.0  -0.8091
  O  O92  1  0.091500  0.503100  0.280030  1.0  -0.8543
  O  O93  1  0.284020  0.682400  0.077520  1.0  -0.7883
  O  O94  1  0.103300  0.506200  0.389750  1.0  -0.7676
  O  O95  1  0.973400  0.496300  0.336280  1.0  -0.8183
  O  O96  1  0.056400  0.808800  0.338020  1.0  -0.6424
  O  O97  1  0.638640  0.315900  0.707510  1.0  -0.7988
  O  O98  1  0.747100  0.503500  0.763290  1.0  -0.8544
  O  O99  1  0.742100  0.489400  0.655470  1.0  -0.8614
  O  O100  1  0.642010  0.689500  0.703950  1.0  -0.8179
  O  O101  1  0.684400  0.990500  0.510150  1.0  -0.7154
  O  O102  1  0.782070  0.191300  0.571980  1.0  -0.7981
  O  O103  1  0.674900  0.009100  0.617740  1.0  -0.8089
  O  O104  1  0.591500  0.996900  0.780030  1.0  -0.8552
  O  O105  1  0.784020  0.817600  0.577520  1.0  -0.7879
  O  O106  1  0.603300  0.993800  0.889750  1.0  -0.7671
  O  O107  1  0.473400  0.003700  0.836280  1.0  -0.8195
  O  O108  1  0.556400  0.691200  0.838020  1.0  -0.642
  O  O109  1  0.138640  0.815900  0.707510  1.0  -0.7988
  O  O110  1  0.247100  0.003500  0.763290  1.0  -0.8544
  O  O111  1  0.242100  0.989400  0.655470  1.0  -0.8614
  O  O112  1  0.142010  0.189500  0.703950  1.0  -0.8179
  O  O113  1  0.184400  0.490500  0.510150  1.0  -0.7154
  O  O114  1  0.282070  0.691300  0.571980  1.0  -0.7981
  O  O115  1  0.174900  0.509100  0.617740  1.0  -0.8089
  O  O116  1  0.091500  0.496900  0.780030  1.0  -0.8552
  O  O117  1  0.284020  0.317600  0.577520  1.0  -0.7879
  O  O118  1  0.103300  0.493800  0.889750  1.0  -0.7671
  O  O119  1  0.973400  0.503700  0.836280  1.0  -0.8195
  O  O120  1  0.056400  0.191200  0.838020  1.0  -0.642
  O  O121  1  0.361360  0.315900  0.792490  1.0  -0.7986
  O  O122  1  0.252900  0.503500  0.736710  1.0  -0.8551
  O  O123  1  0.257900  0.489400  0.844530  1.0  -0.8617
  O  O124  1  0.357990  0.689500  0.796050  1.0  -0.8173
  O  O125  1  0.315600  0.990500  0.989850  1.0  -0.7155
  O  O126  1  0.217930  0.191300  0.928020  1.0  -0.7999
  O  O127  1  0.325100  0.009100  0.882260  1.0  -0.8095
  O  O128  1  0.408500  0.996900  0.719970  1.0  -0.8548
  O  O129  1  0.215980  0.817600  0.922480  1.0  -0.7878
  O  O130  1  0.396700  0.993800  0.610250  1.0  -0.7678
  O  O131  1  0.526600  0.003700  0.663720  1.0  -0.8193
  O  O132  1  0.443600  0.691200  0.661980  1.0  -0.6452
  O  O133  1  0.861360  0.815900  0.792490  1.0  -0.7985
  O  O134  1  0.752900  0.003500  0.736710  1.0  -0.8551
  O  O135  1  0.757900  0.989400  0.844530  1.0  -0.8617
  O  O136  1  0.857990  0.189500  0.796050  1.0  -0.8173
  O  O137  1  0.815600  0.490500  0.989850  1.0  -0.7155
  O  O138  1  0.717930  0.691300  0.928020  1.0  -0.7999
  O  O139  1  0.825100  0.509100  0.882260  1.0  -0.8095
  O  O140  1  0.908500  0.496900  0.719970  1.0  -0.8548
  O  O141  1  0.715980  0.317600  0.922480  1.0  -0.7878
  O  O142  1  0.896700  0.493800  0.610250  1.0  -0.7678
  O  O143  1  0.026600  0.503700  0.663720  1.0  -0.8193
  O  O144  1  0.943600  0.191200  0.661980  1.0  -0.6452
  F  F145  1  0.328750  0.489600  0.456100  1.0  -0.4533
  F  F146  1  0.828750  0.989600  0.456100  1.0  -0.4533
  F  F147  1  0.671250  0.489600  0.043900  1.0  -0.4523
  F  F148  1  0.171250  0.989600  0.043900  1.0  -0.4523
  F  F149  1  0.671250  0.510400  0.543900  1.0  -0.4524
  F  F150  1  0.171250  0.010400  0.543900  1.0  -0.4524
  F  F151  1  0.328750  0.510400  0.956100  1.0  -0.4533
  F  F152  1  0.828750  0.010400  0.956100  1.0  -0.4533
