# generated using pymatgen
data_Mn2MoH4(C6N5)2
_symmetry_space_group_name_H-M   'P 1'
_cell_length_a   7.35180000
_cell_length_b   11.62400000
_cell_length_c   14.13100000
_cell_angle_alpha   90.00000000
_cell_angle_beta   90.00000000
_cell_angle_gamma   98.72400000
_symmetry_Int_Tables_number   1
_chemical_formula_structural   Mn2MoH4(C6N5)2
_chemical_formula_sum   'Mn4 Mo2 H8 C24 N20'
_cell_volume   1193.62606330
_cell_formula_units_Z   2
loop_
 _symmetry_equiv_pos_site_id
 _symmetry_equiv_pos_as_xyz
  1  'x, y, z'
loop_
 _atom_site_type_symbol
 _atom_site_label
 _atom_site_symmetry_multiplicity
 _atom_site_fract_x
 _atom_site_fract_y
 _atom_site_fract_z
 _atom_site_occupancy
 _atom_site_charge
  Mn  Mn1  1  0.501050  0.522650  0.499980  1.0  1.1862
  Mn  Mn2  1  0.973200  0.974560  0.025090  1.0  1.0811
  Mn  Mn3  1  0.498950  0.477350  0.999980  1.0  1.1862
  Mn  Mn4  1  0.026800  0.025440  0.525090  1.0  1.081
  Mo  Mo5  1  0.945400  0.340470  0.257510  1.0  -0.2184
  Mo  Mo6  1  0.054600  0.659530  0.757510  1.0  -0.2166
  H  H7  1  0.673600  0.146700  0.044300  1.0  0.0961
  H  H8  1  0.358200  0.147500  0.041600  1.0  0.0971
  H  H9  1  0.277200  0.806600  0.003400  1.0  0.0932
  H  H10  1  0.590300  0.806100  0.003200  1.0  0.1005
  H  H11  1  0.326400  0.853300  0.544300  1.0  0.0955
  H  H12  1  0.641800  0.852500  0.541600  1.0  0.0965
  H  H13  1  0.722800  0.193400  0.503400  1.0  0.0933
  H  H14  1  0.409700  0.193900  0.503200  1.0  0.1005
  C  C15  1  0.700500  0.209900  0.270400  1.0  0.1248
  C  C16  1  0.949500  0.524800  0.232190  1.0  0.1552
  C  C17  1  0.777200  0.392900  0.369100  1.0  0.2028
  C  C18  1  0.163300  0.426000  0.347300  1.0  0.2172
  C  C19  1  0.169400  0.389100  0.161100  1.0  0.2182
  C  C20  1  0.774000  0.361800  0.138500  1.0  0.2208
  C  C21  1  0.995300  0.193300  0.175000  1.0  0.244
  C  C22  1  0.021100  0.221700  0.361000  1.0  0.2162
  C  C23  1  0.593000  0.075500  0.035800  1.0  0.131
  C  C24  1  0.403700  0.075700  0.034600  1.0  0.1281
  C  C25  1  0.357500  0.878000  0.012000  1.0  0.1338
  C  C26  1  0.544200  0.877300  0.012500  1.0  0.1206
  C  C27  1  0.299500  0.790100  0.770400  1.0  0.1247
  C  C28  1  0.050500  0.475200  0.732190  1.0  0.1554
  C  C29  1  0.222800  0.607100  0.869100  1.0  0.2072
  C  C30  1  0.836700  0.574000  0.847300  1.0  0.2171
  C  C31  1  0.830600  0.610900  0.661100  1.0  0.2193
  C  C32  1  0.226000  0.638200  0.638500  1.0  0.2204
  C  C33  1  0.004700  0.806700  0.675000  1.0  0.2441
  C  C34  1  0.978900  0.778300  0.861000  1.0  0.2167
  C  C35  1  0.407000  0.924500  0.535800  1.0  0.1306
  C  C36  1  0.596300  0.924300  0.534600  1.0  0.1272
  C  C37  1  0.642500  0.122000  0.512000  1.0  0.134
  C  C38  1  0.455800  0.122700  0.512500  1.0  0.12
  N  N39  1  0.575400  0.137800  0.275900  1.0  -0.439
  N  N40  1  0.954500  0.622100  0.214300  1.0  -0.465
  N  N41  1  0.685200  0.419500  0.428500  1.0  -0.4822
  N  N42  1  0.275300  0.470500  0.397050  1.0  -0.4664
  N  N43  1  0.282200  0.416000  0.104290  1.0  -0.5023
  N  N44  1  0.683600  0.375500  0.074390  1.0  -0.4919
  N  N45  1  0.012800  0.115200  0.127410  1.0  -0.516
  N  N46  1  0.052000  0.158600  0.419100  1.0  -0.4859
  N  N47  1  0.663800  0.976500  0.025440  1.0  -0.3588
  N  N48  1  0.284300  0.977000  0.023640  1.0  -0.3523
  N  N49  1  0.424600  0.862200  0.775900  1.0  -0.4423
  N  N50  1  0.045500  0.377900  0.714300  1.0  -0.4604
  N  N51  1  0.314800  0.580500  0.928500  1.0  -0.4755
  N  N52  1  0.724700  0.529500  0.897050  1.0  -0.4601
  N  N53  1  0.717800  0.584000  0.604290  1.0  -0.502
  N  N54  1  0.316400  0.624500  0.574390  1.0  -0.4904
  N  N55  1  0.987200  0.884800  0.627410  1.0  -0.5188
  N  N56  1  0.948000  0.841400  0.919100  1.0  -0.4828
  N  N57  1  0.336200  0.023500  0.525440  1.0  -0.3577
  N  N58  1  0.715700  0.023000  0.523640  1.0  -0.3521
