# generated using pymatgen
data_SmH24C24N4Cl3O20
_symmetry_space_group_name_H-M   'P 1'
_cell_length_a   20.46920000
_cell_length_b   20.46920000
_cell_length_c   20.90900000
_cell_angle_alpha   108.12700000
_cell_angle_beta   108.12700000
_cell_angle_gamma   111.36900000
_symmetry_Int_Tables_number   1
_chemical_formula_structural   SmH24C24N4Cl3O20
_chemical_formula_sum   'Sm4 H96 C96 N16 Cl12 O80'
_cell_volume   6803.42491773
_cell_formula_units_Z   4
loop_
 _symmetry_equiv_pos_site_id
 _symmetry_equiv_pos_as_xyz
  1  'x, y, z'
loop_
 _atom_site_type_symbol
 _atom_site_label
 _atom_site_symmetry_multiplicity
 _atom_site_fract_x
 _atom_site_fract_y
 _atom_site_fract_z
 _atom_site_occupancy
 _atom_site_charge
  Sm  Sm1  1  0.615620  0.850320  0.719780  1.0  2.2842
  Sm  Sm2  1  0.869460  0.604160  0.219780  1.0  2.2799
  Sm  Sm3  1  0.130540  0.395840  0.780220  1.0  2.284
  Sm  Sm4  1  0.384380  0.149680  0.280220  1.0  2.2796
  H  H5  1  0.771800  0.897200  0.912200  1.0  0.1252
  H  H6  1  0.839800  0.855700  0.987700  1.0  0.1177
  H  H7  1  0.635500  0.660600  0.901700  1.0  0.1013
  H  H8  1  0.511200  0.632800  0.808600  1.0  0.1411
  H  H9  1  0.524700  0.668000  0.754100  1.0  0.1374
  H  H10  1  0.510800  0.712000  0.820200  1.0  0.1459
  H  H11  1  0.696400  0.610600  0.949000  1.0  0.1284
  H  H12  1  0.759700  0.572000  0.027100  1.0  0.1248
  H  H13  1  0.889400  0.829300  0.075900  1.0  0.1211
  H  H14  1  0.004000  0.779000  0.200800  1.0  0.135
  H  H15  1  0.989900  0.851300  0.214000  1.0  0.1483
  H  H16  1  0.024100  0.828700  0.158600  1.0  0.149
  H  H17  1  0.583900  0.726500  0.533800  1.0  0.0888
  H  H18  1  0.628900  0.658500  0.457400  1.0  0.167
  H  H19  1  0.816800  0.871600  0.543800  1.0  0.1022
  H  H20  1  0.754100  0.970900  0.664800  1.0  0.1492
  H  H21  1  0.787400  0.990600  0.610800  1.0  0.1579
  H  H22  1  0.836900  0.979700  0.676600  1.0  0.1545
  H  H23  1  0.649900  0.619300  0.368600  1.0  0.1175
  H  H24  1  0.907800  0.741500  0.418700  1.0  0.0929
  H  H25  1  0.873500  0.809700  0.492000  1.0  0.1393
  H  H26  1  0.697600  0.508200  0.246800  1.0  0.149
  H  H27  1  0.627900  0.526100  0.237200  1.0  0.1284
  H  H28  1  0.651000  0.491800  0.292400  1.0  0.1255
  H  H29  1  0.015000  0.640400  0.412200  1.0  0.1237
  H  H30  1  0.132000  0.647900  0.487700  1.0  0.1199
  H  H31  1  0.241100  0.766200  0.401700  1.0  0.0998
  H  H32  1  0.175800  0.797400  0.308600  1.0  0.1408
  H  H33  1  0.086100  0.729400  0.254100  1.0  0.1375
  H  H34  1  0.108200  0.809400  0.320200  1.0  0.1462
  H  H35  1  0.338400  0.752600  0.449000  1.0  0.1296
  H  H36  1  0.455100  0.767400  0.527100  1.0  0.1252
  H  H37  1  0.246600  0.686500  0.575900  1.0  0.1214
  H  H38  1  0.421800  0.696800  0.700800  1.0  0.1356
  H  H39  1  0.362700  0.724100  0.714000  1.0  0.1491
  H  H40  1  0.329900  0.634500  0.658600  1.0  0.1482
  H  H41  1  0.807300  0.449900  0.033800  1.0  0.0894
  H  H42  1  0.798900  0.328500  0.957400  1.0  0.1667
  H  H43  1  0.672200  0.227000  0.043800  1.0  0.1044
  H  H44  1  0.693900  0.410700  0.164800  1.0  0.1448
  H  H45  1  0.620200  0.323400  0.110800  1.0  0.1566
  H  H46  1  0.696900  0.339700  0.176600  1.0  0.1523
  H  H47  1  0.749300  0.218700  0.868600  1.0  0.1177
  H  H48  1  0.677200  0.010900  0.918700  1.0  0.0926
  H  H49  1  0.682300  0.118500  0.992000  1.0  0.1413
  H  H50  1  0.738600  0.049200  0.746800  1.0  0.1508
  H  H51  1  0.711100  0.109300  0.737200  1.0  0.1285
  H  H52  1  0.800600  0.141400  0.792400  1.0  0.1244
  H  H53  1  0.985000  0.359600  0.587800  1.0  0.1242
  H  H54  1  0.868000  0.352100  0.512300  1.0  0.1194
  H  H55  1  0.758900  0.233800  0.598300  1.0  0.1001
  H  H56  1  0.824200  0.202600  0.691400  1.0  0.1417
  H  H57  1  0.913900  0.270600  0.745900  1.0  0.1368
  H  H58  1  0.891800  0.190600  0.679800  1.0  0.1463
  H  H59  1  0.661600  0.247400  0.551000  1.0  0.1299
  H  H60  1  0.544900  0.232600  0.472900  1.0  0.1251
  H  H61  1  0.753400  0.313500  0.424100  1.0  0.1204
  H  H62  1  0.578200  0.303200  0.299200  1.0  0.1348
  H  H63  1  0.637300  0.275900  0.286000  1.0  0.1488
  H  H64  1  0.670100  0.365500  0.341400  1.0  0.1499
  H  H65  1  0.192700  0.550100  0.966200  1.0  0.0902
  H  H66  1  0.201100  0.671500  0.042600  1.0  0.1671
  H  H67  1  0.327800  0.773000  0.956200  1.0  0.1037
  H  H68  1  0.306100  0.589300  0.835200  1.0  0.148
  H  H69  1  0.379800  0.676600  0.889200  1.0  0.1532
  H  H70  1  0.303100  0.660300  0.823400  1.0  0.152
  H  H71  1  0.250700  0.781300  0.131400  1.0  0.117
  H  H72  1  0.322800  0.989100  0.081300  1.0  0.0923
  H  H73  1  0.317700  0.881500  0.008000  1.0  0.1414
  H  H74  1  0.261400  0.950800  0.253200  1.0  0.1503
  H  H75  1  0.288900  0.890700  0.262800  1.0  0.1282
  H  H76  1  0.199400  0.858600  0.207600  1.0  0.1232
  H  H77  1  0.228200  0.102800  0.087800  1.0  0.1243
  H  H78  1  0.160200  0.144300  0.012300  1.0  0.1182
  H  H79  1  0.364500  0.339400  0.098300  1.0  0.1013
  H  H80  1  0.488800  0.367200  0.191400  1.0  0.141
  H  H81  1  0.475300  0.332000  0.245900  1.0  0.1378
  H  H82  1  0.489200  0.288000  0.179800  1.0  0.1458
  H  H83  1  0.303600  0.389400  0.051000  1.0  0.129
  H  H84  1  0.240300  0.428000  0.972900  1.0  0.1249
  H  H85  1  0.110600  0.170700  0.924100  1.0  0.1206
  H  H86  1  0.996000  0.221000  0.799200  1.0  0.1365
  H  H87  1  0.010100  0.148700  0.786000  1.0  0.1491
  H  H88  1  0.975900  0.171300  0.841400  1.0  0.1505
  H  H89  1  0.416100  0.273500  0.466200  1.0  0.0891
  H  H90  1  0.371100  0.341500  0.542600  1.0  0.1679
  H  H91  1  0.183200  0.128400  0.456200  1.0  0.1032
  H  H92  1  0.245900  0.029100  0.335200  1.0  0.1472
  H  H93  1  0.212600  0.009400  0.389200  1.0  0.1573
  H  H94  1  0.163100  0.020300  0.323400  1.0  0.1557
  H  H95  1  0.350100  0.380700  0.631400  1.0  0.117
  H  H96  1  0.092200  0.258500  0.581300  1.0  0.0927
  H  H97  1  0.126500  0.190300  0.508000  1.0  0.1398
  H  H98  1  0.302400  0.491800  0.753200  1.0  0.1476
  H  H99  1  0.372100  0.473900  0.762800  1.0  0.1288
  H  H100  1  0.349000  0.508200  0.707600  1.0  0.1259
  C  C101  1  0.744400  0.848100  0.909700  1.0  0.0066
  C  C102  1  0.785000  0.822800  0.955400  1.0  -0.1323
  C  C103  1  0.746500  0.752300  0.953400  1.0  0.0773
  C  C104  1  0.664800  0.709100  0.904100  1.0  -0.0613
  C  C105  1  0.625300  0.730200  0.860700  1.0  0.2045
  C  C106  1  0.534400  0.681100  0.805700  1.0  -0.3562
  C  C107  1  0.785400  0.724900  0.001300  1.0  0.0944
  C  C108  1  0.748100  0.647400  0.989100  1.0  -0.1617
  C  C109  1  0.786700  0.624000  0.035500  1.0  -0.0482
  C  C110  1  0.902500  0.751300  0.109600  1.0  0.2068
  C  C111  1  0.863100  0.776000  0.064100  1.0  -0.1107
  C  C112  1  0.988200  0.807900  0.177100  1.0  -0.3617
  C  C113  1  0.632100  0.756200  0.535900  1.0  0.0148
  C  C114  1  0.657900  0.713800  0.487700  1.0  -0.2014
  C  C115  1  0.726900  0.760500  0.490200  1.0  -0.0215
  C  C116  1  0.768600  0.839900  0.540500  1.0  -0.1281
  C  C117  1  0.743900  0.876000  0.586500  1.0  0.2617
  C  C118  1  0.784000  0.961700  0.639300  1.0  -0.3635
  C  C119  1  0.751700  0.719300  0.440000  1.0  0.0172
  C  C120  1  0.703100  0.645300  0.380000  1.0  -0.1622
  C  C121  1  0.726400  0.604700  0.333500  1.0  0.2352
  C  C122  1  0.855000  0.717400  0.409200  1.0  0.0534
  C  C123  1  0.835800  0.757600  0.453000  1.0  -0.1472
  C  C124  1  0.671300  0.526600  0.272700  1.0  -0.3611
  C  C125  1  0.061600  0.665300  0.409700  1.0  0.0049
  C  C126  1  0.132600  0.670400  0.455400  1.0  -0.1329
  C  C127  1  0.201100  0.706900  0.453400  1.0  0.079
  C  C128  1  0.195000  0.739300  0.404100  1.0  -0.0601
  C  C129  1  0.130500  0.735400  0.360700  1.0  0.2063
  C  C130  1  0.124600  0.771300  0.305700  1.0  -0.3604
  C  C131  1  0.276400  0.715900  0.501300  1.0  0.0947
  C  C132  1  0.341700  0.741000  0.489100  1.0  -0.1603
  C  C133  1  0.411500  0.748800  0.535500  1.0  -0.0503
  C  C134  1  0.358300  0.707100  0.609600  1.0  0.2068
  C  C135  1  0.288100  0.701000  0.564100  1.0  -0.1131
  C  C136  1  0.369200  0.688900  0.677100  1.0  -0.3636
  C  C137  1  0.779700  0.403800  0.035900  1.0  0.0168
  C  C138  1  0.773900  0.329800  0.987700  1.0  -0.1997
  C  C139  1  0.729700  0.263300  0.990200  1.0  -0.0209
  C  C140  1  0.700600  0.271900  0.040500  1.0  -0.123
  C  C141  1  0.710500  0.342600  0.086500  1.0  0.2629
  C  C142  1  0.677600  0.355300  0.139300  1.0  -0.3608
  C  C143  1  0.720700  0.188300  0.940000  1.0  0.018
  C  C144  1  0.734700  0.176900  0.880000  1.0  -0.1616
  C  C145  1  0.728800  0.107100  0.833500  1.0  0.2366
  C  C146  1  0.691800  0.054200  0.909200  1.0  0.0521
  C  C147  1  0.695400  0.117200  0.953000  1.0  -0.1478
  C  C148  1  0.746100  0.101400  0.772700  1.0  -0.3629
  C  C149  1  0.938400  0.334700  0.590300  1.0  0.0063
  C  C150  1  0.867400  0.329600  0.544600  1.0  -0.1343
  C  C151  1  0.798900  0.293100  0.546600  1.0  0.0787
  C  C152  1  0.805000  0.260700  0.595900  1.0  -0.0613
  C  C153  1  0.869500  0.264600  0.639300  1.0  0.2047
  C  C154  1  0.875400  0.228700  0.694300  1.0  -0.3599
  C  C155  1  0.723600  0.284100  0.498700  1.0  0.0951
  C  C156  1  0.658300  0.259000  0.510900  1.0  -0.1601
  C  C157  1  0.588500  0.251200  0.464500  1.0  -0.0503
  C  C158  1  0.641700  0.292900  0.390400  1.0  0.2065
  C  C159  1  0.711900  0.299000  0.435900  1.0  -0.1118
  C  C160  1  0.630800  0.311100  0.322900  1.0  -0.3661
  C  C161  1  0.220300  0.596200  0.964100  1.0  0.0157
  C  C162  1  0.226100  0.670200  0.012300  1.0  -0.2001
  C  C163  1  0.270300  0.736700  0.009800  1.0  -0.0216
  C  C164  1  0.299400  0.728100  0.959500  1.0  -0.1232
  C  C165  1  0.289500  0.657400  0.913500  1.0  0.2618
  C  C166  1  0.322400  0.644700  0.860700  1.0  -0.3633
  C  C167  1  0.279300  0.811700  0.060000  1.0  0.0169
  C  C168  1  0.265300  0.823100  0.120000  1.0  -0.1617
  C  C169  1  0.271200  0.892900  0.166500  1.0  0.2394
  C  C170  1  0.308200  0.945800  0.090800  1.0  0.0505
  C  C171  1  0.304600  0.882800  0.047000  1.0  -0.1476
  C  C172  1  0.253900  0.898600  0.227300  1.0  -0.362
  C  C173  1  0.255600  0.151900  0.090300  1.0  0.0059
  C  C174  1  0.215000  0.177200  0.044600  1.0  -0.1314
  C  C175  1  0.253500  0.247700  0.046600  1.0  0.0773
  C  C176  1  0.335200  0.290900  0.095900  1.0  -0.0609
  C  C177  1  0.374700  0.269800  0.139300  1.0  0.2033
  C  C178  1  0.465600  0.318900  0.194300  1.0  -0.3558
  C  C179  1  0.214600  0.275100  0.998700  1.0  0.0943
  C  C180  1  0.251900  0.352600  0.010900  1.0  -0.1635
  C  C181  1  0.213300  0.376000  0.964500  1.0  -0.0487
  C  C182  1  0.097500  0.248700  0.890400  1.0  0.2061
  C  C183  1  0.136900  0.224000  0.935900  1.0  -0.11
  C  C184  1  0.011800  0.192100  0.822900  1.0  -0.3618
  C  C185  1  0.367900  0.243800  0.464100  1.0  0.0157
  C  C186  1  0.342100  0.286200  0.512300  1.0  -0.2002
  C  C187  1  0.273100  0.239500  0.509800  1.0  -0.0219
  C  C188  1  0.231400  0.160100  0.459500  1.0  -0.126
  C  C189  1  0.256100  0.124000  0.413500  1.0  0.261
  C  C190  1  0.216000  0.038300  0.360700  1.0  -0.3668
  C  C191  1  0.248300  0.280700  0.560000  1.0  0.0166
  C  C192  1  0.296900  0.354700  0.620000  1.0  -0.1621
  C  C193  1  0.273600  0.395300  0.666500  1.0  0.2367
  C  C194  1  0.145000  0.282600  0.590800  1.0  0.0512
  C  C195  1  0.164200  0.242400  0.547000  1.0  -0.1466
  C  C196  1  0.328700  0.473400  0.727300  1.0  -0.3607
  N  N197  1  0.667700  0.801300  0.864200  1.0  0.3101
  N  N198  1  0.862800  0.674400  0.093200  1.0  0.3745
  N  N199  1  0.671400  0.829300  0.578900  1.0  0.2063
  N  N200  1  0.804100  0.643600  0.351300  1.0  0.326
  N  N201  1  0.062900  0.696500  0.364200  1.0  0.3055
  N  N202  1  0.418800  0.730400  0.593200  1.0  0.3743
  N  N203  1  0.749600  0.407500  0.078900  1.0  0.2074
  N  N204  1  0.707700  0.047200  0.851300  1.0  0.3228
  N  N205  1  0.937100  0.303500  0.635800  1.0  0.3089
  N  N206  1  0.581200  0.269600  0.406800  1.0  0.374
  N  N207  1  0.250400  0.592500  0.921100  1.0  0.2071
  N  N208  1  0.292300  0.952800  0.148700  1.0  0.3231
  N  N209  1  0.332300  0.198700  0.135800  1.0  0.311
  N  N210  1  0.137200  0.325600  0.906800  1.0  0.3746
  N  N211  1  0.328600  0.170700  0.421100  1.0  0.2085
  N  N212  1  0.195900  0.356400  0.648700  1.0  0.3247
  Cl  Cl213  1  0.716800  0.295100  0.744700  1.0  1.6341
  Cl  Cl214  1  0.923300  0.073300  0.552400  1.0  1.3311
  Cl  Cl215  1  0.924300  0.074900  0.926400  1.0  1.6414
  Cl  Cl216  1  0.550400  0.472100  0.755300  1.0  1.6322
  Cl  Cl217  1  0.520900  0.870900  0.947600  1.0  1.337
  Cl  Cl218  1  0.148500  0.497900  0.573600  1.0  1.6421
  Cl  Cl219  1  0.283200  0.704900  0.255300  1.0  1.6322
  Cl  Cl220  1  0.076700  0.926700  0.447600  1.0  1.34
  Cl  Cl221  1  0.075700  0.925100  0.073600  1.0  1.6401
  Cl  Cl222  1  0.449600  0.527900  0.244700  1.0  1.6338
  Cl  Cl223  1  0.479100  0.129100  0.052400  1.0  1.3333
  Cl  Cl224  1  0.851500  0.502100  0.426400  1.0  1.6414
  O  O225  1  0.630500  0.827900  0.823800  1.0  -0.6128
  O  O226  1  0.896800  0.648600  0.134400  1.0  -0.6516
  O  O227  1  0.640600  0.861200  0.619400  1.0  -0.588
  O  O228  1  0.826400  0.601700  0.309700  1.0  -0.6079
  O  O229  1  0.618900  0.727800  0.674900  1.0  -0.2758
  O  O230  1  0.754700  0.877500  0.763800  1.0  -0.2405
  O  O231  1  0.534800  0.884200  0.778200  1.0  -0.2422
  O  O232  1  0.552500  0.912700  0.660600  1.0  -0.2693
  O  O233  1  0.995900  0.693300  0.323800  1.0  -0.6108
  O  O234  1  0.485800  0.737600  0.634400  1.0  -0.6497
  O  O235  1  0.758200  0.478800  0.119400  1.0  -0.5888
  O  O236  1  0.708000  0.983300  0.809700  1.0  -0.6071
  O  O237  1  0.947100  0.556000  0.174900  1.0  -0.275
  O  O238  1  0.886300  0.509100  0.263800  1.0  -0.2429
  O  O239  1  0.894000  0.743400  0.278200  1.0  -0.2416
  O  O240  1  0.747900  0.608100  0.160600  1.0  -0.2694
  O  O241  1  0.004100  0.306700  0.676200  1.0  -0.6111
  O  O242  1  0.514200  0.262400  0.365600  1.0  -0.6508
  O  O243  1  0.241800  0.521200  0.880600  1.0  -0.5897
  O  O244  1  0.292000  0.016700  0.190300  1.0  -0.6064
  O  O245  1  0.052900  0.444000  0.825100  1.0  -0.2754
  O  O246  1  0.113700  0.490900  0.736200  1.0  -0.2404
  O  O247  1  0.106000  0.256600  0.721800  1.0  -0.2397
  O  O248  1  0.252100  0.391900  0.839400  1.0  -0.2671
  O  O249  1  0.369500  0.172100  0.176200  1.0  -0.6149
  O  O250  1  0.103200  0.351400  0.865600  1.0  -0.6513
  O  O251  1  0.359400  0.138800  0.380600  1.0  -0.5906
  O  O252  1  0.173600  0.398300  0.690300  1.0  -0.6056
  O  O253  1  0.381100  0.272200  0.325100  1.0  -0.2748
  O  O254  1  0.245300  0.122500  0.236200  1.0  -0.2394
  O  O255  1  0.465200  0.115800  0.221800  1.0  -0.2391
  O  O256  1  0.447500  0.087300  0.339400  1.0  -0.2676
  O  O257  1  0.681200  0.216400  0.689000  1.0  -0.5143
  O  O258  1  0.700800  0.292400  0.799000  1.0  -0.4849
  O  O259  1  0.799800  0.340000  0.768800  1.0  -0.5192
  O  O260  1  0.680900  0.326600  0.710500  1.0  -0.4896
  O  O261  1  0.906800  0.995200  0.519000  1.0  -0.5085
  O  O262  1  0.850600  0.066200  0.533000  1.0  -0.5062
  O  O263  1  0.966000  0.131000  0.543000  1.0  -0.5435
  O  O264  1  0.958400  0.113200  0.636600  1.0  -0.6265
  O  O265  1  0.884300  0.023000  0.948100  1.0  -0.5282
  O  O266  1  0.891400  0.032300  0.846100  1.0  -0.5734
  O  O267  1  0.919000  0.142200  0.942400  1.0  -0.5394
  O  O268  1  0.005000  0.105200  0.965000  1.0  -0.5105
  O  O269  1  0.527400  0.492200  0.811000  1.0  -0.5191
  O  O270  1  0.493400  0.401800  0.701000  1.0  -0.4854
  O  O271  1  0.571200  0.531000  0.731200  1.0  -0.5219
  O  O272  1  0.616100  0.470400  0.789500  1.0  -0.4851
  O  O273  1  0.476200  0.887800  0.981000  1.0  -0.5076
  O  O274  1  0.533200  0.817600  0.967000  1.0  -0.5071
  O  O275  1  0.588000  0.923000  0.957000  1.0  -0.5246
  O  O276  1  0.476600  0.821800  0.863400  1.0  -0.6238
  O  O277  1  0.074900  0.436200  0.551900  1.0  -0.5246
  O  O278  1  0.186200  0.545300  0.653900  1.0  -0.5712
  O  O279  1  0.199800  0.476600  0.557600  1.0  -0.5297
  O  O280  1  0.140200  0.540000  0.535000  1.0  -0.5038
  O  O281  1  0.318800  0.783600  0.311000  1.0  -0.5127
  O  O282  1  0.299200  0.707600  0.201000  1.0  -0.4848
  O  O283  1  0.200200  0.660000  0.231200  1.0  -0.5189
  O  O284  1  0.319100  0.673400  0.289500  1.0  -0.4875
  O  O285  1  0.093200  0.004800  0.481000  1.0  -0.509
  O  O286  1  0.149400  0.933800  0.467000  1.0  -0.5049
  O  O287  1  0.034000  0.869000  0.457000  1.0  -0.5433
  O  O288  1  0.041600  0.886800  0.363400  1.0  -0.6264
  O  O289  1  0.115700  0.977000  0.051900  1.0  -0.5302
  O  O290  1  0.108600  0.967700  0.153900  1.0  -0.5721
  O  O291  1  0.081000  0.857800  0.057600  1.0  -0.5418
  O  O292  1  0.995000  0.894800  0.035000  1.0  -0.5113
  O  O293  1  0.472600  0.507800  0.189000  1.0  -0.5167
  O  O294  1  0.506600  0.598200  0.299000  1.0  -0.489
  O  O295  1  0.428800  0.469000  0.268800  1.0  -0.5215
  O  O296  1  0.383900  0.529600  0.210500  1.0  -0.4861
  O  O297  1  0.523800  0.112200  0.019000  1.0  -0.5089
  O  O298  1  0.466800  0.182400  0.033000  1.0  -0.5058
  O  O299  1  0.412000  0.077000  0.043000  1.0  -0.526
  O  O300  1  0.523400  0.178200  0.136600  1.0  -0.6238
  O  O301  1  0.925100  0.563800  0.448100  1.0  -0.5246
  O  O302  1  0.813800  0.454700  0.346100  1.0  -0.5728
  O  O303  1  0.800200  0.523400  0.442400  1.0  -0.5289
  O  O304  1  0.859800  0.460000  0.465000  1.0  -0.5015
