# generated using pymatgen
data_NdH24C24N4Cl3O20
_symmetry_space_group_name_H-M   'P 1'
_cell_length_a   20.53810000
_cell_length_b   20.53810000
_cell_length_c   21.02680000
_cell_angle_alpha   71.88340000
_cell_angle_beta   71.87720000
_cell_angle_gamma   111.29600000
_symmetry_Int_Tables_number   1
_chemical_formula_structural   NdH24C24N4Cl3O20
_chemical_formula_sum   'Nd4 H96 C96 N16 Cl12 O80'
_cell_volume   6895.30329799
_cell_formula_units_Z   4
loop_
 _symmetry_equiv_pos_site_id
 _symmetry_equiv_pos_as_xyz
  1  'x, y, z'
loop_
 _atom_site_type_symbol
 _atom_site_label
 _atom_site_symmetry_multiplicity
 _atom_site_fract_x
 _atom_site_fract_y
 _atom_site_fract_z
 _atom_site_occupancy
 _atom_site_charge
  Nd  Nd1  1  0.115010  0.350000  0.780330  1.0  2.3117
  Nd  Nd2  1  0.369670  0.104660  0.280330  1.0  2.3084
  Nd  Nd3  1  0.630330  0.895340  0.719670  1.0  2.3117
  Nd  Nd4  1  0.884990  0.650000  0.219670  1.0  2.3085
  H  H5  1  0.951800  0.262400  0.975800  1.0  0.119
  H  H6  1  0.837800  0.248900  0.051900  1.0  0.1304
  H  H7  1  0.744300  0.185400  0.924900  1.0  0.115
  H  H8  1  0.913100  0.234900  0.778800  1.0  0.1411
  H  H9  1  0.820800  0.177700  0.817500  1.0  0.1412
  H  H10  1  0.874600  0.144300  0.834500  1.0  0.1501
  H  H11  1  0.629800  0.143400  0.014400  1.0  0.1306
  H  H12  1  0.516600  0.136100  0.087700  1.0  0.1258
  H  H13  1  0.744700  0.266500  0.096000  1.0  0.1275
  H  H14  1  0.606200  0.308900  0.177300  1.0  0.1522
  H  H15  1  0.678800  0.304000  0.182800  1.0  0.1412
  H  H16  1  0.591900  0.232900  0.241600  1.0  0.1518
  H  H17  1  0.179600  0.511500  0.579100  1.0  0.1377
  H  H18  1  0.187500  0.624700  0.504600  1.0  0.129
  H  H19  1  0.247500  0.719800  0.631900  1.0  0.1256
  H  H20  1  0.205400  0.548300  0.774100  1.0  0.1418
  H  H21  1  0.249900  0.640700  0.742400  1.0  0.1431
  H  H22  1  0.296700  0.600100  0.717000  1.0  0.1459
  H  H23  1  0.299200  0.830100  0.541900  1.0  0.1333
  H  H24  1  0.313700  0.949700  0.465200  1.0  0.1086
  H  H25  1  0.170500  0.726500  0.458800  1.0  0.112
  H  H26  1  0.155000  0.890300  0.365900  1.0  0.1237
  H  H27  1  0.129200  0.803600  0.378600  1.0  0.1502
  H  H28  1  0.212800  0.874900  0.311900  1.0  0.1511
  H  H29  1  0.261800  0.072400  0.475800  1.0  0.1188
  H  H30  1  0.199200  0.110300  0.551900  1.0  0.1289
  H  H31  1  0.389700  0.330800  0.424900  1.0  0.1149
  H  H32  1  0.486300  0.308100  0.278800  1.0  0.1417
  H  H33  1  0.504800  0.361700  0.317500  1.0  0.1417
  H  H34  1  0.521200  0.290900  0.334500  1.0  0.1452
  H  H35  1  0.342200  0.355800  0.514400  1.0  0.1287
  H  H36  1  0.276200  0.395700  0.587700  1.0  0.1271
  H  H37  1  0.137500  0.159300  0.596000  1.0  0.1284
  H  H38  1  0.013800  0.216500  0.677300  1.0  0.1511
  H  H39  1  0.013200  0.138400  0.682800  1.0  0.1381
  H  H40  1  0.025500  0.166500  0.741600  1.0  0.1509
  H  H41  1  0.409400  0.241300  0.079100  1.0  0.1385
  H  H42  1  0.370700  0.307900  0.004600  1.0  0.1275
  H  H43  1  0.148300  0.120600  0.131900  1.0  0.1255
  H  H44  1  0.177600  0.020500  0.274100  1.0  0.1402
  H  H45  1  0.116900  0.007700  0.242400  1.0  0.1433
  H  H46  1  0.182900  0.986300  0.217000  1.0  0.1453
  H  H47  1  0.128000  0.158900  0.041900  1.0  0.1338
  H  H48  1  0.085100  0.221100  0.965200  1.0  0.1086
  H  H49  1  0.314700  0.370700  0.958800  1.0  0.1119
  H  H50  1  0.243800  0.479100  0.865900  1.0  0.1252
  H  H51  1  0.317800  0.492200  0.878600  1.0  0.1493
  H  H52  1  0.313200  0.475300  0.811900  1.0  0.1523
  H  H53  1  0.738200  0.927600  0.524200  1.0  0.1183
  H  H54  1  0.800800  0.889700  0.448100  1.0  0.1286
  H  H55  1  0.610300  0.669200  0.575100  1.0  0.1153
  H  H56  1  0.513700  0.691900  0.721200  1.0  0.1406
  H  H57  1  0.495200  0.638300  0.682500  1.0  0.141
  H  H58  1  0.478800  0.709100  0.665500  1.0  0.1483
  H  H59  1  0.657800  0.644200  0.485600  1.0  0.1286
  H  H60  1  0.723800  0.604300  0.412300  1.0  0.1267
  H  H61  1  0.862500  0.840700  0.404000  1.0  0.1286
  H  H62  1  0.986200  0.783500  0.322700  1.0  0.1526
  H  H63  1  0.986800  0.861600  0.317200  1.0  0.1406
  H  H64  1  0.974500  0.833500  0.258400  1.0  0.1511
  H  H65  1  0.590600  0.758700  0.920900  1.0  0.1386
  H  H66  1  0.629300  0.692100  0.995400  1.0  0.1268
  H  H67  1  0.851700  0.879400  0.868100  1.0  0.1249
  H  H68  1  0.822400  0.979500  0.725900  1.0  0.1371
  H  H69  1  0.883100  0.992300  0.757600  1.0  0.1421
  H  H70  1  0.817100  0.013700  0.783000  1.0  0.1453
  H  H71  1  0.872000  0.841100  0.958100  1.0  0.1337
  H  H72  1  0.914900  0.778900  0.034800  1.0  0.1084
  H  H73  1  0.685300  0.629300  0.041200  1.0  0.1115
  H  H74  1  0.756200  0.520900  0.134100  1.0  0.1231
  H  H75  1  0.682200  0.507800  0.121400  1.0  0.1497
  H  H76  1  0.686800  0.524700  0.188100  1.0  0.1527
  H  H77  1  0.048200  0.737600  0.024200  1.0  0.1191
  H  H78  1  0.162200  0.751100  0.948100  1.0  0.1302
  H  H79  1  0.255700  0.814600  0.075100  1.0  0.1153
  H  H80  1  0.086900  0.765100  0.221200  1.0  0.141
  H  H81  1  0.179200  0.822300  0.182500  1.0  0.1407
  H  H82  1  0.125400  0.855700  0.165500  1.0  0.1504
  H  H83  1  0.370200  0.856600  0.985600  1.0  0.1303
  H  H84  1  0.483400  0.863900  0.912300  1.0  0.1259
  H  H85  1  0.255300  0.733500  0.904000  1.0  0.1273
  H  H86  1  0.393800  0.691100  0.822700  1.0  0.1528
  H  H87  1  0.321200  0.696000  0.817200  1.0  0.1411
  H  H88  1  0.408100  0.767100  0.758400  1.0  0.1517
  H  H89  1  0.820400  0.488500  0.420900  1.0  0.1371
  H  H90  1  0.812500  0.375300  0.495400  1.0  0.1282
  H  H91  1  0.752500  0.280200  0.368100  1.0  0.1249
  H  H92  1  0.794600  0.451700  0.225900  1.0  0.1399
  H  H93  1  0.750100  0.359300  0.257600  1.0  0.142
  H  H94  1  0.703300  0.399900  0.283000  1.0  0.1467
  H  H95  1  0.700800  0.169900  0.458100  1.0  0.1335
  H  H96  1  0.686300  0.050300  0.534800  1.0  0.109
  H  H97  1  0.829500  0.273500  0.541200  1.0  0.1131
  H  H98  1  0.845000  0.109700  0.634100  1.0  0.1244
  H  H99  1  0.870800  0.196400  0.621400  1.0  0.1486
  H  H100  1  0.787200  0.125100  0.688100  1.0  0.1514
  C  C101  1  0.908900  0.245700  0.966400  1.0  0.0397
  C  C102  1  0.841500  0.238400  0.011300  1.0  -0.1577
  C  C103  1  0.775800  0.214900  0.997500  1.0  0.0652
  C  C104  1  0.786100  0.200100  0.936000  1.0  -0.0853
  C  C105  1  0.855900  0.206400  0.890300  1.0  0.2139
  C  C106  1  0.867200  0.189300  0.824300  1.0  -0.3618
  C  C107  1  0.700600  0.207400  0.045600  1.0  0.0023
  C  C108  1  0.630700  0.167500  0.045200  1.0  -0.1258
  C  C109  1  0.563300  0.163000  0.088900  1.0  0.0263
  C  C110  1  0.630700  0.237100  0.137800  1.0  0.1832
  C  C111  1  0.698500  0.240700  0.093600  1.0  -0.088
  C  C112  1  0.626500  0.274100  0.189600  1.0  -0.3529
  C  C113  1  0.193900  0.554200  0.588900  1.0  0.0134
  C  C114  1  0.198800  0.621700  0.544700  1.0  -0.1149
  C  C115  1  0.220900  0.688500  0.558600  1.0  0.0527
  C  C116  1  0.234500  0.678400  0.620100  1.0  -0.0954
  C  C117  1  0.229900  0.609000  0.665700  1.0  0.2546
  C  C118  1  0.247000  0.598700  0.730500  1.0  -0.3607
  C  C119  1  0.231400  0.764200  0.509400  1.0  0.0852
  C  C120  1  0.275300  0.831700  0.511000  1.0  -0.2049
  C  C121  1  0.283200  0.903500  0.464900  1.0  0.0167
  C  C122  1  0.208700  0.842600  0.415300  1.0  0.2576
  C  C123  1  0.199700  0.771700  0.461000  1.0  -0.0692
  C  C124  1  0.173200  0.853800  0.363200  1.0  -0.3515
  C  C125  1  0.287900  0.124700  0.466400  1.0  0.044
  C  C126  1  0.250300  0.147200  0.511300  1.0  -0.1591
  C  C127  1  0.287600  0.226700  0.497500  1.0  0.0646
  C  C128  1  0.363900  0.277900  0.436000  1.0  -0.0846
  C  C129  1  0.403300  0.253800  0.390300  1.0  0.2131
  C  C130  1  0.486400  0.308500  0.324300  1.0  -0.3597
  C  C131  1  0.247000  0.253800  0.545600  1.0  0.001
  C  C132  1  0.287300  0.324100  0.545200  1.0  -0.1264
  C  C133  1  0.248100  0.347800  0.588900  1.0  0.0234
  C  C134  1  0.125100  0.231500  0.637800  1.0  0.1823
  C  C135  1  0.165700  0.207900  0.593600  1.0  -0.0887
  C  C136  1  0.036300  0.183900  0.689600  1.0  -0.3521
  C  C137  1  0.356900  0.217200  0.088900  1.0  0.0111
  C  C138  1  0.333600  0.256500  0.044700  1.0  -0.1121
  C  C139  1  0.252900  0.220500  0.058600  1.0  0.0533
  C  C140  1  0.201500  0.145400  0.120100  1.0  -0.0956
  C  C141  1  0.225300  0.104400  0.165700  1.0  0.2525
  C  C142  1  0.170800  0.022500  0.230500  1.0  -0.3622
  C  C143  1  0.226400  0.259200  0.009400  1.0  0.0857
  C  C144  1  0.157300  0.213700  0.011000  1.0  -0.2048
  C  C145  1  0.131600  0.251900  0.964900  1.0  0.0136
  C  C146  1  0.242100  0.376000  0.915300  1.0  0.2561
  C  C147  1  0.267300  0.339300  0.961000  1.0  -0.0741
  C  C148  1  0.283000  0.463600  0.863200  1.0  -0.3531
  C  C149  1  0.712100  0.875300  0.533600  1.0  0.0436
  C  C150  1  0.749700  0.852800  0.488700  1.0  -0.1606
  C  C151  1  0.712400  0.773300  0.502500  1.0  0.0651
  C  C152  1  0.636100  0.722100  0.564000  1.0  -0.0844
  C  C153  1  0.596700  0.746200  0.609700  1.0  0.2129
  C  C154  1  0.513600  0.691500  0.675700  1.0  -0.3606
  C  C155  1  0.753000  0.746200  0.454400  1.0  0.0021
  C  C156  1  0.712700  0.675900  0.454800  1.0  -0.124
  C  C157  1  0.751900  0.652200  0.411100  1.0  0.0238
  C  C158  1  0.874900  0.768500  0.362200  1.0  0.182
  C  C159  1  0.834300  0.792100  0.406400  1.0  -0.0874
  C  C160  1  0.963700  0.816100  0.310400  1.0  -0.3521
  C  C161  1  0.643100  0.782800  0.911100  1.0  0.0102
  C  C162  1  0.666400  0.743500  0.955300  1.0  -0.1106
  C  C163  1  0.747100  0.779500  0.941400  1.0  0.0525
  C  C164  1  0.798500  0.854600  0.879900  1.0  -0.0941
  C  C165  1  0.774700  0.895600  0.834300  1.0  0.2532
  C  C166  1  0.829200  0.977500  0.769500  1.0  -0.3627
  C  C167  1  0.773600  0.740800  0.990600  1.0  0.0855
  C  C168  1  0.842700  0.786300  0.989000  1.0  -0.204
  C  C169  1  0.868400  0.748100  0.035100  1.0  0.0163
  C  C170  1  0.757900  0.624000  0.084700  1.0  0.2559
  C  C171  1  0.732700  0.660700  0.039000  1.0  -0.0732
  C  C172  1  0.717000  0.536400  0.136800  1.0  -0.3555
  C  C173  1  0.091100  0.754300  0.033600  1.0  0.0425
  C  C174  1  0.158500  0.761600  0.988700  1.0  -0.1574
  C  C175  1  0.224200  0.785100  0.002500  1.0  0.0658
  C  C176  1  0.213900  0.799900  0.064000  1.0  -0.0863
  C  C177  1  0.144100  0.793600  0.109700  1.0  0.2147
  C  C178  1  0.132800  0.810700  0.175700  1.0  -0.3626
  C  C179  1  0.299400  0.792600  0.954400  1.0  0.002
  C  C180  1  0.369300  0.832500  0.954800  1.0  -0.1267
  C  C181  1  0.436700  0.837000  0.911100  1.0  0.0269
  C  C182  1  0.369300  0.762900  0.862200  1.0  0.1827
  C  C183  1  0.301500  0.759300  0.906400  1.0  -0.0894
  C  C184  1  0.373500  0.725900  0.810400  1.0  -0.3533
  C  C185  1  0.806100  0.445800  0.411100  1.0  0.0108
  C  C186  1  0.801200  0.378300  0.455300  1.0  -0.1141
  C  C187  1  0.779100  0.311500  0.441400  1.0  0.0529
  C  C188  1  0.765500  0.321600  0.379900  1.0  -0.093
  C  C189  1  0.770100  0.391000  0.334300  1.0  0.2539
  C  C190  1  0.753000  0.401300  0.269500  1.0  -0.3619
  C  C191  1  0.768600  0.235800  0.490600  1.0  0.0849
  C  C192  1  0.724700  0.168300  0.489000  1.0  -0.2046
  C  C193  1  0.716800  0.096500  0.535100  1.0  0.0185
  C  C194  1  0.791300  0.157400  0.584700  1.0  0.2565
  C  C195  1  0.800300  0.228300  0.539000  1.0  -0.0696
  C  C196  1  0.826800  0.146200  0.636800  1.0  -0.3522
  N  N197  1  0.917400  0.229200  0.906600  1.0  0.2465
  N  N198  1  0.563500  0.197100  0.134000  1.0  0.3694
  N  N199  1  0.210100  0.549400  0.648100  1.0  0.3156
  N  N200  1  0.249300  0.907400  0.421700  1.0  0.3674
  N  N201  1  0.364200  0.176000  0.406600  1.0  0.2458
  N  N202  1  0.168900  0.302500  0.634000  1.0  0.3729
  N  N203  1  0.302500  0.141800  0.148100  1.0  0.317
  N  N204  1  0.170900  0.329000  0.921700  1.0  0.3657
  N  N205  1  0.635800  0.824000  0.593400  1.0  0.2461
  N  N206  1  0.831100  0.697500  0.366000  1.0  0.3717
  N  N207  1  0.697500  0.858200  0.851900  1.0  0.3178
  N  N208  1  0.829100  0.671000  0.078300  1.0  0.3644
  N  N209  1  0.082600  0.770800  0.093400  1.0  0.2448
  N  N210  1  0.436500  0.802900  0.866000  1.0  0.3688
  N  N211  1  0.789900  0.450600  0.351900  1.0  0.3139
  N  N212  1  0.750700  0.092600  0.578300  1.0  0.3662
  Cl  Cl213  1  0.977600  0.627600  0.450200  1.0  1.1419
  Cl  Cl214  1  0.350550  0.001090  0.075040  1.0  1.5887
  Cl  Cl215  1  0.948450  0.026880  0.255830  1.0  1.5552
  Cl  Cl216  1  0.577800  0.427800  0.049800  1.0  1.1382
  Cl  Cl217  1  0.576130  0.425590  0.424960  1.0  1.5875
  Cl  Cl218  1  0.782710  0.204280  0.244170  1.0  1.5553
  Cl  Cl219  1  0.022400  0.372400  0.549800  1.0  1.1365
  Cl  Cl220  1  0.649450  0.998910  0.924960  1.0  1.5892
  Cl  Cl221  1  0.051550  0.973120  0.744170  1.0  1.5557
  Cl  Cl222  1  0.422200  0.572200  0.950200  1.0  1.1386
  Cl  Cl223  1  0.423870  0.574410  0.575040  1.0  1.5881
  Cl  Cl224  1  0.217290  0.795720  0.755830  1.0  1.5546
  O  O225  1  0.984100  0.234200  0.866900  1.0  -0.6616
  O  O226  1  0.497000  0.194700  0.174500  1.0  -0.6528
  O  O227  1  0.208300  0.483600  0.689300  1.0  -0.6612
  O  O228  1  0.255400  0.976500  0.383100  1.0  -0.6211
  O  O229  1  0.118200  0.224600  0.825600  1.0  -0.268
  O  O230  1  0.255900  0.379500  0.735800  1.0  -0.2761
  O  O231  1  0.051100  0.413300  0.839800  1.0  -0.2351
  O  O232  1  0.034000  0.383200  0.722400  1.0  -0.2207
  O  O233  1  0.398900  0.149000  0.366900  1.0  -0.6636
  O  O234  1  0.130800  0.328500  0.674500  1.0  -0.6549
  O  O235  1  0.327100  0.102400  0.189300  1.0  -0.6626
  O  O236  1  0.140400  0.361500  0.883100  1.0  -0.6252
  O  O237  1  0.449800  0.056200  0.325600  1.0  -0.2674
  O  O238  1  0.384700  0.008300  0.235800  1.0  -0.2765
  O  O239  1  0.246900  0.109100  0.339800  1.0  -0.2351
  O  O240  1  0.394400  0.243600  0.222400  1.0  -0.2197
  O  O241  1  0.601100  0.851000  0.633100  1.0  -0.6646
  O  O242  1  0.869200  0.671500  0.325500  1.0  -0.6585
  O  O243  1  0.672900  0.897600  0.810700  1.0  -0.6614
  O  O244  1  0.859600  0.638500  0.116900  1.0  -0.6268
  O  O245  1  0.550200  0.943800  0.674400  1.0  -0.2681
  O  O246  1  0.615300  0.991700  0.764200  1.0  -0.2789
  O  O247  1  0.753100  0.890900  0.660200  1.0  -0.23
  O  O248  1  0.605600  0.756400  0.777600  1.0  -0.2198
  O  O249  1  0.015900  0.765800  0.133100  1.0  -0.6637
  O  O250  1  0.503000  0.805300  0.825500  1.0  -0.6538
  O  O251  1  0.791700  0.516400  0.310700  1.0  -0.6592
  O  O252  1  0.744600  0.023500  0.616900  1.0  -0.6207
  O  O253  1  0.881800  0.775400  0.174400  1.0  -0.2679
  O  O254  1  0.744100  0.620500  0.264200  1.0  -0.2772
  O  O255  1  0.948900  0.586700  0.160200  1.0  -0.2331
  O  O256  1  0.966000  0.616800  0.277600  1.0  -0.2183
  O  O257  1  0.029500  0.615400  0.477500  1.0  -0.5065
  O  O258  1  0.920700  0.571400  0.457900  1.0  -0.4983
  O  O259  1  0.966400  0.683800  0.469600  1.0  -0.5231
  O  O260  1  0.023500  0.672000  0.367300  1.0  -0.6152
  O  O261  1  0.312100  0.953500  0.156400  1.0  -0.5876
  O  O262  1  0.356800  0.956100  0.039300  1.0  -0.5188
  O  O263  1  0.301500  0.027800  0.058100  1.0  -0.5609
  O  O264  1  0.425500  0.061400  0.052700  1.0  -0.5205
  O  O265  1  0.968000  0.001000  0.313400  1.0  -0.5332
  O  O266  1  0.924300  0.967300  0.234000  1.0  -0.5116
  O  O267  1  0.008200  0.099000  0.199000  1.0  -0.485
  O  O268  1  0.884900  0.034200  0.286100  1.0  -0.4919
  O  O269  1  0.592900  0.507000  0.022500  1.0  -0.51
  O  O270  1  0.529300  0.378600  0.042100  1.0  -0.5011
  O  O271  1  0.653400  0.436000  0.030400  1.0  -0.521
  O  O272  1  0.539300  0.390800  0.132700  1.0  -0.6189
  O  O273  1  0.609900  0.468500  0.343600  1.0  -0.5881
  O  O274  1  0.495400  0.396100  0.460700  1.0  -0.5069
  O  O275  1  0.585900  0.359600  0.441900  1.0  -0.5585
  O  O276  1  0.614100  0.478200  0.447300  1.0  -0.5219
  O  O277  1  0.814400  0.281400  0.186600  1.0  -0.5281
  O  O278  1  0.701300  0.158300  0.266000  1.0  -0.5098
  O  O279  1  0.798000  0.207200  0.301000  1.0  -0.4855
  O  O280  1  0.820300  0.171000  0.213900  1.0  -0.4938
  O  O281  1  0.970500  0.384600  0.522500  1.0  -0.5059
  O  O282  1  0.079300  0.428600  0.542100  1.0  -0.4982
  O  O283  1  0.033600  0.316200  0.530400  1.0  -0.5257
  O  O284  1  0.976500  0.328000  0.632700  1.0  -0.6152
  O  O285  1  0.687900  0.046500  0.843600  1.0  -0.5867
  O  O286  1  0.643200  0.043900  0.960700  1.0  -0.5194
  O  O287  1  0.698500  0.972200  0.941900  1.0  -0.5619
  O  O288  1  0.574500  0.938600  0.947300  1.0  -0.5209
  O  O289  1  0.032000  0.999000  0.686600  1.0  -0.53
  O  O290  1  0.075700  0.032700  0.766000  1.0  -0.5111
  O  O291  1  0.991800  0.901000  0.801000  1.0  -0.4835
  O  O292  1  0.115100  0.965800  0.713900  1.0  -0.4908
  O  O293  1  0.407100  0.493000  0.977500  1.0  -0.5055
  O  O294  1  0.470700  0.621400  0.957900  1.0  -0.4996
  O  O295  1  0.346600  0.564000  0.969600  1.0  -0.5224
  O  O296  1  0.460700  0.609200  0.867300  1.0  -0.6181
  O  O297  1  0.390100  0.531500  0.656400  1.0  -0.5897
  O  O298  1  0.504600  0.603900  0.539300  1.0  -0.5083
  O  O299  1  0.414100  0.640400  0.558100  1.0  -0.5585
  O  O300  1  0.385900  0.521800  0.552700  1.0  -0.5234
  O  O301  1  0.185600  0.718600  0.813400  1.0  -0.529
  O  O302  1  0.298700  0.841700  0.734000  1.0  -0.5105
  O  O303  1  0.202000  0.792800  0.699000  1.0  -0.4858
  O  O304  1  0.179700  0.829000  0.786100  1.0  -0.4932
