# generated using pymatgen
data_Zn3P4(HO3)4
_symmetry_space_group_name_H-M   'P 1'
_cell_length_a   16.33510000
_cell_length_b   9.27500000
_cell_length_c   17.24160000
_cell_angle_alpha   90.00000000
_cell_angle_beta   117.98700000
_cell_angle_gamma   90.00000000
_symmetry_Int_Tables_number   1
_chemical_formula_structural   Zn3P4(HO3)4
_chemical_formula_sum   'Zn12 P16 H16 O48'
_cell_volume   2306.75030888
_cell_formula_units_Z   4
loop_
 _symmetry_equiv_pos_site_id
 _symmetry_equiv_pos_as_xyz
  1  'x, y, z'
loop_
 _atom_site_type_symbol
 _atom_site_label
 _atom_site_symmetry_multiplicity
 _atom_site_fract_x
 _atom_site_fract_y
 _atom_site_fract_z
 _atom_site_occupancy
 _atom_site_charge
  Zn  Zn1  1  0.135000  0.122300  0.023280  1.0  1.1366
  Zn  Zn2  1  0.635000  0.622300  0.023280  1.0  1.1366
  Zn  Zn3  1  0.865000  0.122300  0.476720  1.0  1.1365
  Zn  Zn4  1  0.365000  0.622300  0.476720  1.0  1.1365
  Zn  Zn5  1  0.865000  0.877700  0.976720  1.0  1.1362
  Zn  Zn6  1  0.365000  0.377700  0.976720  1.0  1.1362
  Zn  Zn7  1  0.135000  0.877700  0.523280  1.0  1.1361
  Zn  Zn8  1  0.635000  0.377700  0.523280  1.0  1.1361
  Zn  Zn9  1  0.000000  0.153850  0.750000  1.0  1.1526
  Zn  Zn10  1  0.500000  0.653850  0.750000  1.0  1.1526
  Zn  Zn11  1  0.000000  0.846150  0.250000  1.0  1.1526
  Zn  Zn12  1  0.500000  0.346150  0.250000  1.0  1.1526
  P  P13  1  0.143250  0.373320  0.900850  1.0  1.4945
  P  P14  1  0.020120  0.918520  0.633820  1.0  1.4829
  P  P15  1  0.643250  0.873320  0.900850  1.0  1.4945
  P  P16  1  0.520120  0.418520  0.633820  1.0  1.4829
  P  P17  1  0.856750  0.373320  0.599150  1.0  1.4947
  P  P18  1  0.979880  0.918520  0.866180  1.0  1.4836
  P  P19  1  0.356750  0.873320  0.599150  1.0  1.4947
  P  P20  1  0.479880  0.418520  0.866180  1.0  1.4836
  P  P21  1  0.856750  0.626680  0.099150  1.0  1.4881
  P  P22  1  0.979880  0.081480  0.366180  1.0  1.4839
  P  P23  1  0.356750  0.126680  0.099150  1.0  1.4881
  P  P24  1  0.479880  0.581480  0.366180  1.0  1.4839
  P  P25  1  0.143250  0.626680  0.400850  1.0  1.4891
  P  P26  1  0.020120  0.081480  0.133820  1.0  1.482
  P  P27  1  0.643250  0.126680  0.400850  1.0  1.4891
  P  P28  1  0.520120  0.581480  0.133820  1.0  1.482
  H  H29  1  0.086200  0.486390  0.874130  1.0  -0.0463
  H  H30  1  0.991780  0.811080  0.663010  1.0  -0.0567
  H  H31  1  0.586200  0.986390  0.874130  1.0  -0.0463
  H  H32  1  0.491780  0.311080  0.663010  1.0  -0.0567
  H  H33  1  0.913800  0.486390  0.625870  1.0  -0.0436
  H  H34  1  0.008220  0.811080  0.836990  1.0  -0.0542
  H  H35  1  0.413800  0.986390  0.625870  1.0  -0.0436
  H  H36  1  0.508220  0.311080  0.836990  1.0  -0.0542
  H  H37  1  0.913800  0.513610  0.125870  1.0  -0.043
  H  H38  1  0.008220  0.188920  0.336990  1.0  -0.0543
  H  H39  1  0.413800  0.013610  0.125870  1.0  -0.043
  H  H40  1  0.508220  0.688920  0.336990  1.0  -0.0543
  H  H41  1  0.086200  0.513610  0.374130  1.0  -0.0455
  H  H42  1  0.991780  0.188920  0.163010  1.0  -0.0563
  H  H43  1  0.586200  0.013610  0.374130  1.0  -0.0455
  H  H44  1  0.491780  0.688920  0.163010  1.0  -0.0563
  O  O45  1  0.142080  0.319370  0.984100  1.0  -0.7252
  O  O46  1  0.235000  0.436280  0.918340  1.0  -0.7448
  O  O47  1  0.108900  0.259880  0.829900  1.0  -0.7812
  O  O48  1  0.065500  0.024660  0.709200  1.0  -0.7388
  O  O49  1  0.089100  0.859700  0.606970  1.0  -0.7588
  O  O50  1  0.931010  0.976420  0.561410  1.0  -0.8391
  O  O51  1  0.642080  0.819370  0.984100  1.0  -0.7252
  O  O52  1  0.735000  0.936280  0.918340  1.0  -0.7448
  O  O53  1  0.608900  0.759880  0.829900  1.0  -0.7812
  O  O54  1  0.565500  0.524660  0.709200  1.0  -0.7388
  O  O55  1  0.589100  0.359700  0.606970  1.0  -0.7588
  O  O56  1  0.431010  0.476420  0.561410  1.0  -0.8391
  O  O57  1  0.857920  0.319370  0.515900  1.0  -0.7243
  O  O58  1  0.765000  0.436280  0.581660  1.0  -0.7467
  O  O59  1  0.891100  0.259880  0.670100  1.0  -0.7809
  O  O60  1  0.934500  0.024660  0.790800  1.0  -0.7354
  O  O61  1  0.910900  0.859700  0.893030  1.0  -0.7605
  O  O62  1  0.068990  0.976420  0.938590  1.0  -0.8406
  O  O63  1  0.357920  0.819370  0.515900  1.0  -0.7243
  O  O64  1  0.265000  0.936280  0.581660  1.0  -0.7467
  O  O65  1  0.391100  0.759880  0.670100  1.0  -0.7809
  O  O66  1  0.434500  0.524660  0.790800  1.0  -0.7354
  O  O67  1  0.410900  0.359700  0.893030  1.0  -0.7605
  O  O68  1  0.568990  0.476420  0.938590  1.0  -0.8406
  O  O69  1  0.857920  0.680630  0.015900  1.0  -0.724
  O  O70  1  0.765000  0.563720  0.081660  1.0  -0.7463
  O  O71  1  0.891100  0.740120  0.170100  1.0  -0.7804
  O  O72  1  0.934500  0.975340  0.290800  1.0  -0.7358
  O  O73  1  0.910900  0.140300  0.393030  1.0  -0.7593
  O  O74  1  0.068990  0.023580  0.438590  1.0  -0.841
  O  O75  1  0.357920  0.180630  0.015900  1.0  -0.724
  O  O76  1  0.265000  0.063720  0.081660  1.0  -0.7463
  O  O77  1  0.391100  0.240120  0.170100  1.0  -0.7804
  O  O78  1  0.434500  0.475340  0.290800  1.0  -0.7358
  O  O79  1  0.410900  0.640300  0.393030  1.0  -0.7593
  O  O80  1  0.568990  0.523580  0.438590  1.0  -0.841
  O  O81  1  0.142080  0.680630  0.484100  1.0  -0.7255
  O  O82  1  0.235000  0.563720  0.418340  1.0  -0.7441
  O  O83  1  0.108900  0.740120  0.329900  1.0  -0.7809
  O  O84  1  0.065500  0.975340  0.209200  1.0  -0.7388
  O  O85  1  0.089100  0.140300  0.106970  1.0  -0.7568
  O  O86  1  0.931010  0.023580  0.061410  1.0  -0.84
  O  O87  1  0.642080  0.180630  0.484100  1.0  -0.7255
  O  O88  1  0.735000  0.063720  0.418340  1.0  -0.7441
  O  O89  1  0.608900  0.240120  0.329900  1.0  -0.7809
  O  O90  1  0.565500  0.475340  0.209200  1.0  -0.7388
  O  O91  1  0.589100  0.640300  0.106970  1.0  -0.7568
  O  O92  1  0.431010  0.523580  0.061410  1.0  -0.84
