# generated using pymatgen
data_Mg5Al4(PO4)9
_symmetry_space_group_name_H-M   'P 1'
_cell_length_a   13.23850000
_cell_length_b   13.23850000
_cell_length_c   46.38080000
_cell_angle_alpha   90.00000000
_cell_angle_beta   90.00000000
_cell_angle_gamma   120.00000000
_symmetry_Int_Tables_number   1
_chemical_formula_structural   Mg5Al4(PO4)9
_chemical_formula_sum   'Mg30 Al24 P54 O216'
_cell_volume   7039.57477708
_cell_formula_units_Z   6
loop_
 _symmetry_equiv_pos_site_id
 _symmetry_equiv_pos_as_xyz
  1  'x, y, z'
loop_
 _atom_site_type_symbol
 _atom_site_label
 _atom_site_symmetry_multiplicity
 _atom_site_fract_x
 _atom_site_fract_y
 _atom_site_fract_z
 _atom_site_occupancy
 _atom_site_charge
  Mg  Mg1  1  0.994430  0.232910  0.033480  1.0  1.7872
  Mg  Mg2  1  0.661100  0.566240  0.366810  1.0  1.7872
  Mg  Mg3  1  0.327760  0.899580  0.700140  1.0  1.7876
  Mg  Mg4  1  0.232910  0.994430  0.466520  1.0  1.7867
  Mg  Mg5  1  0.899580  0.327760  0.799860  1.0  1.7871
  Mg  Mg6  1  0.566240  0.661100  0.133190  1.0  1.7867
  Mg  Mg7  1  0.005570  0.767090  0.966520  1.0  1.7881
  Mg  Mg8  1  0.672240  0.100420  0.299860  1.0  1.7885
  Mg  Mg9  1  0.338900  0.433760  0.633190  1.0  1.7881
  Mg  Mg10  1  0.767090  0.005570  0.533480  1.0  1.7879
  Mg  Mg11  1  0.433760  0.338900  0.866810  1.0  1.7879
  Mg  Mg12  1  0.100420  0.672240  0.200140  1.0  1.7883
  Mg  Mg13  1  0.666667  0.089460  0.083330  1.0  1.7529
  Mg  Mg14  1  0.910540  0.577200  0.083330  1.0  1.7525
  Mg  Mg15  1  0.422800  0.333333  0.083330  1.0  1.7529
  Mg  Mg16  1  0.089460  0.666667  0.416670  1.0  1.7529
  Mg  Mg17  1  0.756130  0.000000  0.750000  1.0  1.7529
  Mg  Mg18  1  0.577200  0.910540  0.416670  1.0  1.7524
  Mg  Mg19  1  0.243870  0.243870  0.750000  1.0  1.7524
  Mg  Mg20  1  0.333333  0.422800  0.416670  1.0  1.7528
  Mg  Mg21  1  0.000000  0.756130  0.750000  1.0  1.7528
  Mg  Mg22  1  0.333333  0.910540  0.916670  1.0  1.7525
  Mg  Mg23  1  0.000000  0.243870  0.250000  1.0  1.7525
  Mg  Mg24  1  0.089460  0.422800  0.916670  1.0  1.753
  Mg  Mg25  1  0.756130  0.756130  0.250000  1.0  1.753
  Mg  Mg26  1  0.577200  0.666667  0.916670  1.0  1.7524
  Mg  Mg27  1  0.243870  0.000000  0.250000  1.0  1.7525
  Mg  Mg28  1  0.910540  0.333333  0.583330  1.0  1.7526
  Mg  Mg29  1  0.422800  0.089460  0.583330  1.0  1.7531
  Mg  Mg30  1  0.666667  0.577200  0.583330  1.0  1.7526
  Al  Al31  1  0.767090  0.761520  0.033480  1.0  2.0398
  Al  Al32  1  0.433760  0.094850  0.366810  1.0  2.0398
  Al  Al33  1  0.100420  0.428190  0.700140  1.0  2.0402
  Al  Al34  1  0.238480  0.005570  0.033480  1.0  2.0398
  Al  Al35  1  0.905150  0.338900  0.366810  1.0  2.0398
  Al  Al36  1  0.571810  0.672240  0.700140  1.0  2.0402
  Al  Al37  1  0.761520  0.767090  0.466520  1.0  2.0402
  Al  Al38  1  0.428190  0.100420  0.799860  1.0  2.0406
  Al  Al39  1  0.094850  0.433760  0.133190  1.0  2.0402
  Al  Al40  1  0.005570  0.238480  0.466520  1.0  2.0395
  Al  Al41  1  0.672240  0.571810  0.799860  1.0  2.0399
  Al  Al42  1  0.338900  0.905150  0.133190  1.0  2.0395
  Al  Al43  1  0.232910  0.238480  0.966520  1.0  2.0401
  Al  Al44  1  0.899580  0.571810  0.299860  1.0  2.0405
  Al  Al45  1  0.566240  0.905150  0.633190  1.0  2.0401
  Al  Al46  1  0.761520  0.994430  0.966520  1.0  2.0391
  Al  Al47  1  0.428190  0.327760  0.299860  1.0  2.0395
  Al  Al48  1  0.094850  0.661100  0.633190  1.0  2.0391
  Al  Al49  1  0.238480  0.232910  0.533480  1.0  2.0393
  Al  Al50  1  0.905150  0.566240  0.866810  1.0  2.0393
  Al  Al51  1  0.571810  0.899580  0.200140  1.0  2.0397
  Al  Al52  1  0.994430  0.761520  0.533480  1.0  2.0404
  Al  Al53  1  0.661100  0.094850  0.866810  1.0  2.0404
  Al  Al54  1  0.327760  0.428190  0.200140  1.0  2.0408
  P  P55  1  0.757770  0.994410  0.033630  1.0  2.1389
  P  P56  1  0.424440  0.327740  0.366960  1.0  2.1389
  P  P57  1  0.091100  0.661080  0.700290  1.0  2.1389
  P  P58  1  0.005590  0.763360  0.033630  1.0  2.1329
  P  P59  1  0.672260  0.096690  0.366960  1.0  2.1329
  P  P60  1  0.338920  0.430030  0.700290  1.0  2.133
  P  P61  1  0.236640  0.242230  0.033630  1.0  2.1593
  P  P62  1  0.903310  0.575560  0.366960  1.0  2.1593
  P  P63  1  0.569970  0.908900  0.700290  1.0  2.1593
  P  P64  1  0.994410  0.757770  0.466370  1.0  2.1399
  P  P65  1  0.661080  0.091100  0.799710  1.0  2.1399
  P  P66  1  0.327740  0.424440  0.133040  1.0  2.1399
  P  P67  1  0.763360  0.005590  0.466370  1.0  2.1314
  P  P68  1  0.430030  0.338920  0.799710  1.0  2.1314
  P  P69  1  0.096690  0.672260  0.133040  1.0  2.1314
  P  P70  1  0.242230  0.236640  0.466370  1.0  2.159
  P  P71  1  0.908900  0.569970  0.799710  1.0  2.1591
  P  P72  1  0.575560  0.903310  0.133040  1.0  2.1591
  P  P73  1  0.242230  0.005590  0.966370  1.0  2.1326
  P  P74  1  0.908900  0.338920  0.299710  1.0  2.1326
  P  P75  1  0.575560  0.672260  0.633040  1.0  2.1326
  P  P76  1  0.994410  0.236640  0.966370  1.0  2.1317
  P  P77  1  0.661080  0.569970  0.299710  1.0  2.1317
  P  P78  1  0.327740  0.903310  0.633040  1.0  2.1317
  P  P79  1  0.763360  0.757770  0.966370  1.0  2.1594
  P  P80  1  0.430030  0.091100  0.299710  1.0  2.1594
  P  P81  1  0.096690  0.424440  0.633040  1.0  2.1594
  P  P82  1  0.005590  0.242230  0.533630  1.0  2.1324
  P  P83  1  0.672260  0.575560  0.866960  1.0  2.1324
  P  P84  1  0.338920  0.908900  0.200290  1.0  2.1324
  P  P85  1  0.236640  0.994410  0.533630  1.0  2.133
  P  P86  1  0.903310  0.327740  0.866960  1.0  2.133
  P  P87  1  0.569970  0.661080  0.200290  1.0  2.133
  P  P88  1  0.757770  0.763360  0.533630  1.0  2.159
  P  P89  1  0.424440  0.096690  0.866960  1.0  2.159
  P  P90  1  0.091100  0.430030  0.200290  1.0  2.159
  P  P91  1  0.908110  0.333333  0.083330  1.0  1.9995
  P  P92  1  0.666667  0.574770  0.083330  1.0  2.0008
  P  P93  1  0.333333  0.908110  0.416670  1.0  2.0007
  P  P94  1  0.425230  0.091890  0.083330  1.0  2.0081
  P  P95  1  0.758560  0.758560  0.750000  1.0  2.0089
  P  P96  1  0.000000  0.241440  0.750000  1.0  2.0015
  P  P97  1  0.574770  0.666667  0.416670  1.0  1.9993
  P  P98  1  0.241440  0.000000  0.750000  1.0  2.0003
  P  P99  1  0.091890  0.425230  0.416670  1.0  2.008
  P  P100  1  0.091890  0.666667  0.916670  1.0  2.0006
  P  P101  1  0.758560  0.000000  0.250000  1.0  2.0015
  P  P102  1  0.425230  0.333333  0.583330  1.0  2.0008
  P  P103  1  0.333333  0.425230  0.916670  1.0  1.9999
  P  P104  1  0.000000  0.758560  0.250000  1.0  2.0007
  P  P105  1  0.574770  0.908110  0.916670  1.0  2.0075
  P  P106  1  0.241440  0.241440  0.250000  1.0  2.0084
  P  P107  1  0.666667  0.091890  0.583330  1.0  1.9999
  P  P108  1  0.908110  0.574770  0.583330  1.0  2.0076
  O  O109  1  0.967700  0.321800  0.056470  1.0  -0.9868
  O  O110  1  0.895800  0.439300  0.079550  1.0  -0.9324
  O  O111  1  0.743500  0.877150  0.041780  1.0  -1.0336
  O  O112  1  0.884590  0.085920  0.037660  1.0  -1.0414
  O  O113  1  0.719300  0.992520  0.002690  1.0  -0.9669
  O  O114  1  0.679700  0.018800  0.052400  1.0  -0.9958
  O  O115  1  0.634370  0.655130  0.389800  1.0  -0.987
  O  O116  1  0.562470  0.772630  0.412880  1.0  -0.9318
  O  O117  1  0.410170  0.210480  0.375110  1.0  -1.0336
  O  O118  1  0.551260  0.419250  0.370990  1.0  -1.0414
  O  O119  1  0.385970  0.325850  0.336020  1.0  -0.9669
  O  O120  1  0.346370  0.352130  0.385730  1.0  -0.996
  O  O121  1  0.301030  0.988470  0.723140  1.0  -0.987
  O  O122  1  0.229130  0.105970  0.746220  1.0  -0.9423
  O  O123  1  0.076830  0.543820  0.708450  1.0  -1.0339
  O  O124  1  0.217920  0.752590  0.704330  1.0  -1.0554
  O  O125  1  0.052630  0.659190  0.669360  1.0  -0.967
  O  O126  1  0.013030  0.685470  0.719070  1.0  -1.0012
  O  O127  1  0.678200  0.645900  0.056470  1.0  -0.9888
  O  O128  1  0.560700  0.456500  0.079550  1.0  -0.9474
  O  O129  1  0.122850  0.866350  0.041780  1.0  -1.0323
  O  O130  1  0.914080  0.798670  0.037660  1.0  -1.0614
  O  O131  1  0.007480  0.726780  0.002690  1.0  -0.961
  O  O132  1  0.981200  0.660900  0.052400  1.0  -0.991
  O  O133  1  0.344870  0.979230  0.389800  1.0  -0.9888
  O  O134  1  0.227370  0.789830  0.412880  1.0  -0.9463
  O  O135  1  0.789520  0.199680  0.375110  1.0  -1.0323
  O  O136  1  0.580750  0.132000  0.370990  1.0  -1.0614
  O  O137  1  0.674150  0.060110  0.336020  1.0  -0.961
  O  O138  1  0.647870  0.994230  0.385730  1.0  -0.991
  O  O139  1  0.011530  0.312570  0.723140  1.0  -0.9889
  O  O140  1  0.894030  0.123170  0.746220  1.0  -0.9334
  O  O141  1  0.456180  0.533020  0.708450  1.0  -1.0326
  O  O142  1  0.247410  0.465340  0.704330  1.0  -1.0588
  O  O143  1  0.340810  0.393450  0.669360  1.0  -0.9611
  O  O144  1  0.314530  0.327570  0.719070  1.0  -1.0016
  O  O145  1  0.354100  0.032300  0.056470  1.0  -0.9911
  O  O146  1  0.543500  0.104200  0.079550  1.0  -0.9311
  O  O147  1  0.133650  0.256500  0.041780  1.0  -1.0296
  O  O148  1  0.201330  0.115410  0.037660  1.0  -1.0533
  O  O149  1  0.273220  0.280700  0.002690  1.0  -0.9673
  O  O150  1  0.339100  0.320300  0.052400  1.0  -1.0054
  O  O151  1  0.020770  0.365630  0.389800  1.0  -0.9911
  O  O152  1  0.210170  0.437530  0.412880  1.0  -0.9321
  O  O153  1  0.800320  0.589830  0.375110  1.0  -1.0296
  O  O154  1  0.868000  0.448740  0.370990  1.0  -1.0533
  O  O155  1  0.939890  0.614030  0.336020  1.0  -0.9673
  O  O156  1  0.005770  0.653630  0.385730  1.0  -1.0051
  O  O157  1  0.687430  0.698970  0.723140  1.0  -0.9912
  O  O158  1  0.876830  0.770870  0.746220  1.0  -0.9455
  O  O159  1  0.466980  0.923170  0.708450  1.0  -1.0296
  O  O160  1  0.534660  0.782080  0.704330  1.0  -1.0588
  O  O161  1  0.606550  0.947370  0.669360  1.0  -0.9673
  O  O162  1  0.672430  0.986970  0.719070  1.0  -1.0073
  O  O163  1  0.321800  0.967700  0.443530  1.0  -0.9855
  O  O164  1  0.439300  0.895800  0.420450  1.0  -0.9301
  O  O165  1  0.877150  0.743500  0.458220  1.0  -1.0329
  O  O166  1  0.085920  0.884590  0.462340  1.0  -1.0428
  O  O167  1  0.992520  0.719300  0.497310  1.0  -0.9681
  O  O168  1  0.018800  0.679700  0.447600  1.0  -0.9975
  O  O169  1  0.988470  0.301030  0.776860  1.0  -0.9857
  O  O170  1  0.105970  0.229130  0.753780  1.0  -0.9402
  O  O171  1  0.543820  0.076830  0.791550  1.0  -1.0332
  O  O172  1  0.752590  0.217920  0.795670  1.0  -1.0581
  O  O173  1  0.659190  0.052630  0.830640  1.0  -0.9682
  O  O174  1  0.685470  0.013030  0.780930  1.0  -1.003
  O  O175  1  0.655130  0.634370  0.110200  1.0  -0.9856
  O  O176  1  0.772630  0.562470  0.087120  1.0  -0.9293
  O  O177  1  0.210480  0.410170  0.124890  1.0  -1.0329
  O  O178  1  0.419250  0.551260  0.129010  1.0  -1.0428
  O  O179  1  0.325850  0.385970  0.163980  1.0  -0.9681
  O  O180  1  0.352130  0.346370  0.114270  1.0  -0.9978
  O  O181  1  0.645900  0.678200  0.443530  1.0  -0.9919
  O  O182  1  0.456500  0.560700  0.420450  1.0  -0.9448
  O  O183  1  0.866350  0.122850  0.458220  1.0  -1.0339
  O  O184  1  0.798670  0.914080  0.462340  1.0  -1.0574
  O  O185  1  0.726780  0.007480  0.497310  1.0  -0.961
  O  O186  1  0.660900  0.981200  0.447600  1.0  -0.9905
  O  O187  1  0.312570  0.011530  0.776860  1.0  -0.992
  O  O188  1  0.123170  0.894030  0.753780  1.0  -0.9309
  O  O189  1  0.533020  0.456180  0.791550  1.0  -1.0342
  O  O190  1  0.465340  0.247410  0.795670  1.0  -1.0551
  O  O191  1  0.393450  0.340810  0.830640  1.0  -0.9612
  O  O192  1  0.327570  0.314530  0.780930  1.0  -1.0001
  O  O193  1  0.979230  0.344870  0.110200  1.0  -0.9919
  O  O194  1  0.789830  0.227370  0.087120  1.0  -0.9435
  O  O195  1  0.199680  0.789520  0.124890  1.0  -1.0339
  O  O196  1  0.132000  0.580750  0.129010  1.0  -1.0574
  O  O197  1  0.060110  0.674150  0.163980  1.0  -0.9611
  O  O198  1  0.994230  0.647870  0.114270  1.0  -0.9904
  O  O199  1  0.032300  0.354100  0.443530  1.0  -0.9883
  O  O200  1  0.104200  0.543500  0.420450  1.0  -0.9322
  O  O201  1  0.256500  0.133650  0.458220  1.0  -1.0281
  O  O202  1  0.115410  0.201330  0.462340  1.0  -1.0537
  O  O203  1  0.280700  0.273220  0.497310  1.0  -0.9678
  O  O204  1  0.320300  0.339100  0.447600  1.0  -1.0013
  O  O205  1  0.698970  0.687430  0.776860  1.0  -0.9883
  O  O206  1  0.770870  0.876830  0.753780  1.0  -0.9457
  O  O207  1  0.923170  0.466980  0.791550  1.0  -1.0282
  O  O208  1  0.782080  0.534660  0.795670  1.0  -1.0591
  O  O209  1  0.947370  0.606550  0.830640  1.0  -0.9679
  O  O210  1  0.986970  0.672430  0.780930  1.0  -1.0042
  O  O211  1  0.365630  0.020770  0.110200  1.0  -0.9882
  O  O212  1  0.437530  0.210170  0.087120  1.0  -0.9332
  O  O213  1  0.589830  0.800320  0.124890  1.0  -1.0281
  O  O214  1  0.448740  0.868000  0.129010  1.0  -1.0537
  O  O215  1  0.614030  0.939890  0.163980  1.0  -0.9678
  O  O216  1  0.653630  0.005770  0.114270  1.0  -1.0012
  O  O217  1  0.032300  0.678200  0.943530  1.0  -0.986
  O  O218  1  0.104200  0.560700  0.920450  1.0  -0.9307
  O  O219  1  0.256500  0.122850  0.958220  1.0  -1.0335
  O  O220  1  0.115410  0.914080  0.962340  1.0  -1.0414
  O  O221  1  0.280700  0.007480  0.997310  1.0  -0.9674
  O  O222  1  0.320300  0.981200  0.947600  1.0  -0.9951
  O  O223  1  0.698970  0.011530  0.276860  1.0  -0.9862
  O  O224  1  0.770870  0.894030  0.253780  1.0  -0.9404
  O  O225  1  0.923170  0.456180  0.291550  1.0  -1.0338
  O  O226  1  0.782080  0.247410  0.295670  1.0  -1.0561
  O  O227  1  0.947370  0.340810  0.330640  1.0  -0.9675
  O  O228  1  0.986970  0.314530  0.280930  1.0  -1.0011
  O  O229  1  0.365630  0.344870  0.610200  1.0  -0.9861
  O  O230  1  0.437530  0.227370  0.587120  1.0  -0.93
  O  O231  1  0.589830  0.789520  0.624890  1.0  -1.0335
  O  O232  1  0.448740  0.580750  0.629010  1.0  -1.0414
  O  O233  1  0.614030  0.674150  0.663980  1.0  -0.9674
  O  O234  1  0.653630  0.647870  0.614270  1.0  -0.9953
  O  O235  1  0.321800  0.354100  0.943530  1.0  -0.9889
  O  O236  1  0.439300  0.543500  0.920450  1.0  -0.9464
  O  O237  1  0.877150  0.133650  0.958220  1.0  -1.0328
  O  O238  1  0.085920  0.201330  0.962340  1.0  -1.0597
  O  O239  1  0.992520  0.273220  0.997310  1.0  -0.9617
  O  O240  1  0.018800  0.339100  0.947600  1.0  -0.9914
  O  O241  1  0.988470  0.687430  0.276860  1.0  -0.9889
  O  O242  1  0.105970  0.876830  0.253780  1.0  -0.9324
  O  O243  1  0.543820  0.466980  0.291550  1.0  -1.0331
  O  O244  1  0.752590  0.534660  0.295670  1.0  -1.0576
  O  O245  1  0.659190  0.606550  0.330640  1.0  -0.9618
  O  O246  1  0.685470  0.672430  0.280930  1.0  -1.002
  O  O247  1  0.655130  0.020770  0.610200  1.0  -0.9889
  O  O248  1  0.772630  0.210170  0.587120  1.0  -0.9451
  O  O249  1  0.210480  0.800320  0.624890  1.0  -1.0328
  O  O250  1  0.419250  0.868000  0.629010  1.0  -1.0597
  O  O251  1  0.325850  0.939890  0.663980  1.0  -0.9617
  O  O252  1  0.352130  0.005770  0.614270  1.0  -0.9913
  O  O253  1  0.645900  0.967700  0.943530  1.0  -0.9909
  O  O254  1  0.456500  0.895800  0.920450  1.0  -0.9307
  O  O255  1  0.866350  0.743500  0.958220  1.0  -1.0285
  O  O256  1  0.798670  0.884590  0.962340  1.0  -1.0547
  O  O257  1  0.726780  0.719300  0.997310  1.0  -0.9684
  O  O258  1  0.660900  0.679700  0.947600  1.0  -1.0026
  O  O259  1  0.312570  0.301030  0.276860  1.0  -0.991
  O  O260  1  0.123170  0.229130  0.253780  1.0  -0.9445
  O  O261  1  0.533020  0.076830  0.291550  1.0  -1.0284
  O  O262  1  0.465340  0.217920  0.295670  1.0  -1.0604
  O  O263  1  0.393450  0.052630  0.330640  1.0  -0.9685
  O  O264  1  0.327570  0.013030  0.280930  1.0  -1.005
  O  O265  1  0.979230  0.634370  0.610200  1.0  -0.9909
  O  O266  1  0.789830  0.562470  0.587120  1.0  -0.9318
  O  O267  1  0.199680  0.410170  0.624890  1.0  -1.0285
  O  O268  1  0.132000  0.551260  0.629010  1.0  -1.0547
  O  O269  1  0.060110  0.385970  0.663980  1.0  -0.9684
  O  O270  1  0.994230  0.346370  0.614270  1.0  -1.0024
  O  O271  1  0.678200  0.032300  0.556470  1.0  -0.985
  O  O272  1  0.560700  0.104200  0.579550  1.0  -0.9326
  O  O273  1  0.122850  0.256500  0.541780  1.0  -1.0332
  O  O274  1  0.914080  0.115410  0.537660  1.0  -1.0439
  O  O275  1  0.007480  0.280700  0.502690  1.0  -0.9682
  O  O276  1  0.981200  0.320300  0.552400  1.0  -0.9996
  O  O277  1  0.344870  0.365630  0.889800  1.0  -0.9851
  O  O278  1  0.227370  0.437530  0.912880  1.0  -0.932
  O  O279  1  0.789520  0.589830  0.875110  1.0  -1.0332
  O  O280  1  0.580750  0.448740  0.870990  1.0  -1.0439
  O  O281  1  0.674150  0.614030  0.836020  1.0  -0.9682
  O  O282  1  0.647870  0.653630  0.885730  1.0  -0.9998
  O  O283  1  0.011530  0.698970  0.223140  1.0  -0.9852
  O  O284  1  0.894030  0.770870  0.246220  1.0  -0.9427
  O  O285  1  0.456180  0.923170  0.208450  1.0  -1.0335
  O  O286  1  0.247410  0.782080  0.204330  1.0  -1.0578
  O  O287  1  0.340810  0.947370  0.169360  1.0  -0.9683
  O  O288  1  0.314530  0.986970  0.219070  1.0  -1.0042
  O  O289  1  0.354100  0.321800  0.556470  1.0  -0.9919
  O  O290  1  0.543500  0.439300  0.579550  1.0  -0.9457
  O  O291  1  0.133650  0.877150  0.541780  1.0  -1.0334
  O  O292  1  0.201330  0.085920  0.537660  1.0  -1.0589
  O  O293  1  0.273220  0.992520  0.502690  1.0  -0.9602
  O  O294  1  0.339100  0.018800  0.552400  1.0  -0.9912
  O  O295  1  0.020770  0.655130  0.889800  1.0  -0.992
  O  O296  1  0.210170  0.772630  0.912880  1.0  -0.9445
  O  O297  1  0.800320  0.210480  0.875110  1.0  -1.0334
  O  O298  1  0.868000  0.419250  0.870990  1.0  -1.0589
  O  O299  1  0.939890  0.325850  0.836020  1.0  -0.9603
  O  O300  1  0.005770  0.352130  0.885730  1.0  -0.9911
  O  O301  1  0.687430  0.988470  0.223140  1.0  -0.992
  O  O302  1  0.876830  0.105970  0.246220  1.0  -0.9315
  O  O303  1  0.466980  0.543820  0.208450  1.0  -1.0337
  O  O304  1  0.534660  0.752590  0.204330  1.0  -1.0563
  O  O305  1  0.606550  0.659190  0.169360  1.0  -0.9604
  O  O306  1  0.672430  0.685470  0.219070  1.0  -1.0006
  O  O307  1  0.967700  0.645900  0.556470  1.0  -0.9887
  O  O308  1  0.895800  0.456500  0.579550  1.0  -0.933
  O  O309  1  0.743500  0.866350  0.541780  1.0  -1.0285
  O  O310  1  0.884590  0.798670  0.537660  1.0  -1.0539
  O  O311  1  0.719300  0.726780  0.502690  1.0  -0.9677
  O  O312  1  0.679700  0.660900  0.552400  1.0  -1.0014
  O  O313  1  0.634370  0.979230  0.889800  1.0  -0.9887
  O  O314  1  0.562470  0.789830  0.912880  1.0  -0.9339
  O  O315  1  0.410170  0.199680  0.875110  1.0  -1.0285
  O  O316  1  0.551260  0.132000  0.870990  1.0  -1.0539
  O  O317  1  0.385970  0.060110  0.836020  1.0  -0.9677
  O  O318  1  0.346370  0.994230  0.885730  1.0  -1.0012
  O  O319  1  0.301030  0.312570  0.223140  1.0  -0.9887
  O  O320  1  0.229130  0.123170  0.246220  1.0  -0.9469
  O  O321  1  0.076830  0.533020  0.208450  1.0  -1.0285
  O  O322  1  0.217920  0.465340  0.204330  1.0  -1.0597
  O  O323  1  0.052630  0.393450  0.169360  1.0  -0.9678
  O  O324  1  0.013030  0.327570  0.219070  1.0  -1.0041
