# generated using pymatgen
data_Mg7Al2(PO4)9
_symmetry_space_group_name_H-M   'P 1'
_cell_length_a   13.25770000
_cell_length_b   13.25770000
_cell_length_c   45.67700000
_cell_angle_alpha   90.00000000
_cell_angle_beta   90.00000000
_cell_angle_gamma   120.00000000
_symmetry_Int_Tables_number   1
_chemical_formula_structural   Mg7Al2(PO4)9
_chemical_formula_sum   'Mg42 Al12 P54 O216'
_cell_volume   6952.87751732
_cell_formula_units_Z   6
loop_
 _symmetry_equiv_pos_site_id
 _symmetry_equiv_pos_as_xyz
  1  'x, y, z'
loop_
 _atom_site_type_symbol
 _atom_site_label
 _atom_site_symmetry_multiplicity
 _atom_site_fract_x
 _atom_site_fract_y
 _atom_site_fract_z
 _atom_site_occupancy
 _atom_site_charge
  Mg  Mg1  1  0.768610  0.762990  0.034130  1.0  1.7784
  Mg  Mg2  1  0.435280  0.096320  0.367460  1.0  1.7784
  Mg  Mg3  1  0.101940  0.429660  0.700790  1.0  1.7781
  Mg  Mg4  1  0.237010  0.005620  0.034130  1.0  1.778
  Mg  Mg5  1  0.903680  0.338950  0.367460  1.0  1.778
  Mg  Mg6  1  0.570340  0.672290  0.700790  1.0  1.7776
  Mg  Mg7  1  0.762990  0.768610  0.465870  1.0  1.7796
  Mg  Mg8  1  0.429660  0.101940  0.799210  1.0  1.7792
  Mg  Mg9  1  0.096320  0.435280  0.132540  1.0  1.7796
  Mg  Mg10  1  0.005620  0.237010  0.465870  1.0  1.7779
  Mg  Mg11  1  0.672290  0.570340  0.799210  1.0  1.7776
  Mg  Mg12  1  0.338950  0.903680  0.132540  1.0  1.7779
  Mg  Mg13  1  0.231390  0.237010  0.965870  1.0  1.7778
  Mg  Mg14  1  0.898060  0.570340  0.299210  1.0  1.7774
  Mg  Mg15  1  0.564720  0.903680  0.632540  1.0  1.7778
  Mg  Mg16  1  0.762990  0.994380  0.965870  1.0  1.7779
  Mg  Mg17  1  0.429660  0.327710  0.299210  1.0  1.7776
  Mg  Mg18  1  0.096320  0.661050  0.632540  1.0  1.7779
  Mg  Mg19  1  0.237010  0.231390  0.534130  1.0  1.7771
  Mg  Mg20  1  0.903680  0.564720  0.867460  1.0  1.7771
  Mg  Mg21  1  0.570340  0.898060  0.200790  1.0  1.7768
  Mg  Mg22  1  0.994380  0.762990  0.534130  1.0  1.7784
  Mg  Mg23  1  0.661050  0.096320  0.867460  1.0  1.7784
  Mg  Mg24  1  0.327710  0.429660  0.200790  1.0  1.778
  Mg  Mg25  1  0.666667  0.091440  0.083330  1.0  1.77
  Mg  Mg26  1  0.908560  0.575220  0.083330  1.0  1.7698
  Mg  Mg27  1  0.424780  0.333333  0.083330  1.0  1.7703
  Mg  Mg28  1  0.091440  0.666667  0.416670  1.0  1.7706
  Mg  Mg29  1  0.758110  0.000000  0.750000  1.0  1.7704
  Mg  Mg30  1  0.575220  0.908560  0.416670  1.0  1.7698
  Mg  Mg31  1  0.241890  0.241890  0.750000  1.0  1.7696
  Mg  Mg32  1  0.333333  0.424780  0.416670  1.0  1.7701
  Mg  Mg33  1  0.000000  0.758110  0.750000  1.0  1.77
  Mg  Mg34  1  0.333333  0.908560  0.916670  1.0  1.7699
  Mg  Mg35  1  0.000000  0.241890  0.250000  1.0  1.7699
  Mg  Mg36  1  0.091440  0.424780  0.916670  1.0  1.7703
  Mg  Mg37  1  0.758110  0.758110  0.250000  1.0  1.7701
  Mg  Mg38  1  0.575220  0.666667  0.916670  1.0  1.77
  Mg  Mg39  1  0.241890  0.000000  0.250000  1.0  1.7697
  Mg  Mg40  1  0.908560  0.333333  0.583330  1.0  1.7695
  Mg  Mg41  1  0.424780  0.091440  0.583330  1.0  1.7701
  Mg  Mg42  1  0.666667  0.575220  0.583330  1.0  1.7698
  Al  Al43  1  0.994380  0.231390  0.034130  1.0  2.0241
  Al  Al44  1  0.661050  0.564720  0.367460  1.0  2.0241
  Al  Al45  1  0.327710  0.898060  0.700790  1.0  2.0238
  Al  Al46  1  0.231390  0.994380  0.465870  1.0  2.023
  Al  Al47  1  0.898060  0.327710  0.799210  1.0  2.0227
  Al  Al48  1  0.564720  0.661050  0.132540  1.0  2.023
  Al  Al49  1  0.005620  0.768610  0.965870  1.0  2.0225
  Al  Al50  1  0.672290  0.101940  0.299210  1.0  2.0222
  Al  Al51  1  0.338950  0.435280  0.632540  1.0  2.0225
  Al  Al52  1  0.768610  0.005620  0.534130  1.0  2.0225
  Al  Al53  1  0.435280  0.338950  0.867460  1.0  2.0225
  Al  Al54  1  0.101940  0.672290  0.200790  1.0  2.0221
  P  P55  1  0.759020  0.994240  0.034340  1.0  2.156
  P  P56  1  0.425690  0.327570  0.367670  1.0  2.156
  P  P57  1  0.092350  0.660910  0.701000  1.0  2.1558
  P  P58  1  0.005760  0.764780  0.034340  1.0  2.1316
  P  P59  1  0.672430  0.098110  0.367670  1.0  2.1316
  P  P60  1  0.339090  0.431450  0.701000  1.0  2.1314
  P  P61  1  0.235220  0.240980  0.034340  1.0  2.1312
  P  P62  1  0.901890  0.574310  0.367670  1.0  2.1312
  P  P63  1  0.568550  0.907650  0.701000  1.0  2.131
  P  P64  1  0.994240  0.759020  0.465660  1.0  2.1567
  P  P65  1  0.660910  0.092350  0.799000  1.0  2.1564
  P  P66  1  0.327570  0.425690  0.132330  1.0  2.1567
  P  P67  1  0.764780  0.005760  0.465660  1.0  2.1304
  P  P68  1  0.431450  0.339090  0.799000  1.0  2.13
  P  P69  1  0.098110  0.672430  0.132330  1.0  2.1304
  P  P70  1  0.240980  0.235220  0.465660  1.0  2.1311
  P  P71  1  0.907650  0.568550  0.799000  1.0  2.1307
  P  P72  1  0.574310  0.901890  0.132330  1.0  2.1311
  P  P73  1  0.240980  0.005760  0.965660  1.0  2.157
  P  P74  1  0.907650  0.339090  0.299000  1.0  2.1566
  P  P75  1  0.574310  0.672430  0.632330  1.0  2.157
  P  P76  1  0.994240  0.235220  0.965660  1.0  2.1308
  P  P77  1  0.660910  0.568550  0.299000  1.0  2.1304
  P  P78  1  0.327570  0.901890  0.632330  1.0  2.1308
  P  P79  1  0.764780  0.759020  0.965660  1.0  2.131
  P  P80  1  0.431450  0.092350  0.299000  1.0  2.1307
  P  P81  1  0.098110  0.425690  0.632330  1.0  2.131
  P  P82  1  0.005760  0.240980  0.534340  1.0  2.1567
  P  P83  1  0.672430  0.574310  0.867670  1.0  2.1567
  P  P84  1  0.339090  0.907650  0.201000  1.0  2.1564
  P  P85  1  0.235220  0.994240  0.534340  1.0  2.1318
  P  P86  1  0.901890  0.327570  0.867670  1.0  2.1318
  P  P87  1  0.568550  0.660910  0.201000  1.0  2.1316
  P  P88  1  0.759020  0.764780  0.534340  1.0  2.1311
  P  P89  1  0.425690  0.098110  0.867670  1.0  2.1311
  P  P90  1  0.092350  0.431450  0.201000  1.0  2.1307
  P  P91  1  0.906010  0.333333  0.083330  1.0  2.0907
  P  P92  1  0.666667  0.572670  0.083330  1.0  2.091
  P  P93  1  0.333333  0.906010  0.416670  1.0  2.091
  P  P94  1  0.427330  0.093990  0.083330  1.0  2.0912
  P  P95  1  0.760660  0.760660  0.750000  1.0  2.0908
  P  P96  1  0.000000  0.239340  0.750000  1.0  2.091
  P  P97  1  0.572670  0.666667  0.416670  1.0  2.0905
  P  P98  1  0.239340  0.000000  0.750000  1.0  2.0907
  P  P99  1  0.093990  0.427330  0.416670  1.0  2.0911
  P  P100  1  0.093990  0.666667  0.916670  1.0  2.0916
  P  P101  1  0.760660  0.000000  0.250000  1.0  2.0915
  P  P102  1  0.427330  0.333333  0.583330  1.0  2.0918
  P  P103  1  0.333333  0.427330  0.916670  1.0  2.0904
  P  P104  1  0.000000  0.760660  0.250000  1.0  2.0903
  P  P105  1  0.572670  0.906010  0.916670  1.0  2.0908
  P  P106  1  0.239340  0.239340  0.250000  1.0  2.0905
  P  P107  1  0.666667  0.093990  0.583330  1.0  2.0903
  P  P108  1  0.906010  0.572670  0.583330  1.0  2.0909
  O  O109  1  0.742900  0.877040  0.043150  1.0  -0.9957
  O  O110  1  0.885100  0.084900  0.039130  1.0  -1.0198
  O  O111  1  0.723200  0.992670  0.002800  1.0  -0.999
  O  O112  1  0.680200  0.021100  0.052540  1.0  -0.9799
  O  O113  1  0.678900  0.643200  0.056280  1.0  -0.9827
  O  O114  1  0.788080  0.228220  0.087580  1.0  -0.9263
  O  O115  1  0.409570  0.210370  0.376480  1.0  -0.9957
  O  O116  1  0.551770  0.418230  0.372460  1.0  -1.0198
  O  O117  1  0.389870  0.326000  0.336130  1.0  -0.9946
  O  O118  1  0.346870  0.354430  0.385870  1.0  -0.9799
  O  O119  1  0.345570  0.976530  0.389610  1.0  -0.9827
  O  O120  1  0.454750  0.561550  0.420910  1.0  -0.9265
  O  O121  1  0.076230  0.543710  0.709820  1.0  -0.9956
  O  O122  1  0.218430  0.751570  0.705800  1.0  -1.0343
  O  O123  1  0.056530  0.659340  0.669470  1.0  -1.0001
  O  O124  1  0.013530  0.687770  0.719210  1.0  -0.9858
  O  O125  1  0.012230  0.309870  0.722950  1.0  -0.9826
  O  O126  1  0.121410  0.894890  0.754250  1.0  -0.939
  O  O127  1  0.122960  0.865860  0.043150  1.0  -0.9951
  O  O128  1  0.915100  0.800200  0.039130  1.0  -1.0344
  O  O129  1  0.007330  0.730530  0.002800  1.0  -1.0011
  O  O130  1  0.978900  0.659100  0.052540  1.0  -0.9788
  O  O131  1  0.356800  0.035700  0.056280  1.0  -0.9847
  O  O132  1  0.771780  0.559860  0.087580  1.0  -0.9392
  O  O133  1  0.789630  0.199190  0.376480  1.0  -0.9951
  O  O134  1  0.581770  0.133530  0.372460  1.0  -1.0344
  O  O135  1  0.674000  0.063860  0.336130  1.0  -1.0091
  O  O136  1  0.645570  0.992430  0.385870  1.0  -0.9788
  O  O137  1  0.023470  0.369030  0.389610  1.0  -0.9847
  O  O138  1  0.438450  0.893190  0.420910  1.0  -0.9388
  O  O139  1  0.456290  0.532530  0.709820  1.0  -0.9951
  O  O140  1  0.248430  0.466870  0.705800  1.0  -1.0293
  O  O141  1  0.340660  0.397200  0.669470  1.0  -1.0012
  O  O142  1  0.312230  0.325770  0.719210  1.0  -0.9851
  O  O143  1  0.690130  0.702370  0.722950  1.0  -0.9847
  O  O144  1  0.105110  0.226530  0.754250  1.0  -0.9259
  O  O145  1  0.134140  0.257100  0.043150  1.0  -0.9987
  O  O146  1  0.199800  0.114900  0.039130  1.0  -1.0244
  O  O147  1  0.269470  0.276800  0.002800  1.0  -1.0005
  O  O148  1  0.340900  0.319800  0.052540  1.0  -0.9877
  O  O149  1  0.964300  0.321100  0.056280  1.0  -0.9912
  O  O150  1  0.440140  0.211920  0.087580  1.0  -0.9449
  O  O151  1  0.800810  0.590430  0.376480  1.0  -0.9987
  O  O152  1  0.866470  0.448230  0.372460  1.0  -1.0244
  O  O153  1  0.936140  0.610130  0.336130  1.0  -0.9946
  O  O154  1  0.007570  0.653130  0.385870  1.0  -0.9877
  O  O155  1  0.630970  0.654430  0.389610  1.0  -0.9909
  O  O156  1  0.106810  0.545250  0.420910  1.0  -0.9448
  O  O157  1  0.467470  0.923770  0.709820  1.0  -0.9986
  O  O158  1  0.533130  0.781570  0.705800  1.0  -1.0322
  O  O159  1  0.602800  0.943470  0.669470  1.0  -1.0017
  O  O160  1  0.674230  0.986470  0.719210  1.0  -0.9901
  O  O161  1  0.297630  0.987770  0.722950  1.0  -0.9909
  O  O162  1  0.773470  0.878590  0.754250  1.0  -0.9291
  O  O163  1  0.877040  0.742900  0.456850  1.0  -0.9939
  O  O164  1  0.084900  0.885100  0.460870  1.0  -1.0221
  O  O165  1  0.992670  0.723200  0.497200  1.0  -1.0022
  O  O166  1  0.021100  0.680200  0.447460  1.0  -0.9821
  O  O167  1  0.643200  0.678900  0.443720  1.0  -0.985
  O  O168  1  0.228220  0.788080  0.412420  1.0  -0.9284
  O  O169  1  0.543710  0.076230  0.790180  1.0  -0.9939
  O  O170  1  0.751570  0.218430  0.794200  1.0  -1.0372
  O  O171  1  0.659340  0.056530  0.830530  1.0  -1.0033
  O  O172  1  0.687770  0.013530  0.780790  1.0  -0.9876
  O  O173  1  0.309870  0.012230  0.777050  1.0  -0.985
  O  O174  1  0.894890  0.121410  0.745750  1.0  -0.9404
  O  O175  1  0.210370  0.409570  0.123520  1.0  -0.9939
  O  O176  1  0.418230  0.551770  0.127540  1.0  -1.0221
  O  O177  1  0.326000  0.389870  0.163870  1.0  -0.9959
  O  O178  1  0.354430  0.346870  0.114130  1.0  -0.9821
  O  O179  1  0.976530  0.345570  0.110390  1.0  -0.985
  O  O180  1  0.561550  0.454750  0.079090  1.0  -0.9286
  O  O181  1  0.865860  0.122960  0.456850  1.0  -0.995
  O  O182  1  0.800200  0.915100  0.460870  1.0  -1.0313
  O  O183  1  0.730530  0.007330  0.497200  1.0  -1.002
  O  O184  1  0.659100  0.978900  0.447460  1.0  -0.9783
  O  O185  1  0.035700  0.356800  0.443720  1.0  -0.9823
  O  O186  1  0.559860  0.771780  0.412420  1.0  -0.9403
  O  O187  1  0.532530  0.456290  0.790180  1.0  -0.995
  O  O188  1  0.466870  0.248430  0.794200  1.0  -1.0261
  O  O189  1  0.397200  0.340660  0.830530  1.0  -1.0021
  O  O190  1  0.325770  0.312230  0.780790  1.0  -0.9844
  O  O191  1  0.702370  0.690130  0.777050  1.0  -0.9823
  O  O192  1  0.226530  0.105110  0.745750  1.0  -0.9272
  O  O193  1  0.199190  0.789630  0.123520  1.0  -0.995
  O  O194  1  0.133530  0.581770  0.127540  1.0  -1.0313
  O  O195  1  0.063860  0.674000  0.163870  1.0  -1.0087
  O  O196  1  0.992430  0.645570  0.114130  1.0  -0.9784
  O  O197  1  0.369030  0.023470  0.110390  1.0  -0.9823
  O  O198  1  0.893190  0.438450  0.079090  1.0  -0.94
  O  O199  1  0.257100  0.134140  0.456850  1.0  -0.998
  O  O200  1  0.114900  0.199800  0.460870  1.0  -1.024
  O  O201  1  0.276800  0.269470  0.497200  1.0  -1.0024
  O  O202  1  0.319800  0.340900  0.447460  1.0  -0.9851
  O  O203  1  0.321100  0.964300  0.443720  1.0  -0.9896
  O  O204  1  0.211920  0.440140  0.412420  1.0  -0.9441
  O  O205  1  0.923770  0.467470  0.790180  1.0  -0.9979
  O  O206  1  0.781570  0.533130  0.794200  1.0  -1.0321
  O  O207  1  0.943470  0.602800  0.830530  1.0  -1.0036
  O  O208  1  0.986470  0.674230  0.780790  1.0  -0.9878
  O  O209  1  0.987770  0.297630  0.777050  1.0  -0.9896
  O  O210  1  0.878590  0.773470  0.745750  1.0  -0.9284
  O  O211  1  0.590430  0.800810  0.123520  1.0  -0.998
  O  O212  1  0.448230  0.866470  0.127540  1.0  -1.024
  O  O213  1  0.610130  0.936140  0.163870  1.0  -0.9967
  O  O214  1  0.653130  0.007570  0.114130  1.0  -0.9851
  O  O215  1  0.654430  0.630970  0.110390  1.0  -0.9896
  O  O216  1  0.545250  0.106810  0.079090  1.0  -0.9439
  O  O217  1  0.257100  0.122960  0.956850  1.0  -0.9949
  O  O218  1  0.114900  0.915100  0.960870  1.0  -1.0192
  O  O219  1  0.276800  0.007330  0.997200  1.0  -1.0005
  O  O220  1  0.319800  0.978900  0.947460  1.0  -0.9797
  O  O221  1  0.321100  0.356800  0.943720  1.0  -0.9828
  O  O222  1  0.211920  0.771780  0.912420  1.0  -0.926
  O  O223  1  0.923770  0.456290  0.290180  1.0  -0.9948
  O  O224  1  0.781570  0.248430  0.294200  1.0  -1.0343
  O  O225  1  0.943470  0.340660  0.330530  1.0  -1.0017
  O  O226  1  0.986470  0.312230  0.280790  1.0  -0.9855
  O  O227  1  0.987770  0.690130  0.277050  1.0  -0.9827
  O  O228  1  0.878590  0.105110  0.245750  1.0  -0.938
  O  O229  1  0.590430  0.789630  0.623520  1.0  -0.9949
  O  O230  1  0.448230  0.581770  0.627540  1.0  -1.0192
  O  O231  1  0.610130  0.674000  0.663870  1.0  -0.9959
  O  O232  1  0.653130  0.645570  0.614130  1.0  -0.9796
  O  O233  1  0.654430  0.023470  0.610390  1.0  -0.9828
  O  O234  1  0.545250  0.438450  0.579090  1.0  -0.9262
  O  O235  1  0.877040  0.134140  0.956850  1.0  -0.9946
  O  O236  1  0.084900  0.199800  0.960870  1.0  -1.033
  O  O237  1  0.992670  0.269470  0.997200  1.0  -1.0044
  O  O238  1  0.021100  0.340900  0.947460  1.0  -0.9783
  O  O239  1  0.643200  0.964300  0.943720  1.0  -0.9845
  O  O240  1  0.228220  0.440140  0.912420  1.0  -0.9407
  O  O241  1  0.543710  0.467470  0.290180  1.0  -0.9946
  O  O242  1  0.751570  0.533130  0.294200  1.0  -1.0279
  O  O243  1  0.659340  0.602800  0.330530  1.0  -1.0045
  O  O244  1  0.687770  0.674230  0.280790  1.0  -0.9846
  O  O245  1  0.309870  0.297630  0.277050  1.0  -0.9845
  O  O246  1  0.894890  0.773470  0.245750  1.0  -0.9278
  O  O247  1  0.210370  0.800810  0.623520  1.0  -0.9946
  O  O248  1  0.418230  0.866470  0.627540  1.0  -1.033
  O  O249  1  0.326000  0.936140  0.663870  1.0  -1.0113
  O  O250  1  0.354430  0.007570  0.614130  1.0  -0.9783
  O  O251  1  0.976530  0.630970  0.610390  1.0  -0.9845
  O  O252  1  0.561550  0.106810  0.579090  1.0  -0.9403
  O  O253  1  0.865860  0.742900  0.956850  1.0  -0.9973
  O  O254  1  0.800200  0.885100  0.960870  1.0  -1.0254
  O  O255  1  0.730530  0.723200  0.997200  1.0  -1.0025
  O  O256  1  0.659100  0.680200  0.947460  1.0  -0.9861
  O  O257  1  0.035700  0.678900  0.943720  1.0  -0.9895
  O  O258  1  0.559860  0.788080  0.912420  1.0  -0.9448
  O  O259  1  0.532530  0.076230  0.290180  1.0  -0.9973
  O  O260  1  0.466870  0.218430  0.294200  1.0  -1.033
  O  O261  1  0.397200  0.056530  0.330530  1.0  -1.0037
  O  O262  1  0.325770  0.013530  0.280790  1.0  -0.9887
  O  O263  1  0.702370  0.012230  0.277050  1.0  -0.9895
  O  O264  1  0.226530  0.121410  0.245750  1.0  -0.9302
  O  O265  1  0.199190  0.409570  0.623520  1.0  -0.9973
  O  O266  1  0.133530  0.551770  0.627540  1.0  -1.0254
  O  O267  1  0.063860  0.389870  0.663870  1.0  -0.9958
  O  O268  1  0.992430  0.346870  0.614130  1.0  -0.9861
  O  O269  1  0.369030  0.345570  0.610390  1.0  -0.9895
  O  O270  1  0.893190  0.454750  0.579090  1.0  -0.9446
  O  O271  1  0.122960  0.257100  0.543150  1.0  -0.9946
  O  O272  1  0.915100  0.114900  0.539130  1.0  -1.0214
  O  O273  1  0.007330  0.276800  0.502800  1.0  -0.9998
  O  O274  1  0.978900  0.319800  0.552540  1.0  -0.9835
  O  O275  1  0.356800  0.321100  0.556280  1.0  -0.9855
  O  O276  1  0.771780  0.211920  0.587580  1.0  -0.9279
  O  O277  1  0.789630  0.590430  0.876480  1.0  -0.9946
  O  O278  1  0.581770  0.448230  0.872460  1.0  -1.0214
  O  O279  1  0.674000  0.610130  0.836130  1.0  -0.9951
  O  O280  1  0.645570  0.653130  0.885870  1.0  -0.9835
  O  O281  1  0.023470  0.654430  0.889610  1.0  -0.9855
  O  O282  1  0.438450  0.545250  0.920910  1.0  -0.9281
  O  O283  1  0.456290  0.923770  0.209820  1.0  -0.9946
  O  O284  1  0.248430  0.781570  0.205800  1.0  -1.0358
  O  O285  1  0.340660  0.943470  0.169470  1.0  -1.001
  O  O286  1  0.312230  0.986470  0.219210  1.0  -0.9885
  O  O287  1  0.690130  0.987770  0.222950  1.0  -0.9852
  O  O288  1  0.105110  0.878590  0.254250  1.0  -0.9402
  O  O289  1  0.134140  0.877040  0.543150  1.0  -0.9958
  O  O290  1  0.199800  0.084900  0.539130  1.0  -1.0319
  O  O291  1  0.269470  0.992670  0.502800  1.0  -1.0018
  O  O292  1  0.340900  0.021100  0.552540  1.0  -0.9792
  O  O293  1  0.964300  0.643200  0.556280  1.0  -0.9819
  O  O294  1  0.440140  0.228220  0.587580  1.0  -0.9388
  O  O295  1  0.800810  0.210370  0.876480  1.0  -0.9958
  O  O296  1  0.866470  0.418230  0.872460  1.0  -1.0319
  O  O297  1  0.936140  0.326000  0.836130  1.0  -1.0089
  O  O298  1  0.007570  0.354430  0.885870  1.0  -0.9792
  O  O299  1  0.630970  0.976530  0.889610  1.0  -0.9819
  O  O300  1  0.106810  0.561550  0.920910  1.0  -0.9385
  O  O301  1  0.467470  0.543710  0.209820  1.0  -0.9957
  O  O302  1  0.533130  0.751570  0.205800  1.0  -1.026
  O  O303  1  0.602800  0.659340  0.169470  1.0  -1.0018
  O  O304  1  0.674230  0.687770  0.219210  1.0  -0.985
  O  O305  1  0.297630  0.309870  0.222950  1.0  -0.9818
  O  O306  1  0.773470  0.894890  0.254250  1.0  -0.9259
  O  O307  1  0.742900  0.865860  0.543150  1.0  -0.9988
  O  O308  1  0.885100  0.800200  0.539130  1.0  -1.0247
  O  O309  1  0.723200  0.730530  0.502800  1.0  -1.0009
  O  O310  1  0.680200  0.659100  0.552540  1.0  -0.985
  O  O311  1  0.678900  0.035700  0.556280  1.0  -0.9885
  O  O312  1  0.788080  0.559860  0.587580  1.0  -0.9439
  O  O313  1  0.409570  0.199190  0.876480  1.0  -0.9988
  O  O314  1  0.551770  0.133530  0.872460  1.0  -1.0247
  O  O315  1  0.389870  0.063860  0.836130  1.0  -0.9949
  O  O316  1  0.346870  0.992430  0.885870  1.0  -0.9849
  O  O317  1  0.345570  0.369030  0.889610  1.0  -0.9885
  O  O318  1  0.454750  0.893190  0.920910  1.0  -0.9437
  O  O319  1  0.076230  0.532530  0.209820  1.0  -0.9987
  O  O320  1  0.218430  0.466870  0.205800  1.0  -1.0323
  O  O321  1  0.056530  0.397200  0.169470  1.0  -1.0021
  O  O322  1  0.013530  0.325770  0.219210  1.0  -0.9871
  O  O323  1  0.012230  0.702370  0.222950  1.0  -0.9884
  O  O324  1  0.121410  0.226530  0.254250  1.0  -0.9282
