# generated using pymatgen
data_Zn3P4H15C14(NO7)2
_symmetry_space_group_name_H-M   'P 1'
_cell_length_a   9.64600000
_cell_length_b   9.41000000
_cell_length_c   30.92900000
_cell_angle_alpha   90.00000000
_cell_angle_beta   93.33800000
_cell_angle_gamma   90.00000000
_symmetry_Int_Tables_number   1
_chemical_formula_structural   Zn3P4H15C14(NO7)2
_chemical_formula_sum   'Zn12 P16 H60 C56 N8 O56'
_cell_volume   2802.62710668
_cell_formula_units_Z   4
loop_
 _symmetry_equiv_pos_site_id
 _symmetry_equiv_pos_as_xyz
  1  'x, y, z'
loop_
 _atom_site_type_symbol
 _atom_site_label
 _atom_site_symmetry_multiplicity
 _atom_site_fract_x
 _atom_site_fract_y
 _atom_site_fract_z
 _atom_site_occupancy
 _atom_site_charge
  Zn  Zn1  1  0.035570  0.271060  0.140270  1.0  1.0529
  Zn  Zn2  1  0.214630  0.556040  0.039690  1.0  0.9662
  Zn  Zn3  1  0.061670  0.802110  0.193450  1.0  1.0264
  Zn  Zn4  1  0.964430  0.771060  0.359730  1.0  1.0531
  Zn  Zn5  1  0.785370  0.056040  0.460310  1.0  0.9671
  Zn  Zn6  1  0.938330  0.302110  0.306550  1.0  1.0266
  Zn  Zn7  1  0.964430  0.728940  0.859730  1.0  1.0547
  Zn  Zn8  1  0.785370  0.443960  0.960310  1.0  0.9678
  Zn  Zn9  1  0.938330  0.197890  0.806550  1.0  1.0272
  Zn  Zn10  1  0.035570  0.228940  0.640270  1.0  1.0541
  Zn  Zn11  1  0.214630  0.943960  0.539690  1.0  0.9672
  Zn  Zn12  1  0.061670  0.697890  0.693450  1.0  1.0268
  P  P13  1  0.962490  0.110130  0.220800  1.0  1.5045
  P  P14  1  0.248920  0.060780  0.182700  1.0  1.448
  P  P15  1  0.927410  0.374310  0.050420  1.0  1.5301
  P  P16  1  0.024780  0.599270  0.114500  1.0  1.5123
  P  P17  1  0.037510  0.610130  0.279200  1.0  1.5018
  P  P18  1  0.751080  0.560780  0.317300  1.0  1.4489
  P  P19  1  0.072590  0.874310  0.449580  1.0  1.5316
  P  P20  1  0.975220  0.099270  0.385500  1.0  1.5114
  P  P21  1  0.037510  0.889870  0.779200  1.0  1.5019
  P  P22  1  0.751080  0.939220  0.817300  1.0  1.4487
  P  P23  1  0.072590  0.625690  0.949580  1.0  1.5293
  P  P24  1  0.975220  0.400730  0.885500  1.0  1.5121
  P  P25  1  0.962490  0.389870  0.720800  1.0  1.5049
  P  P26  1  0.248920  0.439220  0.682700  1.0  1.4484
  P  P27  1  0.927410  0.125690  0.550420  1.0  1.5301
  P  P28  1  0.024780  0.900730  0.614500  1.0  1.5123
  H  H29  1  0.148500  0.318200  0.246800  1.0  0.4176
  H  H30  1  0.865400  0.627200  0.024500  1.0  0.4097
  H  H31  1  0.565400  0.793300  0.300000  1.0  0.3071
  H  H32  1  0.154400  0.109800  0.295100  1.0  0.1329
  H  H33  1  0.148500  0.962200  0.272000  1.0  0.1498
  H  H34  1  0.398500  0.236200  0.296100  1.0  0.1221
  H  H35  1  0.629100  0.195400  0.318000  1.0  0.1426
  H  H36  1  0.709900  0.965500  0.319600  1.0  0.1176
  H  H37  1  0.344600  0.819300  0.278200  1.0  0.1343
  H  H38  1  0.788900  0.460700  0.133300  1.0  0.1468
  H  H39  1  0.726000  0.606100  0.118000  1.0  0.1595
  H  H40  1  0.676100  0.243400  0.111100  1.0  0.1417
  H  H41  1  0.465400  0.141700  0.092600  1.0  0.1237
  H  H42  1  0.291500  0.271900  0.057700  1.0  0.1104
  H  H43  1  0.523000  0.609200  0.065900  1.0  0.1103
  H  H44  1  0.851500  0.818200  0.253200  1.0  0.4177
  H  H45  1  0.134600  0.127200  0.475500  1.0  0.4083
  H  H46  1  0.434600  0.293300  0.200000  1.0  0.3059
  H  H47  1  0.845600  0.609800  0.204900  1.0  0.1327
  H  H48  1  0.851500  0.462200  0.228000  1.0  0.1489
  H  H49  1  0.601500  0.736200  0.203900  1.0  0.1229
  H  H50  1  0.370900  0.695400  0.182000  1.0  0.1431
  H  H51  1  0.290100  0.465500  0.180400  1.0  0.1191
  H  H52  1  0.655400  0.319300  0.221800  1.0  0.135
  H  H53  1  0.211100  0.960700  0.366700  1.0  0.1466
  H  H54  1  0.274000  0.106100  0.382000  1.0  0.1585
  H  H55  1  0.323900  0.743400  0.388900  1.0  0.1417
  H  H56  1  0.534600  0.641700  0.407400  1.0  0.1235
  H  H57  1  0.708500  0.771900  0.442300  1.0  0.1106
  H  H58  1  0.477000  0.109200  0.434100  1.0  0.1096
  H  H59  1  0.851500  0.681800  0.753200  1.0  0.4173
  H  H60  1  0.134600  0.372800  0.975500  1.0  0.4095
  H  H61  1  0.434600  0.206700  0.700000  1.0  0.3055
  H  H62  1  0.845600  0.890200  0.704900  1.0  0.132
  H  H63  1  0.851500  0.037800  0.728000  1.0  0.1481
  H  H64  1  0.601500  0.763800  0.703900  1.0  0.1231
  H  H65  1  0.370900  0.804600  0.682000  1.0  0.1427
  H  H66  1  0.290100  0.034500  0.680400  1.0  0.1183
  H  H67  1  0.655400  0.180700  0.721800  1.0  0.1352
  H  H68  1  0.211100  0.539300  0.866700  1.0  0.1468
  H  H69  1  0.274000  0.393900  0.882000  1.0  0.1594
  H  H70  1  0.323900  0.756600  0.888900  1.0  0.1428
  H  H71  1  0.534600  0.858300  0.907400  1.0  0.1219
  H  H72  1  0.708500  0.728100  0.942300  1.0  0.11
  H  H73  1  0.477000  0.390800  0.934100  1.0  0.1115
  H  H74  1  0.148500  0.181800  0.746800  1.0  0.4175
  H  H75  1  0.865400  0.872800  0.524500  1.0  0.4099
  H  H76  1  0.565400  0.706700  0.800000  1.0  0.3055
  H  H77  1  0.154400  0.390200  0.795100  1.0  0.1323
  H  H78  1  0.148500  0.537800  0.772000  1.0  0.1491
  H  H79  1  0.398500  0.263800  0.796100  1.0  0.1229
  H  H80  1  0.629100  0.304600  0.818000  1.0  0.1429
  H  H81  1  0.709900  0.534500  0.819600  1.0  0.1191
  H  H82  1  0.344600  0.680700  0.778200  1.0  0.1347
  H  H83  1  0.788900  0.039300  0.633300  1.0  0.1464
  H  H84  1  0.726000  0.893900  0.618000  1.0  0.1608
  H  H85  1  0.676100  0.256600  0.611100  1.0  0.1426
  H  H86  1  0.465400  0.358300  0.592600  1.0  0.1219
  H  H87  1  0.291500  0.228100  0.557700  1.0  0.1099
  H  H88  1  0.523000  0.890800  0.565900  1.0  0.1109
  C  C89  1  0.153300  0.128400  0.228500  1.0  -0.2663
  C  C90  1  0.193500  0.054400  0.272300  1.0  -0.3446
  C  C91  1  0.344300  0.032200  0.284500  1.0  0.1131
  C  C92  1  0.432700  0.143700  0.296800  1.0  -0.0686
  C  C93  1  0.570600  0.120200  0.310000  1.0  -0.0903
  C  C94  1  0.617900  0.984400  0.310800  1.0  0.0942
  C  C95  1  0.399700  0.897100  0.286100  1.0  0.067
  C  C96  1  0.876900  0.535900  0.078800  1.0  -0.3442
  C  C97  1  0.753900  0.513300  0.108000  1.0  -0.3339
  C  C98  1  0.623500  0.437800  0.090000  1.0  0.1239
  C  C99  1  0.604700  0.297400  0.097900  1.0  -0.0688
  C  C100  1  0.480200  0.237000  0.086500  1.0  -0.0872
  C  C101  1  0.375400  0.315700  0.065800  1.0  0.1508
  C  C102  1  0.512500  0.512200  0.070300  1.0  0.1839
  C  C103  1  0.846700  0.628400  0.271500  1.0  -0.2657
  C  C104  1  0.806500  0.554400  0.227700  1.0  -0.3455
  C  C105  1  0.655700  0.532200  0.215500  1.0  0.1121
  C  C106  1  0.567300  0.643700  0.203200  1.0  -0.0693
  C  C107  1  0.429400  0.620200  0.190000  1.0  -0.0891
  C  C108  1  0.382100  0.484400  0.189200  1.0  0.0942
  C  C109  1  0.600300  0.397100  0.213900  1.0  0.068
  C  C110  1  0.123100  0.035900  0.421200  1.0  -0.342
  C  C111  1  0.246100  0.013300  0.392000  1.0  -0.3304
  C  C112  1  0.376500  0.937800  0.410000  1.0  0.1244
  C  C113  1  0.395300  0.797400  0.402100  1.0  -0.0684
  C  C114  1  0.519800  0.737000  0.413500  1.0  -0.0874
  C  C115  1  0.624600  0.815700  0.434200  1.0  0.15
  C  C116  1  0.487500  0.012200  0.429700  1.0  0.184
  C  C117  1  0.846700  0.871600  0.771500  1.0  -0.2673
  C  C118  1  0.806500  0.945600  0.727700  1.0  -0.3453
  C  C119  1  0.655700  0.967800  0.715500  1.0  0.1121
  C  C120  1  0.567300  0.856300  0.703200  1.0  -0.0683
  C  C121  1  0.429400  0.879800  0.690000  1.0  -0.0923
  C  C122  1  0.382100  0.015600  0.689200  1.0  0.094
  C  C123  1  0.600300  0.102900  0.713900  1.0  0.0685
  C  C124  1  0.123100  0.464100  0.921200  1.0  -0.3423
  C  C125  1  0.246100  0.486700  0.892000  1.0  -0.3289
  C  C126  1  0.376500  0.562200  0.910000  1.0  0.1245
  C  C127  1  0.395300  0.702600  0.902100  1.0  -0.0697
  C  C128  1  0.519800  0.763000  0.913500  1.0  -0.0854
  C  C129  1  0.624600  0.684300  0.934200  1.0  0.15
  C  C130  1  0.487500  0.487800  0.929700  1.0  0.1817
  C  C131  1  0.153300  0.371600  0.728500  1.0  -0.2674
  C  C132  1  0.193500  0.445600  0.772300  1.0  -0.3443
  C  C133  1  0.344300  0.467800  0.784500  1.0  0.113
  C  C134  1  0.432700  0.356300  0.796800  1.0  -0.0671
  C  C135  1  0.570600  0.379800  0.810000  1.0  -0.0936
  C  C136  1  0.617900  0.515600  0.810800  1.0  0.0941
  C  C137  1  0.399700  0.602900  0.786100  1.0  0.0683
  C  C138  1  0.876900  0.964100  0.578800  1.0  -0.3437
  C  C139  1  0.753900  0.986700  0.608000  1.0  -0.3332
  C  C140  1  0.623500  0.062200  0.590000  1.0  0.124
  C  C141  1  0.604700  0.202600  0.597900  1.0  -0.0666
  C  C142  1  0.480200  0.263000  0.586500  1.0  -0.0859
  C  C143  1  0.375400  0.184300  0.565800  1.0  0.1509
  C  C144  1  0.512500  0.987800  0.570300  1.0  0.1811
  N  N145  1  0.533000  0.878400  0.299100  1.0  -0.1818
  N  N146  1  0.391800  0.452100  0.057300  1.0  -0.2759
  N  N147  1  0.467000  0.378400  0.200900  1.0  -0.1809
  N  N148  1  0.608200  0.952100  0.442700  1.0  -0.2742
  N  N149  1  0.467000  0.121600  0.700900  1.0  -0.1817
  N  N150  1  0.608200  0.547900  0.942700  1.0  -0.2742
  N  N151  1  0.533000  0.621600  0.799100  1.0  -0.1828
  N  N152  1  0.391800  0.047900  0.557300  1.0  -0.2778
  O  O153  1  0.911000  0.198400  0.182050  1.0  -0.7972
  O  O154  1  0.934200  0.951100  0.213810  1.0  -0.7803
  O  O155  1  0.900200  0.162000  0.261850  1.0  -0.8105
  O  O156  1  0.180600  0.130100  0.141800  1.0  -0.7794
  O  O157  1  0.398300  0.103600  0.190500  1.0  -0.6946
  O  O158  1  0.230400  0.899400  0.181570  1.0  -0.8179
  O  O159  1  0.191400  0.275700  0.228640  1.0  -0.558
  O  O160  1  0.931600  0.254300  0.083250  1.0  -0.7509
  O  O161  1  0.069600  0.399600  0.033120  1.0  -0.765
  O  O162  1  0.817400  0.343300  0.014470  1.0  -0.756
  O  O163  1  0.969600  0.715900  0.142410  1.0  -0.7935
  O  O164  1  0.133900  0.659100  0.085800  1.0  -0.7647
  O  O165  1  0.077900  0.472400  0.140670  1.0  -0.8079
  O  O166  1  0.834500  0.645300  0.047970  1.0  -0.5614
  O  O167  1  0.089000  0.698400  0.317950  1.0  -0.7967
  O  O168  1  0.065800  0.451100  0.286190  1.0  -0.7795
  O  O169  1  0.099800  0.662000  0.238150  1.0  -0.8116
  O  O170  1  0.819400  0.630100  0.358200  1.0  -0.7781
  O  O171  1  0.601700  0.603600  0.309500  1.0  -0.6965
  O  O172  1  0.769600  0.399400  0.318430  1.0  -0.8164
  O  O173  1  0.808600  0.775700  0.271360  1.0  -0.5581
  O  O174  1  0.068400  0.754300  0.416750  1.0  -0.7521
  O  O175  1  0.930400  0.899600  0.466880  1.0  -0.7655
  O  O176  1  0.182600  0.843300  0.485530  1.0  -0.7569
  O  O177  1  0.030400  0.215900  0.357590  1.0  -0.7935
  O  O178  1  0.866100  0.159100  0.414200  1.0  -0.7654
  O  O179  1  0.922100  0.972400  0.359330  1.0  -0.8085
  O  O180  1  0.165500  0.145300  0.452030  1.0  -0.5594
  O  O181  1  0.089000  0.801600  0.817950  1.0  -0.7987
  O  O182  1  0.065800  0.048900  0.786190  1.0  -0.7793
  O  O183  1  0.099800  0.838000  0.738150  1.0  -0.8117
  O  O184  1  0.819400  0.869900  0.858200  1.0  -0.7788
  O  O185  1  0.601700  0.896400  0.809500  1.0  -0.6967
  O  O186  1  0.769600  0.100600  0.818430  1.0  -0.8172
  O  O187  1  0.808600  0.724300  0.771360  1.0  -0.559
  O  O188  1  0.068400  0.745700  0.916750  1.0  -0.7543
  O  O189  1  0.930400  0.600400  0.966880  1.0  -0.7655
  O  O190  1  0.182600  0.656700  0.985530  1.0  -0.757
  O  O191  1  0.030400  0.284100  0.857590  1.0  -0.7908
  O  O192  1  0.866100  0.340900  0.914200  1.0  -0.7647
  O  O193  1  0.922100  0.527600  0.859330  1.0  -0.8079
  O  O194  1  0.165500  0.354700  0.952030  1.0  -0.5625
  O  O195  1  0.911000  0.301600  0.682050  1.0  -0.7991
  O  O196  1  0.934200  0.548900  0.713810  1.0  -0.7805
  O  O197  1  0.900200  0.338000  0.761850  1.0  -0.8107
  O  O198  1  0.180600  0.369900  0.641800  1.0  -0.7799
  O  O199  1  0.398300  0.396400  0.690500  1.0  -0.6943
  O  O200  1  0.230400  0.600600  0.681570  1.0  -0.8182
  O  O201  1  0.191400  0.224300  0.728640  1.0  -0.5577
  O  O202  1  0.931600  0.245700  0.583250  1.0  -0.7531
  O  O203  1  0.069600  0.100400  0.533120  1.0  -0.7648
  O  O204  1  0.817400  0.156700  0.514470  1.0  -0.7566
  O  O205  1  0.969600  0.784100  0.642410  1.0  -0.7911
  O  O206  1  0.133900  0.840900  0.585800  1.0  -0.765
  O  O207  1  0.077900  0.027600  0.640670  1.0  -0.8078
  O  O208  1  0.834500  0.854700  0.547970  1.0  -0.5637
