# generated using pymatgen
data_ZnH24C22(N2O3)2
_symmetry_space_group_name_H-M   'P 1'
_cell_length_a   22.29130000
_cell_length_b   16.13240000
_cell_length_c   17.39000000
_cell_angle_alpha   90.00000000
_cell_angle_beta   90.00000000
_cell_angle_gamma   90.00000000
_symmetry_Int_Tables_number   1
_chemical_formula_structural   ZnH24C22(N2O3)2
_chemical_formula_sum   'Zn8 H192 C176 N32 O48'
_cell_volume   6253.65560361
_cell_formula_units_Z   8
loop_
 _symmetry_equiv_pos_site_id
 _symmetry_equiv_pos_as_xyz
  1  'x, y, z'
loop_
 _atom_site_type_symbol
 _atom_site_label
 _atom_site_symmetry_multiplicity
 _atom_site_fract_x
 _atom_site_fract_y
 _atom_site_fract_z
 _atom_site_occupancy
 _atom_site_charge
  Zn  Zn1  1  0.043370  0.033940  0.441490  1.0  0.8529
  Zn  Zn2  1  0.196490  0.536470  0.491910  1.0  0.8768
  Zn  Zn3  1  0.956630  0.966060  0.941490  1.0  0.8532
  Zn  Zn4  1  0.803510  0.463530  0.991910  1.0  0.8748
  Zn  Zn5  1  0.543370  0.966060  0.441490  1.0  0.853
  Zn  Zn6  1  0.696490  0.463530  0.491910  1.0  0.8759
  Zn  Zn7  1  0.456630  0.033940  0.941490  1.0  0.8527
  Zn  Zn8  1  0.303510  0.536470  0.991910  1.0  0.8757
  H  H9  1  0.444200  0.605500  0.710000  1.0  0.2124
  H  H10  1  0.661100  0.927800  0.663000  1.0  0.2978
  H  H11  1  0.259700  0.660800  0.594900  1.0  0.0745
  H  H12  1  0.328400  0.662800  0.694700  1.0  0.1177
  H  H13  1  0.338700  0.412900  0.681600  1.0  0.1335
  H  H14  1  0.266900  0.417600  0.586300  1.0  0.0705
  H  H15  1  0.386700  0.483800  0.788500  1.0  0.0848
  H  H16  1  0.373500  0.580100  0.802800  1.0  0.0874
  H  H17  1  0.489600  0.511900  0.832600  1.0  0.0693
  H  H18  1  0.475700  0.609000  0.840300  1.0  0.0713
  H  H19  1  0.554300  0.639600  0.753400  1.0  0.0614
  H  H20  1  0.580100  0.588000  0.825000  1.0  0.0713
  H  H21  1  0.552500  0.477700  0.621700  1.0  0.0811
  H  H22  1  0.538300  0.574300  0.632500  1.0  0.069
  H  H23  1  0.447500  0.499300  0.632700  1.0  0.0636
  H  H24  1  0.471100  0.442600  0.702100  1.0  0.0888
  H  H25  1  0.642200  0.595500  0.685900  1.0  0.0773
  H  H26  1  0.649100  0.500500  0.660400  1.0  0.0894
  H  H27  1  0.745200  0.373700  0.862400  1.0  0.0654
  H  H28  1  0.683300  0.397300  0.758400  1.0  0.119
  H  H29  1  0.694400  0.642600  0.802300  1.0  0.1213
  H  H30  1  0.756500  0.612600  0.905100  1.0  0.0738
  H  H31  1  0.970300  0.890100  0.500500  1.0  0.083
  H  H32  1  0.902500  0.859900  0.596300  1.0  0.1125
  H  H33  1  0.901500  0.101300  0.655800  1.0  0.132
  H  H34  1  0.969800  0.125900  0.559400  1.0  0.069
  H  H35  1  0.843800  0.900400  0.706500  1.0  0.0732
  H  H36  1  0.861600  0.985800  0.747600  1.0  0.0925
  H  H37  1  0.766200  0.016800  0.788400  1.0  0.0756
  H  H38  1  0.743100  0.929400  0.756200  1.0  0.0683
  H  H39  1  0.661300  0.022600  0.769600  1.0  0.0679
  H  H40  1  0.693400  0.086400  0.711900  1.0  0.0786
  H  H41  1  0.708400  0.045300  0.573900  1.0  0.0701
  H  H42  1  0.686600  0.955400  0.546200  1.0  0.0751
  H  H43  1  0.759800  0.891900  0.623600  1.0  0.0628
  H  H44  1  0.791600  0.956200  0.566300  1.0  0.0742
  H  H45  1  0.584000  0.973800  0.594900  1.0  0.0701
  H  H46  1  0.604500  0.067500  0.609900  1.0  0.0788
  H  H47  1  0.487800  0.150700  0.807800  1.0  0.0841
  H  H48  1  0.546600  0.142800  0.698000  1.0  0.1176
  H  H49  1  0.552000  0.893600  0.724400  1.0  0.1159
  H  H50  1  0.495600  0.908200  0.834500  1.0  0.0817
  H  H51  1  0.042400  0.343500  0.434900  1.0  0.1033
  H  H52  1  0.171700  0.218500  0.531600  1.0  0.1141
  H  H53  1  0.163300  0.310000  0.565500  1.0  0.1153
  H  H54  1  0.087500  0.792800  0.501200  1.0  0.0751
  H  H55  1  0.241600  0.768500  0.460500  1.0  0.1245
  H  H56  1  0.249000  0.865600  0.445800  1.0  0.1285
  H  H57  1  0.555800  0.394500  0.210000  1.0  0.2092
  H  H58  1  0.338900  0.072200  0.163000  1.0  0.2974
  H  H59  1  0.740300  0.339200  0.094900  1.0  0.0741
  H  H60  1  0.671600  0.337200  0.194700  1.0  0.1178
  H  H61  1  0.661300  0.587100  0.181600  1.0  0.134
  H  H62  1  0.733100  0.582400  0.086300  1.0  0.0708
  H  H63  1  0.613300  0.516200  0.288500  1.0  0.0828
  H  H64  1  0.626500  0.419900  0.302800  1.0  0.0871
  H  H65  1  0.510400  0.488100  0.332600  1.0  0.0676
  H  H66  1  0.524300  0.391000  0.340300  1.0  0.0722
  H  H67  1  0.445700  0.360400  0.253400  1.0  0.0611
  H  H68  1  0.419900  0.412000  0.325000  1.0  0.0713
  H  H69  1  0.447500  0.522300  0.121700  1.0  0.082
  H  H70  1  0.461700  0.425700  0.132500  1.0  0.0671
  H  H71  1  0.552500  0.500700  0.132700  1.0  0.0648
  H  H72  1  0.528900  0.557400  0.202100  1.0  0.0875
  H  H73  1  0.357800  0.404500  0.185900  1.0  0.0771
  H  H74  1  0.350900  0.499500  0.160400  1.0  0.0902
  H  H75  1  0.254800  0.626300  0.362400  1.0  0.0653
  H  H76  1  0.316700  0.602700  0.258400  1.0  0.1194
  H  H77  1  0.305600  0.357400  0.302300  1.0  0.1227
  H  H78  1  0.243500  0.387400  0.405100  1.0  0.074
  H  H79  1  0.029700  0.109900  0.000500  1.0  0.0833
  H  H80  1  0.097500  0.140100  0.096300  1.0  0.1123
  H  H81  1  0.098500  0.898700  0.155800  1.0  0.1317
  H  H82  1  0.030200  0.874100  0.059400  1.0  0.0694
  H  H83  1  0.156200  0.099600  0.206500  1.0  0.0744
  H  H84  1  0.138400  0.014200  0.247600  1.0  0.093
  H  H85  1  0.233800  0.983200  0.288400  1.0  0.0755
  H  H86  1  0.256900  0.070600  0.256200  1.0  0.0669
  H  H87  1  0.338700  0.977400  0.269600  1.0  0.0689
  H  H88  1  0.306600  0.913600  0.211900  1.0  0.0804
  H  H89  1  0.291600  0.954700  0.073900  1.0  0.0706
  H  H90  1  0.313400  0.044600  0.046200  1.0  0.0756
  H  H91  1  0.240200  0.108100  0.123600  1.0  0.0615
  H  H92  1  0.208400  0.043800  0.066300  1.0  0.0749
  H  H93  1  0.416000  0.026200  0.094900  1.0  0.0704
  H  H94  1  0.395500  0.932500  0.109900  1.0  0.0791
  H  H95  1  0.512200  0.849300  0.307800  1.0  0.0833
  H  H96  1  0.453400  0.857200  0.198000  1.0  0.1184
  H  H97  1  0.448000  0.106400  0.224400  1.0  0.1157
  H  H98  1  0.504400  0.091800  0.334500  1.0  0.0819
  H  H99  1  0.957600  0.656500  0.934900  1.0  0.1032
  H  H100  1  0.828300  0.781500  0.031600  1.0  0.1146
  H  H101  1  0.836700  0.690000  0.065500  1.0  0.1165
  H  H102  1  0.912500  0.207200  0.001200  1.0  0.0744
  H  H103  1  0.758400  0.231500  0.960500  1.0  0.1246
  H  H104  1  0.751000  0.134400  0.945800  1.0  0.1297
  H  H105  1  0.944200  0.394500  0.710000  1.0  0.2091
  H  H106  1  0.161100  0.072200  0.663000  1.0  0.297
  H  H107  1  0.759700  0.339200  0.594900  1.0  0.0742
  H  H108  1  0.828400  0.337200  0.694700  1.0  0.1179
  H  H109  1  0.838700  0.587100  0.681600  1.0  0.134
  H  H110  1  0.766900  0.582400  0.586300  1.0  0.0706
  H  H111  1  0.886700  0.516200  0.788500  1.0  0.0822
  H  H112  1  0.873500  0.419900  0.802800  1.0  0.0878
  H  H113  1  0.989600  0.488100  0.832600  1.0  0.0681
  H  H114  1  0.975700  0.391000  0.840300  1.0  0.072
  H  H115  1  0.054300  0.360400  0.753400  1.0  0.0611
  H  H116  1  0.080100  0.412000  0.825000  1.0  0.0718
  H  H117  1  0.052500  0.522300  0.621700  1.0  0.0817
  H  H118  1  0.038300  0.425700  0.632500  1.0  0.0673
  H  H119  1  0.947500  0.500700  0.632700  1.0  0.0642
  H  H120  1  0.971100  0.557400  0.702100  1.0  0.0877
  H  H121  1  0.142200  0.404500  0.685900  1.0  0.0772
  H  H122  1  0.149100  0.499500  0.660400  1.0  0.0896
  H  H123  1  0.245200  0.626300  0.862400  1.0  0.0652
  H  H124  1  0.183300  0.602700  0.758400  1.0  0.1199
  H  H125  1  0.194400  0.357400  0.802300  1.0  0.1224
  H  H126  1  0.256500  0.387400  0.905100  1.0  0.0744
  H  H127  1  0.470300  0.109900  0.500500  1.0  0.083
  H  H128  1  0.402500  0.140100  0.596300  1.0  0.1123
  H  H129  1  0.401500  0.898700  0.655800  1.0  0.1319
  H  H130  1  0.469800  0.874100  0.559400  1.0  0.0695
  H  H131  1  0.343800  0.099600  0.706500  1.0  0.0736
  H  H132  1  0.361600  0.014200  0.747600  1.0  0.0928
  H  H133  1  0.266200  0.983200  0.788400  1.0  0.0759
  H  H134  1  0.243100  0.070600  0.756200  1.0  0.0664
  H  H135  1  0.161300  0.977400  0.769600  1.0  0.0681
  H  H136  1  0.193400  0.913600  0.711900  1.0  0.0805
  H  H137  1  0.208400  0.954700  0.573900  1.0  0.0727
  H  H138  1  0.186600  0.044600  0.546200  1.0  0.0762
  H  H139  1  0.259800  0.108100  0.623600  1.0  0.0616
  H  H140  1  0.291600  0.043800  0.566300  1.0  0.0744
  H  H141  1  0.084000  0.026200  0.594900  1.0  0.0706
  H  H142  1  0.104500  0.932500  0.609900  1.0  0.079
  H  H143  1  0.987800  0.849300  0.807800  1.0  0.0834
  H  H144  1  0.046600  0.857200  0.698000  1.0  0.1181
  H  H145  1  0.052000  0.106400  0.724400  1.0  0.1156
  H  H146  1  0.995600  0.091800  0.834500  1.0  0.0821
  H  H147  1  0.542400  0.656500  0.434900  1.0  0.103
  H  H148  1  0.671700  0.781500  0.531600  1.0  0.114
  H  H149  1  0.663300  0.690000  0.565500  1.0  0.1159
  H  H150  1  0.587500  0.207200  0.501200  1.0  0.075
  H  H151  1  0.741600  0.231500  0.460500  1.0  0.123
  H  H152  1  0.749000  0.134400  0.445800  1.0  0.1294
  H  H153  1  0.055800  0.605500  0.210000  1.0  0.2133
  H  H154  1  0.838900  0.927800  0.163000  1.0  0.2982
  H  H155  1  0.240300  0.660800  0.094900  1.0  0.0743
  H  H156  1  0.171600  0.662800  0.194700  1.0  0.1177
  H  H157  1  0.161300  0.412900  0.181600  1.0  0.1329
  H  H158  1  0.233100  0.417600  0.086300  1.0  0.071
  H  H159  1  0.113300  0.483800  0.288500  1.0  0.0851
  H  H160  1  0.126500  0.580100  0.302800  1.0  0.0868
  H  H161  1  0.010400  0.511900  0.332600  1.0  0.0689
  H  H162  1  0.024300  0.609000  0.340300  1.0  0.0714
  H  H163  1  0.945700  0.639600  0.253400  1.0  0.0614
  H  H164  1  0.919900  0.588000  0.325000  1.0  0.0711
  H  H165  1  0.947500  0.477700  0.121700  1.0  0.0811
  H  H166  1  0.961700  0.574300  0.132500  1.0  0.0686
  H  H167  1  0.052500  0.499300  0.132700  1.0  0.0646
  H  H168  1  0.028900  0.442600  0.202100  1.0  0.0885
  H  H169  1  0.857800  0.595500  0.185900  1.0  0.0775
  H  H170  1  0.850900  0.500500  0.160400  1.0  0.0896
  H  H171  1  0.754800  0.373700  0.362400  1.0  0.0653
  H  H172  1  0.816700  0.397300  0.258400  1.0  0.1192
  H  H173  1  0.805600  0.642600  0.302300  1.0  0.1215
  H  H174  1  0.743500  0.612600  0.405100  1.0  0.0736
  H  H175  1  0.529700  0.890100  0.000500  1.0  0.0831
  H  H176  1  0.597500  0.859900  0.096300  1.0  0.1128
  H  H177  1  0.598500  0.101300  0.155800  1.0  0.1315
  H  H178  1  0.530200  0.125900  0.059400  1.0  0.0692
  H  H179  1  0.656200  0.900400  0.206500  1.0  0.0728
  H  H180  1  0.638400  0.985800  0.247600  1.0  0.0927
  H  H181  1  0.733800  0.016800  0.288400  1.0  0.0753
  H  H182  1  0.756900  0.929400  0.256200  1.0  0.0688
  H  H183  1  0.838700  0.022600  0.269600  1.0  0.0687
  H  H184  1  0.806600  0.086400  0.211900  1.0  0.0787
  H  H185  1  0.791600  0.045300  0.073900  1.0  0.0704
  H  H186  1  0.813400  0.955400  0.046200  1.0  0.075
  H  H187  1  0.740200  0.891900  0.123600  1.0  0.0607
  H  H188  1  0.708400  0.956200  0.066300  1.0  0.0746
  H  H189  1  0.916000  0.973800  0.094900  1.0  0.07
  H  H190  1  0.895500  0.067500  0.109900  1.0  0.0786
  H  H191  1  0.012200  0.150700  0.307800  1.0  0.0842
  H  H192  1  0.953400  0.142800  0.198000  1.0  0.1179
  H  H193  1  0.948000  0.893600  0.224400  1.0  0.1158
  H  H194  1  0.004400  0.908200  0.334500  1.0  0.0819
  H  H195  1  0.457600  0.343500  0.934900  1.0  0.1036
  H  H196  1  0.328300  0.218500  0.031600  1.0  0.1142
  H  H197  1  0.336700  0.310000  0.065500  1.0  0.1169
  H  H198  1  0.412500  0.792800  0.001200  1.0  0.0743
  H  H199  1  0.258400  0.768500  0.960500  1.0  0.1256
  H  H200  1  0.251000  0.865600  0.945800  1.0  0.1291
  C  C201  1  0.275670  0.609800  0.613100  1.0  0.1525
  C  C202  1  0.317080  0.611500  0.672300  1.0  -0.2234
  C  C203  1  0.341820  0.538700  0.698600  1.0  0.1166
  C  C204  1  0.322800  0.464600  0.665100  1.0  -0.2444
  C  C205  1  0.280550  0.468300  0.607900  1.0  0.1573
  C  C206  1  0.386220  0.539100  0.763800  1.0  -0.0839
  C  C207  1  0.490110  0.565400  0.804700  1.0  -0.0291
  C  C208  1  0.553560  0.585000  0.779400  1.0  0.0101
  C  C209  1  0.537050  0.519600  0.658200  1.0  0.0087
  C  C210  1  0.472780  0.498900  0.679600  1.0  -0.0667
  C  C211  1  0.638270  0.537500  0.703700  1.0  -0.0714
  C  C212  1  0.734260  0.429100  0.850300  1.0  0.1661
  C  C213  1  0.697180  0.442700  0.788200  1.0  -0.2444
  C  C214  1  0.680240  0.522700  0.769500  1.0  0.1233
  C  C215  1  0.703800  0.586600  0.814000  1.0  -0.1986
  C  C216  1  0.740840  0.568200  0.875300  1.0  0.1616
  C  C217  1  0.956300  0.933600  0.532600  1.0  0.1515
  C  C218  1  0.915730  0.915400  0.589500  1.0  -0.2098
  C  C219  1  0.894070  0.976900  0.637000  1.0  0.1221
  C  C220  1  0.915180  0.056800  0.624600  1.0  -0.2371
  C  C221  1  0.955790  0.070900  0.567000  1.0  0.1646
  C  C222  1  0.847970  0.960800  0.698600  1.0  -0.0408
  C  C223  1  0.748580  0.988600  0.743200  1.0  0.0019
  C  C224  1  0.688330  0.027000  0.724600  1.0  -0.0558
  C  C225  1  0.703730  0.986800  0.589900  1.0  -0.0916
  C  C226  1  0.764070  0.951400  0.610800  1.0  -0.0161
  C  C227  1  0.600790  0.012100  0.633900  1.0  -0.1013
  C  C228  1  0.502510  0.098300  0.791600  1.0  0.145
  C  C229  1  0.537210  0.094000  0.726100  1.0  -0.2156
  C  C230  1  0.558250  0.017200  0.701900  1.0  0.087
  C  C231  1  0.540720  0.947200  0.741800  1.0  -0.247
  C  C232  1  0.506890  0.956500  0.806700  1.0  0.1544
  C  C233  1  0.058510  0.196500  0.470900  1.0  0.6711
  C  C234  1  0.092930  0.273600  0.496500  1.0  0.0122
  C  C235  1  0.076980  0.344700  0.466800  1.0  -0.0846
  C  C236  1  0.106100  0.428100  0.476200  1.0  0.6516
  C  C237  1  0.142220  0.257300  0.554300  1.0  -0.3886
  C  C238  1  0.118800  0.221500  0.628100  1.0  0.7381
  C  C239  1  0.134750  0.912800  0.432800  1.0  0.685
  C  C240  1  0.161340  0.829100  0.452200  1.0  0.0344
  C  C241  1  0.127020  0.775400  0.488800  1.0  -0.0733
  C  C242  1  0.144370  0.689800  0.512600  1.0  0.7061
  C  C243  1  0.225880  0.815900  0.430500  1.0  -0.3871
  C  C244  1  0.237380  0.799300  0.345100  1.0  0.7235
  C  C245  1  0.724330  0.390200  0.113100  1.0  0.1495
  C  C246  1  0.682920  0.388500  0.172300  1.0  -0.2265
  C  C247  1  0.658180  0.461300  0.198600  1.0  0.1169
  C  C248  1  0.677200  0.535400  0.165100  1.0  -0.2414
  C  C249  1  0.719450  0.531700  0.107900  1.0  0.1578
  C  C250  1  0.613780  0.460900  0.263800  1.0  -0.0846
  C  C251  1  0.509890  0.434600  0.304700  1.0  -0.0299
  C  C252  1  0.446440  0.415000  0.279400  1.0  0.0102
  C  C253  1  0.462950  0.480400  0.158200  1.0  0.0099
  C  C254  1  0.527220  0.501100  0.179600  1.0  -0.0681
  C  C255  1  0.361730  0.462500  0.203700  1.0  -0.0722
  C  C256  1  0.265740  0.570900  0.350300  1.0  0.1652
  C  C257  1  0.302820  0.557300  0.288200  1.0  -0.2436
  C  C258  1  0.319760  0.477300  0.269500  1.0  0.1233
  C  C259  1  0.296200  0.413400  0.314000  1.0  -0.1978
  C  C260  1  0.259160  0.431800  0.375300  1.0  0.1631
  C  C261  1  0.043700  0.066400  0.032600  1.0  0.1519
  C  C262  1  0.084270  0.084600  0.089500  1.0  -0.2054
  C  C263  1  0.105930  0.023100  0.137000  1.0  0.122
  C  C264  1  0.084820  0.943200  0.124600  1.0  -0.2382
  C  C265  1  0.044210  0.929100  0.067000  1.0  0.1638
  C  C266  1  0.152030  0.039200  0.198600  1.0  -0.0414
  C  C267  1  0.251420  0.011400  0.243200  1.0  0.0013
  C  C268  1  0.311670  0.973000  0.224600  1.0  -0.055
  C  C269  1  0.296270  0.013200  0.089900  1.0  -0.0911
  C  C270  1  0.235930  0.048600  0.110800  1.0  -0.0154
  C  C271  1  0.399210  0.987900  0.133900  1.0  -0.1002
  C  C272  1  0.497490  0.901700  0.291600  1.0  0.1455
  C  C273  1  0.462790  0.906000  0.226100  1.0  -0.2272
  C  C274  1  0.441750  0.982800  0.201900  1.0  0.0863
  C  C275  1  0.459280  0.052800  0.241800  1.0  -0.2495
  C  C276  1  0.493110  0.043500  0.306700  1.0  0.1558
  C  C277  1  0.941490  0.803500  0.970900  1.0  0.6708
  C  C278  1  0.907070  0.726400  0.996500  1.0  0.0124
  C  C279  1  0.923020  0.655300  0.966800  1.0  -0.0849
  C  C280  1  0.893900  0.571900  0.976200  1.0  0.6511
  C  C281  1  0.857780  0.742700  0.054300  1.0  -0.3902
  C  C282  1  0.881200  0.778500  0.128100  1.0  0.7387
  C  C283  1  0.865250  0.087200  0.932800  1.0  0.6847
  C  C284  1  0.838660  0.170900  0.952200  1.0  0.0343
  C  C285  1  0.872980  0.224600  0.988800  1.0  -0.0736
  C  C286  1  0.855630  0.310200  0.012600  1.0  0.7059
  C  C287  1  0.774120  0.184100  0.930500  1.0  -0.3859
  C  C288  1  0.762620  0.200700  0.845100  1.0  0.7251
  C  C289  1  0.775670  0.390200  0.613100  1.0  0.15
  C  C290  1  0.817080  0.388500  0.672300  1.0  -0.2267
  C  C291  1  0.841820  0.461300  0.698600  1.0  0.1168
  C  C292  1  0.822800  0.535400  0.665100  1.0  -0.2396
  C  C293  1  0.780550  0.531700  0.607900  1.0  0.1565
  C  C294  1  0.886220  0.460900  0.763800  1.0  -0.0843
  C  C295  1  0.990110  0.434600  0.804700  1.0  -0.0294
  C  C296  1  0.053560  0.415000  0.779400  1.0  0.011
  C  C297  1  0.037050  0.480400  0.658200  1.0  0.0093
  C  C298  1  0.972780  0.501100  0.679600  1.0  -0.0675
  C  C299  1  0.138270  0.462500  0.703700  1.0  -0.0722
  C  C300  1  0.234260  0.570900  0.850300  1.0  0.1657
  C  C301  1  0.197180  0.557300  0.788200  1.0  -0.244
  C  C302  1  0.180240  0.477300  0.769500  1.0  0.1234
  C  C303  1  0.203800  0.413400  0.814000  1.0  -0.1977
  C  C304  1  0.240840  0.431800  0.875300  1.0  0.1633
  C  C305  1  0.456300  0.066400  0.532600  1.0  0.1518
  C  C306  1  0.415730  0.084600  0.589500  1.0  -0.2087
  C  C307  1  0.394070  0.023100  0.637000  1.0  0.1215
  C  C308  1  0.415180  0.943200  0.624600  1.0  -0.2372
  C  C309  1  0.455790  0.929100  0.567000  1.0  0.1623
  C  C310  1  0.347970  0.039200  0.698600  1.0  -0.0404
  C  C311  1  0.248580  0.011400  0.743200  1.0  0.0016
  C  C312  1  0.188330  0.973000  0.724600  1.0  -0.0545
  C  C313  1  0.203730  0.013200  0.589900  1.0  -0.0913
  C  C314  1  0.264070  0.048600  0.610800  1.0  -0.0158
  C  C315  1  0.100790  0.987900  0.633900  1.0  -0.1016
  C  C316  1  0.002510  0.901700  0.791600  1.0  0.1455
  C  C317  1  0.037210  0.906000  0.726100  1.0  -0.2256
  C  C318  1  0.058250  0.982800  0.701900  1.0  0.0869
  C  C319  1  0.040720  0.052800  0.741800  1.0  -0.2484
  C  C320  1  0.006890  0.043500  0.806700  1.0  0.155
  C  C321  1  0.558510  0.803500  0.470900  1.0  0.6709
  C  C322  1  0.592930  0.726400  0.496500  1.0  0.0123
  C  C323  1  0.576980  0.655300  0.466800  1.0  -0.0845
  C  C324  1  0.606100  0.571900  0.476200  1.0  0.6506
  C  C325  1  0.642220  0.742700  0.554300  1.0  -0.3884
  C  C326  1  0.618800  0.778500  0.628100  1.0  0.7384
  C  C327  1  0.634750  0.087200  0.432800  1.0  0.6849
  C  C328  1  0.661340  0.170900  0.452200  1.0  0.0341
  C  C329  1  0.627020  0.224600  0.488800  1.0  -0.0737
  C  C330  1  0.644370  0.310200  0.512600  1.0  0.706
  C  C331  1  0.725880  0.184100  0.430500  1.0  -0.3873
  C  C332  1  0.737380  0.200700  0.345100  1.0  0.724
  C  C333  1  0.224330  0.609800  0.113100  1.0  0.1522
  C  C334  1  0.182920  0.611500  0.172300  1.0  -0.2246
  C  C335  1  0.158180  0.538700  0.198600  1.0  0.1167
  C  C336  1  0.177200  0.464600  0.165100  1.0  -0.2446
  C  C337  1  0.219450  0.468300  0.107900  1.0  0.1572
  C  C338  1  0.113780  0.539100  0.263800  1.0  -0.0842
  C  C339  1  0.009890  0.565400  0.304700  1.0  -0.0298
  C  C340  1  0.946440  0.585000  0.279400  1.0  0.0087
  C  C341  1  0.962950  0.519600  0.158200  1.0  0.0095
  C  C342  1  0.027220  0.498900  0.179600  1.0  -0.0683
  C  C343  1  0.861730  0.537500  0.203700  1.0  -0.0711
  C  C344  1  0.765740  0.429100  0.350300  1.0  0.1661
  C  C345  1  0.802820  0.442700  0.288200  1.0  -0.2448
  C  C346  1  0.819760  0.522700  0.269500  1.0  0.1232
  C  C347  1  0.796200  0.586600  0.314000  1.0  -0.1982
  C  C348  1  0.759160  0.568200  0.375300  1.0  0.1614
  C  C349  1  0.543700  0.933600  0.032600  1.0  0.1521
  C  C350  1  0.584270  0.915400  0.089500  1.0  -0.2079
  C  C351  1  0.605930  0.976900  0.137000  1.0  0.1226
  C  C352  1  0.584820  0.056800  0.124600  1.0  -0.2373
  C  C353  1  0.544210  0.070900  0.067000  1.0  0.1649
  C  C354  1  0.652030  0.960800  0.198600  1.0  -0.0418
  C  C355  1  0.751420  0.988600  0.243200  1.0  0.0015
  C  C356  1  0.811670  0.027000  0.224600  1.0  -0.0558
  C  C357  1  0.796270  0.986800  0.089900  1.0  -0.0909
  C  C358  1  0.735930  0.951400  0.110800  1.0  -0.016
  C  C359  1  0.899210  0.012100  0.133900  1.0  -0.1
  C  C360  1  0.997490  0.098300  0.291600  1.0  0.1463
  C  C361  1  0.962790  0.094000  0.226100  1.0  -0.2174
  C  C362  1  0.941750  0.017200  0.201900  1.0  0.0863
  C  C363  1  0.959280  0.947200  0.241800  1.0  -0.2483
  C  C364  1  0.993110  0.956500  0.306700  1.0  0.155
  C  C365  1  0.441490  0.196500  0.970900  1.0  0.671
  C  C366  1  0.407070  0.273600  0.996500  1.0  0.0123
  C  C367  1  0.423020  0.344700  0.966800  1.0  -0.0846
  C  C368  1  0.393900  0.428100  0.976200  1.0  0.6519
  C  C369  1  0.357780  0.257300  0.054300  1.0  -0.3906
  C  C370  1  0.381200  0.221500  0.128100  1.0  0.7383
  C  C371  1  0.365250  0.912800  0.932800  1.0  0.6849
  C  C372  1  0.338660  0.829100  0.952200  1.0  0.0345
  C  C373  1  0.372980  0.775400  0.988800  1.0  -0.0739
  C  C374  1  0.355630  0.689800  0.012600  1.0  0.7058
  C  C375  1  0.274120  0.815900  0.930500  1.0  -0.3858
  C  C376  1  0.262620  0.799300  0.845100  1.0  0.7247
  N  N377  1  0.257340  0.539100  0.580700  1.0  -0.3378
  N  N378  1  0.449040  0.560400  0.736200  1.0  0.0906
  N  N379  1  0.575450  0.521500  0.727100  1.0  -0.3103
  N  N380  1  0.755720  0.490500  0.894700  1.0  -0.3424
  N  N381  1  0.976840  0.010800  0.520800  1.0  -0.3446
  N  N382  1  0.789500  0.996100  0.677300  1.0  -0.3298
  N  N383  1  0.661830  0.982000  0.657700  1.0  0.1022
  N  N384  1  0.488760  0.030900  0.833400  1.0  -0.3342
  N  N385  1  0.742660  0.460900  0.080700  1.0  -0.3373
  N  N386  1  0.550960  0.439600  0.236200  1.0  0.0894
  N  N387  1  0.424550  0.478500  0.227100  1.0  -0.3099
  N  N388  1  0.244280  0.509500  0.394700  1.0  -0.3412
  N  N389  1  0.023160  0.989200  0.020800  1.0  -0.3461
  N  N390  1  0.210500  0.003900  0.177300  1.0  -0.3287
  N  N391  1  0.338170  0.018000  0.157700  1.0  0.1015
  N  N392  1  0.511240  0.969100  0.333400  1.0  -0.3329
  N  N393  1  0.757340  0.460900  0.580700  1.0  -0.3377
  N  N394  1  0.949040  0.439600  0.736200  1.0  0.0904
  N  N395  1  0.075450  0.478500  0.727100  1.0  -0.3094
  N  N396  1  0.255720  0.509500  0.894700  1.0  -0.3419
  N  N397  1  0.476840  0.989200  0.520800  1.0  -0.3453
  N  N398  1  0.289500  0.003900  0.677300  1.0  -0.3282
  N  N399  1  0.161830  0.018000  0.657700  1.0  0.1018
  N  N400  1  0.988760  0.969100  0.833400  1.0  -0.3339
  N  N401  1  0.242660  0.539100  0.080700  1.0  -0.3376
  N  N402  1  0.050960  0.560400  0.236200  1.0  0.0897
  N  N403  1  0.924550  0.521500  0.227100  1.0  -0.3109
  N  N404  1  0.744280  0.490500  0.394700  1.0  -0.3416
  N  N405  1  0.523160  0.010800  0.020800  1.0  -0.3453
  N  N406  1  0.710500  0.996100  0.177300  1.0  -0.3303
  N  N407  1  0.838170  0.982000  0.157700  1.0  0.1014
  N  N408  1  0.011240  0.030900  0.333400  1.0  -0.3333
  O  O409  1  0.087240  0.127790  0.481210  1.0  -0.6082
  O  O410  1  0.008610  0.200790  0.442200  1.0  -0.5546
  O  O411  1  0.081360  0.487960  0.446500  1.0  -0.573
  O  O412  1  0.155920  0.432330  0.511190  1.0  -0.5762
  O  O413  1  0.064960  0.225800  0.644350  1.0  -0.5769
  O  O414  1  0.157360  0.186500  0.672120  1.0  -0.6362
  O  O415  1  0.082420  0.927400  0.457240  1.0  -0.6026
  O  O416  1  0.164700  0.963300  0.395000  1.0  -0.6023
  O  O417  1  0.126890  0.661830  0.575950  1.0  -0.5935
  O  O418  1  0.176260  0.649250  0.465280  1.0  -0.5996
  O  O419  1  0.195000  0.781800  0.301170  1.0  -0.5907
  O  O420  1  0.291530  0.804500  0.323640  1.0  -0.5805
  O  O421  1  0.912760  0.872210  0.981210  1.0  -0.6077
  O  O422  1  0.991390  0.799210  0.942200  1.0  -0.5566
  O  O423  1  0.918640  0.512040  0.946500  1.0  -0.5725
  O  O424  1  0.844080  0.567670  0.011190  1.0  -0.5753
  O  O425  1  0.935040  0.774200  0.144350  1.0  -0.578
  O  O426  1  0.842640  0.813500  0.172120  1.0  -0.6377
  O  O427  1  0.917580  0.072600  0.957240  1.0  -0.6018
  O  O428  1  0.835300  0.036700  0.895000  1.0  -0.6027
  O  O429  1  0.873110  0.338170  0.075950  1.0  -0.5944
  O  O430  1  0.823740  0.350750  0.965280  1.0  -0.5996
  O  O431  1  0.805000  0.218200  0.801170  1.0  -0.591
  O  O432  1  0.708470  0.195500  0.823640  1.0  -0.5798
  O  O433  1  0.587240  0.872210  0.481210  1.0  -0.6068
  O  O434  1  0.508610  0.799210  0.442200  1.0  -0.5546
  O  O435  1  0.581360  0.512040  0.446500  1.0  -0.5742
  O  O436  1  0.655920  0.567670  0.511190  1.0  -0.5763
  O  O437  1  0.564960  0.774200  0.644350  1.0  -0.5769
  O  O438  1  0.657360  0.813500  0.672120  1.0  -0.6364
  O  O439  1  0.582420  0.072600  0.457240  1.0  -0.6023
  O  O440  1  0.664700  0.036700  0.395000  1.0  -0.6028
  O  O441  1  0.626890  0.338170  0.575950  1.0  -0.5935
  O  O442  1  0.676260  0.350750  0.465280  1.0  -0.5995
  O  O443  1  0.695000  0.218200  0.301170  1.0  -0.5906
  O  O444  1  0.791530  0.195500  0.323640  1.0  -0.5802
  O  O445  1  0.412760  0.127790  0.981210  1.0  -0.6089
  O  O446  1  0.491390  0.200790  0.942200  1.0  -0.5567
  O  O447  1  0.418640  0.487960  0.946500  1.0  -0.5744
  O  O448  1  0.344080  0.432330  0.011190  1.0  -0.5753
  O  O449  1  0.435040  0.225800  0.144350  1.0  -0.5779
  O  O450  1  0.342640  0.186500  0.172120  1.0  -0.6368
  O  O451  1  0.417580  0.927400  0.957240  1.0  -0.6017
  O  O452  1  0.335300  0.963300  0.895000  1.0  -0.6023
  O  O453  1  0.373110  0.661830  0.075950  1.0  -0.5943
  O  O454  1  0.323740  0.649250  0.965280  1.0  -0.5995
  O  O455  1  0.305000  0.781800  0.801170  1.0  -0.5912
  O  O456  1  0.208470  0.804500  0.823640  1.0  -0.5805
