# generated using pymatgen
data_Cu3H16C14(N2O5)2
_symmetry_space_group_name_H-M   'P 1'
_cell_length_a   12.41760000
_cell_length_b   22.53460000
_cell_length_c   10.16440000
_cell_angle_alpha   90.00000000
_cell_angle_beta   107.05400000
_cell_angle_gamma   90.00000000
_symmetry_Int_Tables_number   1
_chemical_formula_structural   Cu3H16C14(N2O5)2
_chemical_formula_sum   'Cu12 H64 C56 N16 O40'
_cell_volume   2719.19424444
_cell_formula_units_Z   4
loop_
 _symmetry_equiv_pos_site_id
 _symmetry_equiv_pos_as_xyz
  1  'x, y, z'
loop_
 _atom_site_type_symbol
 _atom_site_label
 _atom_site_symmetry_multiplicity
 _atom_site_fract_x
 _atom_site_fract_y
 _atom_site_fract_z
 _atom_site_occupancy
 _atom_site_charge
  Cu  Cu1  1  0.422680  0.469620  0.064850  1.0  0.9272
  Cu  Cu2  1  0.310850  0.552990  0.796000  1.0  0.8831
  Cu  Cu3  1  0.216090  0.538710  0.040690  1.0  0.9777
  Cu  Cu4  1  0.922680  0.969620  0.064850  1.0  0.9272
  Cu  Cu5  1  0.810850  0.052990  0.796000  1.0  0.8831
  Cu  Cu6  1  0.716090  0.038710  0.040690  1.0  0.9777
  Cu  Cu7  1  0.422680  0.530380  0.564850  1.0  0.9269
  Cu  Cu8  1  0.310850  0.447010  0.296000  1.0  0.8825
  Cu  Cu9  1  0.216090  0.461290  0.540690  1.0  0.9779
  Cu  Cu10  1  0.922680  0.030380  0.564850  1.0  0.9269
  Cu  Cu11  1  0.810850  0.947010  0.296000  1.0  0.8825
  Cu  Cu12  1  0.716090  0.961290  0.540690  1.0  0.9779
  H  H13  1  0.161000  0.727600  0.807300  1.0  0.1016
  H  H14  1  0.036800  0.706200  0.800500  1.0  0.1014
  H  H15  1  0.966300  0.730900  0.008000  1.0  0.0993
  H  H16  1  0.288400  0.772100  0.047600  1.0  0.0967
  H  H17  1  0.234800  0.819100  0.239400  1.0  0.1011
  H  H18  1  0.060100  0.797400  0.340500  1.0  0.1083
  H  H19  1  0.949200  0.770400  0.235100  1.0  0.1256
  H  H20  1  0.654700  0.473000  0.762700  1.0  0.0968
  H  H21  1  0.667300  0.539100  0.822800  1.0  0.1014
  H  H22  1  0.786700  0.390400  0.916300  1.0  0.1053
  H  H23  1  0.946900  0.395300  0.130200  1.0  0.1022
  H  H24  1  0.793500  0.554200  0.072600  1.0  0.107
  H  H25  1  0.995400  0.481300  0.341100  1.0  0.0972
  H  H26  1  0.959000  0.547000  0.285000  1.0  0.1051
  H  H27  1  0.384000  0.579500  0.028000  1.0  0.418
  H  H28  1  0.225000  0.565400  0.564000  1.0  0.4034
  H  H29  1  0.661000  0.227600  0.807300  1.0  0.1016
  H  H30  1  0.536800  0.206200  0.800500  1.0  0.1014
  H  H31  1  0.466300  0.230900  0.008000  1.0  0.0993
  H  H32  1  0.788400  0.272100  0.047600  1.0  0.0967
  H  H33  1  0.734800  0.319100  0.239400  1.0  0.1011
  H  H34  1  0.560100  0.297400  0.340500  1.0  0.1083
  H  H35  1  0.449200  0.270400  0.235100  1.0  0.1256
  H  H36  1  0.154700  0.973000  0.762700  1.0  0.0968
  H  H37  1  0.167300  0.039100  0.822800  1.0  0.1014
  H  H38  1  0.286700  0.890400  0.916300  1.0  0.1053
  H  H39  1  0.446900  0.895300  0.130200  1.0  0.1022
  H  H40  1  0.293500  0.054200  0.072600  1.0  0.107
  H  H41  1  0.495400  0.981300  0.341100  1.0  0.0972
  H  H42  1  0.459000  0.047000  0.285000  1.0  0.1051
  H  H43  1  0.884000  0.079500  0.028000  1.0  0.418
  H  H44  1  0.725000  0.065400  0.564000  1.0  0.4034
  H  H45  1  0.161000  0.272400  0.307300  1.0  0.1011
  H  H46  1  0.036800  0.293800  0.300500  1.0  0.1013
  H  H47  1  0.966300  0.269100  0.508000  1.0  0.0991
  H  H48  1  0.288400  0.227900  0.547600  1.0  0.0966
  H  H49  1  0.234800  0.180900  0.739400  1.0  0.1012
  H  H50  1  0.060100  0.202600  0.840500  1.0  0.1082
  H  H51  1  0.949200  0.229600  0.735100  1.0  0.1259
  H  H52  1  0.654700  0.527000  0.262700  1.0  0.0969
  H  H53  1  0.667300  0.460900  0.322800  1.0  0.0998
  H  H54  1  0.786700  0.609600  0.416300  1.0  0.1057
  H  H55  1  0.946900  0.604700  0.630200  1.0  0.1018
  H  H56  1  0.793500  0.445800  0.572600  1.0  0.1086
  H  H57  1  0.995400  0.518700  0.841100  1.0  0.0975
  H  H58  1  0.959000  0.453000  0.785000  1.0  0.1065
  H  H59  1  0.384000  0.420500  0.528000  1.0  0.4184
  H  H60  1  0.225000  0.434600  0.064000  1.0  0.4059
  H  H61  1  0.661000  0.772400  0.307300  1.0  0.1011
  H  H62  1  0.536800  0.793800  0.300500  1.0  0.1013
  H  H63  1  0.466300  0.769100  0.508000  1.0  0.0991
  H  H64  1  0.788400  0.727900  0.547600  1.0  0.0966
  H  H65  1  0.734800  0.680900  0.739400  1.0  0.1012
  H  H66  1  0.560100  0.702600  0.840500  1.0  0.1082
  H  H67  1  0.449200  0.729600  0.735100  1.0  0.1259
  H  H68  1  0.154700  0.027000  0.262700  1.0  0.0969
  H  H69  1  0.167300  0.960900  0.322800  1.0  0.0998
  H  H70  1  0.286700  0.109600  0.416300  1.0  0.1057
  H  H71  1  0.446900  0.104700  0.630200  1.0  0.1018
  H  H72  1  0.293500  0.945800  0.572600  1.0  0.1086
  H  H73  1  0.495400  0.018700  0.841100  1.0  0.0975
  H  H74  1  0.459000  0.953000  0.785000  1.0  0.1065
  H  H75  1  0.884000  0.920500  0.528000  1.0  0.4184
  H  H76  1  0.725000  0.934600  0.064000  1.0  0.4059
  C  C77  1  0.157800  0.643030  0.884000  1.0  0.72
  C  C78  1  0.116100  0.706670  0.859000  1.0  -0.2167
  C  C79  1  0.039900  0.747120  0.041500  1.0  0.0174
  C  C80  1  0.216900  0.770000  0.063800  1.0  -0.1244
  C  C81  1  0.187700  0.795300  0.168300  1.0  -0.1093
  C  C82  1  0.011200  0.799100  0.244100  1.0  -0.2241
  C  C83  1  0.961300  0.860910  0.216100  1.0  0.6918
  C  C84  1  0.549800  0.489510  0.884100  1.0  0.7239
  C  C85  1  0.659200  0.497000  0.845900  1.0  -0.181
  C  C86  1  0.809000  0.423930  0.974600  1.0  -0.116
  C  C87  1  0.895700  0.426390  0.091600  1.0  -0.1343
  C  C88  1  0.812000  0.514050  0.060300  1.0  0.0513
  C  C89  1  0.983000  0.507700  0.260300  1.0  -0.1293
  C  C90  1  0.092100  0.514180  0.221800  1.0  0.7247
  C  C91  1  0.657800  0.143030  0.884000  1.0  0.72
  C  C92  1  0.616100  0.206670  0.859000  1.0  -0.2167
  C  C93  1  0.539900  0.247120  0.041500  1.0  0.0174
  C  C94  1  0.716900  0.270000  0.063800  1.0  -0.1244
  C  C95  1  0.687700  0.295300  0.168300  1.0  -0.1093
  C  C96  1  0.511200  0.299100  0.244100  1.0  -0.2241
  C  C97  1  0.461300  0.360910  0.216100  1.0  0.6918
  C  C98  1  0.049800  0.989510  0.884100  1.0  0.7239
  C  C99  1  0.159200  0.997000  0.845900  1.0  -0.181
  C  C100  1  0.309000  0.923930  0.974600  1.0  -0.116
  C  C101  1  0.395700  0.926390  0.091600  1.0  -0.1343
  C  C102  1  0.312000  0.014050  0.060300  1.0  0.0513
  C  C103  1  0.483000  0.007700  0.260300  1.0  -0.1293
  C  C104  1  0.592100  0.014180  0.221800  1.0  0.7247
  C  C105  1  0.157800  0.356970  0.384000  1.0  0.7208
  C  C106  1  0.116100  0.293330  0.359000  1.0  -0.2158
  C  C107  1  0.039900  0.252880  0.541500  1.0  0.0171
  C  C108  1  0.216900  0.230000  0.563800  1.0  -0.1241
  C  C109  1  0.187700  0.204700  0.668300  1.0  -0.1096
  C  C110  1  0.011200  0.200900  0.744100  1.0  -0.2238
  C  C111  1  0.961300  0.139090  0.716100  1.0  0.7
  C  C112  1  0.549800  0.510490  0.384100  1.0  0.7243
  C  C113  1  0.659200  0.503000  0.345900  1.0  -0.1816
  C  C114  1  0.809000  0.576070  0.474600  1.0  -0.1163
  C  C115  1  0.895700  0.573610  0.591600  1.0  -0.1337
  C  C116  1  0.812000  0.485950  0.560300  1.0  0.0511
  C  C117  1  0.983000  0.492300  0.760300  1.0  -0.1302
  C  C118  1  0.092100  0.485820  0.721800  1.0  0.7148
  C  C119  1  0.657800  0.856970  0.384000  1.0  0.7208
  C  C120  1  0.616100  0.793330  0.359000  1.0  -0.2158
  C  C121  1  0.539900  0.752880  0.541500  1.0  0.0171
  C  C122  1  0.716900  0.730000  0.563800  1.0  -0.1241
  C  C123  1  0.687700  0.704700  0.668300  1.0  -0.1096
  C  C124  1  0.511200  0.700900  0.744100  1.0  -0.2238
  C  C125  1  0.461300  0.639090  0.716100  1.0  0.7
  C  C126  1  0.049800  0.010490  0.384100  1.0  0.7243
  C  C127  1  0.159200  0.003000  0.345900  1.0  -0.1816
  C  C128  1  0.309000  0.076070  0.474600  1.0  -0.1163
  C  C129  1  0.395700  0.073610  0.591600  1.0  -0.1337
  C  C130  1  0.312000  0.985950  0.560300  1.0  0.0511
  C  C131  1  0.483000  0.992300  0.760300  1.0  -0.1302
  C  C132  1  0.592100  0.985820  0.721800  1.0  0.7148
  N  N133  1  0.122700  0.740270  0.984500  1.0  0.0262
  N  N134  1  0.077300  0.780480  0.153200  1.0  0.024
  N  N135  1  0.759000  0.479000  0.955800  1.0  0.0528
  N  N136  1  0.895300  0.482980  0.144300  1.0  0.0471
  N  N137  1  0.622700  0.240270  0.984500  1.0  0.0262
  N  N138  1  0.577300  0.280480  0.153200  1.0  0.024
  N  N139  1  0.259000  0.979000  0.955800  1.0  0.0528
  N  N140  1  0.395300  0.982980  0.144300  1.0  0.0471
  N  N141  1  0.122700  0.259730  0.484500  1.0  0.0262
  N  N142  1  0.077300  0.219520  0.653200  1.0  0.0238
  N  N143  1  0.759000  0.521000  0.455800  1.0  0.0529
  N  N144  1  0.895300  0.517020  0.644300  1.0  0.0469
  N  N145  1  0.622700  0.759730  0.484500  1.0  0.0262
  N  N146  1  0.577300  0.719520  0.653200  1.0  0.0238
  N  N147  1  0.259000  0.021000  0.455800  1.0  0.0529
  N  N148  1  0.395300  0.017020  0.644300  1.0  0.0469
  O  O149  1  0.912100  0.877960  0.301600  1.0  -0.6255
  O  O150  1  0.355900  0.547020  0.993500  1.0  -0.9742
  O  O151  1  0.275800  0.540840  0.601100  1.0  -0.9925
  O  O152  1  0.172800  0.621250  0.002500  1.0  -0.5953
  O  O153  1  0.168200  0.617130  0.780400  1.0  -0.5872
  O  O154  1  0.972300  0.888440  0.113500  1.0  -0.602
  O  O155  1  0.557800  0.481690  0.009600  1.0  -0.5908
  O  O156  1  0.461200  0.492780  0.786900  1.0  -0.6874
  O  O157  1  0.081200  0.526890  0.097900  1.0  -0.5923
  O  O158  1  0.183500  0.507550  0.313800  1.0  -0.656
  O  O159  1  0.412100  0.377960  0.301600  1.0  -0.6255
  O  O160  1  0.855900  0.047020  0.993500  1.0  -0.9742
  O  O161  1  0.775800  0.040840  0.601100  1.0  -0.9925
  O  O162  1  0.672800  0.121250  0.002500  1.0  -0.5953
  O  O163  1  0.668200  0.117130  0.780400  1.0  -0.5872
  O  O164  1  0.472300  0.388440  0.113500  1.0  -0.602
  O  O165  1  0.057800  0.981690  0.009600  1.0  -0.5908
  O  O166  1  0.961200  0.992780  0.786900  1.0  -0.6874
  O  O167  1  0.581200  0.026890  0.097900  1.0  -0.5923
  O  O168  1  0.683500  0.007550  0.313800  1.0  -0.656
  O  O169  1  0.912100  0.122040  0.801600  1.0  -0.6249
  O  O170  1  0.355900  0.452980  0.493500  1.0  -0.9742
  O  O171  1  0.275800  0.459160  0.101100  1.0  -0.9937
  O  O172  1  0.172800  0.378750  0.502500  1.0  -0.5949
  O  O173  1  0.168200  0.382870  0.280400  1.0  -0.587
  O  O174  1  0.972300  0.111560  0.613500  1.0  -0.6023
  O  O175  1  0.557800  0.518310  0.509600  1.0  -0.5912
  O  O176  1  0.461200  0.507220  0.286900  1.0  -0.6864
  O  O177  1  0.081200  0.473110  0.597900  1.0  -0.5932
  O  O178  1  0.183500  0.492450  0.813800  1.0  -0.6564
  O  O179  1  0.412100  0.622040  0.801600  1.0  -0.6249
  O  O180  1  0.855900  0.952980  0.493500  1.0  -0.9742
  O  O181  1  0.775800  0.959160  0.101100  1.0  -0.9937
  O  O182  1  0.672800  0.878750  0.502500  1.0  -0.5949
  O  O183  1  0.668200  0.882870  0.280400  1.0  -0.587
  O  O184  1  0.472300  0.611560  0.613500  1.0  -0.6023
  O  O185  1  0.057800  0.018310  0.509600  1.0  -0.5912
  O  O186  1  0.961200  0.007220  0.286900  1.0  -0.6864
  O  O187  1  0.581200  0.973110  0.597900  1.0  -0.5932
  O  O188  1  0.683500  0.992450  0.813800  1.0  -0.6564
