# generated using pymatgen
data_Cd2H16C27N3O8
_symmetry_space_group_name_H-M   'P 1'
_cell_length_a   10.59250000
_cell_length_b   19.44090000
_cell_length_c   23.68200000
_cell_angle_alpha   73.74400000
_cell_angle_beta   83.66100000
_cell_angle_gamma   89.71200000
_symmetry_Int_Tables_number   1
_chemical_formula_structural   Cd2H16C27N3O8
_chemical_formula_sum   'Cd12 H96 C162 N18 O48'
_cell_volume   4651.47305435
_cell_formula_units_Z   6
loop_
 _symmetry_equiv_pos_site_id
 _symmetry_equiv_pos_as_xyz
  1  'x, y, z'
loop_
 _atom_site_type_symbol
 _atom_site_label
 _atom_site_symmetry_multiplicity
 _atom_site_fract_x
 _atom_site_fract_y
 _atom_site_fract_z
 _atom_site_occupancy
 _atom_site_charge
  Cd  Cd1  1  0.106400  0.223810  0.240300  1.0  0.9981
  Cd  Cd2  1  0.696940  0.156550  0.258710  1.0  0.9735
  Cd  Cd3  1  0.085620  0.657580  0.252960  1.0  0.9887
  Cd  Cd4  1  0.893600  0.776190  0.759700  1.0  0.9982
  Cd  Cd5  1  0.450060  0.040900  0.760500  1.0  0.9929
  Cd  Cd6  1  0.753560  0.545270  0.773290  1.0  1.0417
  Cd  Cd7  1  0.303060  0.843450  0.741290  1.0  0.9726
  Cd  Cd8  1  0.678520  0.712520  0.267080  1.0  0.9845
  Cd  Cd9  1  0.321480  0.287480  0.732920  1.0  0.985
  Cd  Cd10  1  0.914380  0.342420  0.747040  1.0  0.9893
  Cd  Cd11  1  0.549940  0.959100  0.239500  1.0  0.9934
  Cd  Cd12  1  0.246440  0.454730  0.226710  1.0  1.0419
  H  H13  1  0.283800  0.926500  0.255300  1.0  0.1034
  H  H14  1  0.659400  0.577300  0.379700  1.0  0.0917
  H  H15  1  0.188700  0.028700  0.255400  1.0  0.1025
  H  H16  1  0.671400  0.631700  0.166100  1.0  0.0864
  H  H17  1  0.803700  0.099400  0.151800  1.0  0.0821
  H  H18  1  0.333000  0.458300  0.519600  1.0  0.129
  H  H19  1  0.212000  0.668200  0.956000  1.0  0.1319
  H  H20  1  0.510600  0.141100  0.905600  1.0  0.1339
  H  H21  1  0.255900  0.323500  0.336500  1.0  0.0874
  H  H22  1  0.400300  0.814900  0.450500  1.0  0.1246
  H  H23  1  0.510700  0.715800  0.979800  1.0  0.1086
  H  H24  1  0.868600  0.127500  0.053600  1.0  0.1323
  H  H25  1  0.843000  0.842500  0.046600  1.0  0.1268
  H  H26  1  0.170000  0.134000  0.145200  1.0  0.0755
  H  H27  1  0.999700  0.618200  0.479200  1.0  0.1232
  H  H28  1  0.738200  0.029400  0.378400  1.0  0.08
  H  H29  1  0.478700  0.835000  0.928900  1.0  0.119
  H  H30  1  0.326900  0.253700  0.522200  1.0  0.118
  H  H31  1  0.276000  0.357000  0.931200  1.0  0.125
  H  H32  1  0.597000  0.529100  0.255900  1.0  0.099
  H  H33  1  0.716200  0.073500  0.744700  1.0  0.1021
  H  H34  1  0.489400  0.858900  0.094400  1.0  0.1342
  H  H35  1  0.811300  0.971300  0.744600  1.0  0.1023
  H  H36  1  0.046100  0.503100  0.337800  1.0  0.0812
  H  H37  1  0.124200  0.349800  0.013600  1.0  0.142
  H  H38  1  0.589400  0.213900  0.362400  1.0  0.083
  H  H39  1  0.834100  0.176400  0.737300  1.0  0.107
  H  H40  1  0.435100  0.805000  0.538200  1.0  0.1142
  H  H41  1  0.599700  0.185100  0.549500  1.0  0.1245
  H  H42  1  0.603300  0.332400  0.920900  1.0  0.126
  H  H43  1  0.943000  0.388600  0.858900  1.0  0.0868
  H  H44  1  0.201800  0.142300  0.047400  1.0  0.1295
  H  H45  1  0.165900  0.823600  0.262700  1.0  0.1071
  H  H46  1  0.977100  0.320000  0.618900  1.0  0.0967
  H  H47  1  0.131400  0.872500  0.946400  1.0  0.1329
  H  H48  1  0.022900  0.680000  0.381100  1.0  0.0954
  H  H49  1  0.724000  0.643000  0.068800  1.0  0.1245
  H  H50  1  0.953900  0.496900  0.662200  1.0  0.0817
  H  H51  1  0.417800  0.363600  0.073700  1.0  0.1196
  H  H52  1  0.830000  0.866000  0.854800  1.0  0.0763
  H  H53  1  0.730600  0.296600  0.144100  1.0  0.0728
  H  H54  1  0.057000  0.611400  0.141100  1.0  0.086
  H  H55  1  0.129000  0.805900  0.142900  1.0  0.0827
  H  H56  1  0.911900  0.666500  0.887200  1.0  0.0854
  H  H57  1  0.788000  0.331800  0.044000  1.0  0.132
  H  H58  1  0.557800  0.160300  0.649600  1.0  0.0658
  H  H59  1  0.637900  0.484500  0.673100  1.0  0.0737
  H  H60  1  0.425000  0.041800  0.330500  1.0  0.0792
  H  H61  1  0.340600  0.422700  0.620300  1.0  0.0916
  H  H62  1  0.673100  0.746300  0.477800  1.0  0.1178
  H  H63  1  0.744100  0.676500  0.663500  1.0  0.0876
  H  H64  1  0.564900  0.195000  0.461800  1.0  0.1147
  H  H65  1  0.834900  0.156600  0.959300  1.0  0.132
  H  H66  1  0.582200  0.636400  0.926300  1.0  0.1191
  H  H67  1  0.000300  0.381800  0.520800  1.0  0.1228
  H  H68  1  0.403000  0.470900  0.744100  1.0  0.0993
  H  H69  1  0.875800  0.650200  0.986400  1.0  0.1421
  H  H70  1  0.500100  0.573200  0.751900  1.0  0.1069
  H  H71  1  0.619800  0.329100  0.244500  1.0  0.1013
  H  H72  1  0.023500  0.437500  0.434000  1.0  0.1287
  H  H73  1  0.269400  0.703400  0.855900  1.0  0.0746
  H  H74  1  0.871000  0.194100  0.857100  1.0  0.0837
  H  H75  1  0.614700  0.515200  0.574500  1.0  0.1303
  H  H76  1  0.362100  0.515500  0.326900  1.0  0.0739
  H  H77  1  0.272500  0.285900  0.434000  1.0  0.127
  H  H78  1  0.203000  0.175300  0.853800  1.0  0.0879
  H  H79  1  0.261800  0.970600  0.621600  1.0  0.0798
  H  H80  1  0.375700  0.023600  0.429300  1.0  0.1125
  H  H81  1  0.410600  0.786100  0.637600  1.0  0.082
  H  H82  1  0.499900  0.426800  0.248100  1.0  0.1068
  H  H83  1  0.713700  0.004700  0.478400  1.0  0.1184
  H  H84  1  0.320600  0.222200  0.622700  1.0  0.086
  H  H85  1  0.328600  0.368300  0.833900  1.0  0.0868
  H  H86  1  0.396700  0.667600  0.079100  1.0  0.1272
  H  H87  1  0.196300  0.900600  0.848200  1.0  0.0814
  H  H88  1  0.537900  0.214300  0.962800  1.0  0.097
  H  H89  1  0.679400  0.777800  0.377300  1.0  0.0854
  H  H90  1  0.624300  0.976400  0.570700  1.0  0.112
  H  H91  1  0.091500  0.641500  0.041400  1.0  0.1272
  H  H92  1  0.157000  0.157500  0.953400  1.0  0.1276
  H  H93  1  0.797000  0.824700  0.146200  1.0  0.0876
  H  H94  1  0.165100  0.843400  0.040700  1.0  0.1314
  H  H95  1  0.575000  0.958200  0.669500  1.0  0.0788
  H  H96  1  0.462100  0.785700  0.037200  1.0  0.0966
  H  H97  1  0.667000  0.541700  0.480400  1.0  0.1289
  H  H98  1  0.380200  0.670900  0.755500  1.0  0.1012
  H  H99  1  0.798200  0.857700  0.952600  1.0  0.1291
  H  H100  1  0.489300  0.284200  0.020200  1.0  0.1092
  H  H101  1  0.976500  0.562500  0.566000  1.0  0.1285
  H  H102  1  0.442200  0.839700  0.350400  1.0  0.0675
  H  H103  1  0.908500  0.358500  0.958600  1.0  0.1258
  H  H104  1  0.088100  0.333500  0.112800  1.0  0.086
  H  H105  1  0.727500  0.714100  0.566000  1.0  0.127
  H  H106  1  0.286300  0.995300  0.521600  1.0  0.1189
  H  H107  1  0.521300  0.165000  0.071100  1.0  0.1192
  H  H108  1  0.385300  0.484800  0.425500  1.0  0.1305
  C  C109  1  0.516900  0.167300  0.790700  1.0  0.7001
  C  C110  1  0.554200  0.214900  0.826800  1.0  -0.1366
  C  C111  1  0.758700  0.262300  0.125400  1.0  0.1941
  C  C112  1  0.616300  0.082900  0.546600  1.0  0.0914
  C  C113  1  0.579700  0.004900  0.644900  1.0  0.1928
  C  C114  1  0.660000  0.371600  0.244200  1.0  -0.0405
  C  C115  1  0.526900  0.731400  0.938700  1.0  -0.0987
  C  C116  1  0.493300  0.197400  0.092000  1.0  -0.0696
  C  C117  1  0.204000  0.059700  0.742200  1.0  0.6983
  C  C118  1  0.597300  0.285600  0.800700  1.0  -0.0968
  C  C119  1  0.404400  0.862300  0.427300  1.0  -0.2277
  C  C120  1  0.707800  0.674800  0.141900  1.0  0.1812
  C  C121  1  0.207800  0.624800  0.760000  1.0  -0.12
  C  C122  1  0.609000  0.015700  0.585300  1.0  -0.1851
  C  C123  1  0.160800  0.836800  0.929500  1.0  -0.1995
  C  C124  1  0.919600  0.341400  0.879400  1.0  0.1679
  C  C125  1  0.330000  0.358900  0.509200  1.0  0.0605
  C  C126  1  0.078500  0.197100  0.737100  1.0  0.69
  C  C127  1  0.739500  0.681400  0.083600  1.0  -0.1761
  C  C128  1  0.506700  0.802600  0.908000  1.0  -0.0699
  C  C129  1  0.665900  0.611900  0.399600  1.0  0.1712
  C  C130  1  0.383700  0.917100  0.453400  1.0  0.093
  C  C131  1  0.860600  0.011400  0.743100  1.0  -0.0363
  C  C132  1  0.483100  0.832700  0.209300  1.0  0.6991
  C  C133  1  0.327000  0.289400  0.541400  1.0  -0.1626
  C  C134  1  0.400200  0.196600  0.250400  1.0  0.6909
  C  C135  1  0.670000  0.641100  0.490800  1.0  0.0614
  C  C136  1  0.499000  0.098700  0.183400  1.0  0.6861
  C  C137  1  0.281100  0.356600  0.355100  1.0  0.1948
  C  C138  1  0.865700  0.695100  0.960400  1.0  -0.2215
  C  C139  1  0.241300  0.737700  0.874600  1.0  0.1957
  C  C140  1  0.139400  0.988600  0.256900  1.0  -0.0363
  C  C141  1  0.792100  0.283800  0.065200  1.0  -0.1889
  C  C142  1  0.961300  0.473000  0.633100  1.0  0.1899
  C  C143  1  0.839200  0.163200  0.070500  1.0  -0.1968
  C  C144  1  0.343200  0.468500  0.349400  1.0  0.1763
  C  C145  1  0.399800  0.840500  0.554000  1.0  -0.2016
  C  C146  1  0.528100  0.825000  0.847400  1.0  -0.1267
  C  C147  1  0.864600  0.309100  0.241600  1.0  0.7188
  C  C148  1  0.420300  0.995100  0.355100  1.0  0.1931
  C  C149  1  0.635800  0.096200  0.483500  1.0  0.0847
  C  C150  1  0.008300  0.994400  0.258900  1.0  -0.1484
  C  C151  1  0.501000  0.901300  0.816600  1.0  0.687
  C  C152  1  0.618700  0.314600  0.734600  1.0  0.7102
  C  C153  1  0.338300  0.342500  0.184400  1.0  0.6926
  C  C154  1  0.447000  0.767900  0.078200  1.0  -0.0789
  C  C155  1  0.064300  0.065100  0.741000  1.0  -0.0799
  C  C156  1  0.571600  0.684400  0.906700  1.0  -0.0546
  C  C157  1  0.600000  0.708600  0.846400  1.0  -0.1193
  C  C158  1  0.464600  0.811200  0.112000  1.0  -0.072
  C  C159  1  0.473100  0.268600  0.061300  1.0  -0.0983
  C  C160  1  0.180900  0.183000  0.059300  1.0  -0.1879
  C  C161  1  0.080400  0.658600  0.120600  1.0  0.1672
  C  C162  1  0.701800  0.063700  0.395200  1.0  0.1952
  C  C163  1  0.144800  0.795500  0.060100  1.0  -0.1839
  C  C164  1  0.364200  0.903800  0.516500  1.0  0.0861
  C  C165  1  0.646300  0.491000  0.251100  1.0  -0.0635
  C  C166  1  0.023900  0.487300  0.424600  1.0  -0.2039
  C  C167  1  0.381300  0.685400  0.265400  1.0  0.7078
  C  C168  1  0.122300  0.772500  0.121900  1.0  0.1705
  C  C169  1  0.428400  0.315600  0.093300  1.0  -0.0549
  C  C170  1  0.353700  0.509000  0.748900  1.0  -0.0633
  C  C171  1  0.643100  0.549400  0.591200  1.0  -0.2106
  C  C172  1  0.332400  0.409800  0.539700  1.0  -0.1729
  C  C173  1  0.205800  0.256300  0.954300  1.0  0.1075
  C  C174  1  0.840700  0.821800  0.881800  1.0  0.1859
  C  C175  1  0.991700  0.005600  0.741100  1.0  -0.1497
  C  C176  1  0.333100  0.595700  0.189600  1.0  0.6978
  C  C177  1  0.852000  0.440500  0.238800  1.0  -0.0628
  C  C178  1  0.993800  0.446000  0.233300  1.0  0.6818
  C  C179  1  0.356900  0.450600  0.408800  1.0  -0.2108
  C  C180  1  0.334100  0.388100  0.600400  1.0  0.1719
  C  C181  1  0.471900  0.175000  0.152600  1.0  -0.1271
  C  C182  1  0.974700  0.369700  0.608200  1.0  0.1703
  C  C183  1  0.189300  0.201800  0.929700  1.0  -0.1969
  C  C184  1  0.568800  0.122200  0.633200  1.0  0.1957
  C  C185  1  0.718900  0.643400  0.644900  1.0  0.194
  C  C186  1  0.407000  0.697300  0.103100  1.0  -0.0755
  C  C187  1  0.952300  0.064900  0.259700  1.0  0.7125
  C  C188  1  0.148000  0.559500  0.761200  1.0  -0.0633
  C  C189  1  0.792200  0.375200  0.240000  1.0  -0.1207
  C  C190  1  0.535400  0.188800  0.888000  1.0  -0.0734
  C  C191  1  0.666900  0.404300  0.810400  1.0  0.6976
  C  C192  1  0.167000  0.435100  0.746300  1.0  0.7079
  C  C193  1  0.616000  0.170800  0.386000  1.0  0.1806
  C  C194  1  0.553000  0.232100  0.921800  1.0  -0.0802
  C  C195  1  0.445800  0.785100  0.173200  1.0  -0.1317
  C  C196  1  0.675700  0.729400  0.398100  1.0  0.1795
  C  C197  1  0.006000  0.129700  0.739900  1.0  -0.1445
  C  C198  1  0.994000  0.870300  0.260100  1.0  -0.1452
  C  C199  1  0.810700  0.798200  0.070300  1.0  -0.1992
  C  C200  1  0.327900  0.380800  0.443500  1.0  0.0868
  C  C201  1  0.197500  0.852900  0.870400  1.0  0.1898
  C  C202  1  0.298200  0.936300  0.604800  1.0  0.1946
  C  C203  1  0.400000  0.291400  0.153600  1.0  -0.1195
  C  C204  1  0.661700  0.657500  0.815600  1.0  0.6932
  C  C205  1  0.832600  0.232500  0.035900  1.0  0.0908
  C  C206  1  0.672100  0.619200  0.556500  1.0  0.0879
  C  C207  1  0.617600  0.328900  0.836200  1.0  -0.1061
  C  C208  1  0.391000  0.984300  0.414700  1.0  -0.1866
  C  C209  1  0.687500  0.048600  0.455800  1.0  -0.1913
  C  C210  1  0.312500  0.951400  0.544200  1.0  -0.1941
  C  C211  1  0.167400  0.767500  0.964100  1.0  0.0914
  C  C212  1  0.290800  0.333700  0.413600  1.0  -0.2067
  C  C213  1  0.877700  0.227500  0.878100  1.0  0.1717
  C  C214  1  0.260500  0.318600  0.916400  1.0  -0.1729
  C  C215  1  0.221800  0.502900  0.752600  1.0  -0.1588
  C  C216  1  0.656800  0.531500  0.650600  1.0  0.1755
  C  C217  1  0.976100  0.512700  0.575400  1.0  -0.2049
  C  C218  1  0.006200  0.554000  0.766700  1.0  0.6803
  C  C219  1  0.673000  0.710600  0.458600  1.0  -0.163
  C  C220  1  0.431200  0.877800  0.366800  1.0  0.1958
  C  C221  1  0.804300  0.071800  0.742800  1.0  -0.114
  C  C222  1  0.709200  0.666300  0.586400  1.0  -0.2054
  C  C223  1  0.794200  0.743700  0.045700  1.0  0.1072
  C  C224  1  0.424400  0.222200  0.184000  1.0  -0.1082
  C  C225  1  0.025300  0.630300  0.391800  1.0  0.1709
  C  C226  1  0.292200  0.325200  0.858100  1.0  0.181
  C  C227  1  0.402700  0.714400  0.199300  1.0  -0.0955
  C  C228  1  0.874400  0.133300  0.739600  1.0  -0.059
  C  C229  1  0.600200  0.159500  0.446000  1.0  -0.2024
  C  C230  1  0.899000  0.323800  0.939100  1.0  -0.1934
  C  C231  1  0.038700  0.527000  0.366900  1.0  0.188
  C  C232  1  0.135400  0.690900  0.758400  1.0  0.7203
  C  C233  1  0.990000  0.406900  0.549100  1.0  -0.1596
  C  C234  1  0.796000  0.940300  0.257800  1.0  0.6965
  C  C235  1  0.101000  0.676200  0.060900  1.0  -0.1907
  C  C236  1  0.887300  0.705700  0.900700  1.0  0.1941
  C  C237  1  0.802500  0.147100  0.129600  1.0  0.1907
  C  C238  1  0.667600  0.590200  0.460300  1.0  -0.1723
  C  C239  1  0.340000  0.628400  0.755800  1.0  -0.042
  C  C240  1  0.047700  0.935100  0.740300  1.0  0.7106
  C  C241  1  0.382400  0.671100  0.163800  1.0  -0.1071
  C  C242  1  0.112700  0.294300  0.099300  1.0  0.1932
  C  C243  1  0.195700  0.928200  0.257200  1.0  -0.1134
  C  C244  1  0.575600  0.777800  0.816000  1.0  -0.1094
  C  C245  1  0.324300  0.270600  0.601900  1.0  0.1806
  C  C246  1  0.159300  0.178200  0.118200  1.0  0.1866
  C  C247  1  0.990100  0.479600  0.531300  1.0  0.0855
  C  C248  1  0.779700  0.787600  0.130300  1.0  0.1897
  C  C249  1  0.778200  0.497100  0.247400  1.0  -0.1596
  C  C250  1  0.921500  0.802900  0.262900  1.0  0.6897
  C  C251  1  0.595600  0.137700  0.572700  1.0  -0.2292
  C  C252  1  0.125600  0.866700  0.260400  1.0  -0.059
  C  C253  1  0.855200  0.204500  0.939900  1.0  -0.1808
  C  C254  1  0.412400  0.570700  0.752200  1.0  -0.0863
  C  C255  1  0.134300  0.304900  0.039600  1.0  -0.225
  C  C256  1  0.384000  0.829200  0.614000  1.0  0.1789
  C  C257  1  0.172000  0.246600  0.018000  1.0  0.0984
  C  C258  1  0.010000  0.593100  0.450900  1.0  -0.1554
  C  C259  1  0.819100  0.817000  0.940700  1.0  -0.1923
  C  C260  1  0.935700  0.934900  0.259000  1.0  -0.0795
  C  C261  1  0.828000  0.753400  0.982000  1.0  0.0985
  C  C262  1  0.587600  0.429300  0.247800  1.0  -0.0889
  C  C263  1  0.833000  0.564900  0.253700  1.0  0.7076
  C  C264  1  0.207900  0.716200  0.934800  1.0  -0.1873
  C  C265  1  0.599800  0.803400  0.749600  1.0  0.6917
  C  C266  1  0.009900  0.520400  0.468700  1.0  0.0855
  C  C267  1  0.136600  0.746700  0.028400  1.0  0.1034
  C  C268  1  0.220300  0.212400  0.869700  1.0  0.1905
  C  C269  1  0.863400  0.253300  0.971600  1.0  0.1034
  C  C270  1  0.593000  0.302700  0.896900  1.0  -0.0767
  N  N271  1  0.235300  0.804200  0.842400  1.0  -0.3384
  N  N272  1  0.673400  0.681000  0.368700  1.0  -0.3152
  N  N273  1  0.442000  0.942300  0.331200  1.0  -0.3421
  N  N274  1  0.764700  0.195800  0.157600  1.0  -0.342
  N  N275  1  0.042900  0.597800  0.350300  1.0  -0.3099
  N  N276  1  0.326600  0.319000  0.631300  1.0  -0.3141
  N  N277  1  0.332700  0.876400  0.640300  1.0  -0.3187
  N  N278  1  0.273200  0.272300  0.833700  1.0  -0.3468
  N  N279  1  0.957100  0.402200  0.649700  1.0  -0.3069
  N  N280  1  0.092200  0.705600  0.151500  1.0  -0.3516
  N  N281  1  0.694900  0.576900  0.677400  1.0  -0.3312
  N  N282  1  0.726800  0.727700  0.166300  1.0  -0.3482
  N  N283  1  0.907800  0.294400  0.848500  1.0  -0.3528
  N  N284  1  0.124100  0.232600  0.139400  1.0  -0.3409
  N  N285  1  0.558000  0.057700  0.668800  1.0  -0.3409
  N  N286  1  0.875900  0.767400  0.860600  1.0  -0.3405
  N  N287  1  0.305100  0.423100  0.322600  1.0  -0.3346
  N  N288  1  0.667300  0.123600  0.359700  1.0  -0.3184
  O  O289  1  0.467800  0.192600  0.744800  1.0  -0.6068
  O  O290  1  0.757200  0.960600  0.207700  1.0  -0.5648
  O  O291  1  0.017400  0.252100  0.728900  1.0  -0.6556
  O  O292  1  0.446800  0.914400  0.769700  1.0  -0.6638
  O  O293  1  0.375800  0.549800  0.168200  1.0  -0.5849
  O  O294  1  0.757700  0.602500  0.275300  1.0  -0.6274
  O  O295  1  0.164800  0.931700  0.734900  1.0  -0.634
  O  O296  1  0.490700  0.203300  0.278100  1.0  -0.638
  O  O297  1  0.553200  0.085600  0.230300  1.0  -0.663
  O  O298  1  0.369600  0.405800  0.164800  1.0  -0.5758
  O  O299  1  0.045700  0.425500  0.279800  1.0  -0.6139
  O  O300  1  0.532200  0.807400  0.255200  1.0  -0.6078
  O  O301  1  0.977500  0.315900  0.221600  1.0  -0.5757
  O  O302  1  0.723700  0.925100  0.303800  1.0  -0.5891
  O  O303  1  0.463600  0.897300  0.188700  1.0  -0.5928
  O  O304  1  0.744600  0.680200  0.771400  1.0  -0.6832
  O  O305  1  0.242800  0.039400  0.792300  1.0  -0.567
  O  O306  1  0.624200  0.450200  0.831800  1.0  -0.5857
  O  O307  1  0.245200  0.581800  0.232100  1.0  -0.6844
  O  O308  1  0.835200  0.068300  0.265100  1.0  -0.6325
  O  O309  1  0.630400  0.594200  0.835200  1.0  -0.5758
  O  O310  1  0.295100  0.169500  0.273400  1.0  -0.6083
  O  O311  1  0.807400  0.251700  0.264300  1.0  -0.6848
  O  O312  1  0.276300  0.074900  0.696200  1.0  -0.592
  O  O313  1  0.467800  0.050700  0.163000  1.0  -0.5916
  O  O314  1  0.536400  0.102700  0.811300  1.0  -0.5937
  O  O315  1  0.273000  0.693300  0.290000  1.0  -0.6289
  O  O316  1  0.704900  0.830500  0.726600  1.0  -0.6076
  O  O317  1  0.472400  0.654900  0.290800  1.0  -0.6226
  O  O318  1  0.974400  0.884200  0.744600  1.0  -0.6953
  O  O319  1  0.056400  0.469500  0.184900  1.0  -0.5545
  O  O320  1  0.982600  0.747900  0.271100  1.0  -0.6567
  O  O321  1  0.242300  0.397500  0.724700  1.0  -0.6276
  O  O322  1  0.943600  0.530500  0.815100  1.0  -0.5531
  O  O323  1  0.022500  0.684100  0.778400  1.0  -0.5766
  O  O324  1  0.025600  0.115800  0.255400  1.0  -0.6955
  O  O325  1  0.255400  0.319800  0.228600  1.0  -0.6849
  O  O326  1  0.727000  0.306700  0.710000  1.0  -0.6293
  O  O327  1  0.192200  0.192600  0.741500  1.0  -0.5666
  O  O328  1  0.949600  0.575700  0.239900  1.0  -0.6047
  O  O329  1  0.050400  0.424300  0.760100  1.0  -0.6045
  O  O330  1  0.807800  0.807400  0.258500  1.0  -0.5659
  O  O331  1  0.509300  0.796700  0.721900  1.0  -0.6368
  O  O332  1  0.532200  0.949300  0.837000  1.0  -0.5912
  O  O333  1  0.954300  0.574500  0.720200  1.0  -0.6122
  O  O334  1  0.754800  0.418200  0.767900  1.0  -0.685
  O  O335  1  0.527600  0.345100  0.709200  1.0  -0.6214
  O  O336  1  0.192600  0.748300  0.735700  1.0  -0.6856
