# generated using pymatgen
data_Pr2H19C28S4NO19
_symmetry_space_group_name_H-M   'P 1'
_cell_length_a   10.44830000
_cell_length_b   15.02820000
_cell_length_c   16.77500000
_cell_angle_alpha   65.38500000
_cell_angle_beta   83.95200000
_cell_angle_gamma   73.59500000
_symmetry_Int_Tables_number   1
_chemical_formula_structural   Pr2H19C28S4NO19
_chemical_formula_sum   'Pr4 H38 C56 S8 N2 O38'
_cell_volume   2296.92244581
_cell_formula_units_Z   2
loop_
 _symmetry_equiv_pos_site_id
 _symmetry_equiv_pos_as_xyz
  1  'x, y, z'
loop_
 _atom_site_type_symbol
 _atom_site_label
 _atom_site_symmetry_multiplicity
 _atom_site_fract_x
 _atom_site_fract_y
 _atom_site_fract_z
 _atom_site_occupancy
 _atom_site_charge
  Pr  Pr1  1  0.293610  0.254900  0.211780  1.0  2.1097
  Pr  Pr2  1  0.221900  0.508780  0.628720  1.0  2.0814
  Pr  Pr3  1  0.706390  0.745100  0.788220  1.0  2.1112
  Pr  Pr4  1  0.778100  0.491220  0.371280  1.0  2.0813
  H  H5  1  0.688400  0.944900  0.851600  1.0  0.3906
  H  H6  1  0.972100  0.927900  0.901100  1.0  0.3941
  H  H7  1  0.834500  0.951200  0.702400  1.0  0.3582
  H  H8  1  0.330600  0.166500  0.890500  1.0  0.1191
  H  H9  1  0.648700  0.185800  0.996100  1.0  0.1257
  H  H10  1  0.865500  0.070300  0.004400  1.0  0.1031
  H  H11  1  0.880800  0.977000  0.978000  1.0  0.0943
  H  H12  1  0.860200  0.242100  0.880400  1.0  0.1186
  H  H13  1  0.068200  0.245100  0.661900  1.0  0.1107
  H  H14  1  0.139500  0.978700  0.718100  1.0  0.1155
  H  H15  1  0.198500  0.073900  0.662100  1.0  0.1073
  H  H16  1  0.124400  0.176000  0.512900  1.0  0.1223
  H  H17  1  0.808200  0.142600  0.416500  1.0  0.1101
  H  H18  1  0.751900  0.937800  0.598900  1.0  0.1044
  H  H19  1  0.692800  0.018900  0.504000  1.0  0.1124
  H  H20  1  0.534600  0.182400  0.490300  1.0  0.1148
  H  H21  1  0.324200  0.197000  0.703600  1.0  0.1083
  H  H22  1  0.349900  0.036700  0.838200  1.0  0.1186
  H  H23  1  0.486500  0.949300  0.854300  1.0  0.1113
  H  H24  1  0.311600  0.055100  0.148400  1.0  0.3898
  H  H25  1  0.027900  0.072100  0.098900  1.0  0.3929
  H  H26  1  0.165500  0.048800  0.297600  1.0  0.3579
  H  H27  1  0.669400  0.833500  0.109500  1.0  0.1195
  H  H28  1  0.351300  0.814200  0.003900  1.0  0.1255
  H  H29  1  0.134500  0.929700  0.995600  1.0  0.1038
  H  H30  1  0.119200  0.023000  0.022000  1.0  0.0949
  H  H31  1  0.139800  0.757900  0.119600  1.0  0.1188
  H  H32  1  0.931800  0.754900  0.338100  1.0  0.1109
  H  H33  1  0.860500  0.021300  0.281900  1.0  0.1139
  H  H34  1  0.801500  0.926100  0.337900  1.0  0.1084
  H  H35  1  0.875600  0.824000  0.487100  1.0  0.1217
  H  H36  1  0.191800  0.857400  0.583500  1.0  0.1106
  H  H37  1  0.248100  0.062200  0.401100  1.0  0.1053
  H  H38  1  0.307200  0.981100  0.496000  1.0  0.1126
  H  H39  1  0.465400  0.817600  0.509700  1.0  0.1154
  H  H40  1  0.675800  0.803000  0.296400  1.0  0.1087
  H  H41  1  0.650100  0.963300  0.161800  1.0  0.1173
  H  H42  1  0.513500  0.050700  0.145700  1.0  0.1114
  C  C43  1  0.505300  0.069300  0.878870  1.0  -0.0448
  C  C44  1  0.423600  0.144600  0.903160  1.0  -0.0634
  C  C45  1  0.477700  0.188100  0.945950  1.0  -0.2251
  C  C46  1  0.613400  0.156500  0.965930  1.0  -0.0764
  C  C47  1  0.697300  0.082200  0.941860  1.0  -0.0134
  C  C48  1  0.642200  0.038810  0.898390  1.0  0.2386
  C  C49  1  0.846700  0.051500  0.957740  1.0  -0.1755
  C  C50  1  0.918300  0.103200  0.874650  1.0  -0.0685
  C  C51  1  0.907100  0.206800  0.846070  1.0  -0.0617
  C  C52  1  0.964200  0.258400  0.767790  1.0  -0.1939
  C  C53  1  0.031400  0.208600  0.715920  1.0  -0.0858
  C  C54  1  0.045100  0.105300  0.742820  1.0  0.012
  C  C55  1  0.989700  0.053200  0.823440  1.0  0.2414
  C  C56  1  0.115200  0.053100  0.683750  1.0  -0.182
  C  C57  1  0.028000  0.079300  0.606440  1.0  0.001
  C  C58  1  0.051800  0.146400  0.522580  1.0  -0.0641
  C  C59  1  0.968000  0.169900  0.452840  1.0  -0.2973
  C  C60  1  0.863000  0.126200  0.465060  1.0  -0.0693
  C  C61  1  0.837300  0.058700  0.547850  1.0  -0.0357
  C  C62  1  0.920100  0.036900  0.617920  1.0  0.2266
  C  C63  1  0.721700  0.011200  0.561370  1.0  -0.1716
  C  C64  1  0.604900  0.060270  0.603880  1.0  -0.0232
  C  C65  1  0.521200  0.153600  0.551730  1.0  -0.045
  C  C66  1  0.418100  0.205000  0.589140  1.0  -0.2453
  C  C67  1  0.395200  0.161900  0.678600  1.0  -0.0822
  C  C68  1  0.475400  0.067200  0.732150  1.0  -0.0021
  C  C69  1  0.583000  0.016170  0.695180  1.0  0.2794
  C  C70  1  0.447600  0.023700  0.829560  1.0  -0.1982
  C  C71  1  0.494700  0.930700  0.121130  1.0  -0.0456
  C  C72  1  0.576400  0.855400  0.096840  1.0  -0.0585
  C  C73  1  0.522300  0.811900  0.054050  1.0  -0.2234
  C  C74  1  0.386600  0.843500  0.034070  1.0  -0.0754
  C  C75  1  0.302700  0.917800  0.058140  1.0  -0.0134
  C  C76  1  0.357800  0.961190  0.101610  1.0  0.238
  C  C77  1  0.153300  0.948500  0.042260  1.0  -0.1754
  C  C78  1  0.081700  0.896800  0.125350  1.0  -0.0678
  C  C79  1  0.092900  0.793200  0.153930  1.0  -0.0624
  C  C80  1  0.035800  0.741600  0.232210  1.0  -0.1948
  C  C81  1  0.968600  0.791400  0.284080  1.0  -0.0844
  C  C82  1  0.954900  0.894700  0.257180  1.0  0.0102
  C  C83  1  0.010300  0.946800  0.176560  1.0  0.2421
  C  C84  1  0.884800  0.946900  0.316250  1.0  -0.1823
  C  C85  1  0.972000  0.920700  0.393560  1.0  0.0005
  C  C86  1  0.948200  0.853600  0.477420  1.0  -0.0629
  C  C87  1  0.032000  0.830100  0.547160  1.0  -0.2845
  C  C88  1  0.137000  0.873800  0.534940  1.0  -0.069
  C  C89  1  0.162700  0.941300  0.452150  1.0  -0.0319
  C  C90  1  0.079900  0.963100  0.382080  1.0  0.2247
  C  C91  1  0.278300  0.988800  0.438630  1.0  -0.1709
  C  C92  1  0.395100  0.939730  0.396120  1.0  -0.0233
  C  C93  1  0.478800  0.846400  0.448270  1.0  -0.047
  C  C94  1  0.581900  0.795000  0.410860  1.0  -0.2438
  C  C95  1  0.604800  0.838100  0.321400  1.0  -0.0824
  C  C96  1  0.524600  0.932800  0.267850  1.0  -0.0063
  C  C97  1  0.417000  0.983830  0.304820  1.0  0.2795
  C  C98  1  0.552400  0.976300  0.170440  1.0  -0.1945
  S  S99  1  0.377070  0.282810  0.977770  1.0  1.4174
  S  S100  1  0.947290  0.389710  0.730510  1.0  1.3988
  S  S101  1  0.992530  0.259360  0.348090  1.0  1.4622
  S  S102  1  0.320420  0.325490  0.520700  1.0  1.4334
  S  S103  1  0.622930  0.717190  0.022230  1.0  1.4014
  S  S104  1  0.052710  0.610290  0.269490  1.0  1.4022
  S  S105  1  0.007470  0.740640  0.651910  1.0  1.4597
  S  S106  1  0.679580  0.674510  0.479300  1.0  1.4344
  N  N107  1  0.553700  0.149810  0.306780  1.0  0.7916
  N  N108  1  0.446300  0.850190  0.693220  1.0  0.7902
  O  O109  1  0.355500  0.235890  0.072670  1.0  -0.8273
  O  O110  1  0.449500  0.359950  0.956530  1.0  -0.6486
  O  O111  1  0.250800  0.322070  0.929130  1.0  -0.6515
  O  O112  1  0.729400  0.966090  0.877460  1.0  -0.4538
  O  O113  1  0.083200  0.401290  0.725050  1.0  -0.7888
  O  O114  1  0.881300  0.438120  0.645140  1.0  -0.6721
  O  O115  1  0.868500  0.421040  0.796020  1.0  -0.66
  O  O116  1  0.008680  0.950020  0.852340  1.0  -0.4858
  O  O117  1  0.135850  0.230850  0.330690  1.0  -0.7723
  O  O118  1  0.910100  0.255760  0.285620  1.0  -0.6271
  O  O119  1  0.956800  0.358510  0.353120  1.0  -0.8328
  O  O120  1  0.900700  0.972850  0.701550  1.0  -0.4387
  O  O121  1  0.413000  0.381300  0.465210  1.0  -0.7212
  O  O122  1  0.228200  0.312060  0.469900  1.0  -0.6326
  O  O123  1  0.248400  0.371660  0.579980  1.0  -0.804
  O  O124  1  0.667940  0.928140  0.746640  1.0  -0.7094
  O  O125  1  0.448000  0.154110  0.349440  1.0  -0.5468
  O  O126  1  0.541600  0.185940  0.222490  1.0  -0.5731
  O  O127  1  0.663400  0.114300  0.341510  1.0  -0.3646
  O  O128  1  0.644500  0.764110  0.927330  1.0  -0.8288
  O  O129  1  0.550500  0.640050  0.043470  1.0  -0.648
  O  O130  1  0.749200  0.677930  0.070870  1.0  -0.6505
  O  O131  1  0.270600  0.033910  0.122540  1.0  -0.4531
  O  O132  1  0.916800  0.598710  0.274950  1.0  -0.7864
  O  O133  1  0.118700  0.561880  0.354860  1.0  -0.673
  O  O134  1  0.131500  0.578960  0.203980  1.0  -0.6538
  O  O135  1  0.991320  0.049980  0.147660  1.0  -0.4833
  O  O136  1  0.864150  0.769150  0.669310  1.0  -0.7727
  O  O137  1  0.089900  0.744240  0.714380  1.0  -0.6286
  O  O138  1  0.043200  0.641490  0.646880  1.0  -0.8335
  O  O139  1  0.099300  0.027150  0.298450  1.0  -0.4355
  O  O140  1  0.587000  0.618700  0.534790  1.0  -0.7188
  O  O141  1  0.771800  0.687940  0.530100  1.0  -0.6252
  O  O142  1  0.751600  0.628340  0.420020  1.0  -0.8194
  O  O143  1  0.332060  0.071860  0.253360  1.0  -0.709
  O  O144  1  0.552000  0.845890  0.650560  1.0  -0.5462
  O  O145  1  0.458400  0.814060  0.777510  1.0  -0.5786
  O  O146  1  0.336600  0.885700  0.658490  1.0  -0.3678
