# generated using pymatgen
data_EuCuH8C14(NO4)2
_symmetry_space_group_name_H-M   'P 1'
_cell_length_a   9.20300000
_cell_length_b   11.59970000
_cell_length_c   17.06300000
_cell_angle_alpha   104.60100000
_cell_angle_beta   90.00000000
_cell_angle_gamma   113.37100000
_symmetry_Int_Tables_number   1
_chemical_formula_structural   EuCuH8C14(NO4)2
_chemical_formula_sum   'Eu4 Cu4 H32 C56 N8 O32'
_cell_volume   1607.78044143
_cell_formula_units_Z   4
loop_
 _symmetry_equiv_pos_site_id
 _symmetry_equiv_pos_as_xyz
  1  'x, y, z'
loop_
 _atom_site_type_symbol
 _atom_site_label
 _atom_site_symmetry_multiplicity
 _atom_site_fract_x
 _atom_site_fract_y
 _atom_site_fract_z
 _atom_site_occupancy
 _atom_site_charge
  Eu  Eu1  1  0.827910  0.026150  0.573170  1.0  2.1013
  Eu  Eu2  1  0.801760  0.973850  0.926830  1.0  2.1022
  Eu  Eu3  1  0.172090  0.973850  0.426830  1.0  2.1014
  Eu  Eu4  1  0.198240  0.026150  0.073170  1.0  2.0997
  Cu  Cu5  1  0.590570  0.325040  0.630670  1.0  0.4491
  Cu  Cu6  1  0.265530  0.674960  0.869330  1.0  0.4475
  Cu  Cu7  1  0.409430  0.674960  0.369330  1.0  0.4475
  Cu  Cu8  1  0.734470  0.325040  0.130670  1.0  0.4493
  H  H9  1  0.007000  0.300400  0.193200  1.0  0.0927
  H  H10  1  0.586500  0.224600  0.264000  1.0  0.0848
  H  H11  1  0.637000  0.128600  0.356700  1.0  0.1291
  H  H12  1  0.065400  0.197600  0.279900  1.0  0.1311
  H  H13  1  0.417600  0.439400  0.376000  1.0  0.0827
  H  H14  1  0.220600  0.646600  0.509500  1.0  0.0798
  H  H15  1  0.313400  0.279200  0.440800  1.0  0.1021
  H  H16  1  0.109100  0.490400  0.577900  1.0  0.1207
  H  H17  1  0.706600  0.699600  0.306800  1.0  0.0924
  H  H18  1  0.361900  0.775400  0.236000  1.0  0.0846
  H  H19  1  0.508400  0.871400  0.143300  1.0  0.1293
  H  H20  1  0.867800  0.802400  0.220100  1.0  0.1315
  H  H21  1  0.978200  0.560600  0.124000  1.0  0.0826
  H  H22  1  0.574000  0.353400  0.990500  1.0  0.08
  H  H23  1  0.034200  0.720800  0.059200  1.0  0.102
  H  H24  1  0.618700  0.509600  0.922100  1.0  0.1207
  H  H25  1  0.993000  0.699600  0.806800  1.0  0.0928
  H  H26  1  0.413500  0.775400  0.736000  1.0  0.0846
  H  H27  1  0.363000  0.871400  0.643300  1.0  0.129
  H  H28  1  0.934600  0.802400  0.720100  1.0  0.1315
  H  H29  1  0.582400  0.560600  0.624000  1.0  0.0826
  H  H30  1  0.779400  0.353400  0.490500  1.0  0.0799
  H  H31  1  0.686600  0.720800  0.559200  1.0  0.1023
  H  H32  1  0.890900  0.509600  0.422100  1.0  0.121
  H  H33  1  0.293400  0.300400  0.693200  1.0  0.0932
  H  H34  1  0.638100  0.224600  0.764000  1.0  0.0846
  H  H35  1  0.491600  0.128600  0.856700  1.0  0.129
  H  H36  1  0.132200  0.197600  0.779900  1.0  0.1315
  H  H37  1  0.021800  0.439400  0.876000  1.0  0.0827
  H  H38  1  0.426000  0.646600  0.009500  1.0  0.0797
  H  H39  1  0.965800  0.279200  0.940800  1.0  0.1022
  H  H40  1  0.381300  0.490400  0.077900  1.0  0.1207
  C  C41  1  0.855190  0.147580  0.326140  1.0  -0.0413
  C  C42  1  0.718930  0.925660  0.731960  1.0  0.586
  C  C43  1  0.105120  0.250040  0.549200  1.0  0.6784
  C  C44  1  0.929700  0.262000  0.224900  1.0  0.1829
  C  C45  1  0.684000  0.218600  0.267100  1.0  0.1723
  C  C46  1  0.193330  0.364060  0.514500  1.0  -0.0376
  C  C47  1  0.712600  0.159600  0.322400  1.0  -0.1404
  C  C48  1  0.519650  0.071700  0.523180  1.0  0.5715
  C  C49  1  0.888440  0.077080  0.382260  1.0  0.698
  C  C50  1  0.966580  0.201560  0.277500  1.0  -0.1465
  C  C51  1  0.352300  0.449200  0.416400  1.0  0.1685
  C  C52  1  0.237100  0.570200  0.494300  1.0  0.1723
  C  C53  1  0.289920  0.352240  0.455000  1.0  -0.1559
  C  C54  1  0.169800  0.476800  0.535900  1.0  -0.1452
  C  C55  1  0.707610  0.852420  0.173860  1.0  -0.0415
  C  C56  1  0.793270  0.074340  0.768040  1.0  0.5846
  C  C57  1  0.855080  0.749960  0.950800  1.0  0.6791
  C  C58  1  0.667700  0.738000  0.275100  1.0  0.1815
  C  C59  1  0.465400  0.781400  0.232900  1.0  0.1724
  C  C60  1  0.829270  0.635940  0.985500  1.0  -0.0378
  C  C61  1  0.553000  0.840400  0.177600  1.0  -0.1417
  C  C62  1  0.447950  0.928300  0.976820  1.0  0.5716
  C  C63  1  0.811360  0.922920  0.117740  1.0  0.6976
  C  C64  1  0.765020  0.798440  0.222500  1.0  -0.1469
  C  C65  1  0.903100  0.550800  0.083600  1.0  0.1676
  C  C66  1  0.666900  0.429800  0.005700  1.0  0.172
  C  C67  1  0.937680  0.647760  0.045000  1.0  -0.1564
  C  C68  1  0.693000  0.523200  0.964100  1.0  -0.1436
  C  C69  1  0.144810  0.852420  0.673860  1.0  -0.0415
  C  C70  1  0.281070  0.074340  0.268040  1.0  0.5854
  C  C71  1  0.894880  0.749960  0.450800  1.0  0.6793
  C  C72  1  0.070300  0.738000  0.775100  1.0  0.1815
  C  C73  1  0.316000  0.781400  0.732900  1.0  0.1728
  C  C74  1  0.806670  0.635940  0.485500  1.0  -0.0383
  C  C75  1  0.287400  0.840400  0.677600  1.0  -0.1426
  C  C76  1  0.480350  0.928300  0.476820  1.0  0.5707
  C  C77  1  0.111560  0.922920  0.617740  1.0  0.6977
  C  C78  1  0.033420  0.798440  0.722500  1.0  -0.1454
  C  C79  1  0.647700  0.550800  0.583600  1.0  0.1673
  C  C80  1  0.762900  0.429800  0.505700  1.0  0.1722
  C  C81  1  0.710080  0.647760  0.545000  1.0  -0.1558
  C  C82  1  0.830200  0.523200  0.464100  1.0  -0.1445
  C  C83  1  0.292390  0.147580  0.826140  1.0  -0.0414
  C  C84  1  0.206730  0.925660  0.231960  1.0  0.5868
  C  C85  1  0.144920  0.250040  0.049200  1.0  0.6786
  C  C86  1  0.332300  0.262000  0.724900  1.0  0.1819
  C  C87  1  0.534600  0.218600  0.767100  1.0  0.1735
  C  C88  1  0.170730  0.364060  0.014500  1.0  -0.0369
  C  C89  1  0.447000  0.159600  0.822400  1.0  -0.142
  C  C90  1  0.552050  0.071700  0.023180  1.0  0.571
  C  C91  1  0.188640  0.077080  0.882260  1.0  0.6978
  C  C92  1  0.234980  0.201560  0.777500  1.0  -0.1454
  C  C93  1  0.096900  0.449200  0.916400  1.0  0.1688
  C  C94  1  0.333100  0.570200  0.994300  1.0  0.1724
  C  C95  1  0.062320  0.352240  0.955000  1.0  -0.1549
  C  C96  1  0.307000  0.476800  0.035900  1.0  -0.1453
  N  N97  1  0.789660  0.267720  0.217600  1.0  -0.2974
  N  N98  1  0.324000  0.555600  0.433800  1.0  -0.2974
  N  N99  1  0.521940  0.732280  0.282400  1.0  -0.2986
  N  N100  1  0.768400  0.444400  0.066200  1.0  -0.2975
  N  N101  1  0.210340  0.732280  0.782400  1.0  -0.2967
  N  N102  1  0.676000  0.444400  0.566200  1.0  -0.297
  N  N103  1  0.478060  0.267720  0.717600  1.0  -0.2982
  N  N104  1  0.231600  0.555600  0.933800  1.0  -0.2972
  O  O105  1  0.637330  0.127060  0.577140  1.0  -0.6645
  O  O106  1  0.677690  0.884380  0.656750  1.0  -0.6323
  O  O107  1  0.814680  0.073360  0.443780  1.0  -0.6842
  O  O108  1  0.125930  0.146460  0.524660  1.0  -0.7686
  O  O109  1  0.432870  0.121940  0.504090  1.0  -0.6046
  O  O110  1  0.990010  0.030620  0.363180  1.0  -0.7063
  O  O111  1  0.702360  0.858720  0.781480  1.0  -0.6456
  O  O112  1  0.006730  0.260660  0.597780  1.0  -0.6316
  O  O113  1  0.510270  0.872940  0.922860  1.0  -0.6674
  O  O114  1  0.793310  0.115620  0.843250  1.0  -0.6321
  O  O115  1  0.741320  0.926640  0.056220  1.0  -0.6845
  O  O116  1  0.979470  0.853540  0.975340  1.0  -0.7678
  O  O117  1  0.310930  0.878060  0.995910  1.0  -0.6052
  O  O118  1  0.959390  0.969380  0.136820  1.0  -0.7058
  O  O119  1  0.843640  0.141280  0.718520  1.0  -0.6471
  O  O120  1  0.746070  0.739340  0.902220  1.0  -0.6311
  O  O121  1  0.362670  0.872940  0.422860  1.0  -0.6658
  O  O122  1  0.322310  0.115620  0.343250  1.0  -0.6319
  O  O123  1  0.185320  0.926640  0.556220  1.0  -0.6843
  O  O124  1  0.874070  0.853540  0.475340  1.0  -0.767
  O  O125  1  0.567130  0.878060  0.495910  1.0  -0.6048
  O  O126  1  0.009990  0.969380  0.636820  1.0  -0.7079
  O  O127  1  0.297640  0.141280  0.218520  1.0  -0.646
  O  O128  1  0.993270  0.739340  0.402220  1.0  -0.631
  O  O129  1  0.489730  0.127060  0.077140  1.0  -0.6643
  O  O130  1  0.206690  0.884380  0.156750  1.0  -0.6321
  O  O131  1  0.258680  0.073360  0.943780  1.0  -0.6847
  O  O132  1  0.020530  0.146460  0.024660  1.0  -0.7678
  O  O133  1  0.689070  0.121940  0.004090  1.0  -0.6042
  O  O134  1  0.040610  0.030620  0.863180  1.0  -0.7084
  O  O135  1  0.156360  0.858720  0.281480  1.0  -0.6467
  O  O136  1  0.253930  0.260660  0.097780  1.0  -0.6309
