# generated using pymatgen
data_Tb2H18(C5O4)3
_symmetry_space_group_name_H-M   'P 1'
_cell_length_a   7.94200000
_cell_length_b   8.46430000
_cell_length_c   19.64400000
_cell_angle_alpha   87.86990000
_cell_angle_beta   85.45590000
_cell_angle_gamma   62.02110000
_symmetry_Int_Tables_number   1
_chemical_formula_structural   Tb2H18(C5O4)3
_chemical_formula_sum   'Tb4 H36 C30 O24'
_cell_volume   1162.52819333
_cell_formula_units_Z   2
loop_
 _symmetry_equiv_pos_site_id
 _symmetry_equiv_pos_as_xyz
  1  'x, y, z'
loop_
 _atom_site_type_symbol
 _atom_site_label
 _atom_site_symmetry_multiplicity
 _atom_site_fract_x
 _atom_site_fract_y
 _atom_site_fract_z
 _atom_site_occupancy
 _atom_site_charge
  Tb  Tb1  1  0.793450  0.925740  0.487740  1.0  2.272
  Tb  Tb2  1  0.280810  0.925740  0.012260  1.0  2.2716
  Tb  Tb3  1  0.206550  0.074260  0.512260  1.0  2.272
  Tb  Tb4  1  0.719190  0.074260  0.987740  1.0  2.2722
  H  H5  1  0.244700  0.533800  0.321800  1.0  0.1071
  H  H6  1  0.055700  0.551600  0.295200  1.0  0.1021
  H  H7  1  0.009700  0.806800  0.234500  1.0  0.0871
  H  H8  1  0.678800  0.529000  0.461000  1.0  0.1296
  H  H9  1  0.851200  0.439200  0.406500  1.0  0.1189
  H  H10  1  0.640800  0.456800  0.325300  1.0  0.0736
  H  H11  1  0.468000  0.546000  0.379800  1.0  0.0827
  H  H12  1  0.505900  0.759800  0.302400  1.0  0.1018
  H  H13  1  0.696400  0.714000  0.336200  1.0  0.0985
  H  H14  1  0.221500  0.533800  0.178200  1.0  0.1056
  H  H15  1  0.392700  0.551600  0.204800  1.0  0.1016
  H  H16  1  0.183500  0.806800  0.265500  1.0  0.0869
  H  H17  1  0.792200  0.529000  0.039000  1.0  0.1292
  H  H18  1  0.709600  0.439200  0.093500  1.0  0.1183
  H  H19  1  0.902400  0.456800  0.174700  1.0  0.0742
  H  H20  1  0.986000  0.546000  0.120200  1.0  0.0835
  H  H21  1  0.734300  0.759800  0.197600  1.0  0.1
  H  H22  1  0.589600  0.714000  0.163800  1.0  0.1007
  H  H23  1  0.755300  0.466200  0.678200  1.0  0.1065
  H  H24  1  0.944300  0.448400  0.704800  1.0  0.1017
  H  H25  1  0.990300  0.193200  0.765500  1.0  0.0878
  H  H26  1  0.321200  0.471000  0.539000  1.0  0.1298
  H  H27  1  0.148800  0.560800  0.593500  1.0  0.1185
  H  H28  1  0.359200  0.543200  0.674700  1.0  0.0729
  H  H29  1  0.532000  0.454000  0.620200  1.0  0.084
  H  H30  1  0.494100  0.240200  0.697600  1.0  0.1011
  H  H31  1  0.303600  0.286000  0.663800  1.0  0.1012
  H  H32  1  0.778500  0.466200  0.821800  1.0  0.1062
  H  H33  1  0.607300  0.448400  0.795200  1.0  0.1022
  H  H34  1  0.816500  0.193200  0.734500  1.0  0.0874
  H  H35  1  0.207800  0.471000  0.961000  1.0  0.1298
  H  H36  1  0.290400  0.560800  0.906500  1.0  0.1187
  H  H37  1  0.097600  0.543200  0.825300  1.0  0.074
  H  H38  1  0.014000  0.454000  0.879800  1.0  0.083
  H  H39  1  0.265700  0.240200  0.802400  1.0  0.1028
  H  H40  1  0.410400  0.286000  0.836200  1.0  0.0994
  C  C41  1  0.006000  0.726600  0.371900  1.0  0.7397
  C  C42  1  0.117300  0.619000  0.309600  1.0  -0.3307
  C  C43  1  0.752500  0.269200  0.443800  1.0  0.7819
  C  C44  1  0.727200  0.449800  0.421800  1.0  -0.3784
  C  C45  1  0.592600  0.534600  0.364900  1.0  -0.0473
  C  C46  1  0.570900  0.721200  0.344300  1.0  -0.3082
  C  C47  1  0.459400  0.853800  0.399600  1.0  0.7872
  C  C48  1  0.267400  0.726600  0.128100  1.0  0.7411
  C  C49  1  0.263700  0.619000  0.190400  1.0  -0.3332
  C  C50  1  0.978300  0.269200  0.056200  1.0  0.783
  C  C51  1  0.823000  0.449800  0.078200  1.0  -0.3797
  C  C52  1  0.872800  0.534600  0.135100  1.0  -0.0453
  C  C53  1  0.707900  0.721200  0.155700  1.0  -0.3051
  C  C54  1  0.686800  0.853800  0.100400  1.0  0.7879
  C  C55  1  0.994000  0.273400  0.628100  1.0  0.7417
  C  C56  1  0.882700  0.381000  0.690400  1.0  -0.3333
  C  C57  1  0.247500  0.730800  0.556200  1.0  0.7848
  C  C58  1  0.272800  0.550200  0.578200  1.0  -0.3793
  C  C59  1  0.407400  0.465400  0.635100  1.0  -0.0445
  C  C60  1  0.429100  0.278800  0.655700  1.0  -0.3027
  C  C61  1  0.540600  0.146200  0.600400  1.0  0.7869
  C  C62  1  0.732600  0.273400  0.871900  1.0  0.7401
  C  C63  1  0.736300  0.381000  0.809600  1.0  -0.3332
  C  C64  1  0.021700  0.730800  0.943800  1.0  0.7833
  C  C65  1  0.177000  0.550200  0.921800  1.0  -0.3788
  C  C66  1  0.127200  0.465400  0.864900  1.0  -0.046
  C  C67  1  0.292100  0.278800  0.844300  1.0  -0.3071
  C  C68  1  0.313200  0.146200  0.899600  1.0  0.7872
  C  C69  1  0.134400  0.731200  0.250000  1.0  -0.0331
  C  C70  1  0.865600  0.268800  0.750000  1.0  -0.0349
  O  O71  1  0.906700  0.892200  0.369200  1.0  -0.6469
  O  O72  1  0.011100  0.644800  0.428300  1.0  -0.6955
  O  O73  1  0.619300  0.226600  0.441300  1.0  -0.6732
  O  O74  1  0.910400  0.155600  0.466400  1.0  -0.8553
  O  O75  1  0.539000  0.910400  0.439400  1.0  -0.8791
  O  O76  1  0.282000  0.905800  0.408300  1.0  -0.6547
  O  O77  1  0.201100  0.892200  0.130800  1.0  -0.6474
  O  O78  1  0.344100  0.644800  0.071700  1.0  -0.6913
  O  O79  1  0.154100  0.226600  0.058700  1.0  -0.6739
  O  O80  1  0.934000  0.155600  0.033600  1.0  -0.8549
  O  O81  1  0.550600  0.910400  0.060600  1.0  -0.8765
  O  O82  1  0.812200  0.905800  0.091700  1.0  -0.6559
  O  O83  1  0.093300  0.107800  0.630800  1.0  -0.6464
  O  O84  1  0.988900  0.355200  0.571700  1.0  -0.6899
  O  O85  1  0.380700  0.773400  0.558700  1.0  -0.674
  O  O86  1  0.089600  0.844400  0.533600  1.0  -0.8541
  O  O87  1  0.461000  0.089600  0.560600  1.0  -0.8841
  O  O88  1  0.718000  0.094200  0.591700  1.0  -0.6563
  O  O89  1  0.798900  0.107800  0.869200  1.0  -0.6466
  O  O90  1  0.655900  0.355200  0.928300  1.0  -0.6967
  O  O91  1  0.845900  0.773400  0.941300  1.0  -0.6727
  O  O92  1  0.066000  0.844400  0.966400  1.0  -0.8537
  O  O93  1  0.449400  0.089600  0.939400  1.0  -0.8846
  O  O94  1  0.187800  0.094200  0.908300  1.0  -0.656
