# generated using pymatgen
data_CoH8(C3O2)2
_symmetry_space_group_name_H-M   'P 1'
_cell_length_a   28.36500000
_cell_length_b   28.36500000
_cell_length_c   13.36100000
_cell_angle_alpha   90.00000000
_cell_angle_beta   90.00000000
_cell_angle_gamma   90.00000000
_symmetry_Int_Tables_number   1
_chemical_formula_structural   CoH8(C3O2)2
_chemical_formula_sum   'Co32 H256 C192 O128'
_cell_volume   10749.90285922
_cell_formula_units_Z   32
loop_
 _symmetry_equiv_pos_site_id
 _symmetry_equiv_pos_as_xyz
  1  'x, y, z'
loop_
 _atom_site_type_symbol
 _atom_site_label
 _atom_site_symmetry_multiplicity
 _atom_site_fract_x
 _atom_site_fract_y
 _atom_site_fract_z
 _atom_site_occupancy
 _atom_site_charge
  Co  Co1  1  0.858170  0.993610  0.594780  1.0  1.084
  Co  Co2  1  0.813240  0.095660  0.616920  1.0  0.9045
  Co  Co3  1  0.358170  0.493610  0.094780  1.0  1.084
  Co  Co4  1  0.313240  0.595660  0.116920  1.0  0.9045
  Co  Co5  1  0.641830  0.006390  0.094780  1.0  1.0852
  Co  Co6  1  0.686760  0.904340  0.116920  1.0  0.9024
  Co  Co7  1  0.141830  0.506390  0.594780  1.0  1.0852
  Co  Co8  1  0.186760  0.404340  0.616920  1.0  0.9024
  Co  Co9  1  0.756390  0.108170  0.844780  1.0  1.0833
  Co  Co10  1  0.654340  0.063240  0.866920  1.0  0.9041
  Co  Co11  1  0.256390  0.608170  0.344780  1.0  1.0833
  Co  Co12  1  0.154340  0.563240  0.366920  1.0  0.9041
  Co  Co13  1  0.743610  0.891830  0.344780  1.0  1.0834
  Co  Co14  1  0.845660  0.936760  0.366920  1.0  0.9044
  Co  Co15  1  0.243610  0.391830  0.844780  1.0  1.0834
  Co  Co16  1  0.345660  0.436760  0.866920  1.0  0.9044
  Co  Co17  1  0.141830  0.006390  0.405220  1.0  1.0858
  Co  Co18  1  0.186760  0.904340  0.383080  1.0  0.9034
  Co  Co19  1  0.641830  0.506390  0.905220  1.0  1.0858
  Co  Co20  1  0.686760  0.404340  0.883080  1.0  0.9034
  Co  Co21  1  0.358170  0.993610  0.905220  1.0  1.0849
  Co  Co22  1  0.313240  0.095660  0.883080  1.0  0.904
  Co  Co23  1  0.858170  0.493610  0.405220  1.0  1.0849
  Co  Co24  1  0.813240  0.595660  0.383080  1.0  0.904
  Co  Co25  1  0.243610  0.891830  0.155220  1.0  1.0843
  Co  Co26  1  0.345660  0.936760  0.133080  1.0  0.9039
  Co  Co27  1  0.743610  0.391830  0.655220  1.0  1.0843
  Co  Co28  1  0.845660  0.436760  0.633080  1.0  0.9039
  Co  Co29  1  0.256390  0.108170  0.655220  1.0  1.084
  Co  Co30  1  0.154340  0.063240  0.633080  1.0  0.9046
  Co  Co31  1  0.756390  0.608170  0.155220  1.0  1.084
  Co  Co32  1  0.654340  0.563240  0.133080  1.0  0.9046
  H  H33  1  0.808900  0.109300  0.372400  1.0  0.1192
  H  H34  1  0.760500  0.082000  0.392200  1.0  0.1111
  H  H35  1  0.767000  0.043700  0.236600  1.0  0.0893
  H  H36  1  0.816800  0.068700  0.217100  1.0  0.0754
  H  H37  1  0.777800  0.143700  0.220500  1.0  0.0837
  H  H38  1  0.728500  0.116900  0.231300  1.0  0.0796
  H  H39  1  0.749000  0.143000  0.062800  1.0  0.1337
  H  H40  1  0.788000  0.102400  0.062100  1.0  0.1344
  H  H41  1  0.982800  0.086200  0.682000  1.0  0.1236
  H  H42  1  0.961300  0.135200  0.644200  1.0  0.1067
  H  H43  1  0.006200  0.065900  0.520200  1.0  0.0884
  H  H44  1  0.978300  0.109700  0.473400  1.0  0.0869
  H  H45  1  0.058500  0.118900  0.602300  1.0  0.0909
  H  H46  1  0.030700  0.162600  0.554800  1.0  0.0875
  H  H47  1  0.053900  0.136900  0.391700  1.0  0.1207
  H  H48  1  0.097800  0.151600  0.459700  1.0  0.1167
  H  H49  1  0.308900  0.609300  0.872400  1.0  0.1192
  H  H50  1  0.260500  0.582000  0.892200  1.0  0.1111
  H  H51  1  0.267000  0.543700  0.736600  1.0  0.0893
  H  H52  1  0.316800  0.568700  0.717100  1.0  0.0754
  H  H53  1  0.277800  0.643700  0.720500  1.0  0.0837
  H  H54  1  0.228500  0.616900  0.731300  1.0  0.0796
  H  H55  1  0.249000  0.643000  0.562800  1.0  0.1337
  H  H56  1  0.288000  0.602400  0.562100  1.0  0.1344
  H  H57  1  0.482800  0.586200  0.182000  1.0  0.1236
  H  H58  1  0.461300  0.635200  0.144200  1.0  0.1067
  H  H59  1  0.506200  0.565900  0.020200  1.0  0.0884
  H  H60  1  0.478300  0.609700  0.973400  1.0  0.0869
  H  H61  1  0.558500  0.618900  0.102300  1.0  0.0909
  H  H62  1  0.530700  0.662600  0.054800  1.0  0.0875
  H  H63  1  0.553900  0.636900  0.891700  1.0  0.1207
  H  H64  1  0.597800  0.651600  0.959700  1.0  0.1167
  H  H65  1  0.691100  0.890700  0.872400  1.0  0.12
  H  H66  1  0.739500  0.918000  0.892200  1.0  0.1127
  H  H67  1  0.733000  0.956300  0.736600  1.0  0.0876
  H  H68  1  0.683200  0.931300  0.717100  1.0  0.0705
  H  H69  1  0.722200  0.856300  0.720500  1.0  0.0842
  H  H70  1  0.771500  0.883100  0.731300  1.0  0.0787
  H  H71  1  0.751000  0.857000  0.562800  1.0  0.1325
  H  H72  1  0.712000  0.897600  0.562100  1.0  0.1347
  H  H73  1  0.517200  0.913800  0.182000  1.0  0.1231
  H  H74  1  0.538700  0.864800  0.144200  1.0  0.1069
  H  H75  1  0.493800  0.934100  0.020200  1.0  0.0862
  H  H76  1  0.521700  0.890300  0.973400  1.0  0.0861
  H  H77  1  0.441500  0.881100  0.102300  1.0  0.0918
  H  H78  1  0.469300  0.837400  0.054800  1.0  0.0857
  H  H79  1  0.446100  0.863100  0.891700  1.0  0.1214
  H  H80  1  0.402200  0.848400  0.959700  1.0  0.1176
  H  H81  1  0.191100  0.390700  0.372400  1.0  0.12
  H  H82  1  0.239500  0.418000  0.392200  1.0  0.1127
  H  H83  1  0.233000  0.456300  0.236600  1.0  0.0876
  H  H84  1  0.183200  0.431300  0.217100  1.0  0.0705
  H  H85  1  0.222200  0.356300  0.220500  1.0  0.0842
  H  H86  1  0.271500  0.383100  0.231300  1.0  0.0787
  H  H87  1  0.251000  0.357000  0.062800  1.0  0.1325
  H  H88  1  0.212000  0.397600  0.062100  1.0  0.1347
  H  H89  1  0.017200  0.413800  0.682000  1.0  0.1231
  H  H90  1  0.038700  0.364800  0.644200  1.0  0.1069
  H  H91  1  0.993800  0.434100  0.520200  1.0  0.0862
  H  H92  1  0.021700  0.390300  0.473400  1.0  0.0861
  H  H93  1  0.941500  0.381100  0.602300  1.0  0.0918
  H  H94  1  0.969300  0.337400  0.554800  1.0  0.0857
  H  H95  1  0.946100  0.363100  0.391700  1.0  0.1214
  H  H96  1  0.902200  0.348400  0.459700  1.0  0.1176
  H  H97  1  0.640700  0.058900  0.622400  1.0  0.1202
  H  H98  1  0.668000  0.010500  0.642200  1.0  0.1118
  H  H99  1  0.706300  0.017000  0.486600  1.0  0.0899
  H  H100  1  0.681300  0.066800  0.467100  1.0  0.076
  H  H101  1  0.606300  0.027800  0.470500  1.0  0.0817
  H  H102  1  0.633100  0.978500  0.481300  1.0  0.0845
  H  H103  1  0.607000  0.999000  0.312800  1.0  0.1325
  H  H104  1  0.647600  0.038000  0.312100  1.0  0.1355
  H  H105  1  0.663800  0.232800  0.932000  1.0  0.1233
  H  H106  1  0.614800  0.211300  0.894200  1.0  0.1045
  H  H107  1  0.684100  0.256200  0.770200  1.0  0.0828
  H  H108  1  0.640300  0.228300  0.723400  1.0  0.0872
  H  H109  1  0.631100  0.308500  0.852300  1.0  0.0912
  H  H110  1  0.587400  0.280700  0.804800  1.0  0.0871
  H  H111  1  0.613100  0.303900  0.641700  1.0  0.1205
  H  H112  1  0.598400  0.347800  0.709700  1.0  0.1168
  H  H113  1  0.140700  0.558900  0.122400  1.0  0.1202
  H  H114  1  0.168000  0.510500  0.142200  1.0  0.1118
  H  H115  1  0.206300  0.517000  0.986600  1.0  0.0899
  H  H116  1  0.181300  0.566800  0.967100  1.0  0.076
  H  H117  1  0.106300  0.527800  0.970500  1.0  0.0817
  H  H118  1  0.133100  0.478500  0.981300  1.0  0.0845
  H  H119  1  0.107000  0.499000  0.812800  1.0  0.1325
  H  H120  1  0.147600  0.538000  0.812100  1.0  0.1355
  H  H121  1  0.163800  0.732800  0.432000  1.0  0.1233
  H  H122  1  0.114800  0.711300  0.394200  1.0  0.1045
  H  H123  1  0.184100  0.756200  0.270200  1.0  0.0828
  H  H124  1  0.140300  0.728300  0.223400  1.0  0.0872
  H  H125  1  0.131100  0.808500  0.352300  1.0  0.0912
  H  H126  1  0.087400  0.780700  0.304800  1.0  0.0871
  H  H127  1  0.113100  0.803900  0.141700  1.0  0.1205
  H  H128  1  0.098400  0.847800  0.209700  1.0  0.1168
  H  H129  1  0.859300  0.941100  0.122400  1.0  0.1191
  H  H130  1  0.832000  0.989500  0.142200  1.0  0.1101
  H  H131  1  0.793700  0.983000  0.986600  1.0  0.0899
  H  H132  1  0.818700  0.933200  0.967100  1.0  0.0727
  H  H133  1  0.893700  0.972200  0.970500  1.0  0.082
  H  H134  1  0.866900  0.021500  0.981300  1.0  0.0835
  H  H135  1  0.893000  0.001000  0.812800  1.0  0.132
  H  H136  1  0.852400  0.962000  0.812100  1.0  0.1349
  H  H137  1  0.836200  0.767200  0.432000  1.0  0.1236
  H  H138  1  0.885200  0.788700  0.394200  1.0  0.1043
  H  H139  1  0.815900  0.743800  0.270200  1.0  0.0842
  H  H140  1  0.859700  0.771700  0.223400  1.0  0.0874
  H  H141  1  0.868900  0.691500  0.352300  1.0  0.0909
  H  H142  1  0.912600  0.719300  0.304800  1.0  0.0873
  H  H143  1  0.886900  0.696100  0.141700  1.0  0.1219
  H  H144  1  0.901600  0.652200  0.209700  1.0  0.1161
  H  H145  1  0.359300  0.441100  0.622400  1.0  0.1191
  H  H146  1  0.332000  0.489500  0.642200  1.0  0.1101
  H  H147  1  0.293700  0.483000  0.486600  1.0  0.0899
  H  H148  1  0.318700  0.433200  0.467100  1.0  0.0727
  H  H149  1  0.393700  0.472200  0.470500  1.0  0.082
  H  H150  1  0.366900  0.521500  0.481300  1.0  0.0835
  H  H151  1  0.393000  0.501000  0.312800  1.0  0.132
  H  H152  1  0.352400  0.462000  0.312100  1.0  0.1349
  H  H153  1  0.336200  0.267200  0.932000  1.0  0.1236
  H  H154  1  0.385200  0.288700  0.894200  1.0  0.1043
  H  H155  1  0.315900  0.243800  0.770200  1.0  0.0842
  H  H156  1  0.359700  0.271700  0.723400  1.0  0.0874
  H  H157  1  0.368900  0.191500  0.852300  1.0  0.0909
  H  H158  1  0.412600  0.219300  0.804800  1.0  0.0873
  H  H159  1  0.386900  0.196100  0.641700  1.0  0.1219
  H  H160  1  0.401600  0.152200  0.709700  1.0  0.1161
  H  H161  1  0.191100  0.890700  0.627600  1.0  0.1191
  H  H162  1  0.239500  0.918000  0.607800  1.0  0.1129
  H  H163  1  0.233000  0.956300  0.763400  1.0  0.0877
  H  H164  1  0.183200  0.931300  0.782900  1.0  0.07
  H  H165  1  0.222200  0.856300  0.779500  1.0  0.0835
  H  H166  1  0.271500  0.883100  0.768700  1.0  0.0791
  H  H167  1  0.251000  0.857000  0.937200  1.0  0.1335
  H  H168  1  0.212000  0.897600  0.937900  1.0  0.1349
  H  H169  1  0.017200  0.913800  0.318000  1.0  0.1232
  H  H170  1  0.038700  0.864800  0.355800  1.0  0.1068
  H  H171  1  0.993800  0.934100  0.479800  1.0  0.0863
  H  H172  1  0.021700  0.890300  0.526600  1.0  0.0884
  H  H173  1  0.941500  0.881100  0.397700  1.0  0.0916
  H  H174  1  0.969300  0.837400  0.445200  1.0  0.0853
  H  H175  1  0.946100  0.863100  0.608300  1.0  0.1219
  H  H176  1  0.902200  0.848400  0.540300  1.0  0.1182
  H  H177  1  0.691100  0.390700  0.127600  1.0  0.1191
  H  H178  1  0.739500  0.418000  0.107800  1.0  0.1129
  H  H179  1  0.733000  0.456300  0.263400  1.0  0.0877
  H  H180  1  0.683200  0.431300  0.282900  1.0  0.07
  H  H181  1  0.722200  0.356300  0.279500  1.0  0.0835
  H  H182  1  0.771500  0.383100  0.268700  1.0  0.0791
  H  H183  1  0.751000  0.357000  0.437200  1.0  0.1335
  H  H184  1  0.712000  0.397600  0.437900  1.0  0.1349
  H  H185  1  0.517200  0.413800  0.818000  1.0  0.1232
  H  H186  1  0.538700  0.364800  0.855800  1.0  0.1068
  H  H187  1  0.493800  0.434100  0.979800  1.0  0.0863
  H  H188  1  0.521700  0.390300  0.026600  1.0  0.0884
  H  H189  1  0.441500  0.381100  0.897700  1.0  0.0916
  H  H190  1  0.469300  0.337400  0.945200  1.0  0.0853
  H  H191  1  0.446100  0.363100  0.108300  1.0  0.1219
  H  H192  1  0.402200  0.348400  0.040300  1.0  0.1182
  H  H193  1  0.308900  0.109300  0.127600  1.0  0.1198
  H  H194  1  0.260500  0.082000  0.107800  1.0  0.1125
  H  H195  1  0.267000  0.043700  0.263400  1.0  0.0892
  H  H196  1  0.316800  0.068700  0.282900  1.0  0.0753
  H  H197  1  0.277800  0.143700  0.279500  1.0  0.0843
  H  H198  1  0.228500  0.116900  0.268700  1.0  0.0805
  H  H199  1  0.249000  0.143000  0.437200  1.0  0.1338
  H  H200  1  0.288000  0.102400  0.437900  1.0  0.1341
  H  H201  1  0.482800  0.086200  0.818000  1.0  0.1228
  H  H202  1  0.461300  0.135200  0.855800  1.0  0.1064
  H  H203  1  0.506200  0.065900  0.979800  1.0  0.0887
  H  H204  1  0.478300  0.109700  0.026600  1.0  0.0881
  H  H205  1  0.558500  0.118900  0.897700  1.0  0.0901
  H  H206  1  0.530700  0.162600  0.945200  1.0  0.0878
  H  H207  1  0.553900  0.136900  0.108300  1.0  0.1219
  H  H208  1  0.597800  0.151600  0.040300  1.0  0.1167
  H  H209  1  0.808900  0.609300  0.627600  1.0  0.1198
  H  H210  1  0.760500  0.582000  0.607800  1.0  0.1125
  H  H211  1  0.767000  0.543700  0.763400  1.0  0.0892
  H  H212  1  0.816800  0.568700  0.782900  1.0  0.0753
  H  H213  1  0.777800  0.643700  0.779500  1.0  0.0843
  H  H214  1  0.728500  0.616900  0.768700  1.0  0.0805
  H  H215  1  0.749000  0.643000  0.937200  1.0  0.1338
  H  H216  1  0.788000  0.602400  0.937900  1.0  0.1341
  H  H217  1  0.982800  0.586200  0.318000  1.0  0.1228
  H  H218  1  0.961300  0.635200  0.355800  1.0  0.1064
  H  H219  1  0.006200  0.565900  0.479800  1.0  0.0887
  H  H220  1  0.978300  0.609700  0.526600  1.0  0.0881
  H  H221  1  0.058500  0.618900  0.397700  1.0  0.0901
  H  H222  1  0.030700  0.662600  0.445200  1.0  0.0878
  H  H223  1  0.053900  0.636900  0.608300  1.0  0.1219
  H  H224  1  0.097800  0.651600  0.540300  1.0  0.1167
  H  H225  1  0.359300  0.941100  0.377600  1.0  0.1189
  H  H226  1  0.332000  0.989500  0.357800  1.0  0.1117
  H  H227  1  0.293700  0.983000  0.513400  1.0  0.0898
  H  H228  1  0.318700  0.933200  0.532900  1.0  0.0731
  H  H229  1  0.393700  0.972200  0.529500  1.0  0.0816
  H  H230  1  0.366900  0.021500  0.518700  1.0  0.0849
  H  H231  1  0.393000  0.001000  0.687200  1.0  0.1325
  H  H232  1  0.352400  0.962000  0.687900  1.0  0.1353
  H  H233  1  0.336200  0.767200  0.068000  1.0  0.1227
  H  H234  1  0.385200  0.788700  0.105800  1.0  0.1039
  H  H235  1  0.315900  0.743800  0.229800  1.0  0.0841
  H  H236  1  0.359700  0.771700  0.276600  1.0  0.0888
  H  H237  1  0.368900  0.691500  0.147700  1.0  0.0901
  H  H238  1  0.412600  0.719300  0.195200  1.0  0.0876
  H  H239  1  0.386900  0.696100  0.358300  1.0  0.1222
  H  H240  1  0.401600  0.652200  0.290300  1.0  0.1163
  H  H241  1  0.859300  0.441100  0.877600  1.0  0.1189
  H  H242  1  0.832000  0.489500  0.857800  1.0  0.1117
  H  H243  1  0.793700  0.483000  0.013400  1.0  0.0898
  H  H244  1  0.818700  0.433200  0.032900  1.0  0.0731
  H  H245  1  0.893700  0.472200  0.029500  1.0  0.0816
  H  H246  1  0.866900  0.521500  0.018700  1.0  0.0849
  H  H247  1  0.893000  0.501000  0.187200  1.0  0.1325
  H  H248  1  0.852400  0.462000  0.187900  1.0  0.1353
  H  H249  1  0.836200  0.267200  0.568000  1.0  0.1227
  H  H250  1  0.885200  0.288700  0.605800  1.0  0.1039
  H  H251  1  0.815900  0.243800  0.729800  1.0  0.0841
  H  H252  1  0.859700  0.271700  0.776600  1.0  0.0888
  H  H253  1  0.868900  0.191500  0.647700  1.0  0.0901
  H  H254  1  0.912600  0.219300  0.695200  1.0  0.0876
  H  H255  1  0.886900  0.196100  0.858300  1.0  0.1222
  H  H256  1  0.901600  0.152200  0.790300  1.0  0.1163
  H  H257  1  0.140700  0.058900  0.877600  1.0  0.1201
  H  H258  1  0.168000  0.010500  0.857800  1.0  0.1115
  H  H259  1  0.206300  0.017000  0.013400  1.0  0.0903
  H  H260  1  0.181300  0.066800  0.032900  1.0  0.0763
  H  H261  1  0.106300  0.027800  0.029500  1.0  0.0819
  H  H262  1  0.133100  0.978500  0.018700  1.0  0.084
  H  H263  1  0.107000  0.999000  0.187200  1.0  0.133
  H  H264  1  0.147600  0.038000  0.187900  1.0  0.1356
  H  H265  1  0.163800  0.232800  0.568000  1.0  0.1229
  H  H266  1  0.114800  0.211300  0.605800  1.0  0.1043
  H  H267  1  0.184100  0.256200  0.729800  1.0  0.083
  H  H268  1  0.140300  0.228300  0.776600  1.0  0.0897
  H  H269  1  0.131100  0.308500  0.647700  1.0  0.0907
  H  H270  1  0.087400  0.280700  0.695200  1.0  0.0866
  H  H271  1  0.113100  0.303900  0.858300  1.0  0.1226
  H  H272  1  0.098400  0.347800  0.790300  1.0  0.117
  H  H273  1  0.640700  0.558900  0.377600  1.0  0.1201
  H  H274  1  0.668000  0.510500  0.357800  1.0  0.1115
  H  H275  1  0.706300  0.517000  0.513400  1.0  0.0903
  H  H276  1  0.681300  0.566800  0.532900  1.0  0.0763
  H  H277  1  0.606300  0.527800  0.529500  1.0  0.0819
  H  H278  1  0.633100  0.478500  0.518700  1.0  0.084
  H  H279  1  0.607000  0.499000  0.687200  1.0  0.133
  H  H280  1  0.647600  0.538000  0.687900  1.0  0.1356
  H  H281  1  0.663800  0.732800  0.068000  1.0  0.1229
  H  H282  1  0.614800  0.711300  0.105800  1.0  0.1043
  H  H283  1  0.684100  0.756200  0.229800  1.0  0.083
  H  H284  1  0.640300  0.728300  0.276600  1.0  0.0897
  H  H285  1  0.631100  0.808500  0.147700  1.0  0.0907
  H  H286  1  0.587400  0.780700  0.195200  1.0  0.0866
  H  H287  1  0.613100  0.803900  0.358300  1.0  0.1226
  H  H288  1  0.598400  0.847800  0.290300  1.0  0.117
  C  C289  1  0.818590  0.040290  0.411600  1.0  0.7602
  C  C290  1  0.792000  0.079240  0.360700  1.0  -0.3551
  C  C291  1  0.785570  0.072680  0.249000  1.0  -0.056
  C  C292  1  0.760560  0.114520  0.202600  1.0  -0.0499
  C  C293  1  0.756750  0.111300  0.089200  1.0  -0.374
  C  C294  1  0.720640  0.076700  0.050000  1.0  0.7623
  C  C295  1  0.918550  0.078700  0.613100  1.0  0.7819
  C  C296  1  0.965990  0.101690  0.626000  1.0  -0.2985
  C  C297  1  0.996710  0.099020  0.532000  1.0  -0.0647
  C  C298  1  0.040470  0.129570  0.543000  1.0  -0.0776
  C  C299  1  0.072510  0.127880  0.451300  1.0  -0.3258
  C  C300  1  0.094890  0.080440  0.432200  1.0  0.6972
  C  C301  1  0.318590  0.540290  0.911600  1.0  0.7602
  C  C302  1  0.292000  0.579240  0.860700  1.0  -0.3551
  C  C303  1  0.285570  0.572680  0.749000  1.0  -0.056
  C  C304  1  0.260560  0.614520  0.702600  1.0  -0.0499
  C  C305  1  0.256750  0.611300  0.589200  1.0  -0.374
  C  C306  1  0.220640  0.576700  0.550000  1.0  0.7623
  C  C307  1  0.418550  0.578700  0.113100  1.0  0.7819
  C  C308  1  0.465990  0.601690  0.126000  1.0  -0.2985
  C  C309  1  0.496710  0.599020  0.032000  1.0  -0.0647
  C  C310  1  0.540470  0.629570  0.043000  1.0  -0.0776
  C  C311  1  0.572510  0.627880  0.951300  1.0  -0.3258
  C  C312  1  0.594890  0.580440  0.932200  1.0  0.6972
  C  C313  1  0.681410  0.959710  0.911600  1.0  0.761
  C  C314  1  0.708000  0.920760  0.860700  1.0  -0.3562
  C  C315  1  0.714430  0.927320  0.749000  1.0  -0.0549
  C  C316  1  0.739440  0.885480  0.702600  1.0  -0.0482
  C  C317  1  0.743250  0.888700  0.589200  1.0  -0.3733
  C  C318  1  0.779360  0.923300  0.550000  1.0  0.7634
  C  C319  1  0.581450  0.921300  0.113100  1.0  0.7838
  C  C320  1  0.534010  0.898310  0.126000  1.0  -0.3001
  C  C321  1  0.503290  0.900980  0.032000  1.0  -0.0672
  C  C322  1  0.459530  0.870430  0.043000  1.0  -0.0769
  C  C323  1  0.427490  0.872120  0.951300  1.0  -0.3257
  C  C324  1  0.405110  0.919560  0.932200  1.0  0.697
  C  C325  1  0.181410  0.459710  0.411600  1.0  0.761
  C  C326  1  0.208000  0.420760  0.360700  1.0  -0.3562
  C  C327  1  0.214430  0.427320  0.249000  1.0  -0.0549
  C  C328  1  0.239440  0.385480  0.202600  1.0  -0.0482
  C  C329  1  0.243250  0.388700  0.089200  1.0  -0.3733
  C  C330  1  0.279360  0.423300  0.050000  1.0  0.7634
  C  C331  1  0.081450  0.421300  0.613100  1.0  0.7838
  C  C332  1  0.034010  0.398310  0.626000  1.0  -0.3001
  C  C333  1  0.003290  0.400980  0.532000  1.0  -0.0672
  C  C334  1  0.959530  0.370430  0.543000  1.0  -0.0769
  C  C335  1  0.927490  0.372120  0.451300  1.0  -0.3257
  C  C336  1  0.905110  0.419560  0.432200  1.0  0.697
  C  C337  1  0.709710  0.068590  0.661600  1.0  0.7636
  C  C338  1  0.670760  0.042000  0.610700  1.0  -0.3531
  C  C339  1  0.677320  0.035570  0.499000  1.0  -0.0538
  C  C340  1  0.635480  0.010560  0.452600  1.0  -0.0474
  C  C341  1  0.638700  0.006750  0.339200  1.0  -0.3721
  C  C342  1  0.673300  0.970640  0.300000  1.0  0.7628
  C  C343  1  0.671300  0.168550  0.863100  1.0  0.7847
  C  C344  1  0.648310  0.215990  0.876000  1.0  -0.2991
  C  C345  1  0.650980  0.246710  0.782000  1.0  -0.0645
  C  C346  1  0.620430  0.290470  0.793000  1.0  -0.0748
  C  C347  1  0.622120  0.322510  0.701300  1.0  -0.3225
  C  C348  1  0.669560  0.344890  0.682200  1.0  0.6956
  C  C349  1  0.209710  0.568590  0.161600  1.0  0.7636
  C  C350  1  0.170760  0.542000  0.110700  1.0  -0.3531
  C  C351  1  0.177320  0.535570  0.999000  1.0  -0.0538
  C  C352  1  0.135480  0.510560  0.952600  1.0  -0.0474
  C  C353  1  0.138700  0.506750  0.839200  1.0  -0.3721
  C  C354  1  0.173300  0.470640  0.800000  1.0  0.7628
  C  C355  1  0.171300  0.668550  0.363100  1.0  0.7847
  C  C356  1  0.148310  0.715990  0.376000  1.0  -0.2991
  C  C357  1  0.150980  0.746710  0.282000  1.0  -0.0645
  C  C358  1  0.120430  0.790470  0.293000  1.0  -0.0748
  C  C359  1  0.122120  0.822510  0.201300  1.0  -0.3225
  C  C360  1  0.169560  0.844890  0.182200  1.0  0.6956
  C  C361  1  0.790290  0.931410  0.161600  1.0  0.763
  C  C362  1  0.829240  0.958000  0.110700  1.0  -0.3543
  C  C363  1  0.822680  0.964430  0.999000  1.0  -0.0523
  C  C364  1  0.864520  0.989440  0.952600  1.0  -0.05
  C  C365  1  0.861300  0.993250  0.839200  1.0  -0.3714
  C  C366  1  0.826700  0.029360  0.800000  1.0  0.7644
  C  C367  1  0.828700  0.831450  0.363100  1.0  0.7856
  C  C368  1  0.851690  0.784010  0.376000  1.0  -0.2974
  C  C369  1  0.849020  0.753290  0.282000  1.0  -0.0634
  C  C370  1  0.879570  0.709530  0.293000  1.0  -0.0748
  C  C371  1  0.877880  0.677490  0.201300  1.0  -0.3232
  C  C372  1  0.830440  0.655110  0.182200  1.0  0.6951
  C  C373  1  0.290290  0.431410  0.661600  1.0  0.763
  C  C374  1  0.329240  0.458000  0.610700  1.0  -0.3543
  C  C375  1  0.322680  0.464430  0.499000  1.0  -0.0523
  C  C376  1  0.364520  0.489440  0.452600  1.0  -0.05
  C  C377  1  0.361300  0.493250  0.339200  1.0  -0.3714
  C  C378  1  0.326700  0.529360  0.300000  1.0  0.7644
  C  C379  1  0.328700  0.331450  0.863100  1.0  0.7856
  C  C380  1  0.351690  0.284010  0.876000  1.0  -0.2974
  C  C381  1  0.349020  0.253290  0.782000  1.0  -0.0634
  C  C382  1  0.379570  0.209530  0.793000  1.0  -0.0748
  C  C383  1  0.377880  0.177490  0.701300  1.0  -0.3232
  C  C384  1  0.330440  0.155110  0.682200  1.0  0.6951
  C  C385  1  0.181410  0.959710  0.588400  1.0  0.7613
  C  C386  1  0.208000  0.920760  0.639300  1.0  -0.3543
  C  C387  1  0.214430  0.927320  0.751000  1.0  -0.0556
  C  C388  1  0.239440  0.885480  0.797400  1.0  -0.0483
  C  C389  1  0.243250  0.888700  0.910800  1.0  -0.3737
  C  C390  1  0.279360  0.923300  0.950000  1.0  0.7638
  C  C391  1  0.081450  0.921300  0.386900  1.0  0.7841
  C  C392  1  0.034010  0.898310  0.374000  1.0  -0.2987
  C  C393  1  0.003290  0.900980  0.468000  1.0  -0.0663
  C  C394  1  0.959530  0.870430  0.457000  1.0  -0.0763
  C  C395  1  0.927490  0.872120  0.548700  1.0  -0.3269
  C  C396  1  0.905110  0.919560  0.567800  1.0  0.6975
  C  C397  1  0.681410  0.459710  0.088400  1.0  0.7613
  C  C398  1  0.708000  0.420760  0.139300  1.0  -0.3543
  C  C399  1  0.714430  0.427320  0.251000  1.0  -0.0556
  C  C400  1  0.739440  0.385480  0.297400  1.0  -0.0483
  C  C401  1  0.743250  0.388700  0.410800  1.0  -0.3737
  C  C402  1  0.779360  0.423300  0.450000  1.0  0.7638
  C  C403  1  0.581450  0.421300  0.886900  1.0  0.7841
  C  C404  1  0.534010  0.398310  0.874000  1.0  -0.2987
  C  C405  1  0.503290  0.400980  0.968000  1.0  -0.0663
  C  C406  1  0.459530  0.370430  0.957000  1.0  -0.0763
  C  C407  1  0.427490  0.372120  0.048700  1.0  -0.3269
  C  C408  1  0.405110  0.419560  0.067800  1.0  0.6975
  C  C409  1  0.318590  0.040290  0.088400  1.0  0.7592
  C  C410  1  0.292000  0.079240  0.139300  1.0  -0.3545
  C  C411  1  0.285570  0.072680  0.251000  1.0  -0.0564
  C  C412  1  0.260560  0.114520  0.297400  1.0  -0.0505
  C  C413  1  0.256750  0.111300  0.410800  1.0  -0.3745
  C  C414  1  0.220640  0.076700  0.450000  1.0  0.7624
  C  C415  1  0.418550  0.078700  0.886900  1.0  0.7818
  C  C416  1  0.465990  0.101690  0.874000  1.0  -0.3006
  C  C417  1  0.496710  0.099020  0.968000  1.0  -0.0657
  C  C418  1  0.540470  0.129570  0.957000  1.0  -0.0749
  C  C419  1  0.572510  0.127880  0.048700  1.0  -0.3268
  C  C420  1  0.594890  0.080440  0.067800  1.0  0.6967
  C  C421  1  0.818590  0.540290  0.588400  1.0  0.7592
  C  C422  1  0.792000  0.579240  0.639300  1.0  -0.3545
  C  C423  1  0.785570  0.572680  0.751000  1.0  -0.0564
  C  C424  1  0.760560  0.614520  0.797400  1.0  -0.0505
  C  C425  1  0.756750  0.611300  0.910800  1.0  -0.3745
  C  C426  1  0.720640  0.576700  0.950000  1.0  0.7624
  C  C427  1  0.918550  0.578700  0.386900  1.0  0.7818
  C  C428  1  0.965990  0.601690  0.374000  1.0  -0.3006
  C  C429  1  0.996710  0.599020  0.468000  1.0  -0.0657
  C  C430  1  0.040470  0.629570  0.457000  1.0  -0.0749
  C  C431  1  0.072510  0.627880  0.548700  1.0  -0.3268
  C  C432  1  0.094890  0.580440  0.567800  1.0  0.6967
  C  C433  1  0.290290  0.931410  0.338400  1.0  0.7625
  C  C434  1  0.329240  0.958000  0.389300  1.0  -0.3544
  C  C435  1  0.322680  0.964430  0.501000  1.0  -0.0526
  C  C436  1  0.364520  0.989440  0.547400  1.0  -0.0499
  C  C437  1  0.361300  0.993250  0.660800  1.0  -0.3718
  C  C438  1  0.326700  0.029360  0.700000  1.0  0.7646
  C  C439  1  0.328700  0.831450  0.136900  1.0  0.7858
  C  C440  1  0.351690  0.784010  0.124000  1.0  -0.2977
  C  C441  1  0.349020  0.753290  0.218000  1.0  -0.0642
  C  C442  1  0.379570  0.709530  0.207000  1.0  -0.0738
  C  C443  1  0.377880  0.677490  0.298700  1.0  -0.3238
  C  C444  1  0.330440  0.655110  0.317800  1.0  0.6939
  C  C445  1  0.790290  0.431410  0.838400  1.0  0.7625
  C  C446  1  0.829240  0.458000  0.889300  1.0  -0.3544
  C  C447  1  0.822680  0.464430  0.001000  1.0  -0.0526
  C  C448  1  0.864520  0.489440  0.047400  1.0  -0.0499
  C  C449  1  0.861300  0.493250  0.160800  1.0  -0.3718
  C  C450  1  0.826700  0.529360  0.200000  1.0  0.7646
  C  C451  1  0.828700  0.331450  0.636900  1.0  0.7858
  C  C452  1  0.851690  0.284010  0.624000  1.0  -0.2977
  C  C453  1  0.849020  0.253290  0.718000  1.0  -0.0642
  C  C454  1  0.879570  0.209530  0.707000  1.0  -0.0738
  C  C455  1  0.877880  0.177490  0.798700  1.0  -0.3238
  C  C456  1  0.830440  0.155110  0.817800  1.0  0.6939
  C  C457  1  0.209710  0.068590  0.838400  1.0  0.7641
  C  C458  1  0.170760  0.042000  0.889300  1.0  -0.3516
  C  C459  1  0.177320  0.035570  0.001000  1.0  -0.0541
  C  C460  1  0.135480  0.010560  0.047400  1.0  -0.0474
  C  C461  1  0.138700  0.006750  0.160800  1.0  -0.3721
  C  C462  1  0.173300  0.970640  0.200000  1.0  0.7632
  C  C463  1  0.171300  0.168550  0.636900  1.0  0.7849
  C  C464  1  0.148310  0.215990  0.624000  1.0  -0.2997
  C  C465  1  0.150980  0.246710  0.718000  1.0  -0.0631
  C  C466  1  0.120430  0.290470  0.707000  1.0  -0.0732
  C  C467  1  0.122120  0.322510  0.798700  1.0  -0.3246
  C  C468  1  0.169560  0.344890  0.817800  1.0  0.6953
  C  C469  1  0.709710  0.568590  0.338400  1.0  0.7641
  C  C470  1  0.670760  0.542000  0.389300  1.0  -0.3516
  C  C471  1  0.677320  0.535570  0.501000  1.0  -0.0541
  C  C472  1  0.635480  0.510560  0.547400  1.0  -0.0474
  C  C473  1  0.638700  0.506750  0.660800  1.0  -0.3721
  C  C474  1  0.673300  0.470640  0.700000  1.0  0.7632
  C  C475  1  0.671300  0.668550  0.136900  1.0  0.7849
  C  C476  1  0.648310  0.715990  0.124000  1.0  -0.2997
  C  C477  1  0.650980  0.746710  0.218000  1.0  -0.0631
  C  C478  1  0.620430  0.790470  0.207000  1.0  -0.0732
  C  C479  1  0.622120  0.822510  0.298700  1.0  -0.3246
  C  C480  1  0.669560  0.844890  0.317800  1.0  0.6953
  O  O481  1  0.822150  0.041680  0.506800  1.0  -0.7018
  O  O482  1  0.836150  0.007910  0.359500  1.0  -0.6328
  O  O483  1  0.697290  0.052630  0.110300  1.0  -0.5897
  O  O484  1  0.714950  0.075560  0.955400  1.0  -0.6854
  O  O485  1  0.883820  0.105920  0.612000  1.0  -0.5798
  O  O486  1  0.917490  0.034420  0.603200  1.0  -0.5881
  O  O487  1  0.110240  0.055500  0.507000  1.0  -0.6893
  O  O488  1  0.100100  0.065330  0.345500  1.0  -0.5751
  O  O489  1  0.322150  0.541680  0.006800  1.0  -0.7018
  O  O490  1  0.336150  0.507910  0.859500  1.0  -0.6328
  O  O491  1  0.197290  0.552630  0.610300  1.0  -0.5897
  O  O492  1  0.214950  0.575560  0.455400  1.0  -0.6854
  O  O493  1  0.383820  0.605920  0.112000  1.0  -0.5798
  O  O494  1  0.417490  0.534420  0.103200  1.0  -0.5881
  O  O495  1  0.610240  0.555500  0.007000  1.0  -0.6893
  O  O496  1  0.600100  0.565330  0.845500  1.0  -0.5751
  O  O497  1  0.677850  0.958320  0.006800  1.0  -0.7018
  O  O498  1  0.663850  0.992090  0.859500  1.0  -0.6344
  O  O499  1  0.802710  0.947370  0.610300  1.0  -0.5889
  O  O500  1  0.785050  0.924440  0.455400  1.0  -0.6844
  O  O501  1  0.616180  0.894080  0.112000  1.0  -0.5806
  O  O502  1  0.582510  0.965580  0.103200  1.0  -0.5881
  O  O503  1  0.389760  0.944500  0.007000  1.0  -0.6892
  O  O504  1  0.399900  0.934670  0.845500  1.0  -0.5748
  O  O505  1  0.177850  0.458320  0.506800  1.0  -0.7018
  O  O506  1  0.163850  0.492090  0.359500  1.0  -0.6344
  O  O507  1  0.302710  0.447370  0.110300  1.0  -0.5889
  O  O508  1  0.285050  0.424440  0.955400  1.0  -0.6844
  O  O509  1  0.116180  0.394080  0.612000  1.0  -0.5806
  O  O510  1  0.082510  0.465580  0.603200  1.0  -0.5881
  O  O511  1  0.889760  0.444500  0.507000  1.0  -0.6892
  O  O512  1  0.899900  0.434670  0.345500  1.0  -0.5748
  O  O513  1  0.708320  0.072150  0.756800  1.0  -0.7022
  O  O514  1  0.742090  0.086150  0.609500  1.0  -0.6369
  O  O515  1  0.697370  0.947290  0.360300  1.0  -0.5906
  O  O516  1  0.674440  0.964950  0.205400  1.0  -0.6849
  O  O517  1  0.644080  0.133820  0.862000  1.0  -0.5806
  O  O518  1  0.715580  0.167490  0.853200  1.0  -0.5845
  O  O519  1  0.694500  0.360240  0.757000  1.0  -0.6862
  O  O520  1  0.684670  0.350100  0.595500  1.0  -0.5745
  O  O521  1  0.208320  0.572150  0.256800  1.0  -0.7022
  O  O522  1  0.242090  0.586150  0.109500  1.0  -0.6369
  O  O523  1  0.197370  0.447290  0.860300  1.0  -0.5906
  O  O524  1  0.174440  0.464950  0.705400  1.0  -0.6849
  O  O525  1  0.144080  0.633820  0.362000  1.0  -0.5806
  O  O526  1  0.215580  0.667490  0.353200  1.0  -0.5845
  O  O527  1  0.194500  0.860240  0.257000  1.0  -0.6862
  O  O528  1  0.184670  0.850100  0.095500  1.0  -0.5745
  O  O529  1  0.791680  0.927850  0.256800  1.0  -0.7016
  O  O530  1  0.757910  0.913850  0.109500  1.0  -0.6389
  O  O531  1  0.802630  0.052710  0.860300  1.0  -0.5898
  O  O532  1  0.825560  0.035050  0.705400  1.0  -0.6856
  O  O533  1  0.855920  0.866180  0.362000  1.0  -0.5803
  O  O534  1  0.784420  0.832510  0.353200  1.0  -0.5866
  O  O535  1  0.805500  0.639760  0.257000  1.0  -0.6881
  O  O536  1  0.815330  0.649900  0.095500  1.0  -0.5775
  O  O537  1  0.291680  0.427850  0.756800  1.0  -0.7016
  O  O538  1  0.257910  0.413850  0.609500  1.0  -0.6389
  O  O539  1  0.302630  0.552710  0.360300  1.0  -0.5898
  O  O540  1  0.325560  0.535050  0.205400  1.0  -0.6856
  O  O541  1  0.355920  0.366180  0.862000  1.0  -0.5803
  O  O542  1  0.284420  0.332510  0.853200  1.0  -0.5866
  O  O543  1  0.305500  0.139760  0.757000  1.0  -0.6881
  O  O544  1  0.315330  0.149900  0.595500  1.0  -0.5775
  O  O545  1  0.177850  0.958320  0.493200  1.0  -0.7009
  O  O546  1  0.163850  0.992090  0.640500  1.0  -0.6345
  O  O547  1  0.302710  0.947370  0.889700  1.0  -0.59
  O  O548  1  0.285050  0.924440  0.044600  1.0  -0.6847
  O  O549  1  0.116180  0.894080  0.388000  1.0  -0.5809
  O  O550  1  0.082510  0.965580  0.396800  1.0  -0.5888
  O  O551  1  0.889760  0.944500  0.493000  1.0  -0.6892
  O  O552  1  0.899900  0.934670  0.654500  1.0  -0.5751
  O  O553  1  0.677850  0.458320  0.993200  1.0  -0.7009
  O  O554  1  0.663850  0.492090  0.140500  1.0  -0.6345
  O  O555  1  0.802710  0.447370  0.389700  1.0  -0.59
  O  O556  1  0.785050  0.424440  0.544600  1.0  -0.6847
  O  O557  1  0.616180  0.394080  0.888000  1.0  -0.5809
  O  O558  1  0.582510  0.465580  0.896800  1.0  -0.5888
  O  O559  1  0.389760  0.444500  0.993000  1.0  -0.6892
  O  O560  1  0.399900  0.434670  0.154500  1.0  -0.5751
  O  O561  1  0.322150  0.041680  0.993200  1.0  -0.7004
  O  O562  1  0.336150  0.007910  0.140500  1.0  -0.6332
  O  O563  1  0.197290  0.052630  0.389700  1.0  -0.5905
  O  O564  1  0.214950  0.075560  0.544600  1.0  -0.6857
  O  O565  1  0.383820  0.105920  0.888000  1.0  -0.5799
  O  O566  1  0.417490  0.034420  0.896800  1.0  -0.5889
  O  O567  1  0.610240  0.055500  0.993000  1.0  -0.6897
  O  O568  1  0.600100  0.065330  0.154500  1.0  -0.5752
  O  O569  1  0.822150  0.541680  0.493200  1.0  -0.7004
  O  O570  1  0.836150  0.507910  0.640500  1.0  -0.6332
  O  O571  1  0.697290  0.552630  0.889700  1.0  -0.5905
  O  O572  1  0.714950  0.575560  0.044600  1.0  -0.6857
  O  O573  1  0.883820  0.605920  0.388000  1.0  -0.5799
  O  O574  1  0.917490  0.534420  0.396800  1.0  -0.5889
  O  O575  1  0.110240  0.555500  0.493000  1.0  -0.6897
  O  O576  1  0.100100  0.565330  0.654500  1.0  -0.5752
  O  O577  1  0.291680  0.927850  0.243200  1.0  -0.7005
  O  O578  1  0.257910  0.913850  0.390500  1.0  -0.6391
  O  O579  1  0.302630  0.052710  0.639700  1.0  -0.5902
  O  O580  1  0.325560  0.035050  0.794600  1.0  -0.6858
  O  O581  1  0.355920  0.866180  0.138000  1.0  -0.5808
  O  O582  1  0.284420  0.832510  0.146800  1.0  -0.5879
  O  O583  1  0.305500  0.639760  0.243000  1.0  -0.6885
  O  O584  1  0.315330  0.649900  0.404500  1.0  -0.5752
  O  O585  1  0.791680  0.427850  0.743200  1.0  -0.7005
  O  O586  1  0.757910  0.413850  0.890500  1.0  -0.6391
  O  O587  1  0.802630  0.552710  0.139700  1.0  -0.5902
  O  O588  1  0.825560  0.535050  0.294600  1.0  -0.6858
  O  O589  1  0.855920  0.366180  0.638000  1.0  -0.5808
  O  O590  1  0.784420  0.332510  0.646800  1.0  -0.5879
  O  O591  1  0.805500  0.139760  0.743000  1.0  -0.6885
  O  O592  1  0.815330  0.149900  0.904500  1.0  -0.5752
  O  O593  1  0.208320  0.072150  0.743200  1.0  -0.7011
  O  O594  1  0.242090  0.086150  0.890500  1.0  -0.6372
  O  O595  1  0.197370  0.947290  0.139700  1.0  -0.5915
  O  O596  1  0.174440  0.964950  0.294600  1.0  -0.6854
  O  O597  1  0.144080  0.133820  0.638000  1.0  -0.5808
  O  O598  1  0.215580  0.167490  0.646800  1.0  -0.5856
  O  O599  1  0.194500  0.360240  0.743000  1.0  -0.686
  O  O600  1  0.184670  0.350100  0.904500  1.0  -0.5765
  O  O601  1  0.708320  0.572150  0.243200  1.0  -0.7011
  O  O602  1  0.742090  0.586150  0.390500  1.0  -0.6372
  O  O603  1  0.697370  0.447290  0.639700  1.0  -0.5915
  O  O604  1  0.674440  0.464950  0.794600  1.0  -0.6854
  O  O605  1  0.644080  0.633820  0.138000  1.0  -0.5808
  O  O606  1  0.715580  0.667490  0.146800  1.0  -0.5856
  O  O607  1  0.694500  0.860240  0.243000  1.0  -0.686
  O  O608  1  0.684670  0.850100  0.404500  1.0  -0.5765
