# generated using pymatgen
data_NaCoH8(C2O)8
_symmetry_space_group_name_H-M   'P 1'
_cell_length_a   13.37510000
_cell_length_b   14.38470000
_cell_length_c   11.31780000
_cell_angle_alpha   90.00000000
_cell_angle_beta   111.40500000
_cell_angle_gamma   90.00000000
_symmetry_Int_Tables_number   1
_chemical_formula_structural   NaCoH8(C2O)8
_chemical_formula_sum   'Na4 Co4 H32 C64 O32'
_cell_volume   2027.31262320
_cell_formula_units_Z   4
loop_
 _symmetry_equiv_pos_site_id
 _symmetry_equiv_pos_as_xyz
  1  'x, y, z'
loop_
 _atom_site_type_symbol
 _atom_site_label
 _atom_site_symmetry_multiplicity
 _atom_site_fract_x
 _atom_site_fract_y
 _atom_site_fract_z
 _atom_site_occupancy
 _atom_site_charge
  Na  Na1  1  0.000000  0.000000  0.500000  1.0  0.9579
  Na  Na2  1  0.500000  0.500000  0.500000  1.0  0.9579
  Na  Na3  1  0.000000  0.000000  0.000000  1.0  0.9579
  Na  Na4  1  0.500000  0.500000  0.000000  1.0  0.9579
  Co  Co5  1  0.000000  0.113660  0.250000  1.0  0.9865
  Co  Co6  1  0.500000  0.613660  0.250000  1.0  0.9865
  Co  Co7  1  0.000000  0.886340  0.750000  1.0  0.9873
  Co  Co8  1  0.500000  0.386340  0.750000  1.0  0.9873
  H  H9  1  0.726100  0.844100  0.222900  1.0  0.1271
  H  H10  1  0.757700  0.970800  0.922800  1.0  0.1252
  H  H11  1  0.550300  0.760100  0.872400  1.0  0.1269
  H  H12  1  0.627000  0.873600  0.789600  1.0  0.1293
  H  H13  1  0.226100  0.344100  0.222900  1.0  0.1271
  H  H14  1  0.257700  0.470800  0.922800  1.0  0.1252
  H  H15  1  0.050300  0.260100  0.872400  1.0  0.1269
  H  H16  1  0.127000  0.373600  0.789600  1.0  0.1293
  H  H17  1  0.273900  0.844100  0.277100  1.0  0.1276
  H  H18  1  0.242300  0.970800  0.577200  1.0  0.1247
  H  H19  1  0.449700  0.760100  0.627600  1.0  0.1275
  H  H20  1  0.373000  0.873600  0.710400  1.0  0.1286
  H  H21  1  0.773900  0.344100  0.277100  1.0  0.1276
  H  H22  1  0.742300  0.470800  0.577200  1.0  0.1247
  H  H23  1  0.949700  0.260100  0.627600  1.0  0.1275
  H  H24  1  0.873000  0.373600  0.710400  1.0  0.1286
  H  H25  1  0.273900  0.155900  0.777100  1.0  0.1274
  H  H26  1  0.242300  0.029200  0.077200  1.0  0.1248
  H  H27  1  0.449700  0.239900  0.127600  1.0  0.1271
  H  H28  1  0.373000  0.126400  0.210400  1.0  0.1283
  H  H29  1  0.773900  0.655900  0.777100  1.0  0.1274
  H  H30  1  0.742300  0.529200  0.077200  1.0  0.1248
  H  H31  1  0.949700  0.739900  0.127600  1.0  0.1271
  H  H32  1  0.873000  0.626400  0.210400  1.0  0.1283
  H  H33  1  0.726100  0.155900  0.722900  1.0  0.1268
  H  H34  1  0.757700  0.029200  0.422800  1.0  0.1248
  H  H35  1  0.550300  0.239900  0.372400  1.0  0.1272
  H  H36  1  0.627000  0.126400  0.289600  1.0  0.1287
  H  H37  1  0.226100  0.655900  0.722900  1.0  0.1268
  H  H38  1  0.257700  0.529200  0.422800  1.0  0.1248
  H  H39  1  0.050300  0.739900  0.372400  1.0  0.1272
  H  H40  1  0.127000  0.626400  0.289600  1.0  0.1287
  C  C41  1  0.843000  0.978300  0.175600  1.0  0.6964
  C  C42  1  0.756600  0.917500  0.088000  1.0  -0.174
  C  C43  1  0.707000  0.849900  0.135600  1.0  0.0381
  C  C44  1  0.579900  0.717600  0.113000  1.0  0.7114
  C  C45  1  0.725900  0.926000  0.956900  1.0  0.0072
  C  C46  1  0.630600  0.791600  0.056300  1.0  -0.1359
  C  C47  1  0.601400  0.800000  0.926400  1.0  -0.0172
  C  C48  1  0.647900  0.867300  0.877100  1.0  -0.0606
  C  C49  1  0.343000  0.478300  0.175600  1.0  0.6964
  C  C50  1  0.256600  0.417500  0.088000  1.0  -0.174
  C  C51  1  0.207000  0.349900  0.135600  1.0  0.0381
  C  C52  1  0.079900  0.217600  0.113000  1.0  0.7114
  C  C53  1  0.225900  0.426000  0.956900  1.0  0.0072
  C  C54  1  0.130600  0.291600  0.056300  1.0  -0.1359
  C  C55  1  0.101400  0.300000  0.926400  1.0  -0.0172
  C  C56  1  0.147900  0.367300  0.877100  1.0  -0.0606
  C  C57  1  0.157000  0.978300  0.324400  1.0  0.6973
  C  C58  1  0.243400  0.917500  0.412000  1.0  -0.1712
  C  C59  1  0.293000  0.849900  0.364400  1.0  0.0368
  C  C60  1  0.420100  0.717600  0.387000  1.0  0.714
  C  C61  1  0.274100  0.926000  0.543100  1.0  0.0068
  C  C62  1  0.369400  0.791600  0.443700  1.0  -0.1349
  C  C63  1  0.398600  0.800000  0.573600  1.0  -0.0177
  C  C64  1  0.352100  0.867300  0.622900  1.0  -0.0599
  C  C65  1  0.657000  0.478300  0.324400  1.0  0.6973
  C  C66  1  0.743400  0.417500  0.412000  1.0  -0.1712
  C  C67  1  0.793000  0.349900  0.364400  1.0  0.0368
  C  C68  1  0.920100  0.217600  0.387000  1.0  0.714
  C  C69  1  0.774100  0.426000  0.543100  1.0  0.0068
  C  C70  1  0.869400  0.291600  0.443700  1.0  -0.1349
  C  C71  1  0.898600  0.300000  0.573600  1.0  -0.0177
  C  C72  1  0.852100  0.367300  0.622900  1.0  -0.0599
  C  C73  1  0.157000  0.021700  0.824400  1.0  0.6968
  C  C74  1  0.243400  0.082500  0.912000  1.0  -0.1739
  C  C75  1  0.293000  0.150100  0.864400  1.0  0.0379
  C  C76  1  0.420100  0.282400  0.887000  1.0  0.7138
  C  C77  1  0.274100  0.074000  0.043100  1.0  0.0066
  C  C78  1  0.369400  0.208400  0.943700  1.0  -0.134
  C  C79  1  0.398600  0.200000  0.073600  1.0  -0.0175
  C  C80  1  0.352100  0.132700  0.122900  1.0  -0.0602
  C  C81  1  0.657000  0.521700  0.824400  1.0  0.6968
  C  C82  1  0.743400  0.582500  0.912000  1.0  -0.1739
  C  C83  1  0.793000  0.650100  0.864400  1.0  0.0379
  C  C84  1  0.920100  0.782400  0.887000  1.0  0.7138
  C  C85  1  0.774100  0.574000  0.043100  1.0  0.0066
  C  C86  1  0.869400  0.708400  0.943700  1.0  -0.134
  C  C87  1  0.898600  0.700000  0.073600  1.0  -0.0175
  C  C88  1  0.852100  0.632700  0.122900  1.0  -0.0602
  C  C89  1  0.843000  0.021700  0.675600  1.0  0.696
  C  C90  1  0.756600  0.082500  0.588000  1.0  -0.1749
  C  C91  1  0.707000  0.150100  0.635600  1.0  0.0378
  C  C92  1  0.579900  0.282400  0.613000  1.0  0.7119
  C  C93  1  0.725900  0.074000  0.456900  1.0  0.0075
  C  C94  1  0.630600  0.208400  0.556300  1.0  -0.1363
  C  C95  1  0.601400  0.200000  0.426400  1.0  -0.0167
  C  C96  1  0.647900  0.132700  0.377100  1.0  -0.061
  C  C97  1  0.343000  0.521700  0.675600  1.0  0.696
  C  C98  1  0.256600  0.582500  0.588000  1.0  -0.1749
  C  C99  1  0.207000  0.650100  0.635600  1.0  0.0378
  C  C100  1  0.079900  0.782400  0.613000  1.0  0.7119
  C  C101  1  0.225900  0.574000  0.456900  1.0  0.0075
  C  C102  1  0.130600  0.708400  0.556300  1.0  -0.1363
  C  C103  1  0.101400  0.700000  0.426400  1.0  -0.0167
  C  C104  1  0.147900  0.632700  0.377100  1.0  -0.061
  O  O105  1  0.865600  0.973900  0.291400  1.0  -0.6752
  O  O106  1  0.889800  0.033500  0.123800  1.0  -0.6647
  O  O107  1  0.602300  0.715700  0.228500  1.0  -0.5488
  O  O108  1  0.516400  0.662800  0.041500  1.0  -0.6598
  O  O109  1  0.365600  0.473900  0.291400  1.0  -0.6752
  O  O110  1  0.389800  0.533500  0.123800  1.0  -0.6645
  O  O111  1  0.102300  0.215700  0.228500  1.0  -0.5488
  O  O112  1  0.016400  0.162800  0.041500  1.0  -0.6613
  O  O113  1  0.134400  0.973900  0.208600  1.0  -0.6765
  O  O114  1  0.110200  0.033500  0.376200  1.0  -0.665
  O  O115  1  0.397700  0.715700  0.271500  1.0  -0.5469
  O  O116  1  0.483600  0.662800  0.458500  1.0  -0.659
  O  O117  1  0.634400  0.473900  0.208600  1.0  -0.6765
  O  O118  1  0.610200  0.533500  0.376200  1.0  -0.6648
  O  O119  1  0.897700  0.215700  0.271500  1.0  -0.5469
  O  O120  1  0.983600  0.162800  0.458500  1.0  -0.6603
  O  O121  1  0.134400  0.026100  0.708600  1.0  -0.6764
  O  O122  1  0.110200  0.966500  0.876200  1.0  -0.664
  O  O123  1  0.397700  0.284300  0.771500  1.0  -0.5468
  O  O124  1  0.483600  0.337200  0.958500  1.0  -0.6585
  O  O125  1  0.634400  0.526100  0.708600  1.0  -0.6764
  O  O126  1  0.610200  0.466500  0.876200  1.0  -0.6638
  O  O127  1  0.897700  0.784300  0.771500  1.0  -0.5468
  O  O128  1  0.983600  0.837200  0.958500  1.0  -0.6599
  O  O129  1  0.865600  0.026100  0.791400  1.0  -0.675
  O  O130  1  0.889800  0.966500  0.623800  1.0  -0.6645
  O  O131  1  0.602300  0.284300  0.728500  1.0  -0.5488
  O  O132  1  0.516400  0.337200  0.541500  1.0  -0.6594
  O  O133  1  0.365600  0.526100  0.791400  1.0  -0.675
  O  O134  1  0.389800  0.466500  0.623800  1.0  -0.6643
  O  O135  1  0.102300  0.784300  0.728500  1.0  -0.5488
  O  O136  1  0.016400  0.837200  0.541500  1.0  -0.6609
