# generated using pymatgen
data_NaCdH8(C2O)8
_symmetry_space_group_name_H-M   'P 1'
_cell_length_a   14.73660000
_cell_length_b   13.59850000
_cell_length_c   11.33690000
_cell_angle_alpha   90.00000000
_cell_angle_beta   113.14100000
_cell_angle_gamma   90.00000000
_symmetry_Int_Tables_number   1
_chemical_formula_structural   NaCdH8(C2O)8
_chemical_formula_sum   'Na4 Cd4 H32 C64 O32'
_cell_volume   2089.07236557
_cell_formula_units_Z   4
loop_
 _symmetry_equiv_pos_site_id
 _symmetry_equiv_pos_as_xyz
  1  'x, y, z'
loop_
 _atom_site_type_symbol
 _atom_site_label
 _atom_site_symmetry_multiplicity
 _atom_site_fract_x
 _atom_site_fract_y
 _atom_site_fract_z
 _atom_site_occupancy
 _atom_site_charge
  Na  Na1  1  0.500000  0.500000  0.000000  1.0  0.9354
  Na  Na2  1  0.000000  0.000000  0.000000  1.0  0.9354
  Na  Na3  1  0.500000  0.500000  0.500000  1.0  0.9354
  Na  Na4  1  0.000000  0.000000  0.500000  1.0  0.9354
  Cd  Cd5  1  0.500000  0.627670  0.250000  1.0  1.1437
  Cd  Cd6  1  0.000000  0.127670  0.250000  1.0  1.1437
  Cd  Cd7  1  0.500000  0.372330  0.750000  1.0  1.1441
  Cd  Cd8  1  0.000000  0.872330  0.750000  1.0  1.1441
  H  H9  1  0.233100  0.361500  0.214600  1.0  0.1189
  H  H10  1  0.052200  0.266000  0.866700  1.0  0.1208
  H  H11  1  0.259000  0.468100  0.899400  1.0  0.1239
  H  H12  1  0.127600  0.371200  0.773400  1.0  0.1257
  H  H13  1  0.733100  0.861500  0.214600  1.0  0.1189
  H  H14  1  0.552200  0.766000  0.866700  1.0  0.1208
  H  H15  1  0.759000  0.968100  0.899400  1.0  0.1239
  H  H16  1  0.627600  0.871200  0.773400  1.0  0.1257
  H  H17  1  0.766900  0.361500  0.285400  1.0  0.1195
  H  H18  1  0.947800  0.266000  0.633300  1.0  0.1213
  H  H19  1  0.741000  0.468100  0.600600  1.0  0.1236
  H  H20  1  0.872400  0.371200  0.726600  1.0  0.1257
  H  H21  1  0.266900  0.861500  0.285400  1.0  0.1195
  H  H22  1  0.447800  0.766000  0.633300  1.0  0.1213
  H  H23  1  0.241000  0.968100  0.600600  1.0  0.1236
  H  H24  1  0.372400  0.871200  0.726600  1.0  0.1257
  H  H25  1  0.766900  0.638500  0.785400  1.0  0.1194
  H  H26  1  0.947800  0.734000  0.133300  1.0  0.121
  H  H27  1  0.741000  0.531900  0.100600  1.0  0.1234
  H  H28  1  0.872400  0.628800  0.226600  1.0  0.1259
  H  H29  1  0.266900  0.138500  0.785400  1.0  0.1194
  H  H30  1  0.447800  0.234000  0.133300  1.0  0.121
  H  H31  1  0.241000  0.031900  0.100600  1.0  0.1234
  H  H32  1  0.372400  0.128800  0.226600  1.0  0.1259
  H  H33  1  0.233100  0.638500  0.714600  1.0  0.1188
  H  H34  1  0.052200  0.734000  0.366700  1.0  0.1209
  H  H35  1  0.259000  0.531900  0.399400  1.0  0.1233
  H  H36  1  0.127600  0.628800  0.273400  1.0  0.1259
  H  H37  1  0.733100  0.138500  0.714600  1.0  0.1188
  H  H38  1  0.552200  0.234000  0.366700  1.0  0.1209
  H  H39  1  0.759000  0.031900  0.399400  1.0  0.1233
  H  H40  1  0.627600  0.128800  0.273400  1.0  0.1259
  C  C41  1  0.346900  0.484700  0.154300  1.0  0.7464
  C  C42  1  0.260300  0.423500  0.070300  1.0  -0.1374
  C  C43  1  0.212700  0.362500  0.125900  1.0  0.0175
  C  C44  1  0.134900  0.303000  0.050700  1.0  -0.1417
  C  C45  1  0.085100  0.234900  0.111500  1.0  0.7262
  C  C46  1  0.103900  0.306000  0.918000  1.0  -0.0166
  C  C47  1  0.228100  0.426900  0.937500  1.0  -0.0087
  C  C48  1  0.149600  0.368400  0.862300  1.0  -0.0737
  C  C49  1  0.846900  0.984700  0.154300  1.0  0.7464
  C  C50  1  0.760300  0.923500  0.070300  1.0  -0.1374
  C  C51  1  0.712700  0.862500  0.125900  1.0  0.0175
  C  C52  1  0.634900  0.803000  0.050700  1.0  -0.1417
  C  C53  1  0.585100  0.734900  0.111500  1.0  0.7262
  C  C54  1  0.603900  0.806000  0.918000  1.0  -0.0166
  C  C55  1  0.728100  0.926900  0.937500  1.0  -0.0087
  C  C56  1  0.649600  0.868400  0.862300  1.0  -0.0737
  C  C57  1  0.653100  0.484700  0.345700  1.0  0.7446
  C  C58  1  0.739700  0.423500  0.429700  1.0  -0.1363
  C  C59  1  0.787300  0.362500  0.374100  1.0  0.0168
  C  C60  1  0.865100  0.303000  0.449300  1.0  -0.1427
  C  C61  1  0.914900  0.234900  0.388500  1.0  0.726
  C  C62  1  0.896100  0.306000  0.582000  1.0  -0.0178
  C  C63  1  0.771900  0.426900  0.562500  1.0  -0.0093
  C  C64  1  0.850400  0.368400  0.637700  1.0  -0.0722
  C  C65  1  0.153100  0.984700  0.345700  1.0  0.7446
  C  C66  1  0.239700  0.923500  0.429700  1.0  -0.1363
  C  C67  1  0.287300  0.862500  0.374100  1.0  0.0168
  C  C68  1  0.365100  0.803000  0.449300  1.0  -0.1427
  C  C69  1  0.414900  0.734900  0.388500  1.0  0.726
  C  C70  1  0.396100  0.806000  0.582000  1.0  -0.0178
  C  C71  1  0.271900  0.926900  0.562500  1.0  -0.0093
  C  C72  1  0.350400  0.868400  0.637700  1.0  -0.0722
  C  C73  1  0.653100  0.515300  0.845700  1.0  0.7448
  C  C74  1  0.739700  0.576500  0.929700  1.0  -0.138
  C  C75  1  0.787300  0.637500  0.874100  1.0  0.0182
  C  C76  1  0.865100  0.697000  0.949300  1.0  -0.1416
  C  C77  1  0.914900  0.765100  0.888500  1.0  0.7268
  C  C78  1  0.896100  0.694000  0.082000  1.0  -0.0174
  C  C79  1  0.771900  0.573100  0.062500  1.0  -0.0093
  C  C80  1  0.850400  0.631600  0.137700  1.0  -0.073
  C  C81  1  0.153100  0.015300  0.845700  1.0  0.7448
  C  C82  1  0.239700  0.076500  0.929700  1.0  -0.138
  C  C83  1  0.287300  0.137500  0.874100  1.0  0.0182
  C  C84  1  0.365100  0.197000  0.949300  1.0  -0.1416
  C  C85  1  0.414900  0.265100  0.888500  1.0  0.7268
  C  C86  1  0.396100  0.194000  0.082000  1.0  -0.0174
  C  C87  1  0.271900  0.073100  0.062500  1.0  -0.0093
  C  C88  1  0.350400  0.131600  0.137700  1.0  -0.073
  C  C89  1  0.346900  0.515300  0.654300  1.0  0.746
  C  C90  1  0.260300  0.576500  0.570300  1.0  -0.1383
  C  C91  1  0.212700  0.637500  0.625900  1.0  0.0176
  C  C92  1  0.134900  0.697000  0.550700  1.0  -0.142
  C  C93  1  0.085100  0.765100  0.611500  1.0  0.7266
  C  C94  1  0.103900  0.694000  0.418000  1.0  -0.0172
  C  C95  1  0.228100  0.573100  0.437500  1.0  -0.0086
  C  C96  1  0.149600  0.631600  0.362300  1.0  -0.0745
  C  C97  1  0.846900  0.015300  0.654300  1.0  0.746
  C  C98  1  0.760300  0.076500  0.570300  1.0  -0.1383
  C  C99  1  0.712700  0.137500  0.625900  1.0  0.0176
  C  C100  1  0.634900  0.197000  0.550700  1.0  -0.142
  C  C101  1  0.585100  0.265100  0.611500  1.0  0.7266
  C  C102  1  0.603900  0.194000  0.418000  1.0  -0.0172
  C  C103  1  0.728100  0.073100  0.437500  1.0  -0.0086
  C  C104  1  0.649600  0.131600  0.362300  1.0  -0.0745
  O  O105  1  0.385300  0.541200  0.096000  1.0  -0.6442
  O  O106  1  0.376700  0.481000  0.273000  1.0  -0.7137
  O  O107  1  0.024900  0.173000  0.044600  1.0  -0.6921
  O  O108  1  0.105300  0.243300  0.229300  1.0  -0.5895
  O  O109  1  0.885300  0.041200  0.096000  1.0  -0.6438
  O  O110  1  0.876700  0.981000  0.273000  1.0  -0.7137
  O  O111  1  0.524900  0.673000  0.044600  1.0  -0.692
  O  O112  1  0.605300  0.743300  0.229300  1.0  -0.5896
  O  O113  1  0.614700  0.541200  0.404000  1.0  -0.6445
  O  O114  1  0.623300  0.481000  0.227000  1.0  -0.716
  O  O115  1  0.975100  0.173000  0.455400  1.0  -0.6922
  O  O116  1  0.894700  0.243300  0.270700  1.0  -0.589
  O  O117  1  0.114700  0.041200  0.404000  1.0  -0.6441
  O  O118  1  0.123300  0.981000  0.227000  1.0  -0.716
  O  O119  1  0.475100  0.673000  0.455400  1.0  -0.6922
  O  O120  1  0.394700  0.743300  0.270700  1.0  -0.5891
  O  O121  1  0.614700  0.458800  0.904000  1.0  -0.6437
  O  O122  1  0.623300  0.519000  0.727000  1.0  -0.7159
  O  O123  1  0.975100  0.827000  0.955400  1.0  -0.692
  O  O124  1  0.894700  0.756700  0.770700  1.0  -0.5889
  O  O125  1  0.114700  0.958800  0.904000  1.0  -0.6433
  O  O126  1  0.123300  0.019000  0.727000  1.0  -0.7159
  O  O127  1  0.475100  0.327000  0.955400  1.0  -0.692
  O  O128  1  0.394700  0.256700  0.770700  1.0  -0.589
  O  O129  1  0.385300  0.458800  0.596000  1.0  -0.6424
  O  O130  1  0.376700  0.519000  0.773000  1.0  -0.7134
  O  O131  1  0.024900  0.827000  0.544600  1.0  -0.6916
  O  O132  1  0.105300  0.756700  0.729300  1.0  -0.5895
  O  O133  1  0.885300  0.958800  0.596000  1.0  -0.6422
  O  O134  1  0.876700  0.019000  0.773000  1.0  -0.7134
  O  O135  1  0.524900  0.327000  0.544600  1.0  -0.6916
  O  O136  1  0.605300  0.256700  0.729300  1.0  -0.5896
