# generated using pymatgen
data_CdC4
_symmetry_space_group_name_H-M   'P 1'
_cell_length_a   12.63800000
_cell_length_b   12.63800000
_cell_length_c   12.63800000
_cell_angle_alpha   90.00000000
_cell_angle_beta   90.00000000
_cell_angle_gamma   90.00000000
_symmetry_Int_Tables_number   1
_chemical_formula_structural   CdC4
_chemical_formula_sum   'Cd8 C32'
_cell_volume   2018.52927807
_cell_formula_units_Z   8
loop_
 _symmetry_equiv_pos_site_id
 _symmetry_equiv_pos_as_xyz
  1  'x, y, z'
loop_
 _atom_site_type_symbol
 _atom_site_label
 _atom_site_symmetry_multiplicity
 _atom_site_fract_x
 _atom_site_fract_y
 _atom_site_fract_z
 _atom_site_occupancy
 _atom_site_charge
  Cd  Cd1  1  0.125000  0.125000  0.125000  1.0  0.6219
  Cd  Cd2  1  0.125000  0.625000  0.625000  1.0  0.6219
  Cd  Cd3  1  0.625000  0.125000  0.625000  1.0  0.6219
  Cd  Cd4  1  0.625000  0.625000  0.125000  1.0  0.6219
  Cd  Cd5  1  0.875000  0.375000  0.375000  1.0  0.6219
  Cd  Cd6  1  0.875000  0.875000  0.875000  1.0  0.6219
  Cd  Cd7  1  0.375000  0.375000  0.875000  1.0  0.6219
  Cd  Cd8  1  0.375000  0.875000  0.375000  1.0  0.6219
  C  C9  1  0.026000  0.026000  0.026000  1.0  -0.1561
  C  C10  1  0.026000  0.526000  0.526000  1.0  -0.1561
  C  C11  1  0.526000  0.026000  0.526000  1.0  -0.1561
  C  C12  1  0.526000  0.526000  0.026000  1.0  -0.1561
  C  C13  1  0.724000  0.224000  0.526000  1.0  -0.1553
  C  C14  1  0.724000  0.724000  0.026000  1.0  -0.1553
  C  C15  1  0.224000  0.526000  0.724000  1.0  -0.1545
  C  C16  1  0.224000  0.026000  0.224000  1.0  -0.1545
  C  C17  1  0.724000  0.026000  0.724000  1.0  -0.1545
  C  C18  1  0.526000  0.724000  0.224000  1.0  -0.1561
  C  C19  1  0.026000  0.724000  0.724000  1.0  -0.1561
  C  C20  1  0.776000  0.276000  0.474000  1.0  -0.1558
  C  C21  1  0.776000  0.776000  0.974000  1.0  -0.1558
  C  C22  1  0.974000  0.974000  0.974000  1.0  -0.1547
  C  C23  1  0.974000  0.474000  0.474000  1.0  -0.1547
  C  C24  1  0.474000  0.974000  0.474000  1.0  -0.1547
  C  C25  1  0.474000  0.474000  0.974000  1.0  -0.1547
  C  C26  1  0.276000  0.474000  0.776000  1.0  -0.1563
  C  C27  1  0.276000  0.974000  0.276000  1.0  -0.1563
  C  C28  1  0.776000  0.974000  0.776000  1.0  -0.1563
  C  C29  1  0.474000  0.776000  0.276000  1.0  -0.1551
  C  C30  1  0.974000  0.776000  0.776000  1.0  -0.1551
  C  C31  1  0.276000  0.776000  0.474000  1.0  -0.1558
  C  C32  1  0.276000  0.276000  0.974000  1.0  -0.1558
  C  C33  1  0.776000  0.474000  0.276000  1.0  -0.1563
  C  C34  1  0.474000  0.276000  0.776000  1.0  -0.1551
  C  C35  1  0.974000  0.276000  0.276000  1.0  -0.1551
  C  C36  1  0.224000  0.724000  0.526000  1.0  -0.1553
  C  C37  1  0.224000  0.224000  0.026000  1.0  -0.1553
  C  C38  1  0.724000  0.526000  0.224000  1.0  -0.1545
  C  C39  1  0.526000  0.224000  0.724000  1.0  -0.1561
  C  C40  1  0.026000  0.224000  0.224000  1.0  -0.1561
