# generated using pymatgen
data_CdC4
_symmetry_space_group_name_H-M   'P 1'
_cell_length_a   9.12400000
_cell_length_b   9.12400000
_cell_length_c   11.33500000
_cell_angle_alpha   90.00000000
_cell_angle_beta   90.00000000
_cell_angle_gamma   90.00000000
_symmetry_Int_Tables_number   1
_chemical_formula_structural   CdC4
_chemical_formula_sum   'Cd4 C16'
_cell_volume   943.60900696
_cell_formula_units_Z   4
loop_
 _symmetry_equiv_pos_site_id
 _symmetry_equiv_pos_as_xyz
  1  'x, y, z'
loop_
 _atom_site_type_symbol
 _atom_site_label
 _atom_site_symmetry_multiplicity
 _atom_site_fract_x
 _atom_site_fract_y
 _atom_site_fract_z
 _atom_site_occupancy
 _atom_site_charge
  Cd  Cd1  1  0.317900  0.317900  0.000000  1.0  0.7808
  Cd  Cd2  1  0.682100  0.682100  0.500000  1.0  0.7817
  Cd  Cd3  1  0.182100  0.817900  0.250000  1.0  0.7813
  Cd  Cd4  1  0.817900  0.182100  0.750000  1.0  0.7813
  C  C5  1  0.274000  0.139000  0.116000  1.0  -0.205
  C  C6  1  0.529000  0.258000  0.918000  1.0  -0.186
  C  C7  1  0.726000  0.861000  0.616000  1.0  -0.2038
  C  C8  1  0.471000  0.742000  0.418000  1.0  -0.1862
  C  C9  1  0.361000  0.774000  0.366000  1.0  -0.2027
  C  C10  1  0.242000  0.029000  0.168000  1.0  -0.1872
  C  C11  1  0.639000  0.226000  0.866000  1.0  -0.2026
  C  C12  1  0.758000  0.971000  0.668000  1.0  -0.1886
  C  C13  1  0.226000  0.639000  0.134000  1.0  -0.2051
  C  C14  1  0.971000  0.758000  0.332000  1.0  -0.1861
  C  C15  1  0.774000  0.361000  0.634000  1.0  -0.2046
  C  C16  1  0.029000  0.242000  0.832000  1.0  -0.1853
  C  C17  1  0.139000  0.274000  0.884000  1.0  -0.2031
  C  C18  1  0.258000  0.529000  0.082000  1.0  -0.1874
  C  C19  1  0.861000  0.726000  0.384000  1.0  -0.2029
  C  C20  1  0.742000  0.471000  0.582000  1.0  -0.1884
