# generated using pymatgen
data_U2H2C7NO6
_symmetry_space_group_name_H-M   'P 1'
_cell_length_a   10.32700000
_cell_length_b   12.12900000
_cell_length_c   15.07300000
_cell_angle_alpha   90.00000000
_cell_angle_beta   106.28800000
_cell_angle_gamma   90.00000000
_symmetry_Int_Tables_number   1
_chemical_formula_structural   U2H2C7NO6
_chemical_formula_sum   'U8 H8 C28 N4 O24'
_cell_volume   1812.21032359
_cell_formula_units_Z   4
loop_
 _symmetry_equiv_pos_site_id
 _symmetry_equiv_pos_as_xyz
  1  'x, y, z'
loop_
 _atom_site_type_symbol
 _atom_site_label
 _atom_site_symmetry_multiplicity
 _atom_site_fract_x
 _atom_site_fract_y
 _atom_site_fract_z
 _atom_site_occupancy
 _atom_site_charge
  U  U1  1  0.161760  0.070600  0.572470  1.0  1.444
  U  U2  1  0.223510  0.603990  0.259140  1.0  1.883
  U  U3  1  0.276490  0.103990  0.240860  1.0  1.8842
  U  U4  1  0.338240  0.570600  0.927530  1.0  1.4428
  U  U5  1  0.723510  0.896010  0.759140  1.0  1.8831
  U  U6  1  0.661760  0.429400  0.072470  1.0  1.4418
  U  U7  1  0.838240  0.929400  0.427530  1.0  1.4402
  U  U8  1  0.776490  0.396010  0.740860  1.0  1.8834
  H  H9  1  0.349400  0.812700  0.431700  1.0  0.0791
  H  H10  1  0.119500  0.935300  0.009500  1.0  0.0801
  H  H11  1  0.380500  0.435300  0.490500  1.0  0.0798
  H  H12  1  0.619500  0.564700  0.509500  1.0  0.0798
  H  H13  1  0.150600  0.312700  0.068300  1.0  0.0787
  H  H14  1  0.880500  0.064700  0.990500  1.0  0.0799
  H  H15  1  0.650600  0.187300  0.568300  1.0  0.0787
  H  H16  1  0.849400  0.687300  0.931700  1.0  0.0792
  C  C17  1  0.914700  0.133200  0.980700  1.0  -0.1598
  C  C18  1  0.048500  0.444000  0.917100  1.0  0.6875
  C  C19  1  0.006600  0.335200  0.946400  1.0  0.0657
  C  C20  1  0.575900  0.219600  0.527100  1.0  -0.1232
  C  C21  1  0.730700  0.154600  0.830300  1.0  0.6363
  C  C22  1  0.951500  0.556000  0.082900  1.0  0.6879
  C  C23  1  0.852700  0.193500  0.903700  1.0  0.0648
  C  C24  1  0.585300  0.633200  0.519300  1.0  -0.1592
  C  C25  1  0.493400  0.835200  0.553600  1.0  0.0644
  C  C26  1  0.993400  0.664800  0.053600  1.0  0.0671
  C  C27  1  0.968600  0.823900  0.954800  1.0  0.2704
  C  C28  1  0.647300  0.693500  0.596300  1.0  0.0663
  C  C29  1  0.230700  0.345400  0.330300  1.0  0.6364
  C  C30  1  0.031400  0.176100  0.045200  1.0  0.2685
  C  C31  1  0.424100  0.780400  0.472900  1.0  -0.1247
  C  C32  1  0.085300  0.866800  0.019300  1.0  -0.1593
  C  C33  1  0.451500  0.944000  0.582900  1.0  0.6872
  C  C34  1  0.075900  0.280400  0.027100  1.0  -0.124
  C  C35  1  0.269300  0.845400  0.169700  1.0  0.637
  C  C36  1  0.506600  0.164800  0.446400  1.0  0.0639
  C  C37  1  0.769300  0.654600  0.669700  1.0  0.637
  C  C38  1  0.352700  0.306500  0.403700  1.0  0.0654
  C  C39  1  0.147300  0.806500  0.096300  1.0  0.0668
  C  C40  1  0.548500  0.056000  0.417100  1.0  0.6876
  C  C41  1  0.414700  0.366800  0.480700  1.0  -0.1603
  C  C42  1  0.531400  0.323900  0.545200  1.0  0.2682
  C  C43  1  0.924100  0.719600  0.972900  1.0  -0.1235
  C  C44  1  0.468600  0.676100  0.454800  1.0  0.2714
  N  N45  1  0.395100  0.206700  0.385100  1.0  -0.5338
  N  N46  1  0.604900  0.793300  0.614900  1.0  -0.5321
  N  N47  1  0.895100  0.293300  0.885100  1.0  -0.5333
  N  N48  1  0.104900  0.706700  0.114900  1.0  -0.5321
  O  O49  1  0.688000  0.056900  0.836600  1.0  -0.7232
  O  O50  1  0.429400  0.445400  0.047000  1.0  -0.7507
  O  O51  1  0.070600  0.945400  0.453000  1.0  -0.7519
  O  O52  1  0.589600  0.380400  0.620200  1.0  -0.7303
  O  O53  1  0.648600  0.006700  0.468400  1.0  -0.7405
  O  O54  1  0.321300  0.780300  0.233600  1.0  -0.6942
  O  O55  1  0.851400  0.506700  0.031600  1.0  -0.7385
  O  O56  1  0.089600  0.119600  0.120200  1.0  -0.7311
  O  O57  1  0.678700  0.219700  0.766400  1.0  -0.695
  O  O58  1  0.148600  0.493300  0.968400  1.0  -0.7404
  O  O59  1  0.570600  0.554600  0.953000  1.0  -0.7522
  O  O60  1  0.812000  0.556900  0.663400  1.0  -0.7244
  O  O61  1  0.351400  0.993300  0.531600  1.0  -0.7384
  O  O62  1  0.821300  0.719700  0.733600  1.0  -0.6936
  O  O63  1  0.410400  0.619600  0.379800  1.0  -0.7346
  O  O64  1  0.477000  0.019300  0.340700  1.0  -0.7482
  O  O65  1  0.188000  0.443100  0.336600  1.0  -0.7273
  O  O66  1  0.178700  0.280300  0.266400  1.0  -0.6953
  O  O67  1  0.910400  0.880400  0.879800  1.0  -0.7351
  O  O68  1  0.523000  0.980700  0.659300  1.0  -0.7521
  O  O69  1  0.023000  0.519300  0.159300  1.0  -0.7525
  O  O70  1  0.929400  0.054600  0.547000  1.0  -0.7513
  O  O71  1  0.312000  0.943100  0.163400  1.0  -0.7229
  O  O72  1  0.977000  0.480700  0.840700  1.0  -0.7486
