# generated using pymatgen
data_Ga3P3CO14
_symmetry_space_group_name_H-M   'P 1'
_cell_length_a   8.99990000
_cell_length_b   9.11230000
_cell_length_c   9.49320000
_cell_angle_alpha   90.83700000
_cell_angle_beta   94.23100000
_cell_angle_gamma   94.17800000
_symmetry_Int_Tables_number   1
_chemical_formula_structural   Ga3P3CO14
_chemical_formula_sum   'Ga6 P6 C2 O28'
_cell_volume   774.19399106
_cell_formula_units_Z   2
loop_
 _symmetry_equiv_pos_site_id
 _symmetry_equiv_pos_as_xyz
  1  'x, y, z'
loop_
 _atom_site_type_symbol
 _atom_site_label
 _atom_site_symmetry_multiplicity
 _atom_site_fract_x
 _atom_site_fract_y
 _atom_site_fract_z
 _atom_site_occupancy
 _atom_site_charge
  Ga  Ga1  1  0.283060  0.073080  0.617280  1.0  1.6654
  Ga  Ga2  1  0.610570  0.341470  0.133510  1.0  1.7096
  Ga  Ga3  1  0.191820  0.099750  0.092240  1.0  1.7269
  Ga  Ga4  1  0.716940  0.926920  0.382720  1.0  1.6696
  Ga  Ga5  1  0.389430  0.658530  0.866490  1.0  1.7087
  Ga  Ga6  1  0.808180  0.900250  0.907760  1.0  1.7272
  P  P7  1  0.439310  0.145480  0.336400  1.0  1.7754
  P  P8  1  0.366960  0.299980  0.883440  1.0  1.9871
  P  P9  1  0.127590  0.863550  0.862300  1.0  1.9026
  P  P10  1  0.560690  0.854520  0.663600  1.0  1.7756
  P  P11  1  0.633040  0.700020  0.116560  1.0  1.9869
  P  P12  1  0.872410  0.136450  0.137700  1.0  1.902
  C  C13  1  0.976200  0.073100  0.528500  1.0  0.6368
  C  C14  1  0.023800  0.926900  0.471500  1.0  0.6359
  O  O15  1  0.341500  0.179000  0.455100  1.0  -0.7851
  O  O16  1  0.347100  0.061700  0.214000  1.0  -0.8816
  O  O17  1  0.567000  0.057900  0.382900  1.0  -0.8736
  O  O18  1  0.497900  0.297600  0.279800  1.0  -0.8119
  O  O19  1  0.235600  0.244200  0.968300  1.0  -0.9157
  O  O20  1  0.366800  0.228700  0.739700  1.0  -0.8395
  O  O21  1  0.514300  0.273100  0.967400  1.0  -0.8839
  O  O22  1  0.352200  0.462900  0.867000  1.0  -0.9216
  O  O23  1  0.199500  0.716400  0.853000  1.0  -0.8518
  O  O24  1  0.135800  0.915700  0.019000  1.0  -0.8691
  O  O25  1  0.202900  0.978400  0.778000  1.0  -0.869
  O  O26  1  0.961200  0.832300  0.812700  1.0  -0.8375
  O  O27  1  0.077300  0.159500  0.588700  1.0  -0.5316
  O  O28  1  0.841200  0.094900  0.510600  1.0  -0.5336
  O  O29  1  0.658500  0.821000  0.544900  1.0  -0.7846
  O  O30  1  0.652900  0.938300  0.786000  1.0  -0.8816
  O  O31  1  0.433000  0.942100  0.617100  1.0  -0.8727
  O  O32  1  0.502100  0.702400  0.720200  1.0  -0.8134
  O  O33  1  0.764400  0.755800  0.031700  1.0  -0.9135
  O  O34  1  0.633200  0.771300  0.260300  1.0  -0.8405
  O  O35  1  0.485700  0.726900  0.032600  1.0  -0.8856
  O  O36  1  0.647800  0.537100  0.133000  1.0  -0.9186
  O  O37  1  0.800500  0.283600  0.147000  1.0  -0.8525
  O  O38  1  0.864200  0.084300  0.981000  1.0  -0.8688
  O  O39  1  0.797100  0.021600  0.222000  1.0  -0.8682
  O  O40  1  0.038800  0.167700  0.187300  1.0  -0.8382
  O  O41  1  0.922700  0.840500  0.411300  1.0  -0.5307
  O  O42  1  0.158800  0.905100  0.489400  1.0  -0.5351
