# generated using pymatgen
data_Na6EuH24C40S8N8ClO36
_symmetry_space_group_name_H-M   'P 1'
_cell_length_a   12.26500000
_cell_length_b   12.26500000
_cell_length_c   12.42100000
_cell_angle_alpha   90.00000000
_cell_angle_beta   90.00000000
_cell_angle_gamma   90.00000000
_symmetry_Int_Tables_number   1
_chemical_formula_structural   Na6EuH24C40S8N8ClO36
_chemical_formula_sum   'Na6 Eu1 H24 C40 S8 N8 Cl1 O36'
_cell_volume   1868.49382472
_cell_formula_units_Z   1
loop_
 _symmetry_equiv_pos_site_id
 _symmetry_equiv_pos_as_xyz
  1  'x, y, z'
loop_
 _atom_site_type_symbol
 _atom_site_label
 _atom_site_symmetry_multiplicity
 _atom_site_fract_x
 _atom_site_fract_y
 _atom_site_fract_z
 _atom_site_occupancy
 _atom_site_charge
  Na  Na1  1  0.528900  0.272400  0.490800  1.0  0.9697
  Na  Na2  1  0.471100  0.727600  0.490800  1.0  0.9693
  Na  Na3  1  0.272400  0.471100  0.509200  1.0  0.9687
  Na  Na4  1  0.727600  0.528900  0.509200  1.0  0.9689
  Na  Na5  1  0.000000  0.500000  0.488000  1.0  0.9464
  Na  Na6  1  0.500000  0.000000  0.512000  1.0  0.9447
  Eu  Eu7  1  0.000000  0.000000  0.000000  1.0  2.0975
  H  H8  1  0.892800  0.280100  0.876800  1.0  0.1376
  H  H9  1  0.882900  0.350600  0.705000  1.0  0.1296
  H  H10  1  0.777900  0.055500  0.597800  1.0  0.1333
  H  H11  1  0.608500  0.979600  0.732600  1.0  0.1177
  H  H12  1  0.666300  0.674500  0.838200  1.0  0.133
  H  H13  1  0.845600  0.723600  0.876100  1.0  0.134
  H  H14  1  0.107200  0.719900  0.876800  1.0  0.1373
  H  H15  1  0.117100  0.649400  0.705000  1.0  0.1291
  H  H16  1  0.222100  0.944500  0.597800  1.0  0.1331
  H  H17  1  0.391500  0.020400  0.732600  1.0  0.1173
  H  H18  1  0.333700  0.325500  0.838200  1.0  0.1341
  H  H19  1  0.154400  0.276400  0.876100  1.0  0.1345
  H  H20  1  0.280100  0.107200  0.123200  1.0  0.1374
  H  H21  1  0.350600  0.117100  0.295000  1.0  0.1295
  H  H22  1  0.055500  0.222100  0.402200  1.0  0.1342
  H  H23  1  0.979600  0.391500  0.267400  1.0  0.1172
  H  H24  1  0.674500  0.333700  0.161800  1.0  0.1336
  H  H25  1  0.723600  0.154400  0.123900  1.0  0.1338
  H  H26  1  0.719900  0.892800  0.123200  1.0  0.1374
  H  H27  1  0.649400  0.882900  0.295000  1.0  0.1294
  H  H28  1  0.944500  0.777900  0.402200  1.0  0.1339
  H  H29  1  0.020400  0.608500  0.267400  1.0  0.1168
  H  H30  1  0.325500  0.666300  0.161800  1.0  0.1317
  H  H31  1  0.276400  0.845600  0.123900  1.0  0.1334
  C  C32  1  0.867900  0.235300  0.819400  1.0  0.0155
  C  C33  1  0.863200  0.276800  0.718000  1.0  -0.0742
  C  C34  1  0.829100  0.210200  0.632700  1.0  -0.2348
  C  C35  1  0.800300  0.102500  0.654400  1.0  -0.0285
  C  C36  1  0.804800  0.064800  0.759400  1.0  0.1468
  C  C37  1  0.763400  0.955600  0.786700  1.0  0.0878
  C  C38  1  0.656800  0.926300  0.761000  1.0  -0.0623
  C  C39  1  0.620500  0.821100  0.776300  1.0  -0.1765
  C  C40  1  0.690900  0.746200  0.822700  1.0  -0.0675
  C  C41  1  0.797100  0.776100  0.846500  1.0  0.0192
  C  C42  1  0.132100  0.764700  0.819400  1.0  0.0116
  C  C43  1  0.136800  0.723200  0.718000  1.0  -0.0743
  C  C44  1  0.170900  0.789800  0.632700  1.0  -0.2358
  C  C45  1  0.199700  0.897500  0.654400  1.0  -0.0278
  C  C46  1  0.195200  0.935200  0.759400  1.0  0.1472
  C  C47  1  0.236600  0.044400  0.786700  1.0  0.0886
  C  C48  1  0.343200  0.073700  0.761000  1.0  -0.0638
  C  C49  1  0.379500  0.178900  0.776300  1.0  -0.179
  C  C50  1  0.309100  0.253800  0.822700  1.0  -0.0685
  C  C51  1  0.202900  0.223900  0.846500  1.0  0.0206
  C  C52  1  0.235300  0.132100  0.180600  1.0  0.0152
  C  C53  1  0.276800  0.136800  0.282000  1.0  -0.0713
  C  C54  1  0.210200  0.170900  0.367300  1.0  -0.2364
  C  C55  1  0.102500  0.199700  0.345600  1.0  -0.0285
  C  C56  1  0.064800  0.195200  0.240600  1.0  0.1457
  C  C57  1  0.955600  0.236600  0.213300  1.0  0.0875
  C  C58  1  0.926300  0.343200  0.239000  1.0  -0.0621
  C  C59  1  0.821100  0.379500  0.223700  1.0  -0.1768
  C  C60  1  0.746200  0.309100  0.177300  1.0  -0.0654
  C  C61  1  0.776100  0.202900  0.153500  1.0  0.0194
  C  C62  1  0.764700  0.867900  0.180600  1.0  0.0143
  C  C63  1  0.723200  0.863200  0.282000  1.0  -0.0717
  C  C64  1  0.789800  0.829100  0.367300  1.0  -0.2364
  C  C65  1  0.897500  0.800300  0.345600  1.0  -0.0279
  C  C66  1  0.935200  0.804800  0.240600  1.0  0.1453
  C  C67  1  0.044400  0.763400  0.213300  1.0  0.0882
  C  C68  1  0.073700  0.656800  0.239000  1.0  -0.0616
  C  C69  1  0.178900  0.620500  0.223700  1.0  -0.18
  C  C70  1  0.253800  0.690900  0.177300  1.0  -0.0637
  C  C71  1  0.223900  0.797100  0.153500  1.0  0.0192
  S  S72  1  0.817240  0.264710  0.500300  1.0  1.3818
  S  S73  1  0.485110  0.787280  0.738700  1.0  1.3804
  S  S74  1  0.182760  0.735290  0.500300  1.0  1.3819
  S  S75  1  0.514890  0.212720  0.738700  1.0  1.3774
  S  S76  1  0.264710  0.182760  0.499700  1.0  1.3825
  S  S77  1  0.787280  0.514890  0.261300  1.0  1.3741
  S  S78  1  0.735290  0.817240  0.499700  1.0  1.3823
  S  S79  1  0.212720  0.485110  0.261300  1.0  1.3747
  N  N80  1  0.838000  0.131800  0.839500  1.0  0.3612
  N  N81  1  0.832500  0.878100  0.828300  1.0  0.3609
  N  N82  1  0.162000  0.868200  0.839500  1.0  0.3616
  N  N83  1  0.167500  0.121900  0.828300  1.0  0.3604
  N  N84  1  0.131800  0.162000  0.160500  1.0  0.3602
  N  N85  1  0.878100  0.167500  0.171700  1.0  0.3588
  N  N86  1  0.868200  0.838000  0.160500  1.0  0.3613
  N  N87  1  0.121900  0.832500  0.171700  1.0  0.3585
  Cl  Cl88  1  0.500000  0.500000  0.500000  1.0  -0.4774
  O  O89  1  0.842600  0.095200  0.939800  1.0  -0.6454
  O  O90  1  0.933900  0.903300  0.845200  1.0  -0.6525
  O  O91  1  0.914100  0.330200  0.486800  1.0  -0.7148
  O  O92  1  0.810200  0.172100  0.428500  1.0  -0.5758
  O  O93  1  0.717800  0.330300  0.502000  1.0  -0.7618
  O  O94  1  0.459000  0.859300  0.650500  1.0  -0.742
  O  O95  1  0.490900  0.675100  0.704000  1.0  -0.6651
  O  O96  1  0.417600  0.804800  0.831800  1.0  -0.6001
  O  O97  1  0.116000  0.415600  0.615500  1.0  -0.3902
  O  O98  1  0.157400  0.904800  0.939800  1.0  -0.6442
  O  O99  1  0.066100  0.096700  0.845200  1.0  -0.6511
  O  O100  1  0.085900  0.669800  0.486800  1.0  -0.7153
  O  O101  1  0.189800  0.827900  0.428500  1.0  -0.5766
  O  O102  1  0.282200  0.669700  0.502000  1.0  -0.7615
  O  O103  1  0.541000  0.140700  0.650500  1.0  -0.7421
  O  O104  1  0.509100  0.324900  0.704000  1.0  -0.6569
  O  O105  1  0.582400  0.195200  0.831800  1.0  -0.6015
  O  O106  1  0.884000  0.584400  0.615500  1.0  -0.3891
  O  O107  1  0.095200  0.157400  0.060200  1.0  -0.6467
  O  O108  1  0.903300  0.066100  0.154800  1.0  -0.6521
  O  O109  1  0.330200  0.085900  0.513200  1.0  -0.7168
  O  O110  1  0.172100  0.189800  0.571500  1.0  -0.5745
  O  O111  1  0.330300  0.282200  0.498000  1.0  -0.7634
  O  O112  1  0.859300  0.541000  0.349500  1.0  -0.7447
  O  O113  1  0.675100  0.509100  0.296000  1.0  -0.6376
  O  O114  1  0.804800  0.582400  0.168200  1.0  -0.6046
  O  O115  1  0.415600  0.884000  0.384500  1.0  -0.3907
  O  O116  1  0.904800  0.842600  0.060200  1.0  -0.6481
  O  O117  1  0.096700  0.933900  0.154800  1.0  -0.6498
  O  O118  1  0.669800  0.914100  0.513200  1.0  -0.7164
  O  O119  1  0.827900  0.810200  0.571500  1.0  -0.5752
  O  O120  1  0.669700  0.717800  0.498000  1.0  -0.7629
  O  O121  1  0.140700  0.459000  0.349500  1.0  -0.7444
  O  O122  1  0.324900  0.490900  0.296000  1.0  -0.6325
  O  O123  1  0.195200  0.417600  0.168200  1.0  -0.6057
  O  O124  1  0.584400  0.116000  0.384500  1.0  -0.3901
