# generated using pymatgen
data_Cu7H12(C8O11)2
_symmetry_space_group_name_H-M   'P 1'
_cell_length_a   10.14170000
_cell_length_b   14.22380000
_cell_length_c   10.54740000
_cell_angle_alpha   91.79500000
_cell_angle_beta   90.00000000
_cell_angle_gamma   90.00000000
_symmetry_Int_Tables_number   1
_chemical_formula_structural   Cu7H12(C8O11)2
_chemical_formula_sum   'Cu14 H24 C32 O44'
_cell_volume   1520.75289397
_cell_formula_units_Z   2
loop_
 _symmetry_equiv_pos_site_id
 _symmetry_equiv_pos_as_xyz
  1  'x, y, z'
loop_
 _atom_site_type_symbol
 _atom_site_label
 _atom_site_symmetry_multiplicity
 _atom_site_fract_x
 _atom_site_fract_y
 _atom_site_fract_z
 _atom_site_occupancy
 _atom_site_charge
  Cu  Cu1  1  0.845760  0.000950  0.236460  1.0  0.833
  Cu  Cu2  1  0.502260  0.898680  0.474150  1.0  0.7456
  Cu  Cu3  1  0.345760  0.999050  0.263540  1.0  0.8311
  Cu  Cu4  1  0.002260  0.101320  0.025850  1.0  0.7425
  Cu  Cu5  1  0.154240  0.999050  0.763540  1.0  0.8315
  Cu  Cu6  1  0.497740  0.101320  0.525850  1.0  0.7415
  Cu  Cu7  1  0.654240  0.000950  0.736460  1.0  0.8329
  Cu  Cu8  1  0.997740  0.898680  0.974150  1.0  0.7451
  Cu  Cu9  1  0.000000  0.500000  0.500000  1.0  0.9736
  Cu  Cu10  1  0.500000  0.500000  0.000000  1.0  0.9736
  Cu  Cu11  1  0.000000  0.000000  0.500000  1.0  0.9129
  Cu  Cu12  1  0.500000  0.000000  0.000000  1.0  0.9129
  Cu  Cu13  1  0.000000  0.500000  0.000000  1.0  1.0157
  Cu  Cu14  1  0.500000  0.500000  0.500000  1.0  1.0157
  H  H15  1  0.823000  0.064000  0.425000  1.0  0.3819
  H  H16  1  0.823000  0.997000  0.017000  1.0  0.3854
  H  H17  1  0.878000  0.684000  0.345000  1.0  0.0942
  H  H18  1  0.065000  0.740000  0.199000  1.0  0.2376
  H  H19  1  0.237000  0.680000  0.287000  1.0  0.1032
  H  H20  1  0.180000  0.718000  0.538000  1.0  0.1054
  H  H21  1  0.323000  0.936000  0.075000  1.0  0.3805
  H  H22  1  0.323000  0.003000  0.483000  1.0  0.3863
  H  H23  1  0.378000  0.316000  0.155000  1.0  0.0943
  H  H24  1  0.565000  0.260000  0.301000  1.0  0.2382
  H  H25  1  0.737000  0.320000  0.213000  1.0  0.1029
  H  H26  1  0.680000  0.282000  0.962000  1.0  0.1047
  H  H27  1  0.177000  0.936000  0.575000  1.0  0.38
  H  H28  1  0.177000  0.003000  0.983000  1.0  0.3821
  H  H29  1  0.122000  0.316000  0.655000  1.0  0.0911
  H  H30  1  0.935000  0.260000  0.801000  1.0  0.2364
  H  H31  1  0.763000  0.320000  0.713000  1.0  0.1043
  H  H32  1  0.820000  0.282000  0.462000  1.0  0.1046
  H  H33  1  0.677000  0.064000  0.925000  1.0  0.381
  H  H34  1  0.677000  0.997000  0.517000  1.0  0.3851
  H  H35  1  0.622000  0.684000  0.845000  1.0  0.0912
  H  H36  1  0.435000  0.740000  0.699000  1.0  0.2356
  H  H37  1  0.263000  0.680000  0.787000  1.0  0.1039
  H  H38  1  0.320000  0.718000  0.038000  1.0  0.1056
  C  C39  1  0.972100  0.666960  0.335800  1.0  0.0608
  C  C40  1  0.057400  0.743990  0.279900  1.0  -0.1521
  C  C41  1  0.192600  0.723750  0.338100  1.0  -0.1743
  C  C42  1  0.161800  0.675700  0.463000  1.0  0.0462
  C  C43  1  0.981800  0.574190  0.259100  1.0  0.6573
  C  C44  1  0.999600  0.839100  0.319600  1.0  0.678
  C  C45  1  0.282200  0.808840  0.352800  1.0  0.6673
  C  C46  1  0.243600  0.586240  0.482300  1.0  0.6576
  C  C47  1  0.472100  0.333040  0.164200  1.0  0.0616
  C  C48  1  0.557400  0.256010  0.220100  1.0  -0.1531
  C  C49  1  0.692600  0.276250  0.161900  1.0  -0.1747
  C  C50  1  0.661800  0.324300  0.037000  1.0  0.0469
  C  C51  1  0.481800  0.425810  0.240900  1.0  0.6568
  C  C52  1  0.499600  0.160900  0.180400  1.0  0.6775
  C  C53  1  0.782200  0.191160  0.147200  1.0  0.6681
  C  C54  1  0.743600  0.413760  0.017700  1.0  0.6569
  C  C55  1  0.027900  0.333040  0.664200  1.0  0.0628
  C  C56  1  0.942600  0.256010  0.720100  1.0  -0.1548
  C  C57  1  0.807400  0.276250  0.661900  1.0  -0.1752
  C  C58  1  0.838200  0.324300  0.537000  1.0  0.0469
  C  C59  1  0.018200  0.425810  0.740900  1.0  0.657
  C  C60  1  0.000400  0.160900  0.680400  1.0  0.6783
  C  C61  1  0.717800  0.191160  0.647200  1.0  0.6692
  C  C62  1  0.756400  0.413760  0.517700  1.0  0.6553
  C  C63  1  0.527900  0.666960  0.835800  1.0  0.0614
  C  C64  1  0.442600  0.743990  0.779900  1.0  -0.1537
  C  C65  1  0.307400  0.723750  0.838100  1.0  -0.1754
  C  C66  1  0.338200  0.675700  0.963000  1.0  0.046
  C  C67  1  0.518200  0.574190  0.759100  1.0  0.6574
  C  C68  1  0.500400  0.839100  0.819600  1.0  0.6775
  C  C69  1  0.217800  0.808840  0.852800  1.0  0.6689
  C  C70  1  0.256400  0.586240  0.982300  1.0  0.6566
  O  O71  1  0.021910  0.656490  0.462660  1.0  -0.359
  O  O72  1  0.015260  0.501040  0.313050  1.0  -0.5825
  O  O73  1  0.955160  0.581290  0.143850  1.0  -0.5925
  O  O74  1  0.924960  0.875220  0.239550  1.0  -0.6168
  O  O75  1  0.026800  0.870940  0.428710  1.0  -0.5722
  O  O76  1  0.272660  0.869100  0.269540  1.0  -0.5809
  O  O77  1  0.361140  0.809750  0.445210  1.0  -0.5615
  O  O78  1  0.363520  0.594490  0.464280  1.0  -0.5691
  O  O79  1  0.187870  0.512730  0.519200  1.0  -0.5827
  O  O80  1  0.833240  0.018600  0.418680  1.0  -0.8305
  O  O81  1  0.884010  0.994030  0.052440  1.0  -0.921
  O  O82  1  0.521910  0.343510  0.037340  1.0  -0.3613
  O  O83  1  0.515260  0.498960  0.186950  1.0  -0.5836
  O  O84  1  0.455160  0.418710  0.356150  1.0  -0.592
  O  O85  1  0.424960  0.124780  0.260450  1.0  -0.616
  O  O86  1  0.526800  0.129060  0.071290  1.0  -0.5707
  O  O87  1  0.772660  0.130900  0.230460  1.0  -0.5812
  O  O88  1  0.861140  0.190250  0.054790  1.0  -0.5621
  O  O89  1  0.863520  0.405510  0.035720  1.0  -0.5684
  O  O90  1  0.687870  0.487270  0.980800  1.0  -0.5821
  O  O91  1  0.333240  0.981400  0.081320  1.0  -0.8307
  O  O92  1  0.384010  0.005970  0.447560  1.0  -0.9234
  O  O93  1  0.978090  0.343510  0.537340  1.0  -0.3603
  O  O94  1  0.984740  0.498960  0.686950  1.0  -0.5833
  O  O95  1  0.044840  0.418710  0.856150  1.0  -0.5907
  O  O96  1  0.075040  0.124780  0.760450  1.0  -0.617
  O  O97  1  0.973200  0.129060  0.571290  1.0  -0.5716
  O  O98  1  0.727340  0.130900  0.730460  1.0  -0.5811
  O  O99  1  0.638860  0.190250  0.554790  1.0  -0.5626
  O  O100  1  0.636480  0.405510  0.535720  1.0  -0.5688
  O  O101  1  0.812130  0.487270  0.480800  1.0  -0.5832
  O  O102  1  0.166760  0.981400  0.581320  1.0  -0.8301
  O  O103  1  0.115990  0.005970  0.947560  1.0  -0.9224
  O  O104  1  0.478090  0.656490  0.962660  1.0  -0.3585
  O  O105  1  0.484740  0.501040  0.813050  1.0  -0.5826
  O  O106  1  0.544840  0.581290  0.643850  1.0  -0.5914
  O  O107  1  0.575040  0.875220  0.739550  1.0  -0.6176
  O  O108  1  0.473200  0.870940  0.928710  1.0  -0.5736
  O  O109  1  0.227340  0.869100  0.769540  1.0  -0.5814
  O  O110  1  0.138860  0.809750  0.945210  1.0  -0.5621
  O  O111  1  0.136480  0.594490  0.964280  1.0  -0.5697
  O  O112  1  0.312130  0.512730  0.019200  1.0  -0.5829
  O  O113  1  0.666760  0.018600  0.918680  1.0  -0.8304
  O  O114  1  0.615990  0.994030  0.552440  1.0  -0.9207
