# generated using pymatgen
data_Cu7H11C16(ClO11)2
_symmetry_space_group_name_H-M   'P 1'
_cell_length_a   10.04520000
_cell_length_b   14.16010000
_cell_length_c   10.22940000
_cell_angle_alpha   92.25800000
_cell_angle_beta   90.00000000
_cell_angle_gamma   90.00000000
_symmetry_Int_Tables_number   1
_chemical_formula_structural   Cu7H11C16(ClO11)2
_chemical_formula_sum   'Cu14 H22 C32 Cl4 O44'
_cell_volume   1453.91068524
_cell_formula_units_Z   2
loop_
 _symmetry_equiv_pos_site_id
 _symmetry_equiv_pos_as_xyz
  1  'x, y, z'
loop_
 _atom_site_type_symbol
 _atom_site_label
 _atom_site_symmetry_multiplicity
 _atom_site_fract_x
 _atom_site_fract_y
 _atom_site_fract_z
 _atom_site_occupancy
 _atom_site_charge
  Cu  Cu1  1  0.248830  0.285350  0.925620  1.0  1.0189
  Cu  Cu2  1  0.232280  0.788510  0.932350  1.0  0.9773
  Cu  Cu3  1  0.876590  0.770340  0.700640  1.0  1.0434
  Cu  Cu4  1  0.406640  0.781720  0.656050  1.0  1.0283
  Cu  Cu5  1  0.281110  0.664360  0.407690  1.0  0.9616
  Cu  Cu6  1  0.263860  0.876170  0.441090  1.0  0.9754
  Cu  Cu7  1  0.257340  0.287440  0.437930  1.0  1.0239
  Cu  Cu8  1  0.751170  0.285350  0.425620  1.0  1.0188
  Cu  Cu9  1  0.767720  0.788510  0.432350  1.0  0.977
  Cu  Cu10  1  0.123410  0.770340  0.200640  1.0  1.0433
  Cu  Cu11  1  0.593360  0.781720  0.156050  1.0  1.0273
  Cu  Cu12  1  0.718890  0.664360  0.907690  1.0  0.963
  Cu  Cu13  1  0.736140  0.876170  0.941090  1.0  0.9762
  Cu  Cu14  1  0.742660  0.287440  0.937930  1.0  1.0239
  H  H15  1  0.364800  0.492600  0.777200  1.0  0.1297
  H  H16  1  0.175000  0.521100  0.608900  1.0  0.1252
  H  H17  1  0.005300  0.450400  0.707100  1.0  0.134
  H  H18  1  0.059400  0.507100  0.969100  1.0  0.1127
  H  H19  1  0.124600  0.093100  0.093100  1.0  0.1344
  H  H20  1  0.316800  0.053200  0.255600  1.0  0.129
  H  H21  1  0.497200  0.106100  0.148400  1.0  0.1342
  H  H22  1  0.429600  0.066700  0.890200  1.0  0.1105
  H  H23  1  0.023000  0.839000  0.995000  1.0  0.3203
  H  H24  1  0.929000  0.768000  0.932000  1.0  0.4124
  H  H25  1  0.395000  0.871000  0.869000  1.0  0.307
  H  H26  1  0.635200  0.492600  0.277200  1.0  0.1311
  H  H27  1  0.825000  0.521100  0.108900  1.0  0.1248
  H  H28  1  0.994700  0.450400  0.207100  1.0  0.1342
  H  H29  1  0.940600  0.507100  0.469100  1.0  0.1105
  H  H30  1  0.875400  0.093100  0.593100  1.0  0.1338
  H  H31  1  0.683200  0.053200  0.755600  1.0  0.1289
  H  H32  1  0.502800  0.106100  0.648400  1.0  0.1335
  H  H33  1  0.570400  0.066700  0.390200  1.0  0.1105
  H  H34  1  0.977000  0.839000  0.495000  1.0  0.3191
  H  H35  1  0.071000  0.768000  0.432000  1.0  0.4122
  H  H36  1  0.605000  0.871000  0.369000  1.0  0.3087
  C  C37  1  0.275000  0.462500  0.768100  1.0  0.0687
  C  C38  1  0.176500  0.531600  0.706200  1.0  -0.1978
  C  C39  1  0.044100  0.501900  0.764900  1.0  -0.1832
  C  C40  1  0.080800  0.459700  0.897100  1.0  0.0689
  C  C41  1  0.284400  0.372000  0.683400  1.0  0.6491
  C  C42  1  0.218700  0.632400  0.742300  1.0  0.7015
  C  C43  1  0.942700  0.581600  0.778400  1.0  0.7016
  C  C44  1  0.001700  0.369200  0.919100  1.0  0.634
  C  C45  1  0.218400  0.116500  0.097500  1.0  0.0791
  C  C46  1  0.309900  0.042100  0.158700  1.0  -0.182
  C  C47  1  0.445600  0.060700  0.090600  1.0  -0.1749
  C  C48  1  0.410000  0.110700  0.966600  1.0  0.0621
  C  C49  1  0.225700  0.210500  0.177500  1.0  0.634
  C  C50  1  0.258000  0.943000  0.124400  1.0  0.7119
  C  C51  1  0.530000  0.973600  0.066700  1.0  0.684
  C  C52  1  0.491500  0.200800  0.950800  1.0  0.6481
  C  C53  1  0.725000  0.462500  0.268100  1.0  0.069
  C  C54  1  0.823500  0.531600  0.206200  1.0  -0.1969
  C  C55  1  0.955900  0.501900  0.264900  1.0  -0.1816
  C  C56  1  0.919200  0.459700  0.397100  1.0  0.0683
  C  C57  1  0.715600  0.372000  0.183400  1.0  0.6477
  C  C58  1  0.781300  0.632400  0.242300  1.0  0.7017
  C  C59  1  0.057300  0.581600  0.278400  1.0  0.7017
  C  C60  1  0.998300  0.369200  0.419100  1.0  0.6368
  C  C61  1  0.781600  0.116500  0.597500  1.0  0.0806
  C  C62  1  0.690100  0.042100  0.658700  1.0  -0.1839
  C  C63  1  0.554400  0.060700  0.590600  1.0  -0.1755
  C  C64  1  0.590000  0.110700  0.466600  1.0  0.0629
  C  C65  1  0.774300  0.210500  0.677500  1.0  0.6346
  C  C66  1  0.742000  0.943000  0.624400  1.0  0.7121
  C  C67  1  0.470000  0.973600  0.566700  1.0  0.6839
  C  C68  1  0.508500  0.200800  0.450800  1.0  0.6466
  Cl  Cl69  1  0.107570  0.967820  0.530000  1.0  -0.494
  Cl  Cl70  1  0.626620  0.690910  0.651470  1.0  -0.5946
  Cl  Cl71  1  0.892430  0.967820  0.030000  1.0  -0.4996
  Cl  Cl72  1  0.373380  0.690910  0.151470  1.0  -0.5942
  O  O73  1  0.222100  0.444100  0.894800  1.0  -0.3069
  O  O74  1  0.243600  0.295600  0.727900  1.0  -0.5686
  O  O75  1  0.326200  0.380500  0.568700  1.0  -0.543
  O  O76  1  0.278800  0.674800  0.653300  1.0  -0.6486
  O  O77  1  0.197100  0.663300  0.855900  1.0  -0.5487
  O  O78  1  0.954100  0.644700  0.696000  1.0  -0.5631
  O  O79  1  0.854300  0.574500  0.863800  1.0  -0.57
  O  O80  1  0.878400  0.380100  0.918300  1.0  -0.5494
  O  O81  1  0.059700  0.293200  0.939800  1.0  -0.5576
  O  O82  1  0.068000  0.783900  0.023800  1.0  -0.7997
  O  O83  1  0.845600  0.768800  0.886800  1.0  -0.8984
  O  O84  1  0.269300  0.128900  0.968500  1.0  -0.3168
  O  O85  1  0.257900  0.284600  0.122800  1.0  -0.5611
  O  O86  1  0.200500  0.203600  0.297500  1.0  -0.5572
  O  O87  1  0.211000  0.896100  0.215400  1.0  -0.6207
  O  O88  1  0.268200  0.916000  0.007000  1.0  -0.5701
  O  O89  1  0.529300  0.915000  0.156600  1.0  -0.5728
  O  O90  1  0.595400  0.966900  0.961800  1.0  -0.5428
  O  O91  1  0.614000  0.191300  0.972600  1.0  -0.5371
  O  O92  1  0.439000  0.274900  0.912500  1.0  -0.5544
  O  O93  1  0.393800  0.806000  0.839200  1.0  -0.7709
  O  O94  1  0.391200  0.768700  0.467600  1.0  -0.7373
  O  O95  1  0.777900  0.444100  0.394800  1.0  -0.3061
  O  O96  1  0.756400  0.295600  0.227900  1.0  -0.5687
  O  O97  1  0.673800  0.380500  0.068700  1.0  -0.5409
  O  O98  1  0.721200  0.674800  0.153300  1.0  -0.6473
  O  O99  1  0.802900  0.663300  0.355900  1.0  -0.5475
  O  O100  1  0.045900  0.644700  0.196000  1.0  -0.5628
  O  O101  1  0.145700  0.574500  0.363800  1.0  -0.5691
  O  O102  1  0.121600  0.380100  0.418300  1.0  -0.5517
  O  O103  1  0.940300  0.293200  0.439800  1.0  -0.5586
  O  O104  1  0.932000  0.783900  0.523800  1.0  -0.8001
  O  O105  1  0.154400  0.768800  0.386800  1.0  -0.8987
  O  O106  1  0.730700  0.128900  0.468500  1.0  -0.3158
  O  O107  1  0.742100  0.284600  0.622800  1.0  -0.5609
  O  O108  1  0.799500  0.203600  0.797500  1.0  -0.5564
  O  O109  1  0.789000  0.896100  0.715400  1.0  -0.6215
  O  O110  1  0.731800  0.916000  0.507000  1.0  -0.5701
  O  O111  1  0.470700  0.915000  0.656600  1.0  -0.5707
  O  O112  1  0.404600  0.966900  0.461800  1.0  -0.5436
  O  O113  1  0.386000  0.191300  0.472600  1.0  -0.5367
  O  O114  1  0.561000  0.274900  0.412500  1.0  -0.5557
  O  O115  1  0.606200  0.806000  0.339200  1.0  -0.7709
  O  O116  1  0.608800  0.768700  0.967600  1.0  -0.7367
