# generated using pymatgen
data_Cu7H12(C8O11)2
_symmetry_space_group_name_H-M   'P 1'
_cell_length_a   10.16630000
_cell_length_b   14.26040000
_cell_length_c   10.56370000
_cell_angle_alpha   91.80300000
_cell_angle_beta   90.00000000
_cell_angle_gamma   90.00000000
_symmetry_Int_Tables_number   1
_chemical_formula_structural   Cu7H12(C8O11)2
_chemical_formula_sum   'Cu14 H24 C32 O44'
_cell_volume   1530.71952442
_cell_formula_units_Z   2
loop_
 _symmetry_equiv_pos_site_id
 _symmetry_equiv_pos_as_xyz
  1  'x, y, z'
loop_
 _atom_site_type_symbol
 _atom_site_label
 _atom_site_symmetry_multiplicity
 _atom_site_fract_x
 _atom_site_fract_y
 _atom_site_fract_z
 _atom_site_occupancy
 _atom_site_charge
  Cu  Cu1  1  0.845760  0.000980  0.236430  1.0  0.8368
  Cu  Cu2  1  0.502240  0.898680  0.474320  1.0  0.6421
  Cu  Cu3  1  0.345760  0.999020  0.263570  1.0  0.8351
  Cu  Cu4  1  0.002240  0.101320  0.025680  1.0  0.6418
  Cu  Cu5  1  0.154240  0.999020  0.763570  1.0  0.8356
  Cu  Cu6  1  0.497760  0.101320  0.525680  1.0  0.6424
  Cu  Cu7  1  0.654240  0.000980  0.736430  1.0  0.8366
  Cu  Cu8  1  0.997760  0.898680  0.974320  1.0  0.6463
  Cu  Cu9  1  0.000000  0.500000  0.500000  1.0  0.9918
  Cu  Cu10  1  0.500000  0.500000  0.000000  1.0  0.9917
  Cu  Cu11  1  0.000000  0.500000  0.000000  1.0  1.0073
  Cu  Cu12  1  0.500000  0.500000  0.500000  1.0  1.0073
  Cu  Cu13  1  0.000000  0.000000  0.500000  1.0  0.8606
  Cu  Cu14  1  0.500000  0.000000  0.000000  1.0  0.8588
  H  H15  1  0.876000  0.686000  0.349000  1.0  0.1251
  H  H16  1  0.065000  0.739000  0.193000  1.0  0.1478
  H  H17  1  0.237000  0.682000  0.289000  1.0  0.1445
  H  H18  1  0.175000  0.719000  0.539000  1.0  0.1093
  H  H19  1  0.831000  0.996000  0.019000  1.0  0.3973
  H  H20  1  0.819000  0.065000  0.420000  1.0  0.4328
  H  H21  1  0.376000  0.314000  0.151000  1.0  0.1245
  H  H22  1  0.565000  0.261000  0.307000  1.0  0.1452
  H  H23  1  0.737000  0.318000  0.211000  1.0  0.1452
  H  H24  1  0.675000  0.281000  0.961000  1.0  0.1091
  H  H25  1  0.331000  0.004000  0.481000  1.0  0.3983
  H  H26  1  0.319000  0.935000  0.080000  1.0  0.4313
  H  H27  1  0.124000  0.314000  0.651000  1.0  0.1181
  H  H28  1  0.935000  0.261000  0.807000  1.0  0.1448
  H  H29  1  0.763000  0.318000  0.711000  1.0  0.1481
  H  H30  1  0.825000  0.281000  0.461000  1.0  0.109
  H  H31  1  0.169000  0.004000  0.981000  1.0  0.3962
  H  H32  1  0.181000  0.935000  0.580000  1.0  0.431
  H  H33  1  0.624000  0.686000  0.849000  1.0  0.1188
  H  H34  1  0.435000  0.739000  0.693000  1.0  0.1473
  H  H35  1  0.263000  0.682000  0.789000  1.0  0.1474
  H  H36  1  0.325000  0.719000  0.039000  1.0  0.1093
  H  H37  1  0.669000  0.996000  0.519000  1.0  0.3969
  H  H38  1  0.681000  0.065000  0.920000  1.0  0.4314
  C  C39  1  0.972500  0.667030  0.335900  1.0  0.0419
  C  C40  1  0.057800  0.744020  0.279700  1.0  -0.1692
  C  C41  1  0.192300  0.723720  0.338500  1.0  -0.1696
  C  C42  1  0.161800  0.675770  0.463100  1.0  0.0472
  C  C43  1  0.982200  0.574480  0.259000  1.0  0.6407
  C  C44  1  0.999600  0.839430  0.320100  1.0  0.6897
  C  C45  1  0.282500  0.808780  0.353100  1.0  0.6825
  C  C46  1  0.243700  0.586620  0.482500  1.0  0.6368
  C  C47  1  0.472500  0.332970  0.164100  1.0  0.0429
  C  C48  1  0.557800  0.255980  0.220300  1.0  -0.1701
  C  C49  1  0.692300  0.276280  0.161500  1.0  -0.1699
  C  C50  1  0.661800  0.324230  0.036900  1.0  0.048
  C  C51  1  0.482200  0.425520  0.241000  1.0  0.6405
  C  C52  1  0.499600  0.160570  0.179900  1.0  0.6897
  C  C53  1  0.782500  0.191220  0.146900  1.0  0.683
  C  C54  1  0.743700  0.413380  0.017500  1.0  0.6366
  C  C55  1  0.027500  0.332970  0.664100  1.0  0.0442
  C  C56  1  0.942200  0.255980  0.720300  1.0  -0.1717
  C  C57  1  0.807700  0.276280  0.661500  1.0  -0.1694
  C  C58  1  0.838200  0.324230  0.536900  1.0  0.0482
  C  C59  1  0.017800  0.425520  0.741000  1.0  0.6407
  C  C60  1  0.000400  0.160570  0.679900  1.0  0.6906
  C  C61  1  0.717500  0.191220  0.646900  1.0  0.6838
  C  C62  1  0.756300  0.413380  0.517500  1.0  0.6353
  C  C63  1  0.527500  0.667030  0.835900  1.0  0.0431
  C  C64  1  0.442200  0.744020  0.779700  1.0  -0.171
  C  C65  1  0.307700  0.723720  0.838500  1.0  -0.1698
  C  C66  1  0.338200  0.675770  0.963100  1.0  0.0475
  C  C67  1  0.517800  0.574480  0.759000  1.0  0.641
  C  C68  1  0.500400  0.839430  0.820100  1.0  0.6895
  C  C69  1  0.217500  0.808780  0.853100  1.0  0.6835
  C  C70  1  0.256300  0.586620  0.982500  1.0  0.6358
  O  O71  1  0.021750  0.656340  0.462670  1.0  -0.3376
  O  O72  1  0.015360  0.500840  0.313200  1.0  -0.5692
  O  O73  1  0.955550  0.581290  0.144000  1.0  -0.5739
  O  O74  1  0.925380  0.875360  0.239540  1.0  -0.6022
  O  O75  1  0.026360  0.870900  0.429010  1.0  -0.5596
  O  O76  1  0.272600  0.869190  0.269640  1.0  -0.5819
  O  O77  1  0.361020  0.809840  0.445550  1.0  -0.5519
  O  O78  1  0.363290  0.594430  0.464100  1.0  -0.55
  O  O79  1  0.187880  0.513020  0.519400  1.0  -0.5793
  O  O80  1  0.883670  0.993910  0.052540  1.0  -0.8732
  O  O81  1  0.833380  0.018640  0.418820  1.0  -0.8812
  O  O82  1  0.521750  0.343660  0.037330  1.0  -0.3384
  O  O83  1  0.515360  0.499160  0.186800  1.0  -0.57
  O  O84  1  0.455550  0.418710  0.356000  1.0  -0.5739
  O  O85  1  0.425380  0.124640  0.260460  1.0  -0.6028
  O  O86  1  0.526360  0.129100  0.070990  1.0  -0.5579
  O  O87  1  0.772600  0.130810  0.230360  1.0  -0.5827
  O  O88  1  0.861020  0.190160  0.054450  1.0  -0.5523
  O  O89  1  0.863290  0.405570  0.035900  1.0  -0.5497
  O  O90  1  0.687880  0.486980  0.980600  1.0  -0.5782
  O  O91  1  0.383670  0.006090  0.447460  1.0  -0.8759
  O  O92  1  0.333380  0.981360  0.081180  1.0  -0.8812
  O  O93  1  0.978250  0.343660  0.537330  1.0  -0.3379
  O  O94  1  0.984640  0.499160  0.686800  1.0  -0.5696
  O  O95  1  0.044450  0.418710  0.856000  1.0  -0.5729
  O  O96  1  0.074620  0.124640  0.760460  1.0  -0.6036
  O  O97  1  0.973640  0.129100  0.570990  1.0  -0.5585
  O  O98  1  0.727400  0.130810  0.730360  1.0  -0.5818
  O  O99  1  0.638980  0.190160  0.554450  1.0  -0.5527
  O  O100  1  0.636710  0.405570  0.535900  1.0  -0.5491
  O  O101  1  0.812120  0.486980  0.480600  1.0  -0.5793
  O  O102  1  0.116330  0.006090  0.947460  1.0  -0.8752
  O  O103  1  0.166620  0.981360  0.581180  1.0  -0.8802
  O  O104  1  0.478250  0.656340  0.962670  1.0  -0.3369
  O  O105  1  0.484640  0.500840  0.813200  1.0  -0.5692
  O  O106  1  0.544450  0.581290  0.644000  1.0  -0.5737
  O  O107  1  0.574620  0.875360  0.739540  1.0  -0.6033
  O  O108  1  0.473640  0.870900  0.929010  1.0  -0.5607
  O  O109  1  0.227400  0.869190  0.769640  1.0  -0.5816
  O  O110  1  0.138980  0.809840  0.945550  1.0  -0.5523
  O  O111  1  0.136710  0.594430  0.964100  1.0  -0.55
  O  O112  1  0.312120  0.513020  0.019400  1.0  -0.5796
  O  O113  1  0.616330  0.993910  0.552540  1.0  -0.8729
  O  O114  1  0.666667  0.018640  0.918820  1.0  -0.8809
