# generated using pymatgen
data_Na6SmH24C40S8N8(ClO18)2
_symmetry_space_group_name_H-M   'P 1'
_cell_length_a   12.23800000
_cell_length_b   12.23800000
_cell_length_c   12.39800000
_cell_angle_alpha   90.00000000
_cell_angle_beta   90.00000000
_cell_angle_gamma   90.00000000
_symmetry_Int_Tables_number   1
_chemical_formula_structural   Na6SmH24C40S8N8(ClO18)2
_chemical_formula_sum   'Na6 Sm1 H24 C40 S8 N8 Cl2 O36'
_cell_volume   1856.83164831
_cell_formula_units_Z   1
loop_
 _symmetry_equiv_pos_site_id
 _symmetry_equiv_pos_as_xyz
  1  'x, y, z'
loop_
 _atom_site_type_symbol
 _atom_site_label
 _atom_site_symmetry_multiplicity
 _atom_site_fract_x
 _atom_site_fract_y
 _atom_site_fract_z
 _atom_site_occupancy
 _atom_site_charge
  Na  Na1  1  0.714800  0.529000  0.999600  1.0  0.9563
  Na  Na2  1  0.285200  0.471000  0.999600  1.0  0.9558
  Na  Na3  1  0.529000  0.285200  0.000400  1.0  0.957
  Na  Na4  1  0.471000  0.714800  0.000400  1.0  0.9567
  Na  Na5  1  0.500000  0.000000  0.988200  1.0  0.9518
  Na  Na6  1  0.000000  0.500000  0.011800  1.0  0.9523
  Sm  Sm7  1  0.000000  0.000000  0.500000  1.0  2.2903
  H  H8  1  0.724100  0.891900  0.374100  1.0  0.1128
  H  H9  1  0.650400  0.876900  0.209500  1.0  0.1345
  H  H10  1  0.940700  0.776900  0.097100  1.0  0.124
  H  H11  1  0.024700  0.611400  0.233600  1.0  0.1044
  H  H12  1  0.325500  0.667800  0.338900  1.0  0.1385
  H  H13  1  0.274600  0.843300  0.377500  1.0  0.1126
  H  H14  1  0.275900  0.108100  0.374100  1.0  0.113
  H  H15  1  0.349600  0.123100  0.209500  1.0  0.1349
  H  H16  1  0.059300  0.223100  0.097100  1.0  0.124
  H  H17  1  0.975300  0.388600  0.233600  1.0  0.1049
  H  H18  1  0.674500  0.332200  0.338900  1.0  0.1393
  H  H19  1  0.725400  0.156700  0.377500  1.0  0.1137
  H  H20  1  0.891900  0.275900  0.625900  1.0  0.1124
  H  H21  1  0.876900  0.349600  0.790500  1.0  0.1349
  H  H22  1  0.776900  0.059300  0.902900  1.0  0.1241
  H  H23  1  0.611400  0.975300  0.766400  1.0  0.1048
  H  H24  1  0.667800  0.674500  0.661100  1.0  0.1404
  H  H25  1  0.843300  0.725400  0.622500  1.0  0.1125
  H  H26  1  0.108100  0.724100  0.625900  1.0  0.1123
  H  H27  1  0.123100  0.650400  0.790500  1.0  0.135
  H  H28  1  0.223100  0.940700  0.902900  1.0  0.1241
  H  H29  1  0.388600  0.024700  0.766400  1.0  0.1044
  H  H30  1  0.332200  0.325500  0.661100  1.0  0.1411
  H  H31  1  0.156700  0.274600  0.622500  1.0  0.1125
  C  C32  1  0.766700  0.865400  0.317800  1.0  0.0591
  C  C33  1  0.723500  0.859500  0.220400  1.0  -0.1373
  C  C34  1  0.789000  0.826700  0.133700  1.0  -0.22
  C  C35  1  0.895600  0.798600  0.153500  1.0  -0.0361
  C  C36  1  0.936200  0.802800  0.259100  1.0  0.1994
  C  C37  1  0.047300  0.762300  0.284200  1.0  0.1594
  C  C38  1  0.076400  0.658900  0.262200  1.0  -0.0576
  C  C39  1  0.179600  0.621800  0.280700  1.0  -0.1351
  C  C40  1  0.254700  0.691300  0.324600  1.0  -0.1003
  C  C41  1  0.223600  0.796100  0.347200  1.0  0.0534
  C  C42  1  0.233300  0.134600  0.317800  1.0  0.0604
  C  C43  1  0.276500  0.140500  0.220400  1.0  -0.1397
  C  C44  1  0.211000  0.173300  0.133700  1.0  -0.2188
  C  C45  1  0.104400  0.201400  0.153500  1.0  -0.035
  C  C46  1  0.063800  0.197200  0.259100  1.0  0.1991
  C  C47  1  0.952700  0.237700  0.284200  1.0  0.1597
  C  C48  1  0.923600  0.341100  0.262200  1.0  -0.0576
  C  C49  1  0.820400  0.378200  0.280700  1.0  -0.1314
  C  C50  1  0.745300  0.308700  0.324600  1.0  -0.1009
  C  C51  1  0.776400  0.203900  0.347200  1.0  0.0527
  C  C52  1  0.865400  0.233300  0.682200  1.0  0.0573
  C  C53  1  0.859500  0.276500  0.779600  1.0  -0.1405
  C  C54  1  0.826700  0.211000  0.866300  1.0  -0.2185
  C  C55  1  0.798600  0.104400  0.846500  1.0  -0.036
  C  C56  1  0.802800  0.063800  0.740900  1.0  0.1996
  C  C57  1  0.762300  0.952700  0.715800  1.0  0.1598
  C  C58  1  0.658900  0.923600  0.737800  1.0  -0.0582
  C  C59  1  0.621800  0.820400  0.719300  1.0  -0.1318
  C  C60  1  0.691300  0.745300  0.675400  1.0  -0.1014
  C  C61  1  0.796100  0.776400  0.652800  1.0  0.0512
  C  C62  1  0.134600  0.766700  0.682200  1.0  0.0564
  C  C63  1  0.140500  0.723500  0.779600  1.0  -0.1427
  C  C64  1  0.173300  0.789000  0.866300  1.0  -0.2182
  C  C65  1  0.201400  0.895600  0.846500  1.0  -0.0345
  C  C66  1  0.197200  0.936200  0.740900  1.0  0.1998
  C  C67  1  0.237700  0.047300  0.715800  1.0  0.1597
  C  C68  1  0.341100  0.076400  0.737800  1.0  -0.0583
  C  C69  1  0.378200  0.179600  0.719300  1.0  -0.131
  C  C70  1  0.308700  0.254700  0.675400  1.0  -0.1013
  C  C71  1  0.203900  0.223600  0.652800  1.0  0.0513
  S  S72  1  0.732050  0.815230  0.001100  1.0  1.3396
  S  S73  1  0.214000  0.482900  0.246200  1.0  1.3813
  S  S74  1  0.267950  0.184770  0.001100  1.0  1.3395
  S  S75  1  0.786000  0.517100  0.246200  1.0  1.3806
  S  S76  1  0.815230  0.267950  0.998900  1.0  1.339
  S  S77  1  0.482900  0.786000  0.753800  1.0  1.3827
  S  S78  1  0.184770  0.732050  0.998900  1.0  1.3395
  S  S79  1  0.517100  0.214000  0.753800  1.0  1.3825
  N  N80  1  0.870300  0.834400  0.338700  1.0  0.3878
  N  N81  1  0.122700  0.833500  0.327600  1.0  0.2907
  N  N82  1  0.129700  0.165600  0.338700  1.0  0.3893
  N  N83  1  0.877300  0.166500  0.327600  1.0  0.2915
  N  N84  1  0.834400  0.129700  0.661300  1.0  0.3891
  N  N85  1  0.833500  0.877300  0.672400  1.0  0.293
  N  N86  1  0.165600  0.870300  0.661300  1.0  0.3895
  N  N87  1  0.166500  0.122700  0.672400  1.0  0.2918
  Cl  Cl88  1  0.500000  0.500000  0.945000  1.0  -0.2397
  Cl  Cl89  1  0.500000  0.500000  0.055000  1.0  -0.2459
  O  O90  1  0.907100  0.841800  0.439500  1.0  -0.6517
  O  O91  1  0.098100  0.931700  0.344100  1.0  -0.6543
  O  O92  1  0.667500  0.914000  0.989700  1.0  -0.7512
  O  O93  1  0.666100  0.717200  0.006600  1.0  -0.7561
  O  O94  1  0.824100  0.807000  0.931000  1.0  -0.5465
  O  O95  1  0.148800  0.457400  0.151100  1.0  -0.7637
  O  O96  1  0.182100  0.416900  0.337300  1.0  -0.6385
  O  O97  1  0.327400  0.484800  0.219700  1.0  -0.6384
  O  O98  1  0.582600  0.126600  0.111600  1.0  -0.4035
  O  O99  1  0.092900  0.158200  0.439500  1.0  -0.6508
  O  O100  1  0.901900  0.068300  0.344100  1.0  -0.6565
  O  O101  1  0.332500  0.086000  0.989700  1.0  -0.7511
  O  O102  1  0.333900  0.282800  0.006600  1.0  -0.7567
  O  O103  1  0.175900  0.193000  0.931000  1.0  -0.5452
  O  O104  1  0.851200  0.542600  0.151100  1.0  -0.7629
  O  O105  1  0.817900  0.583100  0.337300  1.0  -0.6377
  O  O106  1  0.672600  0.515200  0.219700  1.0  -0.6386
  O  O107  1  0.417400  0.873400  0.111600  1.0  -0.4034
  O  O108  1  0.841800  0.092900  0.560500  1.0  -0.6494
  O  O109  1  0.931700  0.901900  0.655900  1.0  -0.6528
  O  O110  1  0.914000  0.332500  0.010300  1.0  -0.7517
  O  O111  1  0.717200  0.333900  0.993400  1.0  -0.7547
  O  O112  1  0.807000  0.175900  0.069000  1.0  -0.5462
  O  O113  1  0.457400  0.851200  0.848900  1.0  -0.7618
  O  O114  1  0.416900  0.817900  0.662700  1.0  -0.6353
  O  O115  1  0.484800  0.672600  0.780300  1.0  -0.6388
  O  O116  1  0.126600  0.417400  0.888400  1.0  -0.4008
  O  O117  1  0.158200  0.907100  0.560500  1.0  -0.6495
  O  O118  1  0.068300  0.098100  0.655900  1.0  -0.6529
  O  O119  1  0.086000  0.667500  0.010300  1.0  -0.7513
  O  O120  1  0.282800  0.666100  0.993400  1.0  -0.7545
  O  O121  1  0.193000  0.824100  0.069000  1.0  -0.5474
  O  O122  1  0.542600  0.148800  0.848900  1.0  -0.7626
  O  O123  1  0.583100  0.182100  0.662700  1.0  -0.637
  O  O124  1  0.515200  0.327400  0.780300  1.0  -0.6396
  O  O125  1  0.873400  0.582600  0.888400  1.0  -0.4007
