# generated using pymatgen
data_Na6DyH24C40S8N8ClO36
_symmetry_space_group_name_H-M   'P 1'
_cell_length_a   12.21300000
_cell_length_b   12.21300000
_cell_length_c   12.34500000
_cell_angle_alpha   90.00000000
_cell_angle_beta   90.00000000
_cell_angle_gamma   90.00000000
_symmetry_Int_Tables_number   1
_chemical_formula_structural   Na6DyH24C40S8N8ClO36
_chemical_formula_sum   'Na6 Dy1 H24 C40 S8 N8 Cl1 O36'
_cell_volume   1841.34772030
_cell_formula_units_Z   1
loop_
 _symmetry_equiv_pos_site_id
 _symmetry_equiv_pos_as_xyz
  1  'x, y, z'
loop_
 _atom_site_type_symbol
 _atom_site_label
 _atom_site_symmetry_multiplicity
 _atom_site_fract_x
 _atom_site_fract_y
 _atom_site_fract_z
 _atom_site_occupancy
 _atom_site_charge
  Na  Na1  1  0.279500  0.471700  0.504600  1.0  0.9157
  Na  Na2  1  0.720500  0.528300  0.504600  1.0  0.9149
  Na  Na3  1  0.471700  0.720500  0.495400  1.0  0.914
  Na  Na4  1  0.528300  0.279500  0.495400  1.0  0.9144
  Na  Na5  1  0.500000  0.000000  0.512100  1.0  0.9416
  Na  Na6  1  0.000000  0.500000  0.487900  1.0  0.9419
  Dy  Dy7  1  0.000000  0.000000  0.000000  1.0  2.2407
  H  H8  1  0.279400  0.104800  0.123400  1.0  0.1328
  H  H9  1  0.350400  0.118600  0.294900  1.0  0.1196
  H  H10  1  0.058200  0.223900  0.401200  1.0  0.1303
  H  H11  1  0.979200  0.390500  0.266100  1.0  0.1169
  H  H12  1  0.674800  0.332300  0.161400  1.0  0.125
  H  H13  1  0.725200  0.155200  0.119500  1.0  0.1353
  H  H14  1  0.720600  0.895200  0.123400  1.0  0.1331
  H  H15  1  0.649600  0.881400  0.294900  1.0  0.1195
  H  H16  1  0.941800  0.776100  0.401200  1.0  0.1299
  H  H17  1  0.020800  0.609500  0.266100  1.0  0.1162
  H  H18  1  0.325200  0.667700  0.161400  1.0  0.1215
  H  H19  1  0.274800  0.844800  0.119500  1.0  0.132
  H  H20  1  0.104800  0.720600  0.876600  1.0  0.1327
  H  H21  1  0.118600  0.649600  0.705100  1.0  0.1201
  H  H22  1  0.223900  0.941800  0.598800  1.0  0.1288
  H  H23  1  0.390500  0.020800  0.733900  1.0  0.1171
  H  H24  1  0.332300  0.325200  0.838600  1.0  0.1244
  H  H25  1  0.155200  0.274800  0.880500  1.0  0.1353
  H  H26  1  0.895200  0.279400  0.876600  1.0  0.1328
  H  H27  1  0.881400  0.350400  0.705100  1.0  0.1198
  H  H28  1  0.776100  0.058200  0.598800  1.0  0.129
  H  H29  1  0.609500  0.979200  0.733900  1.0  0.1175
  H  H30  1  0.667700  0.674800  0.838600  1.0  0.1246
  H  H31  1  0.844800  0.725200  0.880500  1.0  0.1343
  C  C32  1  0.235600  0.130400  0.179600  1.0  -0.0077
  C  C33  1  0.277600  0.136700  0.282100  1.0  -0.035
  C  C34  1  0.211000  0.170300  0.366400  1.0  -0.1505
  C  C35  1  0.103600  0.200200  0.345500  1.0  -0.0275
  C  C36  1  0.065100  0.194200  0.240100  1.0  0.0907
  C  C37  1  0.955500  0.235800  0.212500  1.0  0.0754
  C  C38  1  0.927000  0.343100  0.237700  1.0  -0.0501
  C  C39  1  0.821100  0.379400  0.220700  1.0  -0.1802
  C  C40  1  0.745800  0.308600  0.175200  1.0  -0.0363
  C  C41  1  0.776000  0.202600  0.150300  1.0  -0.0121
  C  C42  1  0.764400  0.869600  0.179600  1.0  -0.0072
  C  C43  1  0.722400  0.863300  0.282100  1.0  -0.032
  C  C44  1  0.789000  0.829700  0.366400  1.0  -0.151
  C  C45  1  0.896400  0.799800  0.345500  1.0  -0.0282
  C  C46  1  0.934900  0.805800  0.240100  1.0  0.0897
  C  C47  1  0.044500  0.764200  0.212500  1.0  0.0748
  C  C48  1  0.073000  0.656900  0.237700  1.0  -0.0496
  C  C49  1  0.178900  0.620600  0.220700  1.0  -0.1855
  C  C50  1  0.254200  0.691400  0.175200  1.0  -0.0402
  C  C51  1  0.224000  0.797400  0.150300  1.0  -0.0112
  C  C52  1  0.130400  0.764400  0.820400  1.0  -0.0079
  C  C53  1  0.136700  0.722400  0.717900  1.0  -0.0305
  C  C54  1  0.170300  0.789000  0.633600  1.0  -0.153
  C  C55  1  0.200200  0.896400  0.654500  1.0  -0.0298
  C  C56  1  0.194200  0.934900  0.759900  1.0  0.091
  C  C57  1  0.235800  0.044500  0.787500  1.0  0.076
  C  C58  1  0.343100  0.073000  0.762300  1.0  -0.0498
  C  C59  1  0.379400  0.178900  0.779300  1.0  -0.182
  C  C60  1  0.308600  0.254200  0.824800  1.0  -0.0396
  C  C61  1  0.202600  0.224000  0.849700  1.0  -0.012
  C  C62  1  0.869600  0.235600  0.820400  1.0  -0.0032
  C  C63  1  0.863300  0.277600  0.717900  1.0  -0.0317
  C  C64  1  0.829700  0.211000  0.633600  1.0  -0.1521
  C  C65  1  0.799800  0.103600  0.654500  1.0  -0.0302
  C  C66  1  0.805800  0.065100  0.759900  1.0  0.0911
  C  C67  1  0.764200  0.955500  0.787500  1.0  0.0756
  C  C68  1  0.656900  0.927000  0.762300  1.0  -0.0506
  C  C69  1  0.620600  0.821100  0.779300  1.0  -0.1796
  C  C70  1  0.691400  0.745800  0.824800  1.0  -0.0376
  C  C71  1  0.797400  0.776000  0.849700  1.0  -0.0146
  S  S72  1  0.265200  0.182920  0.499980  1.0  1.3748
  S  S73  1  0.786630  0.515340  0.259060  1.0  1.3465
  S  S74  1  0.734800  0.817080  0.499980  1.0  1.374
  S  S75  1  0.213370  0.484660  0.259060  1.0  1.3485
  S  S76  1  0.182920  0.734800  0.500020  1.0  1.3754
  S  S77  1  0.515340  0.213370  0.740940  1.0  1.3503
  S  S78  1  0.817080  0.265200  0.500020  1.0  1.3731
  S  S79  1  0.484660  0.786630  0.740940  1.0  1.3538
  N  N80  1  0.132600  0.160400  0.159100  1.0  0.363
  N  N81  1  0.878100  0.167500  0.170000  1.0  0.3589
  N  N82  1  0.867400  0.839600  0.159100  1.0  0.3627
  N  N83  1  0.121900  0.832500  0.170000  1.0  0.359
  N  N84  1  0.160400  0.867400  0.840900  1.0  0.3634
  N  N85  1  0.167500  0.121900  0.830000  1.0  0.3589
  N  N86  1  0.839600  0.132600  0.840900  1.0  0.3627
  N  N87  1  0.832500  0.878100  0.830000  1.0  0.361
  Cl  Cl88  1  0.500000  0.500000  0.500000  1.0  -0.5086
  O  O89  1  0.094900  0.154700  0.058300  1.0  -0.6533
  O  O90  1  0.903700  0.064500  0.152600  1.0  -0.6238
  O  O91  1  0.330500  0.084800  0.513600  1.0  -0.7171
  O  O92  1  0.331500  0.282300  0.497400  1.0  -0.7837
  O  O93  1  0.173000  0.191100  0.572400  1.0  -0.5793
  O  O94  1  0.857200  0.541200  0.348800  1.0  -0.7399
  O  O95  1  0.806500  0.582600  0.165800  1.0  -0.599
  O  O96  1  0.673000  0.509700  0.291500  1.0  -0.6348
  O  O97  1  0.583500  0.116900  0.382400  1.0  -0.3467
  O  O98  1  0.905100  0.845300  0.058300  1.0  -0.6548
  O  O99  1  0.096300  0.935500  0.152600  1.0  -0.6224
  O  O100  1  0.669500  0.915200  0.513600  1.0  -0.7178
  O  O101  1  0.668500  0.717700  0.497400  1.0  -0.7827
  O  O102  1  0.827000  0.808900  0.572400  1.0  -0.5802
  O  O103  1  0.142800  0.458800  0.348800  1.0  -0.7396
  O  O104  1  0.193500  0.417400  0.165800  1.0  -0.5998
  O  O105  1  0.327000  0.490300  0.291500  1.0  -0.6378
  O  O106  1  0.416500  0.883100  0.382400  1.0  -0.3461
  O  O107  1  0.154700  0.905100  0.941700  1.0  -0.6509
  O  O108  1  0.064500  0.096300  0.847400  1.0  -0.6222
  O  O109  1  0.084800  0.669500  0.486400  1.0  -0.7159
  O  O110  1  0.282300  0.668500  0.502600  1.0  -0.782
  O  O111  1  0.191100  0.827000  0.427600  1.0  -0.5818
  O  O112  1  0.541200  0.142800  0.651200  1.0  -0.7377
  O  O113  1  0.582600  0.193500  0.834200  1.0  -0.5974
  O  O114  1  0.509700  0.327000  0.708500  1.0  -0.6518
  O  O115  1  0.116900  0.416500  0.617600  1.0  -0.3458
  O  O116  1  0.845300  0.094900  0.941700  1.0  -0.6515
  O  O117  1  0.935500  0.903700  0.847400  1.0  -0.6214
  O  O118  1  0.915200  0.330500  0.486400  1.0  -0.7161
  O  O119  1  0.717700  0.331500  0.502600  1.0  -0.7824
  O  O120  1  0.808900  0.173000  0.427600  1.0  -0.5879
  O  O121  1  0.458800  0.857200  0.651200  1.0  -0.7372
  O  O122  1  0.417400  0.806500  0.834200  1.0  -0.5953
  O  O123  1  0.490300  0.673000  0.708500  1.0  -0.6638
  O  O124  1  0.883100  0.583500  0.617600  1.0  -0.3449
