# generated using pymatgen
data_Na6GdH24C40S8N8ClO36
_symmetry_space_group_name_H-M   'P 1'
_cell_length_a   12.23400000
_cell_length_b   12.23400000
_cell_length_c   12.37300000
_cell_angle_alpha   90.00000000
_cell_angle_beta   90.00000000
_cell_angle_gamma   90.00000000
_symmetry_Int_Tables_number   1
_chemical_formula_structural   Na6GdH24C40S8N8ClO36
_chemical_formula_sum   'Na6 Gd1 H24 C40 S8 N8 Cl1 O36'
_cell_volume   1851.87626399
_cell_formula_units_Z   1
loop_
 _symmetry_equiv_pos_site_id
 _symmetry_equiv_pos_as_xyz
  1  'x, y, z'
loop_
 _atom_site_type_symbol
 _atom_site_label
 _atom_site_symmetry_multiplicity
 _atom_site_fract_x
 _atom_site_fract_y
 _atom_site_fract_z
 _atom_site_occupancy
 _atom_site_charge
  Na  Na1  1  0.471300  0.721800  0.506700  1.0  0.9583
  Na  Na2  1  0.528700  0.278200  0.506700  1.0  0.958
  Na  Na3  1  0.721800  0.528700  0.493300  1.0  0.9566
  Na  Na4  1  0.278200  0.471300  0.493300  1.0  0.9568
  Na  Na5  1  0.500000  0.000000  0.487000  1.0  0.961
  Na  Na6  1  0.000000  0.500000  0.513000  1.0  0.959
  Gd  Gd7  1  0.000000  0.000000  0.000000  1.0  2.2274
  H  H8  1  0.719900  0.892700  0.877200  1.0  0.1388
  H  H9  1  0.649200  0.884300  0.705300  1.0  0.1394
  H  H10  1  0.943800  0.779800  0.597700  1.0  0.138
  H  H11  1  0.019700  0.610700  0.734400  1.0  0.1142
  H  H12  1  0.324700  0.667500  0.840800  1.0  0.1403
  H  H13  1  0.275200  0.844500  0.876600  1.0  0.1291
  H  H14  1  0.280100  0.107300  0.877200  1.0  0.1383
  H  H15  1  0.350800  0.115700  0.705300  1.0  0.1388
  H  H16  1  0.056200  0.220200  0.597700  1.0  0.1378
  H  H17  1  0.980300  0.389300  0.734400  1.0  0.1144
  H  H18  1  0.675300  0.332500  0.840800  1.0  0.1425
  H  H19  1  0.724800  0.155500  0.876600  1.0  0.13
  H  H20  1  0.892700  0.280100  0.122800  1.0  0.1385
  H  H21  1  0.884300  0.350800  0.294700  1.0  0.1386
  H  H22  1  0.779800  0.056200  0.402300  1.0  0.138
  H  H23  1  0.610700  0.980300  0.265600  1.0  0.1143
  H  H24  1  0.667500  0.675300  0.159200  1.0  0.1426
  H  H25  1  0.844500  0.724800  0.123400  1.0  0.1298
  H  H26  1  0.107300  0.719900  0.122800  1.0  0.1374
  H  H27  1  0.115700  0.649200  0.294700  1.0  0.1385
  H  H28  1  0.220200  0.943800  0.402300  1.0  0.1377
  H  H29  1  0.389300  0.019700  0.265600  1.0  0.1142
  H  H30  1  0.332500  0.324700  0.159200  1.0  0.1431
  H  H31  1  0.155500  0.275200  0.123400  1.0  0.1299
  C  C32  1  0.763600  0.868300  0.820600  1.0  -0.012
  C  C33  1  0.721200  0.863800  0.718300  1.0  -0.0485
  C  C34  1  0.788600  0.827500  0.633000  1.0  -0.1983
  C  C35  1  0.897300  0.800300  0.653600  1.0  -0.0134
  C  C36  1  0.934700  0.804700  0.759100  1.0  0.1646
  C  C37  1  0.045200  0.763600  0.785900  1.0  0.1044
  C  C38  1  0.072700  0.657600  0.761800  1.0  -0.0414
  C  C39  1  0.178500  0.619200  0.777600  1.0  -0.2107
  C  C40  1  0.254300  0.691300  0.825000  1.0  -0.055
  C  C41  1  0.223900  0.796600  0.847700  1.0  -0.0225
  C  C42  1  0.236400  0.131700  0.820600  1.0  -0.0127
  C  C43  1  0.278800  0.136200  0.718300  1.0  -0.0494
  C  C44  1  0.211400  0.172500  0.633000  1.0  -0.1967
  C  C45  1  0.102700  0.199700  0.653600  1.0  -0.0138
  C  C46  1  0.065300  0.195300  0.759100  1.0  0.1648
  C  C47  1  0.954800  0.236400  0.785900  1.0  0.1039
  C  C48  1  0.927300  0.342400  0.761800  1.0  -0.0423
  C  C49  1  0.821500  0.380800  0.777600  1.0  -0.2065
  C  C50  1  0.745700  0.308700  0.825000  1.0  -0.055
  C  C51  1  0.776100  0.203400  0.847700  1.0  -0.0232
  C  C52  1  0.868300  0.236400  0.179400  1.0  -0.0141
  C  C53  1  0.863800  0.278800  0.281700  1.0  -0.0463
  C  C54  1  0.827500  0.211400  0.367000  1.0  -0.1975
  C  C55  1  0.800300  0.102700  0.346400  1.0  -0.0142
  C  C56  1  0.804700  0.065300  0.240900  1.0  0.1659
  C  C57  1  0.763600  0.954800  0.214100  1.0  0.1035
  C  C58  1  0.657600  0.927300  0.238200  1.0  -0.0417
  C  C59  1  0.619200  0.821500  0.222400  1.0  -0.211
  C  C60  1  0.691300  0.745700  0.175000  1.0  -0.0545
  C  C61  1  0.796600  0.776100  0.152300  1.0  -0.0252
  C  C62  1  0.131700  0.763600  0.179400  1.0  -0.0158
  C  C63  1  0.136200  0.721200  0.281700  1.0  -0.0482
  C  C64  1  0.172500  0.788600  0.367000  1.0  -0.1977
  C  C65  1  0.199700  0.897300  0.346400  1.0  -0.0134
  C  C66  1  0.195300  0.934700  0.240900  1.0  0.1667
  C  C67  1  0.236400  0.045200  0.214100  1.0  0.1039
  C  C68  1  0.342400  0.072700  0.238200  1.0  -0.0417
  C  C69  1  0.380800  0.178500  0.222400  1.0  -0.2084
  C  C70  1  0.308700  0.254300  0.175000  1.0  -0.0547
  C  C71  1  0.203400  0.223900  0.152300  1.0  -0.0228
  S  S72  1  0.734150  0.816410  0.500200  1.0  1.3771
  S  S73  1  0.213380  0.484240  0.740350  1.0  1.3736
  S  S74  1  0.265850  0.183590  0.500200  1.0  1.3775
  S  S75  1  0.786620  0.515760  0.740350  1.0  1.3751
  S  S76  1  0.816410  0.265850  0.499800  1.0  1.3769
  S  S77  1  0.484240  0.786620  0.259650  1.0  1.3778
  S  S78  1  0.183590  0.734150  0.499800  1.0  1.3776
  S  S79  1  0.515760  0.213380  0.259650  1.0  1.3758
  N  N80  1  0.868200  0.837800  0.840800  1.0  0.3474
  N  N81  1  0.122500  0.832300  0.829200  1.0  0.3465
  N  N82  1  0.131800  0.162200  0.840800  1.0  0.3464
  N  N83  1  0.877500  0.167700  0.829200  1.0  0.3453
  N  N84  1  0.837800  0.131800  0.159200  1.0  0.3446
  N  N85  1  0.832300  0.877500  0.170800  1.0  0.3489
  N  N86  1  0.162200  0.868200  0.159200  1.0  0.3458
  N  N87  1  0.167700  0.122500  0.170800  1.0  0.3476
  Cl  Cl88  1  0.500000  0.500000  0.500000  1.0  -0.4885
  O  O89  1  0.905700  0.843000  0.940900  1.0  -0.6375
  O  O90  1  0.096800  0.934600  0.846300  1.0  -0.6426
  O  O91  1  0.668900  0.914000  0.487500  1.0  -0.7236
  O  O92  1  0.667400  0.716300  0.503800  1.0  -0.8231
  O  O93  1  0.826000  0.808400  0.427800  1.0  -0.5609
  O  O94  1  0.143700  0.460000  0.649900  1.0  -0.7149
  O  O95  1  0.192400  0.417300  0.833700  1.0  -0.628
  O  O96  1  0.328400  0.488200  0.706800  1.0  -0.6937
  O  O97  1  0.417200  0.882200  0.616800  1.0  -0.3594
  O  O98  1  0.094300  0.157000  0.940900  1.0  -0.6375
  O  O99  1  0.903200  0.065400  0.846300  1.0  -0.6462
  O  O100  1  0.331100  0.086000  0.487500  1.0  -0.7239
  O  O101  1  0.332600  0.283700  0.503800  1.0  -0.8226
  O  O102  1  0.174000  0.191600  0.427800  1.0  -0.5606
  O  O103  1  0.856300  0.540000  0.649900  1.0  -0.7146
  O  O104  1  0.807600  0.582700  0.833700  1.0  -0.626
  O  O105  1  0.671600  0.511800  0.706800  1.0  -0.6923
  O  O106  1  0.582800  0.117800  0.616800  1.0  -0.359
  O  O107  1  0.843000  0.094300  0.059100  1.0  -0.6368
  O  O108  1  0.934600  0.903200  0.153700  1.0  -0.6454
  O  O109  1  0.914000  0.331100  0.512500  1.0  -0.7231
  O  O110  1  0.716300  0.332600  0.496200  1.0  -0.822
  O  O111  1  0.808400  0.174000  0.572200  1.0  -0.5605
  O  O112  1  0.460000  0.856300  0.350100  1.0  -0.7115
  O  O113  1  0.417300  0.807600  0.166300  1.0  -0.6234
  O  O114  1  0.488200  0.671600  0.293200  1.0  -0.7099
  O  O115  1  0.882200  0.582800  0.383200  1.0  -0.3582
  O  O116  1  0.157000  0.905700  0.059100  1.0  -0.6364
  O  O117  1  0.065400  0.096800  0.153700  1.0  -0.6451
  O  O118  1  0.086000  0.668900  0.512500  1.0  -0.7231
  O  O119  1  0.283700  0.667400  0.496200  1.0  -0.8215
  O  O120  1  0.191600  0.826000  0.572200  1.0  -0.5615
  O  O121  1  0.540000  0.143700  0.350100  1.0  -0.7117
  O  O122  1  0.582700  0.192400  0.166300  1.0  -0.6269
  O  O123  1  0.511800  0.328400  0.293200  1.0  -0.7028
  O  O124  1  0.117800  0.417200  0.383200  1.0  -0.3594
