# generated using pymatgen
data_Na6TbH24C40S8N8ClO36
_symmetry_space_group_name_H-M   'P 1'
_cell_length_a   12.24500000
_cell_length_b   12.24500000
_cell_length_c   12.40700000
_cell_angle_alpha   90.00000000
_cell_angle_beta   90.00000000
_cell_angle_gamma   90.00000000
_symmetry_Int_Tables_number   1
_chemical_formula_structural   Na6TbH24C40S8N8ClO36
_chemical_formula_sum   'Na6 Tb1 H24 C40 S8 N8 Cl1 O36'
_cell_volume   1860.30589017
_cell_formula_units_Z   1
loop_
 _symmetry_equiv_pos_site_id
 _symmetry_equiv_pos_as_xyz
  1  'x, y, z'
loop_
 _atom_site_type_symbol
 _atom_site_label
 _atom_site_symmetry_multiplicity
 _atom_site_fract_x
 _atom_site_fract_y
 _atom_site_fract_z
 _atom_site_occupancy
 _atom_site_charge
  Na  Na1  1  0.528400  0.273100  0.993800  1.0  0.9631
  Na  Na2  1  0.471600  0.726900  0.993800  1.0  0.9631
  Na  Na3  1  0.273100  0.471600  0.006200  1.0  0.9627
  Na  Na4  1  0.726900  0.528400  0.006200  1.0  0.9624
  Na  Na5  1  0.000000  0.500000  0.986600  1.0  0.9439
  Na  Na6  1  0.500000  0.000000  0.013400  1.0  0.9418
  Tb  Tb7  1  0.000000  0.000000  0.500000  1.0  2.316
  H  H8  1  0.843400  0.725500  0.381800  1.0  0.1197
  H  H9  1  0.666667  0.673900  0.339900  1.0  0.1416
  H  H10  1  0.608000  0.980600  0.233400  1.0  0.1189
  H  H11  1  0.776700  0.055100  0.096700  1.0  0.1301
  H  H12  1  0.888000  0.349600  0.202100  1.0  0.1227
  H  H13  1  0.896800  0.280600  0.376700  1.0  0.1373
  H  H14  1  0.156600  0.274500  0.381800  1.0  0.12
  H  H15  1  0.333400  0.326100  0.339900  1.0  0.142
  H  H16  1  0.392000  0.019400  0.233400  1.0  0.1188
  H  H17  1  0.223300  0.944900  0.096700  1.0  0.13
  H  H18  1  0.112000  0.650400  0.202100  1.0  0.1223
  H  H19  1  0.103200  0.719400  0.376700  1.0  0.1367
  H  H20  1  0.725500  0.156600  0.618200  1.0  0.1191
  H  H21  1  0.673900  0.333400  0.660100  1.0  0.1414
  H  H22  1  0.980600  0.392000  0.766600  1.0  0.1184
  H  H23  1  0.055100  0.223300  0.903300  1.0  0.1306
  H  H24  1  0.349600  0.112000  0.797900  1.0  0.1227
  H  H25  1  0.280600  0.103200  0.623300  1.0  0.1366
  H  H26  1  0.274500  0.843400  0.618200  1.0  0.1187
  H  H27  1  0.326100  0.666667  0.660100  1.0  0.1394
  H  H28  1  0.019400  0.608000  0.766600  1.0  0.1182
  H  H29  1  0.944900  0.776700  0.903300  1.0  0.1307
  H  H30  1  0.650400  0.888000  0.797900  1.0  0.1225
  H  H31  1  0.719400  0.896800  0.623300  1.0  0.1368
  C  C32  1  0.795500  0.777200  0.349800  1.0  0.055
  C  C33  1  0.690700  0.746100  0.325300  1.0  -0.1173
  C  C34  1  0.620200  0.821700  0.279000  1.0  -0.2151
  C  C35  1  0.656300  0.927500  0.262500  1.0  -0.0488
  C  C36  1  0.764100  0.956500  0.288600  1.0  0.1123
  C  C37  1  0.805900  0.064400  0.260700  1.0  0.1816
  C  C38  1  0.800500  0.101900  0.153000  1.0  -0.0689
  C  C39  1  0.831000  0.209000  0.131900  1.0  -0.2575
  C  C40  1  0.867000  0.276300  0.216200  1.0  -0.0544
  C  C41  1  0.871600  0.235600  0.319500  1.0  0.0211
  C  C42  1  0.204500  0.222800  0.349800  1.0  0.0545
  C  C43  1  0.309300  0.253900  0.325300  1.0  -0.117
  C  C44  1  0.379800  0.178300  0.279000  1.0  -0.2145
  C  C45  1  0.343700  0.072500  0.262500  1.0  -0.0487
  C  C46  1  0.235900  0.043500  0.288600  1.0  0.1126
  C  C47  1  0.194100  0.935600  0.260700  1.0  0.182
  C  C48  1  0.199500  0.898100  0.153000  1.0  -0.0679
  C  C49  1  0.169000  0.791000  0.131900  1.0  -0.2586
  C  C50  1  0.133000  0.723700  0.216200  1.0  -0.0543
  C  C51  1  0.128400  0.764400  0.319500  1.0  0.0187
  C  C52  1  0.777200  0.204500  0.650200  1.0  0.054
  C  C53  1  0.746100  0.309300  0.674700  1.0  -0.1138
  C  C54  1  0.821700  0.379800  0.721000  1.0  -0.213
  C  C55  1  0.927500  0.343700  0.737500  1.0  -0.0481
  C  C56  1  0.956500  0.235900  0.711400  1.0  0.1126
  C  C57  1  0.064400  0.194100  0.739300  1.0  0.1808
  C  C58  1  0.101900  0.199500  0.847000  1.0  -0.0669
  C  C59  1  0.209000  0.169000  0.868100  1.0  -0.2574
  C  C60  1  0.276300  0.133000  0.783800  1.0  -0.0518
  C  C61  1  0.235600  0.128400  0.680500  1.0  0.0156
  C  C62  1  0.222800  0.795500  0.650200  1.0  0.0552
  C  C63  1  0.253900  0.690700  0.674700  1.0  -0.1125
  C  C64  1  0.178300  0.620200  0.721000  1.0  -0.2172
  C  C65  1  0.072500  0.656300  0.737500  1.0  -0.0477
  C  C66  1  0.043500  0.764100  0.711400  1.0  0.112
  C  C67  1  0.935600  0.805900  0.739300  1.0  0.1796
  C  C68  1  0.898100  0.800500  0.847000  1.0  -0.0675
  C  C69  1  0.791000  0.831000  0.868100  1.0  -0.2572
  C  C70  1  0.723700  0.867000  0.783800  1.0  -0.0526
  C  C71  1  0.764400  0.871600  0.680500  1.0  0.0139
  S  S72  1  0.485120  0.786860  0.238820  1.0  1.3734
  S  S73  1  0.818820  0.263640  0.999600  1.0  1.3618
  S  S74  1  0.514880  0.213140  0.238820  1.0  1.371
  S  S75  1  0.181180  0.736360  0.999600  1.0  1.362
  S  S76  1  0.786860  0.514880  0.761180  1.0  1.3678
  S  S77  1  0.263640  0.181180  0.000400  1.0  1.3626
  S  S78  1  0.213140  0.485120  0.761180  1.0  1.3673
  S  S79  1  0.736360  0.818820  0.000400  1.0  1.3624
  N  N80  1  0.832000  0.877900  0.330200  1.0  0.347
  N  N81  1  0.840100  0.131000  0.339900  1.0  0.3513
  N  N82  1  0.168000  0.122100  0.330200  1.0  0.3465
  N  N83  1  0.159900  0.869000  0.339900  1.0  0.3515
  N  N84  1  0.877900  0.168000  0.669800  1.0  0.3453
  N  N85  1  0.131000  0.159900  0.660100  1.0  0.3515
  N  N86  1  0.122100  0.832000  0.669800  1.0  0.3448
  N  N87  1  0.869000  0.840100  0.660100  1.0  0.3526
  Cl  Cl88  1  0.500000  0.500000  0.000000  1.0  -0.4863
  O  O89  1  0.934200  0.904000  0.346800  1.0  -0.6574
  O  O90  1  0.844800  0.095300  0.440600  1.0  -0.6417
  O  O91  1  0.719400  0.329900  0.003800  1.0  -0.7619
  O  O92  1  0.916300  0.329300  0.986000  1.0  -0.6659
  O  O93  1  0.811900  0.171400  0.928600  1.0  -0.5473
  O  O94  1  0.416700  0.802300  0.331500  1.0  -0.5767
  O  O95  1  0.491100  0.674200  0.202000  1.0  -0.7278
  O  O96  1  0.459300  0.859700  0.151000  1.0  -0.7382
  O  O97  1  0.885000  0.584900  0.115800  1.0  -0.3841
  O  O98  1  0.065800  0.096000  0.346800  1.0  -0.6571
  O  O99  1  0.155200  0.904700  0.440600  1.0  -0.6412
  O  O100  1  0.280600  0.670100  0.003800  1.0  -0.7616
  O  O101  1  0.083700  0.670700  0.986000  1.0  -0.664
  O  O102  1  0.188100  0.828600  0.928600  1.0  -0.5485
  O  O103  1  0.583300  0.197700  0.331500  1.0  -0.5761
  O  O104  1  0.508900  0.325800  0.202000  1.0  -0.7258
  O  O105  1  0.540700  0.140300  0.151000  1.0  -0.7388
  O  O106  1  0.115000  0.415100  0.115800  1.0  -0.3846
  O  O107  1  0.904000  0.065800  0.653200  1.0  -0.6601
  O  O108  1  0.095300  0.155200  0.559400  1.0  -0.6443
  O  O109  1  0.329900  0.280600  0.996200  1.0  -0.7637
  O  O110  1  0.329300  0.083700  0.014000  1.0  -0.6659
  O  O111  1  0.171400  0.188100  0.071400  1.0  -0.5464
  O  O112  1  0.802300  0.583300  0.668500  1.0  -0.5796
  O  O113  1  0.674200  0.508900  0.798000  1.0  -0.714
  O  O114  1  0.859700  0.540700  0.849000  1.0  -0.7404
  O  O115  1  0.584900  0.115000  0.884200  1.0  -0.383
  O  O116  1  0.096000  0.934200  0.653200  1.0  -0.6584
  O  O117  1  0.904700  0.844800  0.559400  1.0  -0.6454
  O  O118  1  0.670100  0.719400  0.996200  1.0  -0.7632
  O  O119  1  0.670700  0.916300  0.014000  1.0  -0.6656
  O  O120  1  0.828600  0.811900  0.071400  1.0  -0.5476
  O  O121  1  0.197700  0.416700  0.668500  1.0  -0.5796
  O  O122  1  0.325800  0.491100  0.798000  1.0  -0.7129
  O  O123  1  0.140300  0.459300  0.849000  1.0  -0.7407
  O  O124  1  0.415100  0.885000  0.884200  1.0  -0.3842
