# generated using pymatgen
data_CrAg(CO2)6
_symmetry_space_group_name_H-M   'P 1'
_cell_length_a   15.48600000
_cell_length_b   15.48600000
_cell_length_c   15.48600000
_cell_angle_alpha   90.00000000
_cell_angle_beta   90.00000000
_cell_angle_gamma   90.00000000
_symmetry_Int_Tables_number   1
_chemical_formula_structural   CrAg(CO2)6
_chemical_formula_sum   'Cr4 Ag4 C24 O48'
_cell_volume   3713.79361126
_cell_formula_units_Z   4
loop_
 _symmetry_equiv_pos_site_id
 _symmetry_equiv_pos_as_xyz
  1  'x, y, z'
loop_
 _atom_site_type_symbol
 _atom_site_label
 _atom_site_symmetry_multiplicity
 _atom_site_fract_x
 _atom_site_fract_y
 _atom_site_fract_z
 _atom_site_occupancy
 _atom_site_charge
  Cr  Cr1  1  0.607000  0.393000  0.893000  1.0  1.3884
  Cr  Cr2  1  0.893000  0.607000  0.393000  1.0  1.3894
  Cr  Cr3  1  0.393000  0.893000  0.607000  1.0  1.3906
  Cr  Cr4  1  0.107000  0.107000  0.107000  1.0  1.391
  Ag  Ag5  1  0.832900  0.332900  0.167100  1.0  0.4564
  Ag  Ag6  1  0.667100  0.667100  0.667100  1.0  0.4558
  Ag  Ag7  1  0.167100  0.832900  0.332900  1.0  0.4554
  Ag  Ag8  1  0.332900  0.167100  0.832900  1.0  0.4586
  C  C9  1  0.753800  0.368100  0.986400  1.0  0.6571
  C  C10  1  0.677100  0.367700  0.052100  1.0  0.6472
  C  C11  1  0.746200  0.631900  0.486400  1.0  0.6579
  C  C12  1  0.822900  0.632300  0.552100  1.0  0.648
  C  C13  1  0.246200  0.868100  0.513600  1.0  0.6583
  C  C14  1  0.322900  0.867700  0.447900  1.0  0.6476
  C  C15  1  0.253800  0.131900  0.013600  1.0  0.6576
  C  C16  1  0.177100  0.132300  0.947900  1.0  0.6491
  C  C17  1  0.986400  0.753800  0.368100  1.0  0.6535
  C  C18  1  0.052100  0.677100  0.367700  1.0  0.6459
  C  C19  1  0.486400  0.746200  0.631900  1.0  0.6537
  C  C20  1  0.552100  0.822900  0.632300  1.0  0.6459
  C  C21  1  0.513600  0.246200  0.868100  1.0  0.6544
  C  C22  1  0.447900  0.322900  0.867700  1.0  0.6472
  C  C23  1  0.013600  0.253800  0.131900  1.0  0.6537
  C  C24  1  0.947900  0.177100  0.132300  1.0  0.6472
  C  C25  1  0.368100  0.986400  0.753800  1.0  0.6612
  C  C26  1  0.367700  0.052100  0.677100  1.0  0.6451
  C  C27  1  0.631900  0.486400  0.746200  1.0  0.6589
  C  C28  1  0.632300  0.552100  0.822900  1.0  0.6435
  C  C29  1  0.868100  0.513600  0.246200  1.0  0.6585
  C  C30  1  0.867700  0.447900  0.322900  1.0  0.6445
  C  C31  1  0.131900  0.013600  0.253800  1.0  0.6612
  C  C32  1  0.132300  0.947900  0.177100  1.0  0.6446
  O  O33  1  0.730400  0.379400  0.908000  1.0  -0.4639
  O  O34  1  0.604100  0.383500  0.018400  1.0  -0.4393
  O  O35  1  0.825600  0.359300  0.007900  1.0  -0.5049
  O  O36  1  0.687100  0.354100  0.128700  1.0  -0.5046
  O  O37  1  0.769600  0.620600  0.408000  1.0  -0.4654
  O  O38  1  0.895900  0.616500  0.518400  1.0  -0.4375
  O  O39  1  0.674400  0.640700  0.507900  1.0  -0.5066
  O  O40  1  0.812900  0.645900  0.628700  1.0  -0.5073
  O  O41  1  0.269600  0.879400  0.592000  1.0  -0.4661
  O  O42  1  0.395900  0.883500  0.481600  1.0  -0.4429
  O  O43  1  0.174400  0.859300  0.492100  1.0  -0.5076
  O  O44  1  0.312900  0.854100  0.371300  1.0  -0.502
  O  O45  1  0.230400  0.120600  0.092000  1.0  -0.4647
  O  O46  1  0.104100  0.116500  0.981600  1.0  -0.4439
  O  O47  1  0.325600  0.140700  0.992100  1.0  -0.5054
  O  O48  1  0.187100  0.145900  0.871300  1.0  -0.501
  O  O49  1  0.908000  0.730400  0.379400  1.0  -0.4699
  O  O50  1  0.018400  0.604100  0.383500  1.0  -0.4407
  O  O51  1  0.007900  0.825600  0.359300  1.0  -0.505
  O  O52  1  0.128700  0.687100  0.354100  1.0  -0.5084
  O  O53  1  0.408000  0.769600  0.620600  1.0  -0.4692
  O  O54  1  0.518400  0.895900  0.616500  1.0  -0.4391
  O  O55  1  0.507900  0.674400  0.640700  1.0  -0.5059
  O  O56  1  0.628700  0.812900  0.645900  1.0  -0.5127
  O  O57  1  0.592000  0.269600  0.879400  1.0  -0.4662
  O  O58  1  0.481600  0.395900  0.883500  1.0  -0.4468
  O  O59  1  0.492100  0.174400  0.859300  1.0  -0.5055
  O  O60  1  0.371300  0.312900  0.854100  1.0  -0.5122
  O  O61  1  0.092000  0.230400  0.120600  1.0  -0.467
  O  O62  1  0.981600  0.104100  0.116500  1.0  -0.4458
  O  O63  1  0.992100  0.325600  0.140700  1.0  -0.5047
  O  O64  1  0.871300  0.187100  0.145900  1.0  -0.5083
  O  O65  1  0.379400  0.908000  0.730400  1.0  -0.4679
  O  O66  1  0.383500  0.018400  0.604100  1.0  -0.4363
  O  O67  1  0.359300  0.007900  0.825600  1.0  -0.5011
  O  O68  1  0.354100  0.128700  0.687100  1.0  -0.5061
  O  O69  1  0.620600  0.408000  0.769600  1.0  -0.467
  O  O70  1  0.616500  0.518400  0.895900  1.0  -0.4382
  O  O71  1  0.640700  0.507900  0.674400  1.0  -0.4993
  O  O72  1  0.645900  0.628700  0.812900  1.0  -0.5098
  O  O73  1  0.879400  0.592000  0.269600  1.0  -0.4686
  O  O74  1  0.883500  0.481600  0.395900  1.0  -0.4433
  O  O75  1  0.859300  0.492100  0.174400  1.0  -0.5005
  O  O76  1  0.854100  0.371300  0.312900  1.0  -0.5068
  O  O77  1  0.120600  0.092000  0.230400  1.0  -0.4674
  O  O78  1  0.116500  0.981600  0.104100  1.0  -0.4388
  O  O79  1  0.140700  0.992100  0.325600  1.0  -0.501
  O  O80  1  0.145900  0.871300  0.187100  1.0  -0.505
