# generated using pymatgen
data_Zn3H22C34(NO6)2
_symmetry_space_group_name_H-M   'P 1'
_cell_length_a   11.80500000
_cell_length_b   17.14200000
_cell_length_c   21.54400000
_cell_angle_alpha   90.00000000
_cell_angle_beta   90.00000000
_cell_angle_gamma   106.44100000
_symmetry_Int_Tables_number   1
_chemical_formula_structural   Zn3H22C34(NO6)2
_chemical_formula_sum   'Zn12 H88 C136 N8 O48'
_cell_volume   4181.41243825
_cell_formula_units_Z   4
loop_
 _symmetry_equiv_pos_site_id
 _symmetry_equiv_pos_as_xyz
  1  'x, y, z'
loop_
 _atom_site_type_symbol
 _atom_site_label
 _atom_site_symmetry_multiplicity
 _atom_site_fract_x
 _atom_site_fract_y
 _atom_site_fract_z
 _atom_site_occupancy
 _atom_site_charge
  Zn  Zn1  1  0.823240  0.727250  0.572060  1.0  1.0977
  Zn  Zn2  1  0.640240  0.828520  0.620400  1.0  0.9171
  Zn  Zn3  1  0.064870  0.365680  0.532520  1.0  0.9251
  Zn  Zn4  1  0.676760  0.272750  0.072060  1.0  1.0993
  Zn  Zn5  1  0.859760  0.171480  0.120400  1.0  0.9172
  Zn  Zn6  1  0.435130  0.634320  0.032520  1.0  0.9264
  Zn  Zn7  1  0.176760  0.272750  0.427940  1.0  1.0987
  Zn  Zn8  1  0.359760  0.171480  0.379600  1.0  0.9176
  Zn  Zn9  1  0.935130  0.634320  0.467480  1.0  0.9248
  Zn  Zn10  1  0.323240  0.727250  0.927940  1.0  1.0974
  Zn  Zn11  1  0.140240  0.828520  0.879600  1.0  0.9175
  Zn  Zn12  1  0.564870  0.365680  0.967480  1.0  0.9234
  H  H13  1  0.409100  0.801600  0.679800  1.0  0.0707
  H  H14  1  0.283800  0.872100  0.717700  1.0  0.1156
  H  H15  1  0.332300  0.005700  0.711100  1.0  0.1054
  H  H16  1  0.503700  0.075500  0.655300  1.0  0.1406
  H  H17  1  0.626600  0.995700  0.617400  1.0  0.0931
  H  H18  1  0.099000  0.367600  0.670500  1.0  0.0685
  H  H19  1  0.036600  0.415500  0.756900  1.0  0.1253
  H  H20  1  0.897400  0.486300  0.749100  1.0  0.1033
  H  H21  1  0.830300  0.510500  0.652200  1.0  0.1292
  H  H22  1  0.893600  0.454300  0.567800  1.0  0.0774
  H  H23  1  0.108300  0.927700  0.584100  1.0  0.1056
  H  H24  1  0.265700  0.037900  0.563300  1.0  0.1082
  H  H25  1  0.238000  0.164900  0.553100  1.0  0.1026
  H  H26  1  0.890000  0.068000  0.582600  1.0  0.1007
  H  H27  1  0.574100  0.515500  0.621200  1.0  0.0991
  H  H28  1  0.405700  0.408700  0.637300  1.0  0.1033
  H  H29  1  0.344800  0.308300  0.563000  1.0  0.1081
  H  H30  1  0.629400  0.413600  0.460900  1.0  0.0942
  H  H31  1  0.193500  0.572100  0.584800  1.0  0.0967
  H  H32  1  0.328500  0.560900  0.660800  1.0  0.0999
  H  H33  1  0.331100  0.624600  0.755000  1.0  0.0935
  H  H34  1  0.083100  0.724900  0.695600  1.0  0.1041
  H  H35  1  0.090900  0.198400  0.179800  1.0  0.0711
  H  H36  1  0.216200  0.127900  0.217700  1.0  0.1155
  H  H37  1  0.167700  0.994300  0.211100  1.0  0.1055
  H  H38  1  0.996300  0.924500  0.155300  1.0  0.1407
  H  H39  1  0.873400  0.004300  0.117400  1.0  0.0927
  H  H40  1  0.401000  0.632400  0.170500  1.0  0.0685
  H  H41  1  0.463400  0.584500  0.256900  1.0  0.1251
  H  H42  1  0.602600  0.513700  0.249100  1.0  0.104
  H  H43  1  0.669700  0.489500  0.152200  1.0  0.1299
  H  H44  1  0.606400  0.545700  0.067800  1.0  0.0773
  H  H45  1  0.391700  0.072300  0.084100  1.0  0.1057
  H  H46  1  0.234300  0.962100  0.063300  1.0  0.1075
  H  H47  1  0.262000  0.835100  0.053100  1.0  0.1029
  H  H48  1  0.610000  0.932000  0.082600  1.0  0.1036
  H  H49  1  0.925900  0.484500  0.121200  1.0  0.0994
  H  H50  1  0.094300  0.591300  0.137300  1.0  0.1034
  H  H51  1  0.155200  0.691700  0.063000  1.0  0.108
  H  H52  1  0.870600  0.586400  0.960900  1.0  0.0946
  H  H53  1  0.306500  0.427900  0.084800  1.0  0.0964
  H  H54  1  0.171500  0.439100  0.160800  1.0  0.1001
  H  H55  1  0.168900  0.375400  0.255000  1.0  0.0934
  H  H56  1  0.416900  0.275100  0.195600  1.0  0.104
  H  H57  1  0.590900  0.198400  0.320200  1.0  0.0713
  H  H58  1  0.716200  0.127900  0.282300  1.0  0.115
  H  H59  1  0.667700  0.994300  0.288900  1.0  0.106
  H  H60  1  0.496300  0.924500  0.344700  1.0  0.1407
  H  H61  1  0.373400  0.004300  0.382600  1.0  0.0924
  H  H62  1  0.901000  0.632400  0.329500  1.0  0.0687
  H  H63  1  0.963400  0.584500  0.243100  1.0  0.1249
  H  H64  1  0.102600  0.513700  0.250900  1.0  0.1028
  H  H65  1  0.169700  0.489500  0.347800  1.0  0.1301
  H  H66  1  0.106400  0.545700  0.432200  1.0  0.0778
  H  H67  1  0.891700  0.072300  0.415900  1.0  0.1061
  H  H68  1  0.734300  0.962100  0.436700  1.0  0.1076
  H  H69  1  0.762000  0.835100  0.446900  1.0  0.1021
  H  H70  1  0.110000  0.932000  0.417400  1.0  0.1034
  H  H71  1  0.425900  0.484500  0.378800  1.0  0.0993
  H  H72  1  0.594300  0.591300  0.362700  1.0  0.1028
  H  H73  1  0.655200  0.691700  0.437000  1.0  0.1081
  H  H74  1  0.370600  0.586400  0.539100  1.0  0.0944
  H  H75  1  0.806500  0.427900  0.415200  1.0  0.0964
  H  H76  1  0.671500  0.439100  0.339200  1.0  0.0996
  H  H77  1  0.668900  0.375400  0.245000  1.0  0.0938
  H  H78  1  0.916900  0.275100  0.304400  1.0  0.1039
  H  H79  1  0.909100  0.801600  0.820200  1.0  0.0708
  H  H80  1  0.783800  0.872100  0.782300  1.0  0.1155
  H  H81  1  0.832300  0.005700  0.788900  1.0  0.1061
  H  H82  1  0.003700  0.075500  0.844700  1.0  0.1404
  H  H83  1  0.126600  0.995700  0.882600  1.0  0.0925
  H  H84  1  0.599000  0.367600  0.829500  1.0  0.0682
  H  H85  1  0.536600  0.415500  0.743100  1.0  0.1251
  H  H86  1  0.397400  0.486300  0.750900  1.0  0.1022
  H  H87  1  0.330300  0.510500  0.847800  1.0  0.1293
  H  H88  1  0.393600  0.454300  0.932200  1.0  0.0774
  H  H89  1  0.608300  0.927700  0.915900  1.0  0.1062
  H  H90  1  0.765700  0.037900  0.936700  1.0  0.1082
  H  H91  1  0.738000  0.164900  0.946900  1.0  0.1028
  H  H92  1  0.390000  0.068000  0.917400  1.0  0.1011
  H  H93  1  0.074100  0.515500  0.878800  1.0  0.0993
  H  H94  1  0.905700  0.408700  0.862700  1.0  0.1029
  H  H95  1  0.844800  0.308300  0.937000  1.0  0.1077
  H  H96  1  0.129400  0.413600  0.039100  1.0  0.0947
  H  H97  1  0.693500  0.572100  0.915200  1.0  0.0966
  H  H98  1  0.828500  0.560900  0.839200  1.0  0.0994
  H  H99  1  0.831100  0.624600  0.745000  1.0  0.0936
  H  H100  1  0.583100  0.724900  0.804400  1.0  0.1039
  C  C101  1  0.431200  0.857900  0.675700  1.0  0.1866
  C  C102  1  0.354300  0.900300  0.698700  1.0  -0.1514
  C  C103  1  0.380900  0.977400  0.693700  1.0  0.0264
  C  C104  1  0.484000  0.019600  0.661800  1.0  -0.1978
  C  C105  1  0.558100  0.970400  0.639300  1.0  0.1459
  C  C106  1  0.042700  0.395800  0.666667  1.0  0.1786
  C  C107  1  0.006700  0.424300  0.718400  1.0  -0.1894
  C  C108  1  0.924900  0.466600  0.713600  1.0  0.0257
  C  C109  1  0.883600  0.480100  0.656700  1.0  -0.1761
  C  C110  1  0.923600  0.447200  0.606700  1.0  0.1924
  C  C111  1  0.882200  0.911800  0.592400  1.0  0.6857
  C  C112  1  0.983800  0.986500  0.584100  1.0  -0.1698
  C  C113  1  0.096300  0.978700  0.579200  1.0  -0.0169
  C  C114  1  0.190400  0.044300  0.567100  1.0  -0.1303
  C  C115  1  0.173800  0.119900  0.560600  1.0  -0.0237
  C  C116  1  0.059600  0.129300  0.565200  1.0  -0.1572
  C  C117  1  0.965500  0.062200  0.578000  1.0  0.0053
  C  C118  1  0.039700  0.211300  0.555800  1.0  0.6645
  C  C119  1  0.722800  0.547300  0.526100  1.0  0.6853
  C  C120  1  0.619400  0.477000  0.538800  1.0  -0.1725
  C  C121  1  0.551500  0.474300  0.591800  1.0  -0.0267
  C  C122  1  0.449800  0.410500  0.601300  1.0  -0.1249
  C  C123  1  0.414300  0.349900  0.557400  1.0  -0.0187
  C  C124  1  0.481400  0.351200  0.505700  1.0  -0.1379
  C  C125  1  0.584000  0.413800  0.496100  1.0  -0.0003
  C  C126  1  0.444700  0.286900  0.456600  1.0  0.6845
  C  C127  1  0.043500  0.662200  0.582900  1.0  0.6851
  C  C128  1  0.127000  0.651700  0.633100  1.0  -0.1586
  C  C129  1  0.198600  0.600300  0.622100  1.0  -0.0404
  C  C130  1  0.277500  0.592500  0.667900  1.0  -0.1138
  C  C131  1  0.279900  0.631700  0.724100  1.0  -0.0225
  C  C132  1  0.207200  0.681600  0.735600  1.0  -0.1857
  C  C133  1  0.131500  0.691200  0.689000  1.0  -0.0004
  C  C134  1  0.213500  0.724000  0.796200  1.0  0.699
  C  C135  1  0.068800  0.142100  0.175700  1.0  0.1863
  C  C136  1  0.145700  0.099700  0.198700  1.0  -0.1507
  C  C137  1  0.119100  0.022600  0.193700  1.0  0.0273
  C  C138  1  0.016000  0.980400  0.161800  1.0  -0.1982
  C  C139  1  0.941900  0.029600  0.139300  1.0  0.1469
  C  C140  1  0.457300  0.604200  0.166700  1.0  0.1777
  C  C141  1  0.493300  0.575700  0.218400  1.0  -0.1895
  C  C142  1  0.575100  0.533400  0.213600  1.0  0.0235
  C  C143  1  0.616400  0.519900  0.156700  1.0  -0.1766
  C  C144  1  0.576400  0.552800  0.106700  1.0  0.1928
  C  C145  1  0.617800  0.088200  0.092400  1.0  0.6861
  C  C146  1  0.516200  0.013500  0.084100  1.0  -0.1702
  C  C147  1  0.403700  0.021300  0.079200  1.0  -0.0163
  C  C148  1  0.309600  0.955700  0.067100  1.0  -0.1304
  C  C149  1  0.326200  0.880100  0.060600  1.0  -0.0235
  C  C150  1  0.440400  0.870700  0.065200  1.0  -0.1546
  C  C151  1  0.534500  0.937800  0.078000  1.0  0.0033
  C  C152  1  0.460300  0.788700  0.055800  1.0  0.6653
  C  C153  1  0.777200  0.452700  0.026100  1.0  0.6853
  C  C154  1  0.880600  0.523000  0.038800  1.0  -0.1735
  C  C155  1  0.948500  0.525700  0.091800  1.0  -0.0274
  C  C156  1  0.050200  0.589500  0.101300  1.0  -0.1251
  C  C157  1  0.085700  0.650100  0.057400  1.0  -0.0195
  C  C158  1  0.018600  0.648800  0.005700  1.0  -0.1374
  C  C159  1  0.916000  0.586200  0.996100  1.0  -0.0005
  C  C160  1  0.055300  0.713100  0.956600  1.0  0.6841
  C  C161  1  0.456500  0.337800  0.082900  1.0  0.6844
  C  C162  1  0.373000  0.348300  0.133100  1.0  -0.1586
  C  C163  1  0.301400  0.399700  0.122100  1.0  -0.042
  C  C164  1  0.222500  0.407500  0.167900  1.0  -0.1155
  C  C165  1  0.220100  0.368300  0.224100  1.0  -0.0224
  C  C166  1  0.292800  0.318400  0.235600  1.0  -0.1853
  C  C167  1  0.368500  0.308800  0.189000  1.0  -0.0007
  C  C168  1  0.286500  0.276000  0.296200  1.0  0.6997
  C  C169  1  0.568800  0.142100  0.324300  1.0  0.1862
  C  C170  1  0.645700  0.099700  0.301300  1.0  -0.151
  C  C171  1  0.619100  0.022600  0.306300  1.0  0.0269
  C  C172  1  0.516000  0.980400  0.338200  1.0  -0.1985
  C  C173  1  0.441900  0.029600  0.360700  1.0  0.1484
  C  C174  1  0.957300  0.604200  0.333333  1.0  0.1784
  C  C175  1  0.993300  0.575700  0.281600  1.0  -0.189
  C  C176  1  0.075100  0.533400  0.286400  1.0  0.0229
  C  C177  1  0.116400  0.519900  0.343300  1.0  -0.1765
  C  C178  1  0.076400  0.552800  0.393300  1.0  0.1926
  C  C179  1  0.117800  0.088200  0.407600  1.0  0.6858
  C  C180  1  0.016200  0.013500  0.415900  1.0  -0.1689
  C  C181  1  0.903700  0.021300  0.420800  1.0  -0.0167
  C  C182  1  0.809600  0.955700  0.432900  1.0  -0.1315
  C  C183  1  0.826200  0.880100  0.439400  1.0  -0.0222
  C  C184  1  0.940400  0.870700  0.434800  1.0  -0.156
  C  C185  1  0.034500  0.937800  0.422000  1.0  0.0026
  C  C186  1  0.960300  0.788700  0.444200  1.0  0.6654
  C  C187  1  0.277200  0.452700  0.473900  1.0  0.6854
  C  C188  1  0.380600  0.523000  0.461200  1.0  -0.1742
  C  C189  1  0.448500  0.525700  0.408200  1.0  -0.0273
  C  C190  1  0.550200  0.589500  0.398700  1.0  -0.1249
  C  C191  1  0.585700  0.650100  0.442600  1.0  -0.0183
  C  C192  1  0.518600  0.648800  0.494300  1.0  -0.1377
  C  C193  1  0.416000  0.586200  0.503900  1.0  -0.001
  C  C194  1  0.555300  0.713100  0.543400  1.0  0.6841
  C  C195  1  0.956500  0.337800  0.417100  1.0  0.6855
  C  C196  1  0.873000  0.348300  0.366900  1.0  -0.1583
  C  C197  1  0.801400  0.399700  0.377900  1.0  -0.0385
  C  C198  1  0.722500  0.407500  0.332100  1.0  -0.1159
  C  C199  1  0.720100  0.368300  0.275900  1.0  -0.0223
  C  C200  1  0.792800  0.318400  0.264400  1.0  -0.1856
  C  C201  1  0.868500  0.308800  0.311000  1.0  -0.001
  C  C202  1  0.786500  0.276000  0.203800  1.0  0.6986
  C  C203  1  0.931200  0.857900  0.824300  1.0  0.1865
  C  C204  1  0.854300  0.900300  0.801300  1.0  -0.1523
  C  C205  1  0.880900  0.977400  0.806300  1.0  0.0274
  C  C206  1  0.984000  0.019600  0.838200  1.0  -0.1983
  C  C207  1  0.058100  0.970400  0.860700  1.0  0.1465
  C  C208  1  0.542700  0.395800  0.833300  1.0  0.1785
  C  C209  1  0.506700  0.424300  0.781600  1.0  -0.1887
  C  C210  1  0.424900  0.466600  0.786400  1.0  0.0249
  C  C211  1  0.383600  0.480100  0.843300  1.0  -0.1767
  C  C212  1  0.423600  0.447200  0.893300  1.0  0.1934
  C  C213  1  0.382200  0.911800  0.907600  1.0  0.6859
  C  C214  1  0.483800  0.986500  0.915900  1.0  -0.1699
  C  C215  1  0.596300  0.978700  0.920800  1.0  -0.0173
  C  C216  1  0.690400  0.044300  0.932900  1.0  -0.1307
  C  C217  1  0.673800  0.119900  0.939400  1.0  -0.0226
  C  C218  1  0.559600  0.129300  0.934800  1.0  -0.1546
  C  C219  1  0.465500  0.062200  0.922000  1.0  0.0046
  C  C220  1  0.539700  0.211300  0.944200  1.0  0.6651
  C  C221  1  0.222800  0.547300  0.973900  1.0  0.6853
  C  C222  1  0.119400  0.477000  0.961200  1.0  -0.1723
  C  C223  1  0.051500  0.474300  0.908200  1.0  -0.0278
  C  C224  1  0.949800  0.410500  0.898700  1.0  -0.1247
  C  C225  1  0.914300  0.349900  0.942600  1.0  -0.0199
  C  C226  1  0.981400  0.351200  0.994300  1.0  -0.138
  C  C227  1  0.084000  0.413800  0.003900  1.0  -0.0014
  C  C228  1  0.944700  0.286900  0.043400  1.0  0.685
  C  C229  1  0.543500  0.662200  0.917100  1.0  0.6849
  C  C230  1  0.627000  0.651700  0.866900  1.0  -0.1591
  C  C231  1  0.698600  0.600300  0.877900  1.0  -0.0374
  C  C232  1  0.777500  0.592500  0.832100  1.0  -0.1143
  C  C233  1  0.779900  0.631700  0.775900  1.0  -0.0224
  C  C234  1  0.707200  0.681600  0.764400  1.0  -0.1858
  C  C235  1  0.631500  0.691200  0.811000  1.0  -0.0007
  C  C236  1  0.713500  0.724000  0.703800  1.0  0.6984
  N  N237  1  0.531700  0.893000  0.648900  1.0  -0.2982
  N  N238  1  0.003700  0.405100  0.610000  1.0  -0.3218
  N  N239  1  0.968300  0.107000  0.148900  1.0  -0.2985
  N  N240  1  0.496300  0.594900  0.110000  1.0  -0.3285
  N  N241  1  0.468300  0.107000  0.351100  1.0  -0.2985
  N  N242  1  0.996300  0.594900  0.390000  1.0  -0.3206
  N  N243  1  0.031700  0.893000  0.851100  1.0  -0.2986
  N  N244  1  0.503700  0.405100  0.890000  1.0  -0.3279
  O  O245  1  0.782900  0.921000  0.607400  1.0  -0.6073
  O  O246  1  0.903500  0.844900  0.582900  1.0  -0.5971
  O  O247  1  0.946300  0.223600  0.571300  1.0  -0.5599
  O  O248  1  0.125100  0.268400  0.530300  1.0  -0.662
  O  O249  1  0.738700  0.606700  0.561200  1.0  -0.6046
  O  O250  1  0.789000  0.543600  0.480600  1.0  -0.5869
  O  O251  1  0.337500  0.243700  0.454400  1.0  -0.6472
  O  O252  1  0.517700  0.273300  0.420400  1.0  -0.5638
  O  O253  1  0.042100  0.622400  0.532900  1.0  -0.5982
  O  O254  1  0.983500  0.709100  0.593300  1.0  -0.5914
  O  O255  1  0.151900  0.772600  0.801800  1.0  -0.5987
  O  O256  1  0.275800  0.706400  0.836800  1.0  -0.5945
  O  O257  1  0.717100  0.079000  0.107400  1.0  -0.6079
  O  O258  1  0.596500  0.155100  0.082900  1.0  -0.5959
  O  O259  1  0.553700  0.776400  0.071300  1.0  -0.5603
  O  O260  1  0.374900  0.731600  0.030300  1.0  -0.6632
  O  O261  1  0.761300  0.393300  0.061200  1.0  -0.6042
  O  O262  1  0.711000  0.456400  0.980600  1.0  -0.587
  O  O263  1  0.162500  0.756300  0.954400  1.0  -0.6484
  O  O264  1  0.982300  0.726700  0.920400  1.0  -0.5637
  O  O265  1  0.457900  0.377600  0.032900  1.0  -0.598
  O  O266  1  0.516500  0.290900  0.093300  1.0  -0.5927
  O  O267  1  0.348100  0.227400  0.301800  1.0  -0.5984
  O  O268  1  0.224200  0.293600  0.336800  1.0  -0.5942
  O  O269  1  0.217100  0.079000  0.392600  1.0  -0.6077
  O  O270  1  0.096500  0.155100  0.417100  1.0  -0.5958
  O  O271  1  0.053700  0.776400  0.428700  1.0  -0.5598
  O  O272  1  0.874900  0.731600  0.469700  1.0  -0.6639
  O  O273  1  0.261300  0.393300  0.438800  1.0  -0.6038
  O  O274  1  0.211000  0.456400  0.519400  1.0  -0.5866
  O  O275  1  0.662500  0.756300  0.545600  1.0  -0.6486
  O  O276  1  0.482300  0.726700  0.579600  1.0  -0.5643
  O  O277  1  0.957900  0.377600  0.467100  1.0  -0.5978
  O  O278  1  0.016500  0.290900  0.406700  1.0  -0.5931
  O  O279  1  0.848100  0.227400  0.198200  1.0  -0.5983
  O  O280  1  0.724200  0.293600  0.163200  1.0  -0.5938
  O  O281  1  0.282900  0.921000  0.892600  1.0  -0.6064
  O  O282  1  0.403500  0.844900  0.917100  1.0  -0.5966
  O  O283  1  0.446300  0.223600  0.928700  1.0  -0.5603
  O  O284  1  0.625100  0.268400  0.969700  1.0  -0.6624
  O  O285  1  0.238700  0.606700  0.938800  1.0  -0.6038
  O  O286  1  0.289000  0.543600  0.019400  1.0  -0.5865
  O  O287  1  0.837500  0.243700  0.045600  1.0  -0.647
  O  O288  1  0.017700  0.273300  0.079600  1.0  -0.5641
  O  O289  1  0.542100  0.622400  0.967100  1.0  -0.5986
  O  O290  1  0.483500  0.709100  0.906700  1.0  -0.5919
  O  O291  1  0.651900  0.772600  0.698200  1.0  -0.5987
  O  O292  1  0.775800  0.706400  0.663200  1.0  -0.594
