# generated using pymatgen
data_CoH10C17NO4
_symmetry_space_group_name_H-M   'P 1'
_cell_length_a   12.93900000
_cell_length_b   13.09200000
_cell_length_c   13.75400000
_cell_angle_alpha   85.44900000
_cell_angle_beta   70.30200000
_cell_angle_gamma   83.73100000
_symmetry_Int_Tables_number   1
_chemical_formula_structural   CoH10C17NO4
_chemical_formula_sum   'Co4 H40 C68 N4 O16'
_cell_volume   2178.18090229
_cell_formula_units_Z   4
loop_
 _symmetry_equiv_pos_site_id
 _symmetry_equiv_pos_as_xyz
  1  'x, y, z'
loop_
 _atom_site_type_symbol
 _atom_site_label
 _atom_site_symmetry_multiplicity
 _atom_site_fract_x
 _atom_site_fract_y
 _atom_site_fract_z
 _atom_site_occupancy
 _atom_site_charge
  Co  Co1  1  0.194860  0.816820  0.170020  1.0  0.9504
  Co  Co2  1  0.127760  0.825520  0.381690  1.0  0.9095
  Co  Co3  1  0.805140  0.183180  0.829980  1.0  0.9506
  Co  Co4  1  0.872240  0.174480  0.618310  1.0  0.9099
  H  H5  1  0.872300  0.803400  0.168900  1.0  0.1031
  H  H6  1  0.743800  0.781600  0.076500  1.0  0.1164
  H  H7  1  0.566300  0.782800  0.077600  1.0  0.1023
  H  H8  1  0.449900  0.832400  0.381400  1.0  0.1033
  H  H9  1  0.580600  0.851200  0.475800  1.0  0.113
  H  H10  1  0.758700  0.857800  0.472400  1.0  0.1118
  H  H11  1  0.126700  0.155300  0.400600  1.0  0.1038
  H  H12  1  0.105700  0.325200  0.479800  1.0  0.1056
  H  H13  1  0.117000  0.499500  0.461400  1.0  0.1132
  H  H14  1  0.207400  0.486200  0.150100  1.0  0.1135
  H  H15  1  0.217900  0.319500  0.072600  1.0  0.1238
  H  H16  1  0.207400  0.144900  0.092700  1.0  0.0978
  H  H17  1  0.079100  0.945700  0.041100  1.0  0.091
  H  H18  1  0.042100  0.938900  0.888200  1.0  0.1236
  H  H19  1  0.211000  0.670800  0.839100  1.0  0.1195
  H  H20  1  0.225100  0.673300  0.000600  1.0  0.0788
  H  H21  1  0.114900  0.970300  0.710000  1.0  0.1036
  H  H22  1  0.104100  0.971000  0.546700  1.0  0.081
  H  H23  1  0.204300  0.684800  0.523900  1.0  0.0837
  H  H24  1  0.232300  0.679100  0.682200  1.0  0.1263
  H  H25  1  0.127700  0.196600  0.831100  1.0  0.1033
  H  H26  1  0.256200  0.218400  0.923500  1.0  0.1169
  H  H27  1  0.433700  0.217200  0.922400  1.0  0.1025
  H  H28  1  0.550100  0.167600  0.618600  1.0  0.1024
  H  H29  1  0.419400  0.148800  0.524200  1.0  0.1132
  H  H30  1  0.241300  0.142200  0.527600  1.0  0.1117
  H  H31  1  0.873300  0.844700  0.599400  1.0  0.103
  H  H32  1  0.894300  0.674800  0.520200  1.0  0.1058
  H  H33  1  0.883000  0.500500  0.538600  1.0  0.1136
  H  H34  1  0.792600  0.513800  0.849900  1.0  0.1126
  H  H35  1  0.782100  0.680500  0.927400  1.0  0.1238
  H  H36  1  0.792600  0.855100  0.907300  1.0  0.0986
  H  H37  1  0.920900  0.054300  0.958900  1.0  0.091
  H  H38  1  0.957900  0.061100  0.111800  1.0  0.1241
  H  H39  1  0.789000  0.329200  0.160900  1.0  0.1173
  H  H40  1  0.774900  0.326700  0.999400  1.0  0.0798
  H  H41  1  0.885100  0.029700  0.290000  1.0  0.1026
  H  H42  1  0.895900  0.029000  0.453300  1.0  0.0814
  H  H43  1  0.795700  0.315200  0.476100  1.0  0.0841
  H  H44  1  0.767700  0.320900  0.317800  1.0  0.1266
  C  C45  1  0.948100  0.830800  0.317200  1.0  0.6565
  C  C46  1  0.833600  0.828800  0.318800  1.0  -0.1321
  C  C47  1  0.812100  0.813400  0.231100  1.0  -0.0854
  C  C48  1  0.703800  0.811700  0.228700  1.0  0.0458
  C  C49  1  0.684000  0.793600  0.138600  1.0  -0.1618
  C  C50  1  0.579100  0.793400  0.139900  1.0  -0.0363
  C  C51  1  0.487800  0.808400  0.231400  1.0  -0.1298
  C  C52  1  0.510100  0.823700  0.319000  1.0  -0.0751
  C  C53  1  0.615700  0.827300  0.322000  1.0  0.0441
  C  C54  1  0.639500  0.842500  0.412400  1.0  -0.1177
  C  C55  1  0.745000  0.845100  0.411000  1.0  -0.063
  C  C56  1  0.373300  0.809300  0.232700  1.0  0.6855
  C  C57  1  0.159900  0.018600  0.261600  1.0  0.6637
  C  C58  1  0.165300  0.132900  0.250200  1.0  -0.1552
  C  C59  1  0.144500  0.189300  0.334200  1.0  -0.0798
  C  C60  1  0.148400  0.295600  0.325900  1.0  0.0393
  C  C61  1  0.125800  0.357400  0.412400  1.0  -0.1092
  C  C62  1  0.131800  0.460500  0.402000  1.0  -0.065
  C  C63  1  0.160300  0.510000  0.302400  1.0  -0.1291
  C  C64  1  0.184800  0.453000  0.217000  1.0  -0.1032
  C  C65  1  0.177000  0.345200  0.226800  1.0  0.0452
  C  C66  1  0.198900  0.286900  0.139800  1.0  -0.1617
  C  C67  1  0.192700  0.183900  0.152000  1.0  -0.0388
  C  C68  1  0.163700  0.623400  0.291300  1.0  0.6932
  C  C69  1  0.114700  0.891700  0.995900  1.0  0.1495
  C  C70  1  0.095900  0.891100  0.903300  1.0  -0.2144
  C  C71  1  0.158700  0.817200  0.830700  1.0  0.0968
  C  C72  1  0.192900  0.733300  0.874200  1.0  -0.2058
  C  C73  1  0.202400  0.736100  0.971100  1.0  0.1748
  C  C74  1  0.148900  0.819500  0.726600  1.0  0.0901
  C  C75  1  0.126400  0.907000  0.677000  1.0  -0.1835
  C  C76  1  0.119600  0.907000  0.579000  1.0  0.1722
  C  C77  1  0.179200  0.743100  0.565300  1.0  0.1641
  C  C78  1  0.193300  0.737500  0.661200  1.0  -0.2122
  C  C79  1  0.051900  0.169200  0.682800  1.0  0.6561
  C  C80  1  0.166400  0.171200  0.681200  1.0  -0.1326
  C  C81  1  0.187900  0.186600  0.768900  1.0  -0.0872
  C  C82  1  0.296200  0.188300  0.771300  1.0  0.0458
  C  C83  1  0.316000  0.206400  0.861400  1.0  -0.1631
  C  C84  1  0.420900  0.206600  0.860100  1.0  -0.0361
  C  C85  1  0.512200  0.191600  0.768600  1.0  -0.1307
  C  C86  1  0.489900  0.176300  0.681000  1.0  -0.0724
  C  C87  1  0.384300  0.172700  0.678000  1.0  0.0446
  C  C88  1  0.360500  0.157500  0.587600  1.0  -0.1163
  C  C89  1  0.255000  0.154900  0.589000  1.0  -0.0649
  C  C90  1  0.626700  0.190700  0.767300  1.0  0.685
  C  C91  1  0.840100  0.981400  0.738400  1.0  0.6643
  C  C92  1  0.834700  0.867100  0.749800  1.0  -0.1523
  C  C93  1  0.855500  0.810700  0.665800  1.0  -0.0802
  C  C94  1  0.851600  0.704400  0.674100  1.0  0.0381
  C  C95  1  0.874200  0.642600  0.587600  1.0  -0.1075
  C  C96  1  0.868200  0.539500  0.598000  1.0  -0.0663
  C  C97  1  0.839700  0.490000  0.697600  1.0  -0.1291
  C  C98  1  0.815200  0.547000  0.783000  1.0  -0.1036
  C  C99  1  0.823000  0.654800  0.773200  1.0  0.0435
  C  C100  1  0.801100  0.713100  0.860200  1.0  -0.1626
  C  C101  1  0.807300  0.816100  0.848000  1.0  -0.0386
  C  C102  1  0.836300  0.376600  0.708700  1.0  0.6952
  C  C103  1  0.885300  0.108300  0.004100  1.0  0.1477
  C  C104  1  0.904100  0.108900  0.096700  1.0  -0.2147
  C  C105  1  0.841300  0.182800  0.169300  1.0  0.096
  C  C106  1  0.807100  0.266700  0.125800  1.0  -0.2065
  C  C107  1  0.797600  0.263900  0.028900  1.0  0.1729
  C  C108  1  0.851100  0.180500  0.273400  1.0  0.0901
  C  C109  1  0.873600  0.093000  0.323000  1.0  -0.1834
  C  C110  1  0.880400  0.093000  0.421000  1.0  0.1712
  C  C111  1  0.820800  0.256900  0.434700  1.0  0.1638
  C  C112  1  0.806700  0.262500  0.338800  1.0  -0.2127
  N  N113  1  0.182900  0.817500  0.025500  1.0  -0.2957
  N  N114  1  0.133400  0.824000  0.528600  1.0  -0.2961
  N  N115  1  0.817100  0.182500  0.974500  1.0  -0.2958
  N  N116  1  0.866600  0.176000  0.471400  1.0  -0.2947
  O  O117  1  0.023400  0.825390  0.229940  1.0  -0.6174
  O  O118  1  0.964600  0.837440  0.401430  1.0  -0.5504
  O  O119  1  0.298100  0.810930  0.317900  1.0  -0.6116
  O  O120  1  0.357500  0.808500  0.146400  1.0  -0.5744
  O  O121  1  0.182200  0.971400  0.178490  1.0  -0.5901
  O  O122  1  0.134500  0.978220  0.350510  1.0  -0.5549
  O  O123  1  0.136400  0.671970  0.373540  1.0  -0.5705
  O  O124  1  0.192100  0.665420  0.201230  1.0  -0.5749
  O  O125  1  0.976600  0.174610  0.770060  1.0  -0.6164
  O  O126  1  0.035400  0.162560  0.598570  1.0  -0.5498
  O  O127  1  0.701900  0.189070  0.682100  1.0  -0.6107
  O  O128  1  0.642500  0.191500  0.853600  1.0  -0.5746
  O  O129  1  0.817800  0.028600  0.821510  1.0  -0.5841
  O  O130  1  0.865500  0.021780  0.649490  1.0  -0.5561
  O  O131  1  0.863600  0.328030  0.626460  1.0  -0.5711
  O  O132  1  0.807900  0.334580  0.798770  1.0  -0.5756
