# generated using pymatgen
data_NiH12C18(NO2)2
_symmetry_space_group_name_H-M   'P 1'
_cell_length_a   9.95620000
_cell_length_b   14.89040000
_cell_length_c   28.22600000
_cell_angle_alpha   90.00000000
_cell_angle_beta   90.00000000
_cell_angle_gamma   106.30600000
_symmetry_Int_Tables_number   1
_chemical_formula_structural   NiH12C18(NO2)2
_chemical_formula_sum   'Ni8 H96 C144 N16 O32'
_cell_volume   4016.23532929
_cell_formula_units_Z   8
loop_
 _symmetry_equiv_pos_site_id
 _symmetry_equiv_pos_as_xyz
  1  'x, y, z'
loop_
 _atom_site_type_symbol
 _atom_site_label
 _atom_site_symmetry_multiplicity
 _atom_site_fract_x
 _atom_site_fract_y
 _atom_site_fract_z
 _atom_site_occupancy
 _atom_site_charge
  Ni  Ni1  1  0.182170  0.829130  0.490400  1.0  0.8384
  Ni  Ni2  1  0.766160  0.489110  0.335630  1.0  0.8584
  Ni  Ni3  1  0.317830  0.170870  0.990400  1.0  0.8557
  Ni  Ni4  1  0.733840  0.510890  0.835630  1.0  0.8572
  Ni  Ni5  1  0.817830  0.170870  0.509600  1.0  0.8555
  Ni  Ni6  1  0.233840  0.510890  0.664370  1.0  0.854
  Ni  Ni7  1  0.682170  0.829130  0.009600  1.0  0.8367
  Ni  Ni8  1  0.266160  0.489110  0.164370  1.0  0.8539
  H  H9  1  0.319400  0.722800  0.313500  1.0  0.0993
  H  H10  1  0.289600  0.743800  0.232700  1.0  0.0991
  H  H11  1  0.144000  0.833400  0.207900  1.0  0.106
  H  H12  1  0.007700  0.883900  0.262700  1.0  0.0919
  H  H13  1  0.018300  0.992700  0.342400  1.0  0.102
  H  H14  1  0.851900  0.021000  0.394900  1.0  0.0894
  H  H15  1  0.698100  0.898300  0.433500  1.0  0.0793
  H  H16  1  0.709100  0.747100  0.423600  1.0  0.1261
  H  H17  1  0.377800  0.163900  0.361500  1.0  0.0934
  H  H18  1  0.301100  0.005600  0.343000  1.0  0.1061
  H  H19  1  0.464000  0.929000  0.319200  1.0  0.0921
  H  H20  1  0.699800  0.009800  0.313300  1.0  0.0944
  H  H21  1  0.845600  0.131800  0.261300  1.0  0.1003
  H  H22  1  0.083400  0.185500  0.251000  1.0  0.0876
  H  H23  1  0.226000  0.270700  0.310700  1.0  0.1077
  H  H24  1  0.124600  0.303200  0.381100  1.0  0.1226
  H  H25  1  0.921600  0.858800  0.536600  1.0  0.1014
  H  H26  1  0.192300  0.027700  0.452600  1.0  0.0956
  H  H27  1  0.408900  0.949300  0.427800  1.0  0.0829
  H  H28  1  0.376700  0.940200  0.566500  1.0  0.1058
  H  H29  1  0.556600  0.606200  0.311700  1.0  0.1101
  H  H30  1  0.890200  0.605000  0.244900  1.0  0.0933
  H  H31  1  0.937200  0.370900  0.297000  1.0  0.0856
  H  H32  1  0.609100  0.374800  0.257800  1.0  0.0869
  H  H33  1  0.180600  0.277200  0.813500  1.0  0.099
  H  H34  1  0.210400  0.256200  0.732700  1.0  0.0996
  H  H35  1  0.356000  0.166600  0.707900  1.0  0.1062
  H  H36  1  0.492300  0.116100  0.762700  1.0  0.0917
  H  H37  1  0.481700  0.007300  0.842400  1.0  0.1018
  H  H38  1  0.648100  0.979000  0.894900  1.0  0.0892
  H  H39  1  0.801900  0.101700  0.933500  1.0  0.0795
  H  H40  1  0.790900  0.252900  0.923600  1.0  0.1256
  H  H41  1  0.122200  0.836100  0.861500  1.0  0.0943
  H  H42  1  0.198900  0.994400  0.843000  1.0  0.1057
  H  H43  1  0.036000  0.071000  0.819200  1.0  0.0925
  H  H44  1  0.800200  0.990200  0.813300  1.0  0.0947
  H  H45  1  0.654400  0.868200  0.761300  1.0  0.1005
  H  H46  1  0.416600  0.814500  0.751000  1.0  0.0877
  H  H47  1  0.274000  0.729300  0.810700  1.0  0.1084
  H  H48  1  0.375400  0.696800  0.881100  1.0  0.1227
  H  H49  1  0.578400  0.141200  0.036600  1.0  0.101
  H  H50  1  0.307700  0.972300  0.952600  1.0  0.0948
  H  H51  1  0.091100  0.050700  0.927800  1.0  0.0832
  H  H52  1  0.123300  0.059800  0.066500  1.0  0.1057
  H  H53  1  0.943400  0.393800  0.811700  1.0  0.1099
  H  H54  1  0.609800  0.395000  0.744900  1.0  0.0936
  H  H55  1  0.562800  0.629100  0.797000  1.0  0.0857
  H  H56  1  0.890900  0.625200  0.757800  1.0  0.0868
  H  H57  1  0.680600  0.277200  0.686500  1.0  0.0991
  H  H58  1  0.710400  0.256200  0.767300  1.0  0.1003
  H  H59  1  0.856000  0.166600  0.792100  1.0  0.1056
  H  H60  1  0.992300  0.116100  0.737300  1.0  0.0933
  H  H61  1  0.981700  0.007300  0.657600  1.0  0.1021
  H  H62  1  0.148100  0.979000  0.605100  1.0  0.089
  H  H63  1  0.301900  0.101700  0.566500  1.0  0.0807
  H  H64  1  0.290900  0.252900  0.576400  1.0  0.1258
  H  H65  1  0.622200  0.836100  0.638500  1.0  0.094
  H  H66  1  0.698900  0.994400  0.657000  1.0  0.1057
  H  H67  1  0.536000  0.071000  0.680800  1.0  0.0926
  H  H68  1  0.300200  0.990200  0.686700  1.0  0.0943
  H  H69  1  0.154400  0.868200  0.738700  1.0  0.0997
  H  H70  1  0.916600  0.814500  0.749000  1.0  0.088
  H  H71  1  0.774000  0.729300  0.689300  1.0  0.1078
  H  H72  1  0.875400  0.696800  0.618900  1.0  0.1223
  H  H73  1  0.078400  0.141200  0.463400  1.0  0.1015
  H  H74  1  0.807700  0.972300  0.547400  1.0  0.095
  H  H75  1  0.591100  0.050700  0.572200  1.0  0.0835
  H  H76  1  0.623300  0.059800  0.433500  1.0  0.1057
  H  H77  1  0.443400  0.393800  0.688300  1.0  0.1102
  H  H78  1  0.109800  0.395000  0.755100  1.0  0.0939
  H  H79  1  0.062800  0.629100  0.703000  1.0  0.0854
  H  H80  1  0.390900  0.625200  0.742200  1.0  0.0868
  H  H81  1  0.819400  0.722800  0.186500  1.0  0.0987
  H  H82  1  0.789600  0.743800  0.267300  1.0  0.1001
  H  H83  1  0.644000  0.833400  0.292100  1.0  0.1054
  H  H84  1  0.507700  0.883900  0.237300  1.0  0.0931
  H  H85  1  0.518300  0.992700  0.157600  1.0  0.1018
  H  H86  1  0.351900  0.021000  0.105100  1.0  0.0892
  H  H87  1  0.198100  0.898300  0.066500  1.0  0.0807
  H  H88  1  0.209100  0.747100  0.076400  1.0  0.1256
  H  H89  1  0.877800  0.163900  0.138500  1.0  0.0934
  H  H90  1  0.801100  0.005600  0.157000  1.0  0.1062
  H  H91  1  0.964000  0.929000  0.180800  1.0  0.0922
  H  H92  1  0.199800  0.009800  0.186700  1.0  0.0946
  H  H93  1  0.345600  0.131800  0.238700  1.0  0.1002
  H  H94  1  0.583400  0.185500  0.249000  1.0  0.0882
  H  H95  1  0.726000  0.270700  0.189300  1.0  0.1087
  H  H96  1  0.624600  0.303200  0.118900  1.0  0.1232
  H  H97  1  0.421600  0.858800  0.963400  1.0  0.1013
  H  H98  1  0.692300  0.027700  0.047400  1.0  0.0954
  H  H99  1  0.908900  0.949300  0.072200  1.0  0.0836
  H  H100  1  0.876700  0.940200  0.933500  1.0  0.1059
  H  H101  1  0.056600  0.606200  0.188300  1.0  0.1099
  H  H102  1  0.390200  0.605000  0.255100  1.0  0.0935
  H  H103  1  0.437200  0.370900  0.203000  1.0  0.0855
  H  H104  1  0.109100  0.374800  0.242200  1.0  0.0869
  C  C105  1  0.207200  0.775900  0.388680  1.0  0.6758
  C  C106  1  0.173700  0.786500  0.336910  1.0  -0.1353
  C  C107  1  0.254100  0.754500  0.303220  1.0  -0.0518
  C  C108  1  0.239000  0.768600  0.255200  1.0  -0.1155
  C  C109  1  0.149800  0.819200  0.240520  1.0  -0.0833
  C  C110  1  0.068800  0.849100  0.273300  1.0  -0.131
  C  C111  1  0.074400  0.829800  0.321460  1.0  0.054
  C  C112  1  0.969200  0.851600  0.353430  1.0  0.0566
  C  C113  1  0.957700  0.942300  0.359300  1.0  -0.1334
  C  C114  1  0.857100  0.958900  0.390000  1.0  -0.0899
  C  C115  1  0.766800  0.886300  0.413000  1.0  -0.0973
  C  C116  1  0.772900  0.796800  0.407200  1.0  -0.0908
  C  C117  1  0.872200  0.778400  0.377240  1.0  -0.1003
  C  C118  1  0.873200  0.677900  0.372780  1.0  0.6463
  C  C119  1  0.616300  0.286500  0.357690  1.0  0.6722
  C  C120  1  0.585100  0.183500  0.348360  1.0  -0.1341
  C  C121  1  0.444000  0.132600  0.351550  1.0  -0.0505
  C  C122  1  0.397600  0.038600  0.340800  1.0  -0.1186
  C  C123  1  0.494000  0.993800  0.326640  1.0  -0.0625
  C  C124  1  0.634900  0.042100  0.323150  1.0  -0.1473
  C  C125  1  0.682900  0.137600  0.333850  1.0  0.0556
  C  C126  1  0.837300  0.181300  0.328350  1.0  0.0408
  C  C127  1  0.901800  0.165700  0.286140  1.0  -0.1297
  C  C128  1  0.042800  0.198000  0.279900  1.0  -0.08
  C  C129  1  0.127600  0.248700  0.315100  1.0  -0.111
  C  C130  1  0.067300  0.267100  0.357030  1.0  -0.0844
  C  C131  1  0.923000  0.232800  0.364140  1.0  -0.1035
  C  C132  1  0.129100  0.753300  0.586960  1.0  0.6678
  C  C133  1  0.956300  0.917400  0.521030  1.0  0.1092
  C  C134  1  0.112400  0.014700  0.472610  1.0  0.1011
  C  C135  1  0.445300  0.969600  0.458260  1.0  0.1184
  C  C136  1  0.426500  0.964200  0.538380  1.0  0.118
  C  C137  1  0.534600  0.557400  0.288860  1.0  0.108
  C  C138  1  0.934600  0.556300  0.244770  1.0  0.1102
  C  C139  1  0.962400  0.421400  0.275100  1.0  0.1158
  C  C140  1  0.564200  0.423300  0.257920  1.0  0.1167
  C  C141  1  0.292800  0.224100  0.888680  1.0  0.6742
  C  C142  1  0.326300  0.213500  0.836910  1.0  -0.1354
  C  C143  1  0.245900  0.245500  0.803220  1.0  -0.0527
  C  C144  1  0.261000  0.231400  0.755200  1.0  -0.1159
  C  C145  1  0.350200  0.180800  0.740520  1.0  -0.0827
  C  C146  1  0.431200  0.150900  0.773300  1.0  -0.1315
  C  C147  1  0.425600  0.170200  0.821460  1.0  0.0541
  C  C148  1  0.530800  0.148400  0.853430  1.0  0.057
  C  C149  1  0.542300  0.057700  0.859300  1.0  -0.1342
  C  C150  1  0.642900  0.041100  0.890000  1.0  -0.0892
  C  C151  1  0.733200  0.113700  0.913000  1.0  -0.0961
  C  C152  1  0.727100  0.203200  0.907200  1.0  -0.0918
  C  C153  1  0.627800  0.221600  0.877240  1.0  -0.0994
  C  C154  1  0.626800  0.322100  0.872780  1.0  0.6465
  C  C155  1  0.883700  0.713500  0.857690  1.0  0.6702
  C  C156  1  0.914900  0.816500  0.848360  1.0  -0.1344
  C  C157  1  0.056000  0.867400  0.851550  1.0  -0.0496
  C  C158  1  0.102400  0.961400  0.840800  1.0  -0.118
  C  C159  1  0.006000  0.006200  0.826640  1.0  -0.0623
  C  C160  1  0.865100  0.957900  0.823150  1.0  -0.1473
  C  C161  1  0.817100  0.862400  0.833850  1.0  0.0551
  C  C162  1  0.662700  0.818700  0.828350  1.0  0.0408
  C  C163  1  0.598200  0.834300  0.786140  1.0  -0.1293
  C  C164  1  0.457200  0.802000  0.779900  1.0  -0.0806
  C  C165  1  0.372400  0.751300  0.815100  1.0  -0.1102
  C  C166  1  0.432700  0.732900  0.857030  1.0  -0.0816
  C  C167  1  0.577000  0.767200  0.864140  1.0  -0.105
  C  C168  1  0.370900  0.246700  0.086960  1.0  0.67
  C  C169  1  0.543700  0.082600  0.021030  1.0  0.1088
  C  C170  1  0.387600  0.985300  0.972610  1.0  0.1013
  C  C171  1  0.054700  0.030400  0.958260  1.0  0.1188
  C  C172  1  0.073500  0.035800  0.038380  1.0  0.1171
  C  C173  1  0.965400  0.442600  0.788860  1.0  0.109
  C  C174  1  0.565400  0.443700  0.744770  1.0  0.1103
  C  C175  1  0.537600  0.578600  0.775100  1.0  0.1175
  C  C176  1  0.935800  0.576700  0.757920  1.0  0.1168
  C  C177  1  0.792800  0.224100  0.611320  1.0  0.6762
  C  C178  1  0.826300  0.213500  0.663090  1.0  -0.1357
  C  C179  1  0.745900  0.245500  0.696780  1.0  -0.0532
  C  C180  1  0.761000  0.231400  0.744800  1.0  -0.1157
  C  C181  1  0.850200  0.180800  0.759480  1.0  -0.0815
  C  C182  1  0.931200  0.150900  0.726700  1.0  -0.1311
  C  C183  1  0.925600  0.170200  0.678540  1.0  0.0542
  C  C184  1  0.030800  0.148400  0.646570  1.0  0.0567
  C  C185  1  0.042300  0.057700  0.640700  1.0  -0.135
  C  C186  1  0.142900  0.041100  0.610000  1.0  -0.0896
  C  C187  1  0.233200  0.113700  0.587000  1.0  -0.0956
  C  C188  1  0.227100  0.203200  0.592800  1.0  -0.0924
  C  C189  1  0.127800  0.221600  0.622760  1.0  -0.098
  C  C190  1  0.126800  0.322100  0.627220  1.0  0.6477
  C  C191  1  0.383700  0.713500  0.642310  1.0  0.6724
  C  C192  1  0.414900  0.816500  0.651640  1.0  -0.1346
  C  C193  1  0.556000  0.867400  0.648450  1.0  -0.0499
  C  C194  1  0.602400  0.961400  0.659200  1.0  -0.1179
  C  C195  1  0.506000  0.006200  0.673360  1.0  -0.0625
  C  C196  1  0.365100  0.957900  0.676850  1.0  -0.1479
  C  C197  1  0.317100  0.862400  0.666150  1.0  0.055
  C  C198  1  0.162700  0.818700  0.671650  1.0  0.0405
  C  C199  1  0.098200  0.834300  0.713860  1.0  -0.1303
  C  C200  1  0.957200  0.802000  0.720100  1.0  -0.0814
  C  C201  1  0.872400  0.751300  0.684900  1.0  -0.1106
  C  C202  1  0.932700  0.732900  0.642970  1.0  -0.0828
  C  C203  1  0.077000  0.767200  0.635860  1.0  -0.1051
  C  C204  1  0.870900  0.246700  0.413040  1.0  0.6696
  C  C205  1  0.043700  0.082600  0.478970  1.0  0.1093
  C  C206  1  0.887600  0.985300  0.527390  1.0  0.1017
  C  C207  1  0.554700  0.030400  0.541740  1.0  0.1191
  C  C208  1  0.573500  0.035800  0.461620  1.0  0.1174
  C  C209  1  0.465400  0.442600  0.711140  1.0  0.1092
  C  C210  1  0.065400  0.443700  0.755230  1.0  0.1104
  C  C211  1  0.037600  0.578600  0.724900  1.0  0.117
  C  C212  1  0.435800  0.576700  0.742080  1.0  0.1165
  C  C213  1  0.707200  0.775900  0.111320  1.0  0.674
  C  C214  1  0.673700  0.786500  0.163090  1.0  -0.1358
  C  C215  1  0.754100  0.754500  0.196780  1.0  -0.0533
  C  C216  1  0.739000  0.768600  0.244800  1.0  -0.115
  C  C217  1  0.649800  0.819200  0.259480  1.0  -0.0822
  C  C218  1  0.568800  0.849100  0.226700  1.0  -0.1311
  C  C219  1  0.574400  0.829800  0.178540  1.0  0.0541
  C  C220  1  0.469200  0.851600  0.146570  1.0  0.0563
  C  C221  1  0.457700  0.942300  0.140700  1.0  -0.1349
  C  C222  1  0.357100  0.958900  0.110000  1.0  -0.0901
  C  C223  1  0.266800  0.886300  0.087000  1.0  -0.097
  C  C224  1  0.272900  0.796800  0.092800  1.0  -0.0909
  C  C225  1  0.372200  0.778400  0.122760  1.0  -0.0989
  C  C226  1  0.373200  0.677900  0.127220  1.0  0.648
  C  C227  1  0.116300  0.286500  0.142310  1.0  0.6798
  C  C228  1  0.085100  0.183500  0.151640  1.0  -0.1337
  C  C229  1  0.944000  0.132600  0.148450  1.0  -0.0503
  C  C230  1  0.897600  0.038600  0.159200  1.0  -0.1188
  C  C231  1  0.994000  0.993800  0.173360  1.0  -0.0628
  C  C232  1  0.134900  0.042100  0.176850  1.0  -0.1478
  C  C233  1  0.182900  0.137600  0.166150  1.0  0.0554
  C  C234  1  0.337300  0.181300  0.171650  1.0  0.0403
  C  C235  1  0.401800  0.165700  0.213860  1.0  -0.1306
  C  C236  1  0.542800  0.198000  0.220100  1.0  -0.0804
  C  C237  1  0.627600  0.248700  0.184900  1.0  -0.1105
  C  C238  1  0.567300  0.267100  0.142970  1.0  -0.0844
  C  C239  1  0.423000  0.232800  0.135860  1.0  -0.104
  C  C240  1  0.629100  0.753300  0.913040  1.0  0.6682
  C  C241  1  0.456300  0.917400  0.978970  1.0  0.1091
  C  C242  1  0.612400  0.014700  0.027390  1.0  0.1017
  C  C243  1  0.945300  0.969600  0.041740  1.0  0.1189
  C  C244  1  0.926500  0.964200  0.961620  1.0  0.1178
  C  C245  1  0.034600  0.557400  0.211140  1.0  0.1093
  C  C246  1  0.434600  0.556300  0.255230  1.0  0.11
  C  C247  1  0.462400  0.421400  0.224900  1.0  0.1157
  C  C248  1  0.064200  0.423300  0.242080  1.0  0.1165
  N  N249  1  0.069300  0.931300  0.493860  1.0  -0.2629
  N  N250  1  0.371200  0.933400  0.496310  1.0  -0.282
  N  N251  1  0.602000  0.491200  0.290160  1.0  -0.2831
  N  N252  1  0.897800  0.488600  0.277320  1.0  -0.2795
  N  N253  1  0.430700  0.068700  0.993860  1.0  -0.2622
  N  N254  1  0.128800  0.066600  0.996310  1.0  -0.287
  N  N255  1  0.898000  0.508800  0.790160  1.0  -0.2838
  N  N256  1  0.602200  0.511400  0.777320  1.0  -0.2795
  N  N257  1  0.930700  0.068700  0.506140  1.0  -0.2628
  N  N258  1  0.628800  0.066600  0.503690  1.0  -0.2876
  N  N259  1  0.398000  0.508800  0.709840  1.0  -0.2852
  N  N260  1  0.102200  0.511400  0.722680  1.0  -0.2797
  N  N261  1  0.569300  0.931300  0.006140  1.0  -0.2633
  N  N262  1  0.871200  0.933400  0.003690  1.0  -0.2821
  N  N263  1  0.102000  0.491200  0.209840  1.0  -0.2846
  N  N264  1  0.397800  0.488600  0.222680  1.0  -0.2796
  O  O265  1  0.184800  0.834500  0.417460  1.0  -0.6138
  O  O266  1  0.263200  0.713300  0.399020  1.0  -0.5633
  O  O267  1  0.824700  0.633400  0.336230  1.0  -0.5993
  O  O268  1  0.922100  0.642000  0.407230  1.0  -0.5467
  O  O269  1  0.707900  0.342900  0.332720  1.0  -0.6139
  O  O270  1  0.541600  0.310000  0.388250  1.0  -0.5818
  O  O271  1  0.169000  0.826300  0.562750  1.0  -0.6174
  O  O272  1  0.118800  0.673900  0.572280  1.0  -0.5384
  O  O273  1  0.315200  0.165500  0.917460  1.0  -0.6135
  O  O274  1  0.236800  0.286700  0.899020  1.0  -0.5632
  O  O275  1  0.675300  0.366600  0.836230  1.0  -0.5986
  O  O276  1  0.577900  0.358000  0.907230  1.0  -0.5455
  O  O277  1  0.792100  0.657100  0.832720  1.0  -0.6128
  O  O278  1  0.958400  0.690000  0.888250  1.0  -0.5834
  O  O279  1  0.331000  0.173700  0.062750  1.0  -0.617
  O  O280  1  0.381200  0.326100  0.072280  1.0  -0.5382
  O  O281  1  0.815200  0.165500  0.582540  1.0  -0.6102
  O  O282  1  0.736800  0.286700  0.600980  1.0  -0.5644
  O  O283  1  0.175300  0.366600  0.663770  1.0  -0.5996
  O  O284  1  0.077900  0.358000  0.592770  1.0  -0.5483
  O  O285  1  0.292100  0.657100  0.667280  1.0  -0.6128
  O  O286  1  0.458400  0.690000  0.611750  1.0  -0.5813
  O  O287  1  0.831000  0.173700  0.437250  1.0  -0.6171
  O  O288  1  0.881200  0.326100  0.427720  1.0  -0.5371
  O  O289  1  0.684800  0.834500  0.082540  1.0  -0.6103
  O  O290  1  0.763200  0.713300  0.100980  1.0  -0.5629
  O  O291  1  0.324700  0.633400  0.163770  1.0  -0.6005
  O  O292  1  0.422100  0.642000  0.092770  1.0  -0.5468
  O  O293  1  0.207900  0.342900  0.167280  1.0  -0.6137
  O  O294  1  0.041600  0.310000  0.111750  1.0  -0.5836
  O  O295  1  0.669000  0.826300  0.937250  1.0  -0.6172
  O  O296  1  0.618800  0.673900  0.927720  1.0  -0.5378
