# generated using pymatgen
data_Fe2H20(C4O)9
_symmetry_space_group_name_H-M   'P 1'
_cell_length_a   20.82250000
_cell_length_b   23.14630000
_cell_length_c   23.14630000
_cell_angle_alpha   68.58510000
_cell_angle_beta   72.55030000
_cell_angle_gamma   107.45000000
_symmetry_Int_Tables_number   1
_chemical_formula_structural   Fe2H20(C4O)9
_chemical_formula_sum   'Fe12 H120 C216 O54'
_cell_volume   8792.33307666
_cell_formula_units_Z   6
loop_
 _symmetry_equiv_pos_site_id
 _symmetry_equiv_pos_as_xyz
  1  'x, y, z'
loop_
 _atom_site_type_symbol
 _atom_site_label
 _atom_site_symmetry_multiplicity
 _atom_site_fract_x
 _atom_site_fract_y
 _atom_site_fract_z
 _atom_site_occupancy
 _atom_site_charge
  Fe  Fe1  1  0.910130  0.507880  0.126060  1.0  1.2423
  Fe  Fe2  1  0.967280  0.424610  0.038520  1.0  1.2177
  Fe  Fe3  1  0.036190  0.126060  0.366060  1.0  1.2464
  Fe  Fe4  1  0.005800  0.038520  0.536870  1.0  1.2192
  Fe  Fe5  1  0.402250  0.366060  0.507880  1.0  1.2441
  Fe  Fe6  1  0.542670  0.536870  0.424610  1.0  1.2179
  Fe  Fe7  1  0.089870  0.492120  0.873940  1.0  1.2446
  Fe  Fe8  1  0.032720  0.575390  0.961480  1.0  1.218
  Fe  Fe9  1  0.963810  0.873940  0.633940  1.0  1.2411
  Fe  Fe10  1  0.994200  0.961480  0.463130  1.0  1.2186
  Fe  Fe11  1  0.597750  0.633940  0.492120  1.0  1.2427
  Fe  Fe12  1  0.457330  0.463130  0.575390  1.0  1.2179
  H  H13  1  0.609700  0.022900  0.370700  1.0  0.1208
  H  H14  1  0.384100  0.920300  0.489200  1.0  0.1208
  H  H15  1  0.492300  0.129900  0.391300  1.0  0.1218
  H  H16  1  0.605900  0.207700  0.371600  1.0  0.1204
  H  H17  1  0.713500  0.314900  0.292200  1.0  0.1196
  H  H18  1  0.795400  0.229000  0.189200  1.0  0.1056
  H  H19  1  0.686400  0.124200  0.263200  1.0  0.128
  H  H20  1  0.596500  0.914500  0.450700  1.0  0.1282
  H  H21  1  0.588900  0.805000  0.481300  1.0  0.1148
  H  H22  1  0.391800  0.739500  0.473100  1.0  0.1239
  H  H23  1  0.397900  0.848600  0.444800  1.0  0.1269
  H  H24  1  0.305900  0.936400  0.570400  1.0  0.1099
  H  H25  1  0.186000  0.926700  0.614100  1.0  0.1264
  H  H26  1  0.248700  0.098600  0.438600  1.0  0.1132
  H  H27  1  0.369700  0.109600  0.393200  1.0  0.124
  H  H28  1  0.201600  0.989800  0.901500  1.0  0.1206
  H  H29  1  0.182400  0.889200  0.917600  1.0  0.1142
  H  H30  1  0.130600  0.784300  0.924600  1.0  0.1276
  H  H31  1  0.978900  0.705300  0.119800  1.0  0.1214
  H  H32  1  0.035800  0.812500  0.112400  1.0  0.1375
  H  H33  1  0.980400  0.370700  0.606400  1.0  0.1202
  H  H34  1  0.873300  0.489200  0.590500  1.0  0.1201
  H  H35  1  0.883600  0.391300  0.478800  1.0  0.1217
  H  H36  1  0.977500  0.371600  0.420700  1.0  0.1211
  H  H37  1  0.005700  0.292200  0.392900  1.0  0.1191
  H  H38  1  0.984600  0.189200  0.581800  1.0  0.1056
  H  H39  1  0.949600  0.263200  0.612600  1.0  0.1281
  H  H40  1  0.047200  0.450700  0.634800  1.0  0.1294
  H  H41  1  0.070200  0.481300  0.713700  1.0  0.1155
  H  H42  1  0.864900  0.473100  0.787400  1.0  0.1242
  H  H43  1  0.842700  0.444800  0.706600  1.0  0.1251
  H  H44  1  0.876300  0.570400  0.493200  1.0  0.1115
  H  H45  1  0.800100  0.614100  0.459200  1.0  0.1262
  H  H46  1  0.687300  0.438600  0.462800  1.0  0.1138
  H  H47  1  0.762900  0.393200  0.497200  1.0  0.1236
  H  H48  1  0.103100  0.901500  0.108700  1.0  0.1195
  H  H49  1  0.100000  0.917600  0.193200  1.0  0.115
  H  H50  1  0.055200  0.924600  0.291100  1.0  0.1259
  H  H51  1  0.098700  0.119800  0.174900  1.0  0.1215
  H  H52  1  0.148200  0.112400  0.075100  1.0  0.1368
  H  H53  1  0.586800  0.606400  0.022900  1.0  0.1187
  H  H54  1  0.463800  0.590500  0.920300  1.0  0.1209
  H  H55  1  0.362400  0.478800  0.129900  1.0  0.1206
  H  H56  1  0.398200  0.420700  0.207700  1.0  0.1213
  H  H57  1  0.398600  0.392900  0.314900  1.0  0.1201
  H  H58  1  0.566400  0.581800  0.229000  1.0  0.1048
  H  H59  1  0.562200  0.612600  0.124200  1.0  0.1279
  H  H60  1  0.682000  0.634800  0.914500  1.0  0.1271
  H  H61  1  0.783900  0.713700  0.805000  1.0  0.1149
  H  H62  1  0.652300  0.787400  0.739500  1.0  0.1242
  H  H63  1  0.549300  0.706600  0.848600  1.0  0.126
  H  H64  1  0.369500  0.493200  0.936400  1.0  0.1106
  H  H65  1  0.259300  0.459200  0.926700  1.0  0.1259
  H  H66  1  0.150100  0.462800  0.098600  1.0  0.1128
  H  H67  1  0.260100  0.497200  0.109600  1.0  0.1232
  H  H68  1  0.211800  0.108700  0.989800  1.0  0.1195
  H  H69  1  0.293200  0.193200  0.889200  1.0  0.116
  H  H70  1  0.346300  0.291100  0.784300  1.0  0.127
  H  H71  1  0.273600  0.174900  0.705300  1.0  0.1204
  H  H72  1  0.223300  0.075100  0.812500  1.0  0.1366
  H  H73  1  0.390300  0.977100  0.629300  1.0  0.1202
  H  H74  1  0.615900  0.079700  0.510800  1.0  0.1207
  H  H75  1  0.507700  0.870100  0.608700  1.0  0.1206
  H  H76  1  0.394100  0.792300  0.628400  1.0  0.1217
  H  H77  1  0.286500  0.685100  0.707800  1.0  0.119
  H  H78  1  0.204600  0.771000  0.810800  1.0  0.1058
  H  H79  1  0.313600  0.875800  0.736800  1.0  0.1286
  H  H80  1  0.403500  0.085500  0.549300  1.0  0.1287
  H  H81  1  0.411100  0.195000  0.518700  1.0  0.115
  H  H82  1  0.608200  0.260500  0.526900  1.0  0.1237
  H  H83  1  0.602100  0.151400  0.555200  1.0  0.1259
  H  H84  1  0.694100  0.063600  0.429600  1.0  0.111
  H  H85  1  0.814000  0.073300  0.385900  1.0  0.1264
  H  H86  1  0.751300  0.901400  0.561400  1.0  0.1131
  H  H87  1  0.630300  0.890400  0.606800  1.0  0.1237
  H  H88  1  0.798400  0.010200  0.098500  1.0  0.1205
  H  H89  1  0.817600  0.110800  0.082400  1.0  0.1146
  H  H90  1  0.869400  0.215700  0.075400  1.0  0.1276
  H  H91  1  0.021100  0.294700  0.880200  1.0  0.1215
  H  H92  1  0.964200  0.187500  0.887600  1.0  0.1367
  H  H93  1  0.019600  0.629300  0.393600  1.0  0.1191
  H  H94  1  0.126700  0.510800  0.409500  1.0  0.1203
  H  H95  1  0.116400  0.608700  0.521200  1.0  0.121
  H  H96  1  0.022500  0.628400  0.579300  1.0  0.1215
  H  H97  1  0.994300  0.707800  0.607100  1.0  0.1188
  H  H98  1  0.015400  0.810800  0.418200  1.0  0.1056
  H  H99  1  0.050400  0.736800  0.387400  1.0  0.128
  H  H100  1  0.952800  0.549300  0.365200  1.0  0.129
  H  H101  1  0.929800  0.518700  0.286300  1.0  0.1154
  H  H102  1  0.135100  0.526900  0.212600  1.0  0.1247
  H  H103  1  0.157300  0.555200  0.293400  1.0  0.1254
  H  H104  1  0.123700  0.429600  0.506800  1.0  0.111
  H  H105  1  0.199900  0.385900  0.540800  1.0  0.1266
  H  H106  1  0.312700  0.561400  0.537200  1.0  0.1141
  H  H107  1  0.237100  0.606800  0.502800  1.0  0.124
  H  H108  1  0.896900  0.098500  0.891300  1.0  0.1196
  H  H109  1  0.900000  0.082400  0.806800  1.0  0.1155
  H  H110  1  0.944800  0.075400  0.708900  1.0  0.1268
  H  H111  1  0.901300  0.880200  0.825100  1.0  0.1222
  H  H112  1  0.851800  0.887600  0.924900  1.0  0.1365
  H  H113  1  0.413200  0.393600  0.977100  1.0  0.1193
  H  H114  1  0.536200  0.409500  0.079700  1.0  0.1207
  H  H115  1  0.637600  0.521200  0.870100  1.0  0.1212
  H  H116  1  0.601800  0.579300  0.792300  1.0  0.1208
  H  H117  1  0.601400  0.607100  0.685100  1.0  0.121
  H  H118  1  0.433600  0.418200  0.771000  1.0  0.1052
  H  H119  1  0.437800  0.387400  0.875800  1.0  0.1278
  H  H120  1  0.318000  0.365200  0.085500  1.0  0.127
  H  H121  1  0.216100  0.286300  0.195000  1.0  0.1145
  H  H122  1  0.347700  0.212600  0.260500  1.0  0.1237
  H  H123  1  0.450700  0.293400  0.151400  1.0  0.1262
  H  H124  1  0.630500  0.506800  0.063600  1.0  0.1115
  H  H125  1  0.740700  0.540800  0.073300  1.0  0.1255
  H  H126  1  0.849900  0.537200  0.901400  1.0  0.1128
  H  H127  1  0.739900  0.502800  0.890400  1.0  0.1239
  H  H128  1  0.788200  0.891300  0.010200  1.0  0.1198
  H  H129  1  0.706800  0.806800  0.110800  1.0  0.1156
  H  H130  1  0.653700  0.708900  0.215700  1.0  0.1274
  H  H131  1  0.726400  0.825100  0.294700  1.0  0.1207
  H  H132  1  0.776700  0.924900  0.187500  1.0  0.1377
  C  C133  1  0.561790  0.087790  0.373520  1.0  0.027
  C  C134  1  0.563730  0.023390  0.389400  1.0  -0.096
  C  C135  1  0.496050  0.960390  0.433440  1.0  0.005
  C  C136  1  0.428770  0.962060  0.460550  1.0  -0.1083
  C  C137  1  0.425660  0.024800  0.446220  1.0  0.0364
  C  C138  1  0.493620  0.087640  0.401780  1.0  -0.1347
  C  C139  1  0.633500  0.154740  0.325840  1.0  0.0338
  C  C140  1  0.643210  0.211720  0.333890  1.0  -0.1154
  C  C141  1  0.708560  0.276330  0.286450  1.0  -0.0622
  C  C142  1  0.765140  0.282750  0.231430  1.0  -0.1076
  C  C143  1  0.756420  0.225620  0.225060  1.0  0.0007
  C  C144  1  0.691240  0.161970  0.270250  1.0  -0.1364
  C  C145  1  0.832400  0.351920  0.180420  1.0  0.7399
  C  C146  1  0.496480  0.891840  0.447600  1.0  0.012
  C  C147  1  0.554880  0.879320  0.456080  1.0  -0.1055
  C  C148  1  0.551090  0.814090  0.472720  1.0  -0.0213
  C  C149  1  0.491880  0.762000  0.476760  1.0  -0.1217
  C  C150  1  0.433050  0.774620  0.468170  1.0  -0.0723
  C  C151  1  0.436240  0.839680  0.452260  1.0  -0.1327
  C  C152  1  0.493010  0.694040  0.488510  1.0  0.7347
  C  C153  1  0.350930  0.023790  0.475300  1.0  0.0769
  C  C154  1  0.294410  0.968660  0.543230  1.0  -0.1403
  C  C155  1  0.222450  0.962460  0.569310  1.0  -0.0617
  C  C156  1  0.204180  0.009790  0.528650  1.0  -0.1261
  C  C157  1  0.259820  0.065110  0.464450  1.0  -0.0577
  C  C158  1  0.332900  0.072100  0.437300  1.0  -0.1196
  C  C159  1  0.123090  0.996170  0.554900  1.0  0.7452
  C  C160  1  0.187860  0.994040  0.941260  1.0  -0.1218
  C  C161  1  0.144880  0.934030  0.006290  1.0  -0.0006
  C  C162  1  0.115770  0.862560  0.013750  1.0  0.05
  C  C163  1  0.141650  0.851650  0.959700  1.0  -0.0974
  C  C164  1  0.111460  0.788810  0.963730  1.0  -0.1192
  C  C165  1  0.052620  0.731780  0.025320  1.0  -0.0918
  C  C166  1  0.022090  0.741840  0.079270  1.0  -0.05
  C  C167  1  0.055360  0.807060  0.074080  1.0  -0.1225
  C  C168  1  0.019510  0.661550  0.031320  1.0  0.7372
  C  C169  1  0.935310  0.373520  0.538690  1.0  0.0199
  C  C170  1  0.953130  0.389400  0.587210  1.0  -0.0953
  C  C171  1  0.929490  0.433440  0.606170  1.0  0.0039
  C  C172  1  0.889320  0.460550  0.577390  1.0  -0.1079
  C  C173  1  0.871880  0.446220  0.528980  1.0  0.0351
  C  C174  1  0.895400  0.401780  0.510580  1.0  -0.1352
  C  C175  1  0.959340  0.325840  0.519420  1.0  0.034
  C  C176  1  0.977100  0.333890  0.454390  1.0  -0.116
  C  C177  1  0.995010  0.286450  0.437220  1.0  -0.0559
  C  C178  1  0.996570  0.231430  0.485820  1.0  -0.1096
  C  C179  1  0.981480  0.225060  0.549320  1.0  -0.0008
  C  C180  1  0.961490  0.270250  0.567780  1.0  -0.1369
  C  C181  1  0.012820  0.180420  0.467660  1.0  0.7403
  C  C182  1  0.944080  0.447600  0.660560  1.0  0.01
  C  C183  1  0.010960  0.456080  0.664600  1.0  -0.1051
  C  C184  1  0.023810  0.472720  0.713190  1.0  -0.0215
  C  C185  1  0.968640  0.476760  0.761240  1.0  -0.1214
  C  C186  1  0.901220  0.468170  0.757210  1.0  -0.0681
  C  C187  1  0.888500  0.452260  0.708060  1.0  -0.128
  C  C188  1  0.981520  0.488510  0.817450  1.0  0.7401
  C  C189  1  0.826230  0.475300  0.500910  1.0  0.0783
  C  C190  1  0.837640  0.543230  0.488110  1.0  -0.1411
  C  C191  1  0.791760  0.569310  0.468230  1.0  -0.0584
  C  C192  1  0.732830  0.528650  0.461560  1.0  -0.1273
  C  C193  1  0.724270  0.464450  0.470440  1.0  -0.0563
  C  C194  1  0.770200  0.437300  0.490600  1.0  -0.1162
  C  C195  1  0.677990  0.554900  0.448930  1.0  0.7444
  C  C196  1  0.129120  0.941260  0.064700  1.0  -0.1126
  C  C197  1  0.151170  0.006290  0.059680  1.0  0.0
  C  C198  1  0.129520  0.013750  0.123690  1.0  0.0491
  C  C199  1  0.101350  0.959700  0.188650  1.0  -0.1026
  C  C200  1  0.075190  0.963730  0.247460  1.0  -0.1138
  C  C201  1  0.077940  0.025320  0.242900  1.0  -0.0931
  C  C202  1  0.101360  0.079270  0.178890  1.0  -0.0518
  C  C203  1  0.129440  0.074080  0.118860  1.0  -0.1233
  C  C204  1  0.050830  0.031320  0.307130  1.0  0.7388
  C  C205  1  0.474000  0.538690  0.087790  1.0  0.0202
  C  C206  1  0.540340  0.587210  0.023390  1.0  -0.0954
  C  C207  1  0.535660  0.606170  0.960390  1.0  0.0037
  C  C208  1  0.466710  0.577390  0.962060  1.0  -0.1077
  C  C209  1  0.400860  0.528980  0.024800  1.0  0.0356
  C  C210  1  0.405980  0.510580  0.087640  1.0  -0.1313
  C  C211  1  0.478760  0.519420  0.154740  1.0  0.0328
  C  C212  1  0.431490  0.454390  0.211720  1.0  -0.1174
  C  C213  1  0.432230  0.437220  0.276330  1.0  -0.0536
  C  C214  1  0.482390  0.485820  0.282750  1.0  -0.1084
  C  C215  1  0.530800  0.549320  0.225620  1.0  -0.0018
  C  C216  1  0.529270  0.567780  0.161970  1.0  -0.1354
  C  C217  1  0.480480  0.467660  0.351920  1.0  0.7451
  C  C218  1  0.604640  0.660560  0.891840  1.0  0.0111
  C  C219  1  0.675560  0.664600  0.879320  1.0  -0.1077
  C  C220  1  0.737000  0.713190  0.814090  1.0  -0.0217
  C  C221  1  0.729880  0.761240  0.762000  1.0  -0.1233
  C  C222  1  0.658430  0.757210  0.774620  1.0  -0.0705
  C  C223  1  0.596560  0.708060  0.839680  1.0  -0.1319
  C  C224  1  0.798970  0.817450  0.694040  1.0  0.7371
  C  C225  1  0.327140  0.500910  0.023790  1.0  0.0796
  C  C226  1  0.325750  0.488110  0.968660  1.0  -0.138
  C  C227  1  0.259990  0.468230  0.962460  1.0  -0.0636
  C  C228  1  0.194390  0.461560  0.009790  1.0  -0.1276
  C  C229  1  0.194710  0.470440  0.065110  1.0  -0.0566
  C  C230  1  0.260800  0.490600  0.072100  1.0  -0.1126
  C  C231  1  0.126920  0.448930  0.996170  1.0  0.746
  C  C232  1  0.193820  0.064700  0.994040  1.0  -0.1202
  C  C233  1  0.210850  0.059680  0.934030  1.0  -0.0081
  C  C234  1  0.253210  0.123690  0.862560  1.0  0.0492
  C  C235  1  0.290000  0.188650  0.851650  1.0  -0.0989
  C  C236  1  0.322650  0.247460  0.788810  1.0  -0.1188
  C  C237  1  0.320840  0.242900  0.731780  1.0  -0.0932
  C  C238  1  0.280250  0.178890  0.741840  1.0  -0.0507
  C  C239  1  0.248300  0.118860  0.807060  1.0  -0.1223
  C  C240  1  0.357960  0.307130  0.661550  1.0  0.7372
  C  C241  1  0.438210  0.912210  0.626480  1.0  0.0278
  C  C242  1  0.436270  0.976610  0.610600  1.0  -0.0955
  C  C243  1  0.503950  0.039610  0.566560  1.0  0.0028
  C  C244  1  0.571230  0.037940  0.539450  1.0  -0.1097
  C  C245  1  0.574340  0.975200  0.553780  1.0  0.0389
  C  C246  1  0.506380  0.912360  0.598220  1.0  -0.1345
  C  C247  1  0.366500  0.845260  0.674160  1.0  0.0345
  C  C248  1  0.356790  0.788280  0.666110  1.0  -0.1147
  C  C249  1  0.291440  0.723670  0.713550  1.0  -0.0595
  C  C250  1  0.234860  0.717250  0.768570  1.0  -0.1085
  C  C251  1  0.243580  0.774380  0.774940  1.0  -0.0003
  C  C252  1  0.308760  0.838030  0.729750  1.0  -0.1381
  C  C253  1  0.167600  0.648080  0.819580  1.0  0.7403
  C  C254  1  0.503520  0.108160  0.552400  1.0  0.0133
  C  C255  1  0.445120  0.120680  0.543920  1.0  -0.107
  C  C256  1  0.448910  0.185910  0.527280  1.0  -0.0234
  C  C257  1  0.508120  0.238000  0.523240  1.0  -0.121
  C  C258  1  0.566950  0.225380  0.531830  1.0  -0.0718
  C  C259  1  0.563760  0.160320  0.547740  1.0  -0.1319
  C  C260  1  0.506990  0.305960  0.511490  1.0  0.7352
  C  C261  1  0.649070  0.976210  0.524700  1.0  0.0768
  C  C262  1  0.705590  0.031340  0.456770  1.0  -0.1399
  C  C263  1  0.777550  0.037540  0.430690  1.0  -0.0619
  C  C264  1  0.795820  0.990210  0.471350  1.0  -0.1259
  C  C265  1  0.740180  0.934890  0.535550  1.0  -0.0577
  C  C266  1  0.667100  0.927900  0.562700  1.0  -0.1186
  C  C267  1  0.876910  0.003830  0.445100  1.0  0.7451
  C  C268  1  0.812140  0.005960  0.058740  1.0  -0.1242
  C  C269  1  0.855120  0.065970  0.993710  1.0  -0.0006
  C  C270  1  0.884230  0.137440  0.986250  1.0  0.0502
  C  C271  1  0.858350  0.148350  0.040300  1.0  -0.0981
  C  C272  1  0.888540  0.211190  0.036270  1.0  -0.1164
  C  C273  1  0.947380  0.268220  0.974680  1.0  -0.0936
  C  C274  1  0.977910  0.258160  0.920730  1.0  -0.0506
  C  C275  1  0.944640  0.192940  0.925920  1.0  -0.1224
  C  C276  1  0.980490  0.338450  0.968680  1.0  0.7377
  C  C277  1  0.064690  0.626480  0.461310  1.0  0.0201
  C  C278  1  0.046870  0.610600  0.412790  1.0  -0.0923
  C  C279  1  0.070510  0.566560  0.393830  1.0  0.0043
  C  C280  1  0.110680  0.539450  0.422610  1.0  -0.1067
  C  C281  1  0.128120  0.553780  0.471020  1.0  0.037
  C  C282  1  0.104600  0.598220  0.489420  1.0  -0.1361
  C  C283  1  0.040660  0.674160  0.480580  1.0  0.0341
  C  C284  1  0.022900  0.666110  0.545610  1.0  -0.1165
  C  C285  1  0.004990  0.713550  0.562780  1.0  -0.054
  C  C286  1  0.003430  0.768570  0.514180  1.0  -0.109
  C  C287  1  0.018520  0.774940  0.450680  1.0  -0.0007
  C  C288  1  0.038510  0.729750  0.432220  1.0  -0.1372
  C  C289  1  0.987180  0.819580  0.532340  1.0  0.741
  C  C290  1  0.055920  0.552400  0.339440  1.0  0.0119
  C  C291  1  0.989040  0.543920  0.335400  1.0  -0.1048
  C  C292  1  0.976190  0.527280  0.286810  1.0  -0.0218
  C  C293  1  0.031360  0.523240  0.238760  1.0  -0.1231
  C  C294  1  0.098780  0.531830  0.242790  1.0  -0.0677
  C  C295  1  0.111500  0.547740  0.291940  1.0  -0.1229
  C  C296  1  0.018480  0.511490  0.182550  1.0  0.7383
  C  C297  1  0.173770  0.524700  0.499090  1.0  0.0807
  C  C298  1  0.162360  0.456770  0.511890  1.0  -0.1393
  C  C299  1  0.208240  0.430690  0.531770  1.0  -0.0588
  C  C300  1  0.267170  0.471350  0.538440  1.0  -0.1284
  C  C301  1  0.275730  0.535550  0.529560  1.0  -0.0548
  C  C302  1  0.229800  0.562700  0.509400  1.0  -0.1165
  C  C303  1  0.322010  0.445100  0.551070  1.0  0.7464
  C  C304  1  0.870880  0.058740  0.935300  1.0  -0.1125
  C  C305  1  0.848830  0.993710  0.940320  1.0  -0.0
  C  C306  1  0.870480  0.986250  0.876310  1.0  0.0494
  C  C307  1  0.898650  0.040300  0.811350  1.0  -0.1009
  C  C308  1  0.924810  0.036270  0.752540  1.0  -0.1156
  C  C309  1  0.922060  0.974680  0.757100  1.0  -0.093
  C  C310  1  0.898640  0.920730  0.821110  1.0  -0.0512
  C  C311  1  0.870560  0.925920  0.881140  1.0  -0.1235
  C  C312  1  0.949170  0.968680  0.692870  1.0  0.7381
  C  C313  1  0.526000  0.461310  0.912210  1.0  0.0188
  C  C314  1  0.459660  0.412790  0.976610  1.0  -0.0948
  C  C315  1  0.464340  0.393830  0.039610  1.0  0.005
  C  C316  1  0.533290  0.422610  0.037940  1.0  -0.1099
  C  C317  1  0.599140  0.471020  0.975200  1.0  0.0368
  C  C318  1  0.594020  0.489420  0.912360  1.0  -0.1317
  C  C319  1  0.521240  0.480580  0.845260  1.0  0.0334
  C  C320  1  0.568510  0.545610  0.788280  1.0  -0.1149
  C  C321  1  0.567770  0.562780  0.723670  1.0  -0.0559
  C  C322  1  0.517610  0.514180  0.717250  1.0  -0.1055
  C  C323  1  0.469200  0.450680  0.774380  1.0  -0.0012
  C  C324  1  0.470730  0.432220  0.838030  1.0  -0.1346
  C  C325  1  0.519520  0.532340  0.648080  1.0  0.7448
  C  C326  1  0.395360  0.339440  0.108160  1.0  0.0117
  C  C327  1  0.324440  0.335400  0.120680  1.0  -0.1065
  C  C328  1  0.263000  0.286810  0.185910  1.0  -0.023
  C  C329  1  0.270120  0.238760  0.238000  1.0  -0.1238
  C  C330  1  0.341570  0.242790  0.225380  1.0  -0.0693
  C  C331  1  0.403440  0.291940  0.160320  1.0  -0.1289
  C  C332  1  0.201030  0.182550  0.305960  1.0  0.7349
  C  C333  1  0.672860  0.499090  0.976210  1.0  0.0797
  C  C334  1  0.674250  0.511890  0.031340  1.0  -0.1369
  C  C335  1  0.740010  0.531770  0.037540  1.0  -0.0637
  C  C336  1  0.805610  0.538440  0.990210  1.0  -0.1279
  C  C337  1  0.805290  0.529560  0.934890  1.0  -0.0566
  C  C338  1  0.739200  0.509400  0.927900  1.0  -0.1117
  C  C339  1  0.873080  0.551070  0.003830  1.0  0.7464
  C  C340  1  0.806180  0.935300  0.005960  1.0  -0.1215
  C  C341  1  0.789150  0.940320  0.065970  1.0  -0.0094
  C  C342  1  0.746790  0.876310  0.137440  1.0  0.0485
  C  C343  1  0.710000  0.811350  0.148350  1.0  -0.0997
  C  C344  1  0.677350  0.752540  0.211190  1.0  -0.1157
  C  C345  1  0.679160  0.757100  0.268220  1.0  -0.0937
  C  C346  1  0.719750  0.821110  0.258160  1.0  -0.0511
  C  C347  1  0.751700  0.881140  0.192940  1.0  -0.1221
  C  C348  1  0.642040  0.692870  0.338450  1.0  0.7378
  O  O349  1  0.829170  0.405620  0.179730  1.0  -0.6118
  O  O350  1  0.889470  0.352630  0.138950  1.0  -0.6261
  O  O351  1  0.536020  0.679520  0.513980  1.0  -0.5924
  O  O352  1  0.455400  0.658680  0.469170  1.0  -0.5413
  O  O353  1  0.074700  0.936500  0.604220  1.0  -0.6001
  O  O354  1  0.108890  0.047100  0.526240  1.0  -0.5873
  O  O355  1  0.041220  0.657880  0.976770  1.0  -0.5918
  O  O356  1  0.975520  0.610400  0.092490  1.0  -0.5912
  O  O357  1  0.973060  0.500400  0.057190  1.0  -1.0337
  O  O358  1  0.008900  0.179730  0.414650  1.0  -0.6107
  O  O359  1  0.028420  0.138950  0.508420  1.0  -0.6237
  O  O360  1  0.050000  0.513980  0.806500  1.0  -0.5927
  O  O361  1  0.924570  0.469170  0.872150  1.0  -0.5367
  O  O362  1  0.678920  0.604220  0.459280  1.0  -0.5983
  O  O363  1  0.635130  0.526240  0.426660  1.0  -0.5852
  O  O364  1  0.017990  0.976770  0.365350  1.0  -0.592
  O  O365  1  0.068010  0.092490  0.297110  1.0  -0.5917
  O  O366  1  0.030250  0.057190  0.442410  1.0  -1.0334
  O  O367  1  0.423550  0.414650  0.405620  1.0  -0.612
  O  O368  1  0.536840  0.508420  0.352630  1.0  -0.6255
  O  O369  1  0.856500  0.806500  0.679520  1.0  -0.5933
  O  O370  1  0.796720  0.872150  0.658680  1.0  -0.5349
  O  O371  1  0.138200  0.459280  0.936500  1.0  -0.5985
  O  O372  1  0.061790  0.426660  0.047100  1.0  -0.5852
  O  O373  1  0.383340  0.365350  0.657880  1.0  -0.5953
  O  O374  1  0.365120  0.297110  0.610400  1.0  -0.5932
  O  O375  1  0.472660  0.442410  0.500400  1.0  -1.0338
  O  O376  1  0.170830  0.594380  0.820270  1.0  -0.6114
  O  O377  1  0.110530  0.647370  0.861050  1.0  -0.6279
  O  O378  1  0.463980  0.320480  0.486020  1.0  -0.5935
  O  O379  1  0.544600  0.341320  0.530830  1.0  -0.5412
  O  O380  1  0.925300  0.063500  0.395780  1.0  -0.6001
  O  O381  1  0.891110  0.952900  0.473760  1.0  -0.5877
  O  O382  1  0.958780  0.342120  0.023230  1.0  -0.5906
  O  O383  1  0.024480  0.389600  0.907510  1.0  -0.5922
  O  O384  1  0.026940  0.499600  0.942810  1.0  -1.0329
  O  O385  1  0.991100  0.820270  0.585350  1.0  -0.6109
  O  O386  1  0.971580  0.861050  0.491580  1.0  -0.6255
  O  O387  1  0.950000  0.486020  0.193500  1.0  -0.5934
  O  O388  1  0.075430  0.530830  0.127850  1.0  -0.5392
  O  O389  1  0.321080  0.395780  0.540720  1.0  -0.6006
  O  O390  1  0.364870  0.473760  0.573340  1.0  -0.5877
  O  O391  1  0.982010  0.023230  0.634650  1.0  -0.5936
  O  O392  1  0.931990  0.907510  0.702890  1.0  -0.5929
  O  O393  1  0.969750  0.942810  0.557590  1.0  -1.0328
  O  O394  1  0.576450  0.585350  0.594380  1.0  -0.6125
  O  O395  1  0.463160  0.491580  0.647370  1.0  -0.6285
  O  O396  1  0.143500  0.193500  0.320480  1.0  -0.5942
  O  O397  1  0.203280  0.127850  0.341320  1.0  -0.5362
  O  O398  1  0.861800  0.540720  0.063500  1.0  -0.5996
  O  O399  1  0.938210  0.573340  0.952900  1.0  -0.5864
  O  O400  1  0.616660  0.634650  0.342120  1.0  -0.5947
  O  O401  1  0.634880  0.702890  0.389600  1.0  -0.5912
  O  O402  1  0.527340  0.557590  0.499600  1.0  -1.0327
