# generated using pymatgen
data_CoH21C28(NO3)2
_symmetry_space_group_name_H-M   'P 1'
_cell_length_a   8.85500000
_cell_length_b   17.26700000
_cell_length_c   33.50410000
_cell_angle_alpha   90.00000000
_cell_angle_beta   92.69250000
_cell_angle_gamma   90.00000000
_symmetry_Int_Tables_number   1
_chemical_formula_structural   CoH21C28(NO3)2
_chemical_formula_sum   'Co8 H168 C224 N16 O48'
_cell_volume   5117.09758245
_cell_formula_units_Z   8
loop_
 _symmetry_equiv_pos_site_id
 _symmetry_equiv_pos_as_xyz
  1  'x, y, z'
loop_
 _atom_site_type_symbol
 _atom_site_label
 _atom_site_symmetry_multiplicity
 _atom_site_fract_x
 _atom_site_fract_y
 _atom_site_fract_z
 _atom_site_occupancy
 _atom_site_charge
  Co  Co1  1  0.322410  0.213880  0.803360  1.0  1.0626
  Co  Co2  1  0.291270  0.822100  0.162610  1.0  1.057
  Co  Co3  1  0.177590  0.713880  0.696640  1.0  1.0633
  Co  Co4  1  0.677590  0.786120  0.196640  1.0  1.063
  Co  Co5  1  0.208730  0.322100  0.337390  1.0  1.0561
  Co  Co6  1  0.822410  0.286120  0.303360  1.0  1.0624
  Co  Co7  1  0.791270  0.677900  0.662610  1.0  1.0578
  Co  Co8  1  0.708730  0.177900  0.837390  1.0  1.0567
  H  H9  1  0.246300  0.122800  0.406900  1.0  0.0832
  H  H10  1  0.760200  0.117600  0.543100  1.0  0.0705
  H  H11  1  0.612800  0.303900  0.628800  1.0  0.1232
  H  H12  1  0.485200  0.947900  0.441900  1.0  0.0988
  H  H13  1  0.886400  0.606800  0.045000  1.0  0.1069
  H  H14  1  0.753700  0.877200  0.593100  1.0  0.0831
  H  H15  1  0.243100  0.013900  0.447500  1.0  0.111
  H  H16  1  0.373400  0.044100  0.194400  1.0  0.0938
  H  H17  1  0.957800  0.457100  0.175300  1.0  0.0938
  H  H18  1  0.605300  0.952400  0.893300  1.0  0.0982
  H  H19  1  0.371600  0.233100  0.540400  1.0  0.0791
  H  H20  1  0.907700  0.446700  0.251400  1.0  0.0961
  H  H21  1  0.781100  0.952000  0.149100  1.0  0.0974
  H  H22  1  0.247500  0.170700  0.528800  1.0  0.0931
  H  H23  1  0.357600  0.732400  0.870200  1.0  0.083
  H  H24  1  0.974200  0.669400  0.195600  1.0  0.0875
  H  H25  1  0.835200  0.127000  0.716800  1.0  0.0847
  H  H26  1  0.665900  0.170300  0.396900  1.0  0.0953
  H  H27  1  0.678900  0.579100  0.995500  1.0  0.0875
  H  H28  1  0.246900  0.774500  0.788400  1.0  0.1021
  H  H29  1  0.394700  0.047600  0.106700  1.0  0.0975
  H  H30  1  0.916500  0.136000  0.652400  1.0  0.1188
  H  H31  1  0.772200  0.049900  0.264800  1.0  0.1204
  H  H32  1  0.020500  0.269000  0.431500  1.0  0.1174
  H  H33  1  0.594900  0.567400  0.362500  1.0  0.1063
  H  H34  1  0.173500  0.034600  0.596100  1.0  0.097
  H  H35  1  0.949200  0.382600  0.462200  1.0  0.1134
  H  H36  1  0.025800  0.330600  0.804400  1.0  0.0878
  H  H37  1  0.519300  0.653500  0.038000  1.0  0.0811
  H  H38  1  0.457800  0.042900  0.675300  1.0  0.0933
  H  H39  1  0.063300  0.507100  0.119200  1.0  0.1067
  H  H40  1  0.834100  0.670300  0.103100  1.0  0.0951
  H  H41  1  0.843700  0.175800  0.917400  1.0  0.0972
  H  H42  1  0.013100  0.123700  0.784300  1.0  0.0952
  H  H43  1  0.092300  0.553300  0.748600  1.0  0.0979
  H  H44  1  0.980700  0.153500  0.462000  1.0  0.081
  H  H45  1  0.665000  0.877400  0.977700  1.0  0.1055
  H  H46  1  0.642400  0.267600  0.129800  1.0  0.0854
  H  H47  1  0.304500  0.267200  0.478300  1.0  0.1263
  H  H48  1  0.112800  0.196100  0.128800  1.0  0.1234
  H  H49  1  0.105300  0.547600  0.393300  1.0  0.0985
  H  H50  1  0.227800  0.950100  0.735200  1.0  0.1198
  H  H51  1  0.239800  0.882400  0.456900  1.0  0.071
  H  H52  1  0.449200  0.117400  0.962200  1.0  0.113
  H  H53  1  0.272200  0.450100  0.764800  1.0  0.1202
  H  H54  1  0.386400  0.893200  0.545000  1.0  0.1075
  H  H55  1  0.050800  0.617400  0.537800  1.0  0.113
  H  H56  1  0.326500  0.534600  0.903900  1.0  0.0971
  H  H57  1  0.853300  0.021100  0.809100  1.0  0.1139
  H  H58  1  0.321100  0.420900  0.004500  1.0  0.087
  H  H59  1  0.984100  0.661900  0.404400  1.0  0.119
  H  H60  1  0.416500  0.364000  0.152400  1.0  0.1185
  H  H61  1  0.985200  0.552100  0.941900  1.0  0.0988
  H  H62  1  0.159600  0.236200  0.583300  1.0  0.0743
  H  H63  1  0.894700  0.452400  0.606700  1.0  0.098
  H  H64  1  0.252500  0.670700  0.971200  1.0  0.0957
  H  H65  1  0.164800  0.873000  0.283200  1.0  0.0846
  H  H66  1  0.970400  0.792500  0.807300  1.0  0.0917
  H  H67  1  0.659600  0.263800  0.083300  1.0  0.0746
  H  H68  1  0.274400  0.685100  0.426200  1.0  0.0619
  H  H69  1  0.873400  0.455900  0.694400  1.0  0.0941
  H  H70  1  0.387200  0.696100  0.371200  1.0  0.1241
  H  H71  1  0.218900  0.048000  0.850900  1.0  0.0976
  H  H72  1  0.165900  0.329700  0.896900  1.0  0.0954
  H  H73  1  0.467100  0.848200  0.812600  1.0  0.1111
  H  H74  1  0.538100  0.424700  0.794000  1.0  0.0979
  H  H75  1  0.513100  0.376300  0.284300  1.0  0.0952
  H  H76  1  0.626600  0.955900  0.805600  1.0  0.094
  H  H77  1  0.529600  0.292500  0.692700  1.0  0.0919
  H  H78  1  0.736500  0.855600  0.703700  1.0  0.109
  H  H79  1  0.334100  0.829700  0.603100  1.0  0.0951
  H  H80  1  0.335200  0.373000  0.216800  1.0  0.0845
  H  H81  1  0.029600  0.207500  0.192700  1.0  0.0919
  H  H82  1  0.330600  0.429500  0.863000  1.0  0.0999
  H  H83  1  0.165000  0.622600  0.477700  1.0  0.1059
  H  H84  1  0.309900  0.151100  0.671000  1.0  0.0967
  H  H85  1  0.646700  0.521100  0.690900  1.0  0.1156
  H  H86  1  0.746900  0.725500  0.288400  1.0  0.1021
  H  H87  1  0.178900  0.920900  0.495500  1.0  0.0874
  H  H88  1  0.351100  0.764100  0.438800  1.0  0.0714
  H  H89  1  0.628400  0.766900  0.459600  1.0  0.0808
  H  H90  1  0.225600  0.185100  0.073800  1.0  0.0619
  H  H91  1  0.038100  0.075300  0.294000  1.0  0.0978
  H  H92  1  0.032900  0.348200  0.687400  1.0  0.1107
  H  H93  1  0.253100  0.274500  0.711600  1.0  0.102
  H  H94  1  0.128400  0.733100  0.959600  1.0  0.0789
  H  H95  1  0.830600  0.070500  0.363000  1.0  0.0999
  H  H96  1  0.763500  0.355600  0.796300  1.0  0.1102
  H  H97  1  0.673500  0.465400  0.096100  1.0  0.097
  H  H98  1  0.525800  0.169400  0.304400  1.0  0.0873
  H  H99  1  0.042200  0.542900  0.824700  1.0  0.0954
  H  H100  1  0.669400  0.570500  0.137000  1.0  0.1
  H  H101  1  0.746300  0.377200  0.906900  1.0  0.083
  H  H102  1  0.148900  0.264100  0.061200  1.0  0.0711
  H  H103  1  0.484100  0.838100  0.904400  1.0  0.1187
  H  H104  1  0.648900  0.235900  0.561200  1.0  0.0717
  H  H105  1  0.690100  0.848900  0.329000  1.0  0.0975
  H  H106  1  0.871600  0.266900  0.040400  1.0  0.0803
  H  H107  1  0.857600  0.767600  0.370200  1.0  0.0831
  H  H108  1  0.407700  0.053300  0.751400  1.0  0.096
  H  H109  1  0.986900  0.876300  0.215700  1.0  0.0957
  H  H110  1  0.695500  0.732800  0.521700  1.0  0.1253
  H  H111  1  0.656300  0.675800  0.582600  1.0  0.097
  H  H112  1  0.142400  0.232400  0.629800  1.0  0.0837
  H  H113  1  0.019300  0.846500  0.538000  1.0  0.0812
  H  H114  1  0.961900  0.924700  0.706000  1.0  0.0985
  H  H115  1  0.563300  0.992900  0.619200  1.0  0.1068
  H  H116  1  0.479500  0.769000  0.068500  1.0  0.1167
  H  H117  1  0.253700  0.622800  0.093100  1.0  0.0833
  H  H118  1  0.747500  0.329300  0.028800  1.0  0.0929
  H  H119  1  0.718900  0.452000  0.350900  1.0  0.0975
  H  H120  1  0.236500  0.644400  0.203700  1.0  0.1091
  H  H121  1  0.739800  0.617600  0.956900  1.0  0.0706
  H  H122  1  0.263500  0.144400  0.296300  1.0  0.1106
  H  H123  1  0.190100  0.651100  0.829000  1.0  0.0975
  H  H124  1  0.520500  0.231000  0.931500  1.0  0.1172
  H  H125  1  0.752500  0.829300  0.471200  1.0  0.0958
  H  H126  1  0.281100  0.548000  0.649100  1.0  0.0977
  H  H127  1  0.743100  0.486100  0.947500  1.0  0.1114
  H  H128  1  0.436700  0.007100  0.380800  1.0  0.1068
  H  H129  1  0.967100  0.651800  0.312600  1.0  0.1111
  H  H130  1  0.936700  0.492900  0.880800  1.0  0.1061
  H  H131  1  0.550800  0.882600  0.037800  1.0  0.1133
  H  H132  1  0.083500  0.864000  0.347600  1.0  0.1185
  H  H133  1  0.480700  0.346500  0.962000  1.0  0.0812
  H  H134  1  0.195500  0.767200  0.021700  1.0  0.1262
  H  H135  1  0.405100  0.432600  0.637500  1.0  0.1078
  H  H136  1  0.126600  0.544100  0.305600  1.0  0.0942
  H  H137  1  0.774400  0.814900  0.926200  1.0  0.0624
  H  H138  1  0.514800  0.052100  0.558100  1.0  0.0984
  H  H139  1  0.515900  0.161900  0.095600  1.0  0.1186
  H  H140  1  0.592300  0.946700  0.248600  1.0  0.0978
  H  H141  1  0.532900  0.151800  0.187400  1.0  0.1109
  H  H142  1  0.260200  0.382400  0.043100  1.0  0.0704
  H  H143  1  0.905100  0.067400  0.137500  1.0  0.1078
  H  H144  1  0.470400  0.707500  0.307300  1.0  0.0918
  H  H145  1  0.809900  0.348900  0.171000  1.0  0.0969
  H  H146  1  0.343700  0.324200  0.417400  1.0  0.0968
  H  H147  1  0.753100  0.225500  0.211600  1.0  0.102
  H  H148  1  0.335000  0.122600  0.022300  1.0  0.1052
  H  H149  1  0.887200  0.803900  0.871200  1.0  0.1233
  H  H150  1  0.851100  0.735900  0.938800  1.0  0.0717
  H  H151  1  0.014800  0.447900  0.058100  1.0  0.0988
  H  H152  1  0.583500  0.636000  0.847600  1.0  0.1184
  H  H153  1  0.664800  0.627000  0.783200  1.0  0.0844
  H  H154  1  0.756900  0.986100  0.552500  1.0  0.1107
  H  H155  1  0.169400  0.929500  0.637000  1.0  0.1002
  H  H156  1  0.486900  0.623700  0.715700  1.0  0.0956
  H  H157  1  0.804500  0.232800  0.978300  1.0  0.1255
  H  H158  1  0.727800  0.549900  0.235200  1.0  0.12
  H  H159  1  0.340400  0.736200  0.916700  1.0  0.0753
  H  H160  1  0.725600  0.314900  0.573800  1.0  0.062
  H  H161  1  0.256900  0.513900  0.052500  1.0  0.1107
  H  H162  1  0.353300  0.478900  0.309100  1.0  0.114
  H  H163  1  0.542200  0.957100  0.324700  1.0  0.096
  H  H164  1  0.826500  0.965400  0.403900  1.0  0.0968
  H  H165  1  0.461900  0.575300  0.206000  1.0  0.0985
  H  H166  1  0.146700  0.978900  0.190900  1.0  0.1155
  H  H167  1  0.474200  0.830600  0.695600  1.0  0.0879
  H  H168  1  0.979500  0.731000  0.568500  1.0  0.1171
  H  H169  1  0.821100  0.079100  0.504500  1.0  0.0864
  H  H170  1  0.094900  0.932600  0.862500  1.0  0.1065
  H  H171  1  0.835000  0.377400  0.522300  1.0  0.105
  H  H172  1  0.015900  0.338100  0.595600  1.0  0.1187
  H  H173  1  0.113600  0.393200  0.955000  1.0  0.1074
  H  H174  1  0.156300  0.824200  0.082600  1.0  0.0966
  H  H175  1  0.613600  0.106800  0.455000  1.0  0.1072
  H  H176  1  0.840400  0.763800  0.416700  1.0  0.0753
  C  C177  1  0.514520  0.080900  0.858820  1.0  0.6455
  C  C178  1  0.245230  0.238100  0.065930  1.0  0.0354
  C  C179  1  0.591200  0.189300  0.412900  1.0  -0.0286
  C  C180  1  0.091200  0.310700  0.912900  1.0  -0.0362
  C  C181  1  0.845800  0.114900  0.526100  1.0  0.0606
  C  C182  1  0.301500  0.436400  0.632100  1.0  -0.2133
  C  C183  1  0.779000  0.627700  0.382800  1.0  0.2941
  C  C184  1  0.115220  0.299800  0.252920  1.0  0.7073
  C  C185  1  0.623140  0.752700  0.538140  1.0  -0.2881
  C  C186  1  0.123140  0.747300  0.038140  1.0  -0.2847
  C  C187  1  0.941800  0.664100  0.286100  1.0  -0.1592
  C  C188  1  0.936600  0.652500  0.051800  1.0  -0.1838
  C  C189  1  0.901750  0.218500  0.925450  1.0  -0.0345
  C  C190  1  0.009620  0.245700  0.900720  1.0  -0.133
  C  C191  1  0.055260  0.325700  0.778260  1.0  0.1673
  C  C192  1  0.039310  0.108700  0.380410  1.0  -0.1479
  C  C193  1  0.221000  0.372300  0.617200  1.0  0.2965
  C  C194  1  0.377080  0.306900  0.009580  1.0  0.0579
  C  C195  1  0.839780  0.974700  0.569580  1.0  -0.2662
  C  C196  1  0.154200  0.885100  0.473900  1.0  0.0587
  C  C197  1  0.161050  0.832200  0.339450  1.0  -0.2096
  C  C198  1  0.772400  0.494400  0.361300  1.0  -0.02
  C  C199  1  0.605700  0.430600  0.773800  1.0  -0.0958
  C  C200  1  0.427170  0.011500  0.870170  1.0  -0.2022
  C  C201  1  0.036450  0.180400  0.355350  1.0  0.6729
  C  C202  1  0.793400  0.002800  0.252900  1.0  -0.1301
  C  C203  1  0.680360  0.832500  0.388460  1.0  0.0492
  C  C204  1  0.160200  0.600800  0.254300  1.0  0.1109
  C  C205  1  0.392170  0.739100  0.315270  1.0  -0.0462
  C  C206  1  0.058200  0.335900  0.713900  1.0  -0.158
  C  C207  1  0.206600  0.997200  0.747100  1.0  -0.1214
  C  C208  1  0.695030  0.949100  0.785630  1.0  -0.1016
  C  C209  1  0.745230  0.261900  0.565930  1.0  0.0364
  C  C210  1  0.828250  0.708700  0.788550  1.0  -0.1401
  C  C211  1  0.490380  0.745700  0.599280  1.0  -0.1327
  C  C212  1  0.997500  0.448200  0.613500  1.0  -0.0566
  C  C213  1  0.329180  0.511400  0.287580  1.0  -0.1653
  C  C214  1  0.170820  0.011400  0.212420  1.0  -0.1661
  C  C215  1  0.997700  0.536700  0.882700  1.0  -0.1245
  C  C216  1  0.892170  0.760900  0.815270  1.0  -0.0378
  C  C217  1  0.721000  0.127700  0.117200  1.0  0.2962
  C  C218  1  0.698500  0.563600  0.367900  1.0  -0.2119
  C  C219  1  0.063400  0.347500  0.948200  1.0  -0.184
  C  C220  1  0.555260  0.174300  0.278260  1.0  0.1674
  C  C221  1  0.227600  0.505600  0.638700  1.0  -0.0213
  C  C222  1  0.622920  0.693100  0.990420  1.0  0.059
  C  C223  1  0.536450  0.319600  0.855350  1.0  0.6693
  C  C224  1  0.463550  0.680400  0.144650  1.0  0.6732
  C  C225  1  0.339800  0.100800  0.245700  1.0  0.1118
  C  C226  1  0.198500  0.936400  0.867900  1.0  -0.2142
  C  C227  1  0.448700  0.301200  0.974100  1.0  -0.0977
  C  C228  1  0.585990  0.559700  0.119990  1.0  -0.0467
  C  C229  1  0.910500  0.906600  0.225700  1.0  0.1542
  C  C230  1  0.884780  0.700200  0.747080  1.0  0.7152
  C  C231  1  0.319640  0.167500  0.611540  1.0  0.0497
  C  C232  1  0.927170  0.488500  0.370170  1.0  -0.2006
  C  C233  1  0.883840  0.361900  0.077040  1.0  0.0683
  C  C234  1  0.589500  0.406600  0.274300  1.0  0.1535
  C  C235  1  0.441800  0.835900  0.786100  1.0  -0.1592
  C  C236  1  0.087900  0.003400  0.595900  1.0  -0.1793
  C  C237  1  0.842950  0.767800  0.853650  1.0  -0.2725
  C  C238  1  0.401750  0.281500  0.425450  1.0  -0.0275
  C  C239  1  0.930700  0.620400  0.393000  1.0  -0.2248
  C  C240  1  0.710600  0.662200  0.801000  1.0  -0.0171
  C  C241  1  0.838950  0.167800  0.660550  1.0  -0.2095
  C  C242  1  0.068400  0.665000  0.525900  1.0  -0.0867
  C  C243  1  0.137600  0.668400  0.490000  1.0  -0.11
  C  C244  1  0.412100  0.503400  0.904100  1.0  -0.1796
  C  C245  1  0.563400  0.152500  0.448200  1.0  -0.1835
  C  C246  1  0.147450  0.677900  0.962350  1.0  -0.0108
  C  C247  1  0.352550  0.177900  0.537650  1.0  -0.0115
  C  C248  1  0.661050  0.667800  0.839450  1.0  -0.2089
  C  C249  1  0.474500  0.232400  0.955900  1.0  -0.148
  C  C250  1  0.116160  0.638100  0.922960  1.0  0.068
  C  C251  1  0.002500  0.551800  0.386500  1.0  -0.0559
  C  C252  1  0.759300  0.889500  0.724700  1.0  -0.1495
  C  C253  1  0.607830  0.260900  0.684730  1.0  -0.038
  C  C254  1  0.714800  0.264200  0.109000  1.0  0.0535
  C  C255  1  0.587900  0.496600  0.095900  1.0  -0.1783
  C  C256  1  0.051300  0.801200  0.525900  1.0  -0.1039
  C  C257  1  0.660220  0.474700  0.930420  1.0  -0.2656
  C  C258  1  0.598250  0.718500  0.574550  1.0  -0.0311
  C  C259  1  0.040000  0.683800  0.026600  1.0  0.271
  C  C260  1  0.560500  0.933200  0.349300  1.0  -0.1076
  C  C261  1  0.414010  0.440300  0.880010  1.0  -0.0454
  C  C262  1  0.025500  0.732400  0.544100  1.0  -0.1446
  C  C263  1  0.210600  0.837800  0.301000  1.0  -0.0171
  C  C264  1  0.660200  0.899200  0.754300  1.0  0.1109
  C  C265  1  0.444740  0.825700  0.721740  1.0  0.1676
  C  C266  1  0.460690  0.608700  0.119590  1.0  -0.1483
  C  C267  1  0.376860  0.247300  0.461860  1.0  -0.2871
  C  C268  1  0.850500  0.368800  0.148000  1.0  -0.1049
  C  C269  1  0.615220  0.200200  0.752920  1.0  0.7159
  C  C270  1  0.654200  0.614900  0.973900  1.0  0.0579
  C  C271  1  0.671750  0.208700  0.711450  1.0  -0.1405
  C  C272  1  0.973100  0.427400  0.080800  1.0  -0.1103
  C  C273  1  0.551300  0.698800  0.025900  1.0  -0.0998
  C  C274  1  0.410500  0.593400  0.725700  1.0  0.1527
  C  C275  1  0.157050  0.232200  0.146350  1.0  -0.2685
  C  C276  1  0.293400  0.497200  0.752900  1.0  -0.1224
  C  C277  1  0.839800  0.399200  0.745700  1.0  0.1117
  C  C278  1  0.876860  0.252700  0.961860  1.0  -0.2883
  C  C279  1  0.362400  0.168400  0.010000  1.0  -0.112
  C  C280  1  0.350500  0.131200  0.648000  1.0  -0.1051
  C  C281  1  0.540000  0.816200  0.526600  1.0  0.271
  C  C282  1  0.338950  0.332200  0.160550  1.0  -0.2079
  C  C283  1  0.571790  0.479900  0.742590  1.0  0.1141
  C  C284  1  0.785200  0.764200  0.391000  1.0  0.0561
  C  C285  1  0.804970  0.449100  0.714370  1.0  -0.1007
  C  C286  1  0.538180  0.292200  0.361380  1.0  0.6969
  C  C287  1  0.661760  0.409200  0.905960  1.0  -0.0673
  C  C288  1  0.539310  0.391300  0.880410  1.0  -0.149
  C  C289  1  0.961820  0.792200  0.138620  1.0  0.6971
  C  C290  1  0.569300  0.120400  0.107000  1.0  -0.2266
  C  C291  1  0.647450  0.822100  0.462350  1.0  -0.0115
  C  C292  1  0.862400  0.331600  0.510000  1.0  -0.0987
  C  C293  1  0.161760  0.090800  0.405960  1.0  -0.0668
  C  C294  1  0.408800  0.810700  0.587100  1.0  -0.0267
  C  C295  1  0.167530  0.738700  0.471830  1.0  0.0604
  C  C296  1  0.819640  0.332500  0.111540  1.0  0.0496
  C  C297  1  0.430700  0.879600  0.893000  1.0  -0.2248
  C  C298  1  0.259300  0.610500  0.224700  1.0  -0.1548
  C  C299  1  0.002300  0.463300  0.117300  1.0  -0.1255
  C  C300  1  0.122920  0.806900  0.490420  1.0  0.0582
  C  C301  1  0.754770  0.761900  0.934070  1.0  0.0323
  C  C302  1  0.473100  0.072600  0.580800  1.0  -0.1111
  C  C303  1  0.305100  0.054400  0.756100  1.0  0.0352
  C  C304  1  0.036490  0.978200  0.429090  1.0  0.2887
  C  C305  1  0.509620  0.254300  0.400720  1.0  -0.1322
  C  C306  1  0.227350  0.779200  0.365750  1.0  0.2829
  C  C307  1  0.342950  0.732200  0.353650  1.0  -0.271
  C  C308  1  0.894300  0.930600  0.726200  1.0  -0.0931
  C  C309  1  0.985480  0.580900  0.641180  1.0  0.6435
  C  C310  1  0.339780  0.525300  0.069580  1.0  -0.2662
  C  C311  1  0.805100  0.445600  0.256100  1.0  0.0348
  C  C312  1  0.670820  0.488600  0.712420  1.0  -0.1671
  C  C313  1  0.026900  0.572600  0.919200  1.0  -0.1045
  C  C314  1  0.694900  0.945600  0.243900  1.0  0.0351
  C  C315  1  0.990380  0.754300  0.099280  1.0  -0.1323
  C  C316  1  0.657050  0.267800  0.646350  1.0  -0.2723
  C  C317  1  0.179200  0.294900  0.727400  1.0  0.0242
  C  C318  1  0.832470  0.261300  0.528170  1.0  0.0602
  C  C319  1  0.928210  0.979900  0.757410  1.0  0.1146
  C  C320  1  0.428210  0.520100  0.257410  1.0  0.1145
  C  C321  1  0.939500  0.433200  0.150700  1.0  -0.1078
  C  C322  1  0.789400  0.162200  0.699000  1.0  -0.0176
  C  C323  1  0.431600  0.165000  0.974100  1.0  -0.0898
  C  C324  1  0.740700  0.389500  0.775300  1.0  -0.1531
  C  C325  1  0.931600  0.335000  0.474100  1.0  -0.085
  C  C326  1  0.160220  0.025300  0.430420  1.0  -0.2636
  C  C327  1  0.383840  0.138100  0.577040  1.0  0.0682
  C  C328  1  0.463510  0.478200  0.070910  1.0  0.2887
  C  C329  1  0.107830  0.239100  0.184730  1.0  -0.0383
  C  C330  1  0.558200  0.164100  0.213900  1.0  -0.1581
  C  C331  1  0.497700  0.963300  0.382700  1.0  -0.1224
  C  C332  1  0.502300  0.036700  0.617300  1.0  -0.124
  C  C333  1  0.085990  0.940300  0.619990  1.0  -0.0466
  C  C334  1  0.568400  0.835000  0.025900  1.0  -0.086
  C  C335  1  0.149500  0.631200  0.852000  1.0  -0.1042
  C  C336  1  0.060500  0.566800  0.849300  1.0  -0.1062
  C  C337  1  0.974500  0.267600  0.455900  1.0  -0.1472
  C  C338  1  0.285200  0.735800  0.891000  1.0  0.057
  C  C339  1  0.439500  0.066800  0.650700  1.0  -0.1062
  C  C340  1  0.502500  0.948200  0.886500  1.0  -0.0561
  C  C341  1  0.649500  0.868800  0.352000  1.0  -0.1024
  C  C342  1  0.497500  0.051800  0.113500  1.0  -0.0573
  C  C343  1  0.345800  0.385100  0.026100  1.0  0.0606
  C  C344  1  0.820800  0.705100  0.272600  1.0  0.024
  C  C345  1  0.328250  0.791300  0.288550  1.0  -0.1399
  C  C346  1  0.069300  0.379600  0.607000  1.0  -0.2259
  C  C347  1  0.072830  0.511500  0.629830  1.0  -0.1996
  C  C348  1  0.240700  0.110500  0.275300  1.0  -0.1481
  C  C349  1  0.727350  0.720800  0.865750  1.0  0.2752
  C  C350  1  0.572830  0.988500  0.129830  1.0  -0.2006
  C  C351  1  0.838240  0.909200  0.594040  1.0  -0.0653
  C  C352  1  0.706600  0.502800  0.247100  1.0  -0.1219
  C  C353  1  0.272400  0.005600  0.861300  1.0  -0.0205
  C  C354  1  0.908800  0.689300  0.087100  1.0  -0.0273
  C  C355  1  0.801500  0.063600  0.132100  1.0  -0.2127
  C  C356  1  0.194900  0.554400  0.743900  1.0  0.0352
  C  C357  1  0.525500  0.767600  0.044100  1.0  -0.146
  C  C358  1  0.304970  0.050900  0.214370  1.0  -0.1007
  C  C359  1  0.485480  0.919100  0.141180  1.0  0.6434
  C  C360  1  0.852550  0.322100  0.037650  1.0  -0.0116
  C  C361  1  0.180360  0.667500  0.888460  1.0  0.0493
  C  C362  1  0.320800  0.794900  0.772600  1.0  0.0243
  C  C363  1  0.254770  0.738100  0.434070  1.0  0.0347
  C  C364  1  0.461820  0.707800  0.638620  1.0  0.6973
  C  C365  1  0.960690  0.891300  0.619590  1.0  -0.1486
  C  C366  1  0.071790  0.020100  0.242590  1.0  0.1141
  C  C367  1  0.394300  0.569400  0.226200  1.0  -0.0981
  C  C368  1  0.038180  0.207800  0.861380  1.0  0.6968
  C  C369  1  0.289400  0.337800  0.199000  1.0  -0.0179
  C  C370  1  0.105700  0.069400  0.273800  1.0  -0.0908
  C  C371  1  0.526900  0.927400  0.419200  1.0  -0.1083
  C  C372  1  0.195030  0.550900  0.285630  1.0  -0.1
  C  C373  1  0.279000  0.872300  0.882800  1.0  0.2939
  C  C374  1  0.877080  0.193100  0.509580  1.0  0.0588
  C  C375  1  0.014520  0.419100  0.358820  1.0  0.6448
  C  C376  1  0.944740  0.674300  0.221740  1.0  0.1677
  C  C377  1  0.098250  0.781500  0.074550  1.0  -0.028
  C  C378  1  0.912100  0.996600  0.404100  1.0  -0.1783
  C  C379  1  0.436600  0.847500  0.551800  1.0  -0.1835
  C  C380  1  0.460000  0.183800  0.473400  1.0  0.2714
  C  C381  1  0.948700  0.198800  0.474100  1.0  -0.1031
  C  C382  1  0.679200  0.205100  0.227400  1.0  0.0242
  C  C383  1  0.963510  0.021800  0.570910  1.0  0.2889
  C  C384  1  0.338240  0.590800  0.094040  1.0  -0.0647
  C  C385  1  0.089500  0.093400  0.774300  1.0  0.1533
  C  C386  1  0.829180  0.988600  0.787580  1.0  -0.1637
  C  C387  1  0.616160  0.861900  0.422960  1.0  0.0679
  C  C388  1  0.772650  0.220800  0.634250  1.0  0.283
  C  C389  1  0.963550  0.819600  0.644650  1.0  0.6737
  C  C390  1  0.332470  0.238700  0.028170  1.0  0.0594
  C  C391  1  0.914010  0.059700  0.380010  1.0  -0.0454
  C  C392  1  0.637600  0.831600  0.990000  1.0  -0.1083
  C  C393  1  0.536490  0.521800  0.929090  1.0  0.2889
  C  C394  1  0.384780  0.799800  0.247080  1.0  0.7067
  C  C395  1  0.272650  0.279200  0.134250  1.0  0.2829
  C  C396  1  0.667530  0.761300  0.971830  1.0  0.0609
  C  C397  1  0.171750  0.291300  0.211450  1.0  -0.1407
  C  C398  1  0.214800  0.235800  0.609000  1.0  0.053
  C  C399  1  0.727600  0.994400  0.138700  1.0  -0.0242
  C  C400  1  0.960000  0.316200  0.973400  1.0  0.2713
  N  N401  1  0.021060  0.643900  0.253360  1.0  0.038
  N  N402  1  0.176370  0.288000  0.768270  1.0  -0.3909
  N  N403  1  0.478940  0.143900  0.246640  1.0  0.0374
  N  N404  1  0.568130  0.477900  0.259030  1.0  0.0294
  N  N405  1  0.931870  0.977900  0.240970  1.0  0.0298
  N  N406  1  0.730940  0.385000  0.273340  1.0  -0.3651
  N  N407  1  0.978940  0.356100  0.746640  1.0  0.0374
  N  N408  1  0.431870  0.522100  0.740970  1.0  0.0296
  N  N409  1  0.676370  0.212000  0.268270  1.0  -0.3911
  N  N410  1  0.323630  0.788000  0.731730  1.0  -0.3923
  N  N411  1  0.269060  0.615000  0.726660  1.0  -0.3643
  N  N412  1  0.521060  0.856100  0.753360  1.0  0.0384
  N  N413  1  0.068130  0.022100  0.759030  1.0  0.0291
  N  N414  1  0.230940  0.115000  0.773340  1.0  -0.3648
  N  N415  1  0.823630  0.712000  0.231730  1.0  -0.392
  N  N416  1  0.769060  0.885000  0.226660  1.0  -0.365
  O  O417  1  0.332210  0.276900  0.097010  1.0  -0.2743
  O  O418  1  0.198690  0.805200  0.886190  1.0  -0.2757
  O  O419  1  0.543800  0.864100  0.159900  1.0  -0.6357
  O  O420  1  0.043800  0.635900  0.659900  1.0  -0.6354
  O  O421  1  0.157080  0.221300  0.357980  1.0  -0.6146
  O  O422  1  0.698690  0.694800  0.386190  1.0  -0.2773
  O  O423  1  0.342920  0.721300  0.142020  1.0  -0.6124
  O  O424  1  0.956200  0.364100  0.340100  1.0  -0.6357
  O  O425  1  0.657080  0.278700  0.857980  1.0  -0.6121
  O  O426  1  0.431850  0.328000  0.342750  1.0  -0.6046
  O  O427  1  0.578780  0.693400  0.165980  1.0  -0.5908
  O  O428  1  0.068150  0.828000  0.157250  1.0  -0.605
  O  O429  1  0.449590  0.145200  0.509190  1.0  -0.2671
  O  O430  1  0.977170  0.087900  0.548870  1.0  -0.2663
  O  O431  1  0.844440  0.582500  0.631940  1.0  -0.5979
  O  O432  1  0.568150  0.672000  0.657250  1.0  -0.604
  O  O433  1  0.477170  0.412100  0.048870  1.0  -0.2666
  O  O434  1  0.022830  0.912100  0.451130  1.0  -0.2661
  O  O435  1  0.207580  0.328400  0.278880  1.0  -0.6069
  O  O436  1  0.522830  0.587900  0.951130  1.0  -0.2659
  O  O437  1  0.483800  0.221800  0.758800  1.0  -0.5956
  O  O438  1  0.344440  0.917500  0.131940  1.0  -0.5987
  O  O439  1  0.842920  0.778700  0.642020  1.0  -0.6106
  O  O440  1  0.655560  0.082500  0.868060  1.0  -0.5985
  O  O441  1  0.707580  0.171600  0.778880  1.0  -0.6058
  O  O442  1  0.167400  0.215200  0.848600  1.0  -0.6231
  O  O443  1  0.832210  0.223100  0.597010  1.0  -0.2742
  O  O444  1  0.667790  0.723100  0.902990  1.0  -0.2759
  O  O445  1  0.921220  0.193400  0.334020  1.0  -0.5913
  O  O446  1  0.078780  0.806600  0.665980  1.0  -0.5907
  O  O447  1  0.801310  0.194800  0.113810  1.0  -0.277
  O  O448  1  0.516200  0.778200  0.241200  1.0  -0.5957
  O  O449  1  0.421220  0.306600  0.834020  1.0  -0.5913
  O  O450  1  0.667400  0.284800  0.348600  1.0  -0.6232
  O  O451  1  0.167790  0.776900  0.402990  1.0  -0.2772
  O  O452  1  0.292420  0.828400  0.221120  1.0  -0.6059
  O  O453  1  0.016200  0.721800  0.741200  1.0  -0.596
  O  O454  1  0.456200  0.135900  0.840100  1.0  -0.6348
  O  O455  1  0.332600  0.715200  0.651400  1.0  -0.6238
  O  O456  1  0.983800  0.278200  0.258800  1.0  -0.5953
  O  O457  1  0.155560  0.417500  0.368060  1.0  -0.599
  O  O458  1  0.931850  0.172000  0.842750  1.0  -0.6035
  O  O459  1  0.550410  0.854800  0.490810  1.0  -0.267
  O  O460  1  0.050410  0.645200  0.990810  1.0  -0.2675
  O  O461  1  0.832600  0.784800  0.151400  1.0  -0.6238
  O  O462  1  0.301310  0.305200  0.613810  1.0  -0.2757
  O  O463  1  0.792420  0.671600  0.721120  1.0  -0.6064
  O  O464  1  0.949590  0.354800  0.009190  1.0  -0.2661
