# generated using pymatgen
data_Zn7H16C32(N9O8)2
_symmetry_space_group_name_H-M   'P 1'
_cell_length_a   14.20360000
_cell_length_b   14.46010000
_cell_length_c   18.07240000
_cell_angle_alpha   69.23460000
_cell_angle_beta   66.86090000
_cell_angle_gamma   60.58510000
_symmetry_Int_Tables_number   1
_chemical_formula_structural   Zn7H16C32(N9O8)2
_chemical_formula_sum   'Zn14 H32 C64 N36 O32'
_cell_volume   2912.10383901
_cell_formula_units_Z   2
loop_
 _symmetry_equiv_pos_site_id
 _symmetry_equiv_pos_as_xyz
  1  'x, y, z'
loop_
 _atom_site_type_symbol
 _atom_site_label
 _atom_site_symmetry_multiplicity
 _atom_site_fract_x
 _atom_site_fract_y
 _atom_site_fract_z
 _atom_site_occupancy
 _atom_site_charge
  Zn  Zn1  1  0.758080  0.008160  0.635080  1.0  0.9184
  Zn  Zn2  1  0.378770  0.204280  0.423500  1.0  0.9789
  Zn  Zn3  1  0.189830  0.584030  0.594730  1.0  0.9117
  Zn  Zn4  1  0.401320  0.491840  0.864920  1.0  0.9182
  Zn  Zn5  1  0.006550  0.295720  0.076500  1.0  0.9806
  Zn  Zn6  1  0.368590  0.915970  0.905270  1.0  0.9092
  Zn  Zn7  1  0.241920  0.991840  0.364920  1.0  0.9187
  Zn  Zn8  1  0.621230  0.795720  0.576500  1.0  0.979
  Zn  Zn9  1  0.810170  0.415970  0.405270  1.0  0.9194
  Zn  Zn10  1  0.598680  0.508160  0.135080  1.0  0.9183
  Zn  Zn11  1  0.993450  0.704280  0.923500  1.0  0.9807
  Zn  Zn12  1  0.631410  0.084030  0.094730  1.0  0.9159
  Zn  Zn13  1  0.500000  0.500000  0.500000  1.0  0.5038
  Zn  Zn14  1  0.500000  0.000000  0.000000  1.0  0.5038
  H  H15  1  0.512600  0.308900  0.437500  1.0  0.0853
  H  H16  1  0.533800  0.461700  0.680500  1.0  0.09
  H  H17  1  0.212700  0.563900  0.777500  1.0  0.0845
  H  H18  1  0.872200  0.163100  0.507700  1.0  0.0857
  H  H19  1  0.808400  0.596900  0.477900  1.0  0.0999
  H  H20  1  0.740000  0.152600  0.254800  1.0  0.1022
  H  H21  1  0.922700  0.965700  0.459300  1.0  0.1038
  H  H22  1  0.553900  0.246200  0.613800  1.0  0.0858
  H  H23  1  0.259000  0.191100  0.062500  1.0  0.086
  H  H24  1  0.676000  0.038300  0.819500  1.0  0.0881
  H  H25  1  0.554100  0.936100  0.722500  1.0  0.0865
  H  H26  1  0.543000  0.336900  0.992300  1.0  0.0841
  H  H27  1  0.883200  0.903100  0.022100  1.0  0.0999
  H  H28  1  0.147400  0.347400  0.245200  1.0  0.1014
  H  H29  1  0.347700  0.534300  0.040700  1.0  0.1041
  H  H30  1  0.413900  0.253800  0.886200  1.0  0.0838
  H  H31  1  0.487400  0.691100  0.562500  1.0  0.0858
  H  H32  1  0.466200  0.538300  0.319500  1.0  0.0889
  H  H33  1  0.787300  0.436100  0.222500  1.0  0.0845
  H  H34  1  0.127800  0.836900  0.492300  1.0  0.0855
  H  H35  1  0.191600  0.403100  0.522100  1.0  0.1012
  H  H36  1  0.260000  0.847400  0.745200  1.0  0.1021
  H  H37  1  0.077300  0.034300  0.540700  1.0  0.1041
  H  H38  1  0.446100  0.753800  0.386200  1.0  0.086
  H  H39  1  0.741000  0.808900  0.937500  1.0  0.0855
  H  H40  1  0.324000  0.961700  0.180500  1.0  0.087
  H  H41  1  0.445900  0.063900  0.277500  1.0  0.0859
  H  H42  1  0.457000  0.663100  0.007700  1.0  0.0843
  H  H43  1  0.116800  0.096900  0.977900  1.0  0.0991
  H  H44  1  0.852600  0.652600  0.754800  1.0  0.1023
  H  H45  1  0.652300  0.465700  0.959300  1.0  0.1043
  H  H46  1  0.586100  0.746200  0.113800  1.0  0.0843
  C  C47  1  0.437800  0.346800  0.463200  1.0  0.2349
  C  C48  1  0.613400  0.070800  0.377600  1.0  0.7005
  C  C49  1  0.783000  0.003500  0.430100  1.0  -0.1312
  C  C50  1  0.055300  0.036600  0.328600  1.0  0.6676
  C  C51  1  0.457200  0.487300  0.687500  1.0  0.2428
  C  C52  1  0.283100  0.542700  0.740300  1.0  0.2941
  C  C53  1  0.795100  0.203400  0.523200  1.0  0.2868
  C  C54  1  0.937300  0.054300  0.343500  1.0  -0.0893
  C  C55  1  0.735700  0.602600  0.491000  1.0  0.2865
  C  C56  1  0.736200  0.935900  0.505100  1.0  0.7113
  C  C57  1  0.923300  0.174300  0.199100  1.0  0.6801
  C  C58  1  0.778100  0.113200  0.295400  1.0  -0.0885
  C  C59  1  0.881100  0.110600  0.280800  1.0  -0.0589
  C  C60  1  0.886600  0.002000  0.417600  1.0  -0.0577
  C  C61  1  0.622100  0.249000  0.580600  1.0  0.2466
  C  C62  1  0.727800  0.059800  0.368000  1.0  -0.0551
  C  C63  1  0.247800  0.153200  0.036800  1.0  0.2355
  C  C64  1  0.061800  0.429200  0.122400  1.0  0.697
  C  C65  1  0.216600  0.496500  0.069900  1.0  -0.1283
  C  C66  1  0.420500  0.463400  0.171400  1.0  0.6685
  C  C67  1  0.632000  0.012700  0.812500  1.0  0.2424
  C  C68  1  0.566100  0.957300  0.759700  1.0  0.2955
  C  C69  1  0.521700  0.296600  0.976800  1.0  0.288
  C  C70  1  0.335100  0.445700  0.156500  1.0  -0.0864
  C  C71  1  0.829300  0.897400  0.009000  1.0  0.2874
  C  C72  1  0.177200  0.564100  0.994900  1.0  0.7135
  C  C73  1  0.296700  0.325700  0.300900  1.0  0.6804
  C  C74  1  0.186700  0.386800  0.204600  1.0  -0.0897
  C  C75  1  0.272500  0.389400  0.219200  1.0  -0.0586
  C  C76  1  0.306200  0.498000  0.082400  1.0  -0.0587
  C  C77  1  0.451700  0.251000  0.919400  1.0  0.2454
  C  C78  1  0.155600  0.440200  0.132000  1.0  -0.0549
  C  C79  1  0.562200  0.653200  0.536800  1.0  0.2332
  C  C80  1  0.386600  0.929200  0.622400  1.0  0.6999
  C  C81  1  0.217000  0.996500  0.569900  1.0  -0.1286
  C  C82  1  0.944700  0.963400  0.671400  1.0  0.6667
  C  C83  1  0.542800  0.512700  0.312500  1.0  0.2422
  C  C84  1  0.716900  0.457300  0.259700  1.0  0.2937
  C  C85  1  0.204900  0.796600  0.476800  1.0  0.2873
  C  C86  1  0.062700  0.945700  0.656500  1.0  -0.0883
  C  C87  1  0.264300  0.397400  0.509000  1.0  0.2868
  C  C88  1  0.263800  0.064100  0.494900  1.0  0.71
  C  C89  1  0.076700  0.825700  0.800900  1.0  0.6797
  C  C90  1  0.221900  0.886800  0.704600  1.0  -0.0886
  C  C91  1  0.118900  0.889400  0.719200  1.0  -0.059
  C  C92  1  0.113400  0.998000  0.582400  1.0  -0.0594
  C  C93  1  0.377900  0.751000  0.419400  1.0  0.2461
  C  C94  1  0.272200  0.940200  0.632000  1.0  -0.0526
  C  C95  1  0.752200  0.846800  0.963200  1.0  0.2354
  C  C96  1  0.938200  0.570800  0.877600  1.0  0.6988
  C  C97  1  0.783400  0.503500  0.930100  1.0  -0.1299
  C  C98  1  0.579500  0.536600  0.828600  1.0  0.669
  C  C99  1  0.368000  0.987300  0.187500  1.0  0.243
  C  C100  1  0.433900  0.042700  0.240300  1.0  0.2945
  C  C101  1  0.478300  0.703400  0.023200  1.0  0.2891
  C  C102  1  0.664900  0.554300  0.843500  1.0  -0.0861
  C  C103  1  0.170700  0.102600  0.991000  1.0  0.2882
  C  C104  1  0.822800  0.435900  0.005100  1.0  0.7142
  C  C105  1  0.703300  0.674300  0.699100  1.0  0.6809
  C  C106  1  0.813300  0.613200  0.795400  1.0  -0.0891
  C  C107  1  0.727500  0.610600  0.780800  1.0  -0.0598
  C  C108  1  0.693800  0.502000  0.917600  1.0  -0.0576
  C  C109  1  0.548300  0.749000  0.080600  1.0  0.2465
  C  C110  1  0.844400  0.559800  0.868000  1.0  -0.0557
  N  N111  1  0.414100  0.504700  0.629300  1.0  -0.1922
  N  N112  1  0.300410  0.540580  0.663400  1.0  -0.3218
  N  N113  1  0.710410  0.539180  0.471800  1.0  -0.3484
  N  N114  1  0.354100  0.324800  0.469000  1.0  -0.3915
  N  N115  1  0.721500  0.161900  0.578100  1.0  -0.4498
  N  N116  1  0.379200  0.510300  0.758500  1.0  -0.4444
  N  N117  1  0.745000  0.307700  0.494100  1.0  -0.334
  N  N118  1  0.402730  0.428040  0.497900  1.0  -0.1784
  N  N119  1  0.631300  0.337600  0.531800  1.0  -0.1922
  N  N120  1  0.548100  0.995300  0.870700  1.0  -0.1916
  N  N121  1  0.504390  0.959420  0.836600  1.0  -0.3204
  N  N122  1  0.721390  0.960820  0.028200  1.0  -0.3495
  N  N123  1  0.147900  0.175200  0.031000  1.0  -0.3943
  N  N124  1  0.461500  0.338100  0.921900  1.0  -0.4499
  N  N125  1  0.648000  0.989700  0.741500  1.0  -0.4454
  N  N126  1  0.546800  0.192300  0.005900  1.0  -0.3339
  N  N127  1  0.328670  0.071960  0.002100  1.0  -0.1764
  N  N128  1  0.500700  0.162400  0.968200  1.0  -0.1908
  N  N129  1  0.585900  0.495300  0.370700  1.0  -0.1915
  N  N130  1  0.699590  0.459420  0.336600  1.0  -0.3231
  N  N131  1  0.289590  0.460820  0.528200  1.0  -0.3495
  N  N132  1  0.645900  0.675200  0.531000  1.0  -0.3938
  N  N133  1  0.278500  0.838100  0.421900  1.0  -0.4496
  N  N134  1  0.620800  0.489700  0.241500  1.0  -0.4435
  N  N135  1  0.255000  0.692300  0.505900  1.0  -0.3337
  N  N136  1  0.597270  0.571960  0.502100  1.0  -0.1776
  N  N137  1  0.368700  0.662400  0.468200  1.0  -0.1911
  N  N138  1  0.451900  0.004700  0.129300  1.0  -0.1915
  N  N139  1  0.495610  0.040580  0.163400  1.0  -0.3231
  N  N140  1  0.278610  0.039180  0.971800  1.0  -0.3508
  N  N141  1  0.852100  0.824800  0.969000  1.0  -0.3945
  N  N142  1  0.538500  0.661900  0.078100  1.0  -0.4507
  N  N143  1  0.352000  0.010300  0.258500  1.0  -0.4447
  N  N144  1  0.453200  0.807700  0.994100  1.0  -0.3325
  N  N145  1  0.671330  0.928040  0.997900  1.0  -0.1766
  N  N146  1  0.499300  0.837600  0.031800  1.0  -0.1932
  O  O147  1  0.958900  0.237000  0.198800  1.0  -0.5926
  O  O148  1  0.536290  0.120020  0.432000  1.0  -0.5984
  O  O149  1  0.920000  0.164500  0.135100  1.0  -0.6148
  O  O150  1  0.258630  0.071540  0.425200  1.0  -0.6115
  O  O151  1  0.696750  0.884400  0.492300  1.0  -0.5754
  O  O152  1  0.127500  0.997500  0.270500  1.0  -0.5839
  O  O153  1  0.923500  0.941200  0.617800  1.0  -0.6293
  O  O154  1  0.598800  0.039400  0.328400  1.0  -0.617
  O  O155  1  0.394700  0.263000  0.301200  1.0  -0.5925
  O  O156  1  0.088310  0.379980  0.068000  1.0  -0.6
  O  O157  1  0.219600  0.335500  0.364900  1.0  -0.6111
  O  O158  1  0.755370  0.428460  0.074800  1.0  -0.614
  O  O159  1  0.073450  0.615600  0.007700  1.0  -0.5751
  O  O160  1  0.395500  0.502500  0.229500  1.0  -0.5863
  O  O161  1  0.482500  0.558800  0.882200  1.0  -0.6285
  O  O162  1  0.966600  0.460600  0.171600  1.0  -0.6133
  O  O163  1  0.041100  0.763000  0.801200  1.0  -0.5926
  O  O164  1  0.463710  0.879980  0.568000  1.0  -0.5995
  O  O165  1  0.080000  0.835500  0.864900  1.0  -0.6137
  O  O166  1  0.741370  0.928460  0.574800  1.0  -0.6132
  O  O167  1  0.303250  0.115600  0.507700  1.0  -0.5754
  O  O168  1  0.872500  0.002500  0.729500  1.0  -0.5842
  O  O169  1  0.076500  0.058800  0.382200  1.0  -0.6288
  O  O170  1  0.401200  0.960600  0.671600  1.0  -0.6152
  O  O171  1  0.605300  0.737000  0.698800  1.0  -0.5928
  O  O172  1  0.911690  0.620020  0.932000  1.0  -0.5993
  O  O173  1  0.780400  0.664500  0.635100  1.0  -0.6115
  O  O174  1  0.244630  0.571540  0.925200  1.0  -0.6114
  O  O175  1  0.926550  0.384400  0.992300  1.0  -0.5761
  O  O176  1  0.604500  0.497500  0.770500  1.0  -0.5855
  O  O177  1  0.517500  0.441200  0.117800  1.0  -0.6246
  O  O178  1  0.033400  0.539400  0.828400  1.0  -0.6134
