# generated using pymatgen
data_Cd5H14C16N18(ClO2)2
_symmetry_space_group_name_H-M   'P 1'
_cell_length_a   8.51730000
_cell_length_b   9.76150000
_cell_length_c   22.40550000
_cell_angle_alpha   90.00000000
_cell_angle_beta   90.00000000
_cell_angle_gamma   92.28500000
_symmetry_Int_Tables_number   1
_chemical_formula_structural   Cd5H14C16N18(ClO2)2
_chemical_formula_sum   'Cd10 H28 C32 N36 Cl4 O8'
_cell_volume   1861.34845873
_cell_formula_units_Z   2
loop_
 _symmetry_equiv_pos_site_id
 _symmetry_equiv_pos_as_xyz
  1  'x, y, z'
loop_
 _atom_site_type_symbol
 _atom_site_label
 _atom_site_symmetry_multiplicity
 _atom_site_fract_x
 _atom_site_fract_y
 _atom_site_fract_z
 _atom_site_occupancy
 _atom_site_charge
  Cd  Cd1  1  0.642500  0.982260  0.347820  1.0  0.9592
  Cd  Cd2  1  0.329820  0.725730  0.397930  1.0  0.8736
  Cd  Cd3  1  0.357500  0.517740  0.847820  1.0  0.9592
  Cd  Cd4  1  0.670180  0.774270  0.897930  1.0  0.8684
  Cd  Cd5  1  0.357500  0.017740  0.652180  1.0  0.9604
  Cd  Cd6  1  0.670180  0.274270  0.602070  1.0  0.8681
  Cd  Cd7  1  0.642500  0.482260  0.152180  1.0  0.9603
  Cd  Cd8  1  0.329820  0.225730  0.102070  1.0  0.8731
  Cd  Cd9  1  0.000000  0.500000  0.500000  1.0  0.8406
  Cd  Cd10  1  0.000000  0.000000  0.000000  1.0  0.8406
  H  H11  1  0.927300  0.815500  0.433900  1.0  0.0743
  H  H12  1  0.381900  0.026000  0.232700  1.0  0.0775
  H  H13  1  0.690100  0.302400  0.283600  1.0  0.0736
  H  H14  1  0.618300  0.528000  0.470000  1.0  0.0727
  H  H15  1  0.126700  0.164900  0.364200  1.0  0.1399
  H  H16  1  0.304600  0.195100  0.349500  1.0  0.1475
  H  H17  1  0.247700  0.192400  0.416000  1.0  0.1586
  H  H18  1  0.072700  0.684500  0.933900  1.0  0.0738
  H  H19  1  0.618100  0.474000  0.732700  1.0  0.0789
  H  H20  1  0.309900  0.197600  0.783600  1.0  0.0737
  H  H21  1  0.381700  0.972000  0.970000  1.0  0.0731
  H  H22  1  0.873300  0.335100  0.864200  1.0  0.1402
  H  H23  1  0.695400  0.304900  0.849500  1.0  0.1482
  H  H24  1  0.752300  0.307600  0.916000  1.0  0.1592
  H  H25  1  0.072700  0.184500  0.566100  1.0  0.0736
  H  H26  1  0.618100  0.974000  0.767300  1.0  0.0785
  H  H27  1  0.309900  0.697600  0.716400  1.0  0.0734
  H  H28  1  0.381700  0.472000  0.530000  1.0  0.0732
  H  H29  1  0.873300  0.835100  0.635800  1.0  0.1396
  H  H30  1  0.695400  0.804900  0.650500  1.0  0.1479
  H  H31  1  0.752300  0.807600  0.584000  1.0  0.1599
  H  H32  1  0.927300  0.315500  0.066100  1.0  0.0739
  H  H33  1  0.381900  0.526000  0.267300  1.0  0.0779
  H  H34  1  0.690100  0.802400  0.216400  1.0  0.0741
  H  H35  1  0.618300  0.028000  0.030000  1.0  0.0728
  H  H36  1  0.126700  0.664900  0.135800  1.0  0.1391
  H  H37  1  0.304600  0.695100  0.150500  1.0  0.1472
  H  H38  1  0.247700  0.692400  0.084000  1.0  0.1587
  C  C39  1  0.832700  0.764900  0.436500  1.0  0.2643
  C  C40  1  0.830700  0.254500  0.414800  1.0  0.2381
  C  C41  1  0.678700  0.141200  0.470300  1.0  0.281
  C  C42  1  0.444300  0.106200  0.234620  1.0  0.2568
  C  C43  1  0.611500  0.255500  0.262100  1.0  0.2613
  C  C44  1  0.665400  0.609600  0.456200  1.0  0.2419
  C  C45  1  0.232500  0.152100  0.377300  1.0  -0.5212
  C  C46  1  0.261100  0.001700  0.380500  1.0  0.7586
  C  C47  1  0.167300  0.735100  0.936500  1.0  0.2652
  C  C48  1  0.169300  0.245500  0.914800  1.0  0.2373
  C  C49  1  0.321300  0.358800  0.970300  1.0  0.2832
  C  C50  1  0.555700  0.393800  0.734620  1.0  0.2561
  C  C51  1  0.388500  0.244500  0.762100  1.0  0.2601
  C  C52  1  0.334600  0.890400  0.956200  1.0  0.2418
  C  C53  1  0.767500  0.347900  0.877300  1.0  -0.5239
  C  C54  1  0.738900  0.498300  0.880500  1.0  0.7591
  C  C55  1  0.167300  0.235100  0.563500  1.0  0.2656
  C  C56  1  0.169300  0.745500  0.585200  1.0  0.2377
  C  C57  1  0.321300  0.858800  0.529700  1.0  0.2833
  C  C58  1  0.555700  0.893800  0.765380  1.0  0.2558
  C  C59  1  0.388500  0.744500  0.737900  1.0  0.26
  C  C60  1  0.334600  0.390400  0.543800  1.0  0.2422
  C  C61  1  0.767500  0.847900  0.622700  1.0  -0.5244
  C  C62  1  0.738900  0.998300  0.619500  1.0  0.7596
  C  C63  1  0.832700  0.264900  0.063500  1.0  0.2648
  C  C64  1  0.830700  0.754500  0.085200  1.0  0.2379
  C  C65  1  0.678700  0.641200  0.029700  1.0  0.2813
  C  C66  1  0.444300  0.606200  0.265380  1.0  0.257
  C  C67  1  0.611500  0.755500  0.237900  1.0  0.2612
  C  C68  1  0.665400  0.109600  0.043800  1.0  0.2421
  C  C69  1  0.232500  0.652100  0.122700  1.0  -0.522
  C  C70  1  0.261100  0.501700  0.119500  1.0  0.7587
  N  N71  1  0.553800  0.130000  0.276760  1.0  -0.4726
  N  N72  1  0.728900  0.147400  0.413990  1.0  -0.4345
  N  N73  1  0.818400  0.642000  0.462290  1.0  -0.433
  N  N74  1  0.843400  0.313100  0.467990  1.0  -0.2234
  N  N75  1  0.698300  0.807400  0.415060  1.0  -0.2967
  N  N76  1  0.587600  0.706300  0.428350  1.0  -0.2649
  N  N77  1  0.434000  0.207200  0.196500  1.0  -0.2456
  N  N78  1  0.744200  0.238900  0.504450  1.0  -0.2493
  N  N79  1  0.544900  0.305400  0.213920  1.0  -0.2942
  N  N80  1  0.446200  0.370000  0.776760  1.0  -0.472
  N  N81  1  0.271100  0.352600  0.913990  1.0  -0.4355
  N  N82  1  0.181600  0.858000  0.962290  1.0  -0.4359
  N  N83  1  0.156600  0.186900  0.967990  1.0  -0.2236
  N  N84  1  0.301700  0.692600  0.915060  1.0  -0.298
  N  N85  1  0.412400  0.793700  0.928350  1.0  -0.2663
  N  N86  1  0.566000  0.292800  0.696500  1.0  -0.2469
  N  N87  1  0.255800  0.261100  0.004450  1.0  -0.2487
  N  N88  1  0.455100  0.194600  0.713920  1.0  -0.2939
  N  N89  1  0.446200  0.870000  0.723240  1.0  -0.4716
  N  N90  1  0.271100  0.852600  0.586010  1.0  -0.4371
  N  N91  1  0.181600  0.358000  0.537710  1.0  -0.4361
  N  N92  1  0.156600  0.686900  0.532010  1.0  -0.2234
  N  N93  1  0.301700  0.192600  0.584940  1.0  -0.2986
  N  N94  1  0.412400  0.293700  0.571650  1.0  -0.2658
  N  N95  1  0.566000  0.792800  0.803500  1.0  -0.2457
  N  N96  1  0.255800  0.761100  0.495550  1.0  -0.248
  N  N97  1  0.455100  0.694600  0.786080  1.0  -0.2931
  N  N98  1  0.553800  0.630000  0.223240  1.0  -0.4729
  N  N99  1  0.728900  0.647400  0.086010  1.0  -0.4351
  N  N100  1  0.818400  0.142000  0.037710  1.0  -0.4342
  N  N101  1  0.843400  0.813100  0.032010  1.0  -0.2233
  N  N102  1  0.698300  0.307400  0.084940  1.0  -0.2972
  N  N103  1  0.587600  0.206300  0.071650  1.0  -0.2648
  N  N104  1  0.434000  0.707200  0.303500  1.0  -0.2457
  N  N105  1  0.744200  0.738900  0.995550  1.0  -0.2482
  N  N106  1  0.544900  0.805400  0.286080  1.0  -0.2933
  Cl  Cl107  1  0.159040  0.508570  0.392200  1.0  -0.545
  Cl  Cl108  1  0.840960  0.991430  0.892200  1.0  -0.5451
  Cl  Cl109  1  0.840960  0.491430  0.607800  1.0  -0.5451
  Cl  Cl110  1  0.159040  0.008570  0.107800  1.0  -0.5446
  O  O111  1  0.154200  0.915300  0.368410  1.0  -0.6325
  O  O112  1  0.395400  0.964700  0.396890  1.0  -0.6816
  O  O113  1  0.845800  0.584700  0.868410  1.0  -0.6331
  O  O114  1  0.604600  0.535300  0.896890  1.0  -0.682
  O  O115  1  0.845800  0.084700  0.631590  1.0  -0.6336
  O  O116  1  0.604600  0.035300  0.603110  1.0  -0.6809
  O  O117  1  0.154200  0.415300  0.131590  1.0  -0.6319
  O  O118  1  0.395400  0.464700  0.103110  1.0  -0.6808
