# generated using pymatgen
data_ZnH20C26(NO)6
_symmetry_space_group_name_H-M   'P 1'
_cell_length_a   10.44050000
_cell_length_b   13.39260000
_cell_length_c   20.45400000
_cell_angle_alpha   90.00000000
_cell_angle_beta   90.00000000
_cell_angle_gamma   94.42500000
_symmetry_Int_Tables_number   1
_chemical_formula_structural   ZnH20C26(NO)6
_chemical_formula_sum   'Zn4 H80 C104 N24 O24'
_cell_volume   2851.46444848
_cell_formula_units_Z   4
loop_
 _symmetry_equiv_pos_site_id
 _symmetry_equiv_pos_as_xyz
  1  'x, y, z'
loop_
 _atom_site_type_symbol
 _atom_site_label
 _atom_site_symmetry_multiplicity
 _atom_site_fract_x
 _atom_site_fract_y
 _atom_site_fract_z
 _atom_site_occupancy
 _atom_site_charge
  Zn  Zn1  1  0.253410  0.562730  0.103100  1.0  0.9634
  Zn  Zn2  1  0.753410  0.062730  0.396900  1.0  0.9641
  Zn  Zn3  1  0.246590  0.937270  0.603100  1.0  0.9634
  Zn  Zn4  1  0.746590  0.437270  0.896900  1.0  0.9639
  H  H5  1  0.707400  0.655000  0.691100  1.0  0.106
  H  H6  1  0.623600  0.063800  0.143200  1.0  0.1303
  H  H7  1  0.413200  0.532800  0.547500  1.0  0.0797
  H  H8  1  0.811500  0.221500  0.000300  1.0  0.1136
  H  H9  1  0.586800  0.467200  0.452500  1.0  0.0787
  H  H10  1  0.528700  0.271700  0.948500  1.0  0.1001
  H  H11  1  0.311500  0.721500  0.499700  1.0  0.1136
  H  H12  1  0.797200  0.658000  0.297900  1.0  0.1058
  H  H13  1  0.456100  0.267500  0.158000  1.0  0.1088
  H  H14  1  0.243000  0.852400  0.781100  1.0  0.0829
  H  H15  1  0.757000  0.147600  0.218900  1.0  0.0829
  H  H16  1  0.792600  0.845000  0.191100  1.0  0.1067
  H  H17  1  0.971300  0.228300  0.448500  1.0  0.1002
  H  H18  1  0.860500  0.918800  0.865100  1.0  0.1077
  H  H19  1  0.084200  0.734500  0.813300  1.0  0.1248
  H  H20  1  0.188500  0.778500  0.999700  1.0  0.1133
  H  H21  1  0.257000  0.647600  0.281100  1.0  0.0831
  H  H22  1  0.915800  0.265500  0.186700  1.0  0.1256
  H  H23  1  0.950800  0.608900  0.846900  1.0  0.0943
  H  H24  1  0.934200  0.749700  0.137200  1.0  0.0975
  H  H25  1  0.360500  0.418800  0.634900  1.0  0.1085
  H  H26  1  0.515000  0.179800  0.472000  1.0  0.0881
  H  H27  1  0.297200  0.158000  0.202100  1.0  0.1056
  H  H28  1  0.477000  0.538100  0.436500  1.0  0.0698
  H  H29  1  0.471700  0.039600  0.062600  1.0  0.0706
  H  H30  1  0.528000  0.429600  0.108100  1.0  0.0862
  H  H31  1  0.523000  0.461900  0.563500  1.0  0.0698
  H  H32  1  0.584200  0.234500  0.686700  1.0  0.1249
  H  H33  1  0.049200  0.391100  0.153100  1.0  0.0937
  H  H34  1  0.202800  0.342000  0.702100  1.0  0.1054
  H  H35  1  0.376400  0.936200  0.856800  1.0  0.1302
  H  H36  1  0.298400  0.227400  0.980800  1.0  0.1139
  H  H37  1  0.971700  0.539600  0.437400  1.0  0.0702
  H  H38  1  0.570800  0.958000  0.051400  1.0  0.0852
  H  H39  1  0.565800  0.750300  0.637200  1.0  0.0981
  H  H40  1  0.015000  0.679800  0.028000  1.0  0.0887
  H  H41  1  0.087500  0.996400  0.280600  1.0  0.101
  H  H42  1  0.587500  0.496400  0.219400  1.0  0.101
  H  H43  1  0.270000  0.596500  0.724600  1.0  0.108
  H  H44  1  0.028000  0.929600  0.391900  1.0  0.086
  H  H45  1  0.471300  0.728300  0.051500  1.0  0.1006
  H  H46  1  0.977000  0.038100  0.063500  1.0  0.0695
  H  H47  1  0.429200  0.042000  0.948600  1.0  0.0843
  H  H48  1  0.434200  0.249700  0.362800  1.0  0.0975
  H  H49  1  0.412500  0.503600  0.780600  1.0  0.1013
  H  H50  1  0.086800  0.967200  0.047500  1.0  0.0794
  H  H51  1  0.730000  0.403500  0.275400  1.0  0.1082
  H  H52  1  0.972000  0.070400  0.608100  1.0  0.0867
  H  H53  1  0.543900  0.732500  0.842000  1.0  0.1087
  H  H54  1  0.688500  0.278500  0.500300  1.0  0.1137
  H  H55  1  0.207400  0.155000  0.808900  1.0  0.1056
  H  H56  1  0.956100  0.767500  0.342000  1.0  0.1088
  H  H57  1  0.913200  0.032800  0.952500  1.0  0.0797
  H  H58  1  0.201600  0.272600  0.480800  1.0  0.1138
  H  H59  1  0.065800  0.250300  0.862800  1.0  0.098
  H  H60  1  0.798400  0.727400  0.519200  1.0  0.1137
  H  H61  1  0.415800  0.765500  0.313300  1.0  0.125
  H  H62  1  0.770000  0.096500  0.775400  1.0  0.1077
  H  H63  1  0.028700  0.771700  0.551500  1.0  0.1011
  H  H64  1  0.139500  0.081200  0.134900  1.0  0.1088
  H  H65  1  0.701600  0.772600  0.019200  1.0  0.1138
  H  H66  1  0.485000  0.820200  0.528000  1.0  0.089
  H  H67  1  0.028300  0.460400  0.562600  1.0  0.0709
  H  H68  1  0.549200  0.891100  0.346900  1.0  0.0942
  H  H69  1  0.292600  0.345000  0.308900  1.0  0.106
  H  H70  1  0.472000  0.570400  0.891900  1.0  0.0859
  H  H71  1  0.912500  0.003600  0.719400  1.0  0.1011
  H  H72  1  0.528300  0.960400  0.937400  1.0  0.0703
  H  H73  1  0.639500  0.581200  0.365100  1.0  0.1077
  H  H74  1  0.070800  0.458000  0.448600  1.0  0.0844
  H  H75  1  0.929200  0.542000  0.551400  1.0  0.0839
  H  H76  1  0.123600  0.563800  0.356800  1.0  0.1296
  H  H77  1  0.023000  0.961900  0.936500  1.0  0.0697
  H  H78  1  0.043900  0.232500  0.658000  1.0  0.1087
  H  H79  1  0.985000  0.320200  0.972000  1.0  0.0887
  H  H80  1  0.450800  0.108900  0.653100  1.0  0.0941
  H  H81  1  0.230000  0.903500  0.224600  1.0  0.108
  H  H82  1  0.743000  0.352400  0.718900  1.0  0.0827
  H  H83  1  0.702800  0.842000  0.797900  1.0  0.1061
  H  H84  1  0.876400  0.436200  0.643200  1.0  0.1301
  C  C85  1  0.034700  0.201400  0.833310  1.0  -0.0465
  C  C86  1  0.795000  0.365790  0.564430  1.0  0.2571
  C  C87  1  0.358000  0.610080  0.719050  1.0  -0.0741
  C  C88  1  0.032500  0.514700  0.468070  1.0  0.0849
  C  C89  1  0.607500  0.763200  0.868610  1.0  -0.1616
  C  C90  1  0.951500  0.093000  0.566650  1.0  0.1765
  C  C91  1  0.858000  0.110080  0.780950  1.0  -0.0756
  C  C92  1  0.137100  0.767500  0.844350  1.0  -0.1647
  C  C93  1  0.536000  0.518570  0.470030  1.0  0.0784
  C  C94  1  0.443700  0.553870  0.752080  1.0  -0.0571
  C  C95  1  0.168000  0.023000  0.714150  1.0  0.6406
  C  C96  1  0.574300  0.571570  0.743220  1.0  -0.1519
  C  C97  1  0.142000  0.889920  0.219050  1.0  -0.076
  C  C98  1  0.684900  0.244600  0.351980  1.0  0.6916
  C  C99  1  0.637100  0.267500  0.655650  1.0  -0.165
  C  C100  1  0.879000  0.253850  0.090840  1.0  0.1079
  C  C101  1  0.315100  0.755400  0.648020  1.0  0.6912
  C  C102  1  0.965300  0.798600  0.166690  1.0  -0.0462
  C  C103  1  0.108300  0.244060  0.565710  1.0  0.143
  C  C104  1  0.425700  0.428430  0.256780  1.0  -0.1514
  C  C105  1  0.951700  0.179560  0.480040  1.0  0.1441
  C  C106  1  0.892500  0.736800  0.368610  1.0  -0.1587
  C  C107  1  0.556300  0.446130  0.247920  1.0  -0.0572
  C  C108  1  0.056300  0.946130  0.252080  1.0  -0.0588
  C  C109  1  0.202000  0.328600  0.657490  1.0  -0.0912
  C  C110  1  0.298600  0.212020  0.025120  1.0  -0.1896
  C  C111  1  0.608300  0.744060  0.934290  1.0  0.1434
  C  C112  1  0.945900  0.610900  0.892300  1.0  0.1482
  C  C113  1  0.019600  0.350800  0.009500  1.0  0.1801
  C  C114  1  0.832000  0.977000  0.285850  1.0  0.6391
  C  C115  1  0.119700  0.144500  0.800990  1.0  -0.0737
  C  C116  1  0.465300  0.298600  0.333333  1.0  -0.0524
  C  C117  1  0.699300  0.293980  0.544350  1.0  -0.1601
  C  C118  1  0.107500  0.263200  0.631390  1.0  -0.1616
  C  C119  1  0.267800  0.662000  0.325360  1.0  -0.0903
  C  C120  1  0.534700  0.701400  0.666667  1.0  -0.0525
  C  C121  1  0.767800  0.162000  0.174640  1.0  -0.0907
  C  C122  1  0.980400  0.649200  0.990500  1.0  0.1804
  C  C123  1  0.300700  0.706020  0.455650  1.0  -0.1614
  C  C124  1  0.451500  0.593000  0.933350  1.0  0.1751
  C  C125  1  0.184900  0.744600  0.148020  1.0  0.6914
  C  C126  1  0.796400  0.874800  0.882860  1.0  -0.2135
  C  C127  1  0.467500  0.985300  0.968070  1.0  0.0834
  C  C128  1  0.702000  0.828600  0.842510  1.0  -0.0896
  C  C129  1  0.298000  0.171400  0.157490  1.0  -0.0889
  C  C130  1  0.404500  0.686690  0.677590  1.0  -0.1468
  C  C131  1  0.362900  0.732500  0.344350  1.0  -0.1643
  C  C132  1  0.451700  0.679560  0.019960  1.0  0.1438
  C  C133  1  0.445900  0.110900  0.607700  1.0  0.1489
  C  C134  1  0.705000  0.644300  0.448560  1.0  0.2888
  C  C135  1  0.548500  0.407000  0.066650  1.0  0.1747
  C  C136  1  0.205000  0.634210  0.435570  1.0  0.2637
  C  C137  1  0.232200  0.838000  0.825360  1.0  -0.0906
  C  C138  1  0.668000  0.523000  0.785850  1.0  0.6407
  C  C139  1  0.203600  0.125200  0.117140  1.0  -0.2138
  C  C140  1  0.296400  0.374800  0.617140  1.0  -0.2131
  C  C141  1  0.464000  0.481430  0.529970  1.0  0.0758
  C  C142  1  0.312500  0.888400  0.870300  1.0  -0.2788
  C  C143  1  0.532500  0.014700  0.031930  1.0  0.0828
  C  C144  1  0.391700  0.255940  0.065710  1.0  0.1429
  C  C145  1  0.187500  0.611600  0.370300  1.0  -0.2789
  C  C146  1  0.798600  0.712020  0.474880  1.0  -0.192
  C  C147  1  0.095500  0.813310  0.177590  1.0  -0.1472
  C  C148  1  0.701400  0.787980  0.974880  1.0  -0.19
  C  C149  1  0.295000  0.355700  0.551440  1.0  0.2906
  C  C150  1  0.048300  0.820440  0.519960  1.0  0.1448
  C  C151  1  0.812500  0.388400  0.629700  1.0  -0.2783
  C  C152  1  0.595500  0.313310  0.322410  1.0  -0.1476
  C  C153  1  0.054100  0.389100  0.107700  1.0  0.1485
  C  C154  1  0.904500  0.186690  0.822410  1.0  -0.1469
  C  C155  1  0.392500  0.236800  0.131390  1.0  -0.1576
  C  C156  1  0.732200  0.338000  0.674640  1.0  -0.0905
  C  C157  1  0.862900  0.232500  0.155650  1.0  -0.1642
  C  C158  1  0.201400  0.287980  0.525120  1.0  -0.188
  C  C159  1  0.880300  0.855500  0.199010  1.0  -0.0715
  C  C160  1  0.703600  0.625200  0.382860  1.0  -0.2128
  C  C161  1  0.380300  0.355500  0.300990  1.0  -0.0758
  C  C162  1  0.295000  0.865790  0.935570  1.0  0.2636
  C  C163  1  0.121000  0.746150  0.909160  1.0  0.107
  C  C164  1  0.199300  0.793980  0.955650  1.0  -0.1615
  C  C165  1  0.619700  0.644500  0.699010  1.0  -0.075
  C  C166  1  0.642000  0.389920  0.280950  1.0  -0.0756
  C  C167  1  0.548300  0.320440  0.980040  1.0  0.145
  C  C168  1  0.964000  0.981430  0.970030  1.0  0.0778
  C  C169  1  0.891700  0.755940  0.434290  1.0  0.1431
  C  C170  1  0.048500  0.907000  0.433350  1.0  0.175
  C  C171  1  0.332000  0.477000  0.214150  1.0  0.6413
  C  C172  1  0.480400  0.149200  0.509500  1.0  0.18
  C  C173  1  0.795000  0.855700  0.948560  1.0  0.2892
  C  C174  1  0.621000  0.246150  0.590840  1.0  0.1081
  C  C175  1  0.074300  0.071570  0.756780  1.0  -0.1519
  C  C176  1  0.705000  0.134210  0.064430  1.0  0.2645
  C  C177  1  0.798000  0.671400  0.342510  1.0  -0.0901
  C  C178  1  0.800700  0.206020  0.044350  1.0  -0.1598
  C  C179  1  0.379000  0.753850  0.409160  1.0  0.1075
  C  C180  1  0.687500  0.111600  0.129700  1.0  -0.2788
  C  C181  1  0.554100  0.889100  0.392300  1.0  0.1491
  C  C182  1  0.205000  0.144300  0.051440  1.0  0.2896
  C  C183  1  0.943700  0.053870  0.747920  1.0  -0.0562
  C  C184  1  0.967500  0.485300  0.531930  1.0  0.083
  C  C185  1  0.815100  0.255400  0.851980  1.0  0.6914
  C  C186  1  0.519600  0.850800  0.490500  1.0  0.1803
  C  C187  1  0.036000  0.018570  0.029970  1.0  0.0762
  C  C188  1  0.925700  0.928430  0.243220  1.0  -0.1511
  N  N189  1  0.134300  0.445480  0.073540  1.0  -0.2366
  N  N190  1  0.364600  0.548950  0.970440  1.0  -0.2857
  N  N191  1  0.135900  0.894510  0.526440  1.0  -0.2268
  N  N192  1  0.990500  0.824010  0.461720  1.0  0.0084
  N  N193  1  0.009500  0.175990  0.538280  1.0  0.0082
  N  N194  1  0.135400  0.951050  0.470440  1.0  -0.2866
  N  N195  1  0.521000  0.172560  0.570330  1.0  -0.0007
  N  N196  1  0.886900  0.578510  0.991080  1.0  -0.3202
  N  N197  1  0.635900  0.394510  0.973560  1.0  -0.2259
  N  N198  1  0.979000  0.327440  0.070330  1.0  -0.0018
  N  N199  1  0.509500  0.675990  0.961720  1.0  0.0079
  N  N200  1  0.864100  0.105490  0.473560  1.0  -0.2278
  N  N201  1  0.865700  0.554520  0.926460  1.0  -0.2359
  N  N202  1  0.490500  0.324010  0.038280  1.0  0.0084
  N  N203  1  0.634300  0.945480  0.426460  1.0  -0.2364
  N  N204  1  0.386900  0.078510  0.508920  1.0  -0.3209
  N  N205  1  0.864600  0.048950  0.529560  1.0  -0.2858
  N  N206  1  0.113100  0.421490  0.008920  1.0  -0.3233
  N  N207  1  0.479000  0.827440  0.429670  1.0  -0.0018
  N  N208  1  0.613100  0.921490  0.491080  1.0  -0.3233
  N  N209  1  0.364100  0.605490  0.026440  1.0  -0.2276
  N  N210  1  0.635400  0.451050  0.029560  1.0  -0.2876
  N  N211  1  0.365700  0.054520  0.573540  1.0  -0.2357
  N  N212  1  0.021000  0.672560  0.929670  1.0  -0.0006
  O  O213  1  0.617030  0.603150  0.491750  1.0  -0.2716
  O  O214  1  0.301500  0.765560  0.146720  1.0  -0.5524
  O  O215  1  0.784030  0.534570  0.776050  1.0  -0.5932
  O  O216  1  0.629850  0.092210  0.014600  1.0  -0.2889
  O  O217  1  0.715970  0.965430  0.276050  1.0  -0.5931
  O  O218  1  0.133880  0.661180  0.126630  1.0  -0.5952
  O  O219  1  0.370150  0.907790  0.985400  1.0  -0.2895
  O  O220  1  0.198500  0.734440  0.646720  1.0  -0.5538
  O  O221  1  0.382970  0.396850  0.508250  1.0  -0.2706
  O  O222  1  0.215970  0.465430  0.223950  1.0  -0.5929
  O  O223  1  0.870150  0.407790  0.514600  1.0  -0.2897
  O  O224  1  0.882970  0.896850  0.991750  1.0  -0.2719
  O  O225  1  0.129850  0.592210  0.485400  1.0  -0.2889
  O  O226  1  0.866120  0.338820  0.873370  1.0  -0.5975
  O  O227  1  0.698500  0.234440  0.853280  1.0  -0.5542
  O  O228  1  0.882150  0.029520  0.333333  1.0  -0.612
  O  O229  1  0.617850  0.470480  0.833350  1.0  -0.6116
  O  O230  1  0.633880  0.161180  0.373370  1.0  -0.5961
  O  O231  1  0.117030  0.103150  0.008250  1.0  -0.2693
  O  O232  1  0.801500  0.265560  0.353280  1.0  -0.5526
  O  O233  1  0.382150  0.529520  0.166650  1.0  -0.6118
  O  O234  1  0.284030  0.034570  0.723950  1.0  -0.5933
  O  O235  1  0.366120  0.838820  0.626630  1.0  -0.5969
  O  O236  1  0.117850  0.970480  0.666667  1.0  -0.6128
