# generated using pymatgen
data_CuH2C6SO4
_symmetry_space_group_name_H-M   'P 1'
_cell_length_a   18.64340000
_cell_length_b   18.64340000
_cell_length_c   18.64340000
_cell_angle_alpha   60.00000000
_cell_angle_beta   60.00000000
_cell_angle_gamma   60.00000000
_symmetry_Int_Tables_number   1
_chemical_formula_structural   CuH2C6SO4
_chemical_formula_sum   'Cu12 H24 C72 S12 O48'
_cell_volume   4582.05560235
_cell_formula_units_Z   12
loop_
 _symmetry_equiv_pos_site_id
 _symmetry_equiv_pos_as_xyz
  1  'x, y, z'
loop_
 _atom_site_type_symbol
 _atom_site_label
 _atom_site_symmetry_multiplicity
 _atom_site_fract_x
 _atom_site_fract_y
 _atom_site_fract_z
 _atom_site_occupancy
 _atom_site_charge
  Cu  Cu1  1  0.569820  0.000000  0.430180  1.0  0.8559
  Cu  Cu2  1  0.430180  0.000000  0.000000  1.0  0.8588
  Cu  Cu3  1  0.569820  0.430180  0.000000  1.0  0.8555
  Cu  Cu4  1  0.000000  0.430180  0.000000  1.0  0.8548
  Cu  Cu5  1  0.000000  0.569820  0.000000  1.0  0.8558
  Cu  Cu6  1  0.569820  0.000000  0.000000  1.0  0.856
  Cu  Cu7  1  0.430180  0.000000  0.569820  1.0  0.8593
  Cu  Cu8  1  0.000000  0.000000  0.569820  1.0  0.8509
  Cu  Cu9  1  0.000000  0.569820  0.430180  1.0  0.8562
  Cu  Cu10  1  0.000000  0.000000  0.430180  1.0  0.8496
  Cu  Cu11  1  0.430180  0.569820  0.000000  1.0  0.8575
  Cu  Cu12  1  0.000000  0.430180  0.569820  1.0  0.8546
  H  H13  1  0.270200  0.973800  0.270200  1.0  0.1283
  H  H14  1  0.729800  0.514200  0.026200  1.0  0.1297
  H  H15  1  0.514200  0.729800  0.729800  1.0  0.1283
  H  H16  1  0.729800  0.514200  0.729800  1.0  0.1295
  H  H17  1  0.729800  0.026200  0.729800  1.0  0.1284
  H  H18  1  0.270200  0.270200  0.973800  1.0  0.1279
  H  H19  1  0.973800  0.270200  0.270200  1.0  0.1281
  H  H20  1  0.026200  0.729800  0.729800  1.0  0.1287
  H  H21  1  0.270200  0.485800  0.973800  1.0  0.1296
  H  H22  1  0.729800  0.026200  0.514200  1.0  0.1284
  H  H23  1  0.973800  0.270200  0.485800  1.0  0.1283
  H  H24  1  0.485800  0.973800  0.270200  1.0  0.1282
  H  H25  1  0.270200  0.270200  0.485800  1.0  0.1282
  H  H26  1  0.485800  0.270200  0.973800  1.0  0.128
  H  H27  1  0.026200  0.729800  0.514200  1.0  0.1285
  H  H28  1  0.973800  0.485800  0.270200  1.0  0.1292
  H  H29  1  0.270200  0.485800  0.270200  1.0  0.1296
  H  H30  1  0.026200  0.514200  0.729800  1.0  0.1297
  H  H31  1  0.485800  0.270200  0.270200  1.0  0.1281
  H  H32  1  0.729800  0.729800  0.026200  1.0  0.1283
  H  H33  1  0.729800  0.729800  0.514200  1.0  0.1283
  H  H34  1  0.514200  0.729800  0.026200  1.0  0.1285
  H  H35  1  0.514200  0.026200  0.729800  1.0  0.1286
  H  H36  1  0.270200  0.973800  0.485800  1.0  0.1284
  C  C37  1  0.029100  0.614100  0.614100  1.0  -0.1426
  C  C38  1  0.571200  0.700400  0.028000  1.0  0.0415
  C  C39  1  0.385900  0.970900  0.257300  1.0  -0.1424
  C  C40  1  0.428800  0.299600  0.299600  1.0  0.0423
  C  C41  1  0.614100  0.029100  0.742700  1.0  -0.1432
  C  C42  1  0.028000  0.700400  0.700400  1.0  0.042
  C  C43  1  0.430800  0.161000  0.430800  1.0  0.6879
  C  C44  1  0.742700  0.029100  0.614100  1.0  -0.1424
  C  C45  1  0.029100  0.742700  0.614100  1.0  -0.1428
  C  C46  1  0.700400  0.028000  0.700400  1.0  0.0415
  C  C47  1  0.430800  0.977400  0.430800  1.0  0.6882
  C  C48  1  0.569200  0.569200  0.839000  1.0  0.6868
  C  C49  1  0.569200  0.022600  0.569200  1.0  0.6878
  C  C50  1  0.385900  0.257300  0.970900  1.0  -0.1429
  C  C51  1  0.700400  0.700400  0.571200  1.0  0.0411
  C  C52  1  0.977400  0.161000  0.430800  1.0  0.6889
  C  C53  1  0.977400  0.430800  0.430800  1.0  0.6884
  C  C54  1  0.569200  0.022600  0.839000  1.0  0.6877
  C  C55  1  0.569200  0.839000  0.022600  1.0  0.6885
  C  C56  1  0.299600  0.972000  0.428800  1.0  0.041
  C  C57  1  0.839000  0.022600  0.569200  1.0  0.6879
  C  C58  1  0.257300  0.970900  0.385900  1.0  -0.1428
  C  C59  1  0.569200  0.839000  0.569200  1.0  0.6881
  C  C60  1  0.161000  0.977400  0.430800  1.0  0.6882
  C  C61  1  0.299600  0.972000  0.299600  1.0  0.0404
  C  C62  1  0.972000  0.299600  0.428800  1.0  0.042
  C  C63  1  0.022600  0.569200  0.839000  1.0  0.6887
  C  C64  1  0.161000  0.430800  0.430800  1.0  0.688
  C  C65  1  0.700400  0.571200  0.700400  1.0  0.0435
  C  C66  1  0.385900  0.385900  0.257300  1.0  -0.143
  C  C67  1  0.700400  0.700400  0.028000  1.0  0.0419
  C  C68  1  0.022600  0.569200  0.569200  1.0  0.6886
  C  C69  1  0.614100  0.742700  0.029100  1.0  -0.1432
  C  C70  1  0.028000  0.700400  0.571200  1.0  0.041
  C  C71  1  0.428800  0.972000  0.299600  1.0  0.0412
  C  C72  1  0.257300  0.385900  0.970900  1.0  -0.1434
  C  C73  1  0.742700  0.614100  0.029100  1.0  -0.1433
  C  C74  1  0.385900  0.385900  0.970900  1.0  -0.143
  C  C75  1  0.970900  0.385900  0.257300  1.0  -0.1431
  C  C76  1  0.430800  0.977400  0.161000  1.0  0.6883
  C  C77  1  0.299600  0.299600  0.972000  1.0  0.0412
  C  C78  1  0.385900  0.970900  0.385900  1.0  -0.1422
  C  C79  1  0.977400  0.430800  0.161000  1.0  0.6885
  C  C80  1  0.972000  0.428800  0.299600  1.0  0.0432
  C  C81  1  0.029100  0.614100  0.742700  1.0  -0.143
  C  C82  1  0.614100  0.742700  0.614100  1.0  -0.1428
  C  C83  1  0.385900  0.257300  0.385900  1.0  -0.1432
  C  C84  1  0.428800  0.299600  0.972000  1.0  0.0425
  C  C85  1  0.742700  0.614100  0.614100  1.0  -0.1429
  C  C86  1  0.614100  0.029100  0.614100  1.0  -0.1426
  C  C87  1  0.028000  0.571200  0.700400  1.0  0.0431
  C  C88  1  0.430800  0.430800  0.161000  1.0  0.6877
  C  C89  1  0.700400  0.028000  0.571200  1.0  0.0403
  C  C90  1  0.161000  0.430800  0.977400  1.0  0.6877
  C  C91  1  0.839000  0.569200  0.022600  1.0  0.6879
  C  C92  1  0.970900  0.257300  0.385900  1.0  -0.1432
  C  C93  1  0.571200  0.028000  0.700400  1.0  0.0403
  C  C94  1  0.299600  0.428800  0.972000  1.0  0.0422
  C  C95  1  0.700400  0.571200  0.028000  1.0  0.0435
  C  C96  1  0.299600  0.299600  0.428800  1.0  0.0426
  C  C97  1  0.430800  0.161000  0.977400  1.0  0.6876
  C  C98  1  0.839000  0.569200  0.569200  1.0  0.6876
  C  C99  1  0.614100  0.614100  0.029100  1.0  -0.1435
  C  C100  1  0.257300  0.385900  0.385900  1.0  -0.144
  C  C101  1  0.299600  0.428800  0.299600  1.0  0.0422
  C  C102  1  0.022600  0.839000  0.569200  1.0  0.6888
  C  C103  1  0.970900  0.385900  0.385900  1.0  -0.1435
  C  C104  1  0.571200  0.700400  0.700400  1.0  0.0415
  C  C105  1  0.614100  0.614100  0.742700  1.0  -0.1435
  C  C106  1  0.569200  0.569200  0.022600  1.0  0.6874
  C  C107  1  0.430800  0.430800  0.977400  1.0  0.6873
  C  C108  1  0.972000  0.299600  0.299600  1.0  0.0411
  S  S109  1  0.000000  0.000000  0.308200  1.0  -0.1401
  S  S110  1  0.691800  0.308200  0.000000  1.0  -0.1382
  S  S111  1  0.000000  0.691800  0.000000  1.0  -0.1382
  S  S112  1  0.691800  0.000000  0.000000  1.0  -0.1383
  S  S113  1  0.308200  0.000000  0.691800  1.0  -0.1381
  S  S114  1  0.000000  0.691800  0.308200  1.0  -0.1367
  S  S115  1  0.691800  0.000000  0.308200  1.0  -0.1364
  S  S116  1  0.000000  0.308200  0.691800  1.0  -0.1409
  S  S117  1  0.000000  0.000000  0.691800  1.0  -0.1405
  S  S118  1  0.308200  0.691800  0.000000  1.0  -0.1372
  S  S119  1  0.000000  0.308200  0.000000  1.0  -0.1391
  S  S120  1  0.308200  0.000000  0.000000  1.0  -0.1364
  O  O121  1  0.612880  0.874200  0.020700  1.0  -0.5362
  O  O122  1  0.612880  0.492220  0.874200  1.0  -0.5375
  O  O123  1  0.874200  0.020700  0.612880  1.0  -0.537
  O  O124  1  0.507780  0.387120  0.979300  1.0  -0.5372
  O  O125  1  0.979300  0.387120  0.507780  1.0  -0.5378
  O  O126  1  0.492220  0.612880  0.020700  1.0  -0.5358
  O  O127  1  0.387120  0.979300  0.125800  1.0  -0.5374
  O  O128  1  0.507780  0.125800  0.979300  1.0  -0.5365
  O  O129  1  0.874200  0.492220  0.612880  1.0  -0.5377
  O  O130  1  0.492220  0.020700  0.874200  1.0  -0.5359
  O  O131  1  0.125800  0.979300  0.387120  1.0  -0.5381
  O  O132  1  0.874200  0.612880  0.020700  1.0  -0.5374
  O  O133  1  0.612880  0.020700  0.874200  1.0  -0.5363
  O  O134  1  0.507780  0.125800  0.387120  1.0  -0.5364
  O  O135  1  0.020700  0.492220  0.874200  1.0  -0.5382
  O  O136  1  0.979300  0.387120  0.125800  1.0  -0.5371
  O  O137  1  0.020700  0.612880  0.874200  1.0  -0.5365
  O  O138  1  0.979300  0.507780  0.387120  1.0  -0.538
  O  O139  1  0.874200  0.492220  0.020700  1.0  -0.5385
  O  O140  1  0.125800  0.507780  0.979300  1.0  -0.5371
  O  O141  1  0.492220  0.020700  0.612880  1.0  -0.5356
  O  O142  1  0.387120  0.507780  0.979300  1.0  -0.5374
  O  O143  1  0.125800  0.507780  0.387120  1.0  -0.537
  O  O144  1  0.020700  0.874200  0.492220  1.0  -0.5369
  O  O145  1  0.979300  0.125800  0.507780  1.0  -0.5364
  O  O146  1  0.874200  0.020700  0.492220  1.0  -0.5369
  O  O147  1  0.020700  0.612880  0.492220  1.0  -0.5358
  O  O148  1  0.387120  0.125800  0.979300  1.0  -0.5365
  O  O149  1  0.125800  0.979300  0.507780  1.0  -0.5379
  O  O150  1  0.020700  0.492220  0.612880  1.0  -0.5387
  O  O151  1  0.387120  0.979300  0.507780  1.0  -0.5376
  O  O152  1  0.507780  0.387120  0.125800  1.0  -0.536
  O  O153  1  0.387120  0.125800  0.507780  1.0  -0.536
  O  O154  1  0.979300  0.125800  0.387120  1.0  -0.5367
  O  O155  1  0.979300  0.507780  0.125800  1.0  -0.537
  O  O156  1  0.492220  0.612880  0.874200  1.0  -0.5369
  O  O157  1  0.492220  0.874200  0.612880  1.0  -0.5374
  O  O158  1  0.507780  0.979300  0.125800  1.0  -0.5363
  O  O159  1  0.612880  0.492220  0.020700  1.0  -0.5361
  O  O160  1  0.020700  0.874200  0.612880  1.0  -0.5367
  O  O161  1  0.387120  0.507780  0.125800  1.0  -0.5357
  O  O162  1  0.125800  0.387120  0.979300  1.0  -0.5379
  O  O163  1  0.612880  0.874200  0.492220  1.0  -0.5368
  O  O164  1  0.492220  0.874200  0.020700  1.0  -0.5378
  O  O165  1  0.125800  0.387120  0.507780  1.0  -0.5383
  O  O166  1  0.507780  0.979300  0.387120  1.0  -0.5368
  O  O167  1  0.874200  0.612880  0.492220  1.0  -0.538
  O  O168  1  0.612880  0.020700  0.492220  1.0  -0.5353
