# generated using pymatgen
data_Gd2H15C12(NO4)3
_symmetry_space_group_name_H-M   'P 1'
_cell_length_a   11.94500000
_cell_length_b   19.21630000
_cell_length_c   19.21630000
_cell_angle_alpha   84.45660000
_cell_angle_beta   71.89230000
_cell_angle_gamma   71.89240000
_symmetry_Int_Tables_number   1
_chemical_formula_structural   Gd2H15C12(NO4)3
_chemical_formula_sum   'Gd16 H120 C96 N24 O96'
_cell_volume   3984.79880653
_cell_formula_units_Z   8
loop_
 _symmetry_equiv_pos_site_id
 _symmetry_equiv_pos_as_xyz
  1  'x, y, z'
loop_
 _atom_site_type_symbol
 _atom_site_label
 _atom_site_symmetry_multiplicity
 _atom_site_fract_x
 _atom_site_fract_y
 _atom_site_fract_z
 _atom_site_occupancy
 _atom_site_charge
  Gd  Gd1  1  0.942030  0.105680  0.521120  1.0  2.1366
  Gd  Gd2  1  0.621240  0.701220  0.362880  1.0  2.1716
  Gd  Gd3  1  0.057970  0.894320  0.478880  1.0  2.1363
  Gd  Gd4  1  0.931170  0.605680  0.021120  1.0  2.1366
  Gd  Gd5  1  0.015880  0.362880  0.798780  1.0  2.1715
  Gd  Gd6  1  0.536850  0.521120  0.394320  1.0  2.1369
  Gd  Gd7  1  0.463150  0.478880  0.605680  1.0  2.137
  Gd  Gd8  1  0.185340  0.798780  0.137120  1.0  2.1713
  Gd  Gd9  1  0.677540  0.137120  0.701220  1.0  2.1709
  Gd  Gd10  1  0.322460  0.862880  0.298780  1.0  2.1718
  Gd  Gd11  1  0.378760  0.298780  0.637120  1.0  2.1714
  Gd  Gd12  1  0.068830  0.394320  0.978880  1.0  2.1365
  Gd  Gd13  1  0.814660  0.201220  0.862880  1.0  2.1711
  Gd  Gd14  1  0.952290  0.978880  0.105680  1.0  2.1367
  Gd  Gd15  1  0.984120  0.637120  0.201220  1.0  2.171
  Gd  Gd16  1  0.047710  0.021120  0.894320  1.0  2.1365
  H  H17  1  0.684300  0.217500  0.411300  1.0  0.1255
  H  H18  1  0.988400  0.822900  0.665100  1.0  0.1275
  H  H19  1  0.198000  0.530000  0.236000  1.0  0.2523
  H  H20  1  0.813100  0.282500  0.088700  1.0  0.1245
  H  H21  1  0.592900  0.553500  0.078100  1.0  0.0956
  H  H22  1  0.720900  0.902400  0.226600  1.0  0.1068
  H  H23  1  0.706400  0.642500  0.562500  1.0  0.1172
  H  H24  1  0.700200  0.449600  0.908000  1.0  0.1118
  H  H25  1  0.846700  0.561100  0.790100  1.0  0.1222
  H  H26  1  0.376700  0.273400  0.902400  1.0  0.1063
  H  H27  1  0.332000  0.362000  0.976000  1.0  0.2404
  H  H28  1  0.771400  0.352700  0.673700  1.0  0.1037
  H  H29  1  0.791100  0.857200  0.051200  1.0  0.1011
  H  H30  1  0.098200  0.088700  0.217500  1.0  0.1259
  H  H31  1  0.248100  0.655800  0.751000  1.0  0.0902
  H  H32  1  0.434000  0.764000  0.030000  1.0  0.2601
  H  H33  1  0.702200  0.852700  0.173700  1.0  0.1047
  H  H34  1  0.651100  0.937500  0.642500  1.0  0.1158
  H  H35  1  0.976400  0.677100  0.834900  1.0  0.1271
  H  H36  1  0.391800  0.908000  0.050400  1.0  0.1087
  H  H37  1  0.635700  0.464800  0.846000  1.0  0.1086
  H  H38  1  0.188700  0.834900  0.822900  1.0  0.127
  H  H39  1  0.268900  0.437500  0.142500  1.0  0.1142
  H  H40  1  0.004000  0.113000  0.139000  1.0  0.2718
  H  H41  1  0.697900  0.938900  0.709900  1.0  0.1237
  H  H42  1  0.802000  0.470000  0.764000  1.0  0.2529
  H  H43  1  0.349900  0.597600  0.273400  1.0  0.1074
  H  H44  1  0.011600  0.177100  0.334900  1.0  0.128
  H  H45  1  0.536000  0.030000  0.736000  1.0  0.2535
  H  H46  1  0.124100  0.173700  0.647300  1.0  0.104
  H  H47  1  0.653500  0.334900  0.322900  1.0  0.1276
  H  H48  1  0.875900  0.826300  0.352700  1.0  0.1041
  H  H49  1  0.153300  0.438900  0.209900  1.0  0.1228
  H  H50  1  0.407100  0.446500  0.921900  1.0  0.0961
  H  H51  1  0.096100  0.749000  0.655800  1.0  0.0914
  H  H52  1  0.481700  0.154000  0.964800  1.0  0.1011
  H  H53  1  0.275500  0.053500  0.578100  1.0  0.0937
  H  H54  1  0.146400  0.578100  0.446500  1.0  0.095
  H  H55  1  0.850200  0.592000  0.449600  1.0  0.1104
  H  H56  1  0.157700  0.051200  0.642800  1.0  0.0979
  H  H57  1  0.000900  0.751000  0.844200  1.0  0.0911
  H  H58  1  0.692000  0.976000  0.138000  1.0  0.2374
  H  H59  1  0.751900  0.344200  0.249000  1.0  0.0911
  H  H60  1  0.023600  0.322900  0.165100  1.0  0.1268
  H  H61  1  0.623300  0.726600  0.097600  1.0  0.1049
  H  H62  1  0.054800  0.773900  0.935300  1.0  0.0946
  H  H63  1  0.264000  0.726100  0.564700  1.0  0.0943
  H  H64  1  0.208900  0.142800  0.948800  1.0  0.101
  H  H65  1  0.244000  0.613000  0.639000  1.0  0.2738
  H  H66  1  0.518300  0.846000  0.035200  1.0  0.1029
  H  H67  1  0.308000  0.024000  0.862000  1.0  0.2357
  H  H68  1  0.154900  0.844200  0.749000  1.0  0.0926
  H  H69  1  0.999100  0.249000  0.155800  1.0  0.0906
  H  H70  1  0.636800  0.209900  0.061100  1.0  0.1222
  H  H71  1  0.553500  0.964800  0.346000  1.0  0.1092
  H  H72  1  0.904400  0.411300  0.282500  1.0  0.1243
  H  H73  1  0.842300  0.948800  0.357200  1.0  0.0992
  H  H74  1  0.736000  0.273900  0.435300  1.0  0.0945
  H  H75  1  0.228600  0.647300  0.326300  1.0  0.1056
  H  H76  1  0.095600  0.588700  0.717500  1.0  0.1253
  H  H77  1  0.199500  0.642800  0.448800  1.0  0.1013
  H  H78  1  0.363200  0.790100  0.938900  1.0  0.1217
  H  H79  1  0.186900  0.717500  0.911300  1.0  0.1241
  H  H80  1  0.329000  0.078100  0.946500  1.0  0.0955
  H  H81  1  0.364300  0.535200  0.154000  1.0  0.11
  H  H82  1  0.648300  0.551200  0.142800  1.0  0.0987
  H  H83  1  0.731100  0.562500  0.857500  1.0  0.114
  H  H84  1  0.442200  0.949600  0.408000  1.0  0.1104
  H  H85  1  0.554900  0.673700  0.147300  1.0  0.1056
  H  H86  1  0.800500  0.357200  0.551200  1.0  0.1019
  H  H87  1  0.671000  0.921900  0.053500  1.0  0.0964
  H  H88  1  0.756000  0.387000  0.361000  1.0  0.274
  H  H89  1  0.668000  0.638000  0.024000  1.0  0.237
  H  H90  1  0.830000  0.862000  0.476000  1.0  0.2374
  H  H91  1  0.853600  0.421900  0.553500  1.0  0.0924
  H  H92  1  0.279100  0.097600  0.773400  1.0  0.1072
  H  H93  1  0.828700  0.435300  0.226100  1.0  0.0946
  H  H94  1  0.117000  0.639000  0.887000  1.0  0.2728
  H  H95  1  0.272000  0.264000  0.530000  1.0  0.2585
  H  H96  1  0.899500  0.654000  0.464800  1.0  0.1107
  H  H97  1  0.293600  0.357500  0.437500  1.0  0.1171
  H  H98  1  0.411400  0.857500  0.937500  1.0  0.1156
  H  H99  1  0.143000  0.861000  0.613000  1.0  0.2722
  H  H100  1  0.724500  0.946500  0.421900  1.0  0.0975
  H  H101  1  0.694000  0.476000  0.638000  1.0  0.2371
  H  H102  1  0.348900  0.062500  0.357500  1.0  0.1138
  H  H103  1  0.346500  0.665100  0.677100  1.0  0.1285
  H  H104  1  0.299800  0.550400  0.092000  1.0  0.113
  H  H105  1  0.728000  0.736000  0.470000  1.0  0.2568
  H  H106  1  0.445100  0.326300  0.852700  1.0  0.1072
  H  H107  1  0.351700  0.448800  0.857200  1.0  0.099
  H  H108  1  0.464000  0.970000  0.264000  1.0  0.254
  H  H109  1  0.407800  0.290100  0.438900  1.0  0.1207
  H  H110  1  0.903900  0.251000  0.344200  1.0  0.0907
  H  H111  1  0.883000  0.361000  0.113000  1.0  0.2724
  H  H112  1  0.990100  0.064700  0.273900  1.0  0.0948
  H  H113  1  0.588600  0.142500  0.062500  1.0  0.1149
  H  H114  1  0.306000  0.524000  0.362000  1.0  0.2346
  H  H115  1  0.608200  0.092000  0.949600  1.0  0.1115
  H  H116  1  0.857000  0.139000  0.387000  1.0  0.2706
  H  H117  1  0.901800  0.911300  0.782500  1.0  0.1242
  H  H118  1  0.592200  0.709900  0.561100  1.0  0.123
  H  H119  1  0.171300  0.564700  0.773900  1.0  0.0954
  H  H120  1  0.566000  0.236000  0.970000  1.0  0.2591
  H  H121  1  0.557800  0.050400  0.592000  1.0  0.1112
  H  H122  1  0.170000  0.138000  0.524000  1.0  0.2368
  H  H123  1  0.315700  0.782500  0.588700  1.0  0.1251
  H  H124  1  0.996000  0.887000  0.861000  1.0  0.2714
  H  H125  1  0.811300  0.165100  0.177100  1.0  0.1269
  H  H126  1  0.149800  0.408000  0.550400  1.0  0.1087
  H  H127  1  0.845100  0.155800  0.251000  1.0  0.0921
  H  H128  1  0.446500  0.035200  0.654000  1.0  0.1082
  H  H129  1  0.100500  0.346000  0.535200  1.0  0.1115
  H  H130  1  0.945200  0.226100  0.064700  1.0  0.0958
  H  H131  1  0.650100  0.402400  0.726600  1.0  0.1072
  H  H132  1  0.947500  0.773400  0.402400  1.0  0.107
  H  H133  1  0.302100  0.061100  0.290100  1.0  0.1223
  H  H134  1  0.052500  0.226600  0.597600  1.0  0.1059
  H  H135  1  0.297800  0.147300  0.826300  1.0  0.105
  H  H136  1  0.009900  0.935300  0.726100  1.0  0.0944
  C  C137  1  0.732300  0.223900  0.441500  1.0  -0.1669
  C  C138  1  0.190400  0.053600  0.590000  1.0  -0.1378
  C  C139  1  0.585300  0.149600  0.856800  1.0  0.7263
  C  C140  1  0.809600  0.946400  0.410000  1.0  -0.1401
  C  C141  1  0.352200  0.832900  0.966100  1.0  -0.1774
  C  C142  1  0.102300  0.723900  0.941500  1.0  -0.1645
  C  C143  1  0.200400  0.024100  0.383300  1.0  0.7365
  C  C144  1  0.843800  0.129500  0.210900  1.0  -0.1525
  C  C145  1  0.219600  0.590000  0.446400  1.0  -0.1394
  C  C146  1  0.414700  0.850400  0.143200  1.0  0.726
  C  C147  1  0.120200  0.172700  0.826100  1.0  0.7858
  C  C148  1  0.242700  0.922000  0.758600  1.0  0.6526
  C  C149  1  0.416300  0.383300  0.475900  1.0  0.7365
  C  C150  1  0.149600  0.357700  0.561700  1.0  -0.1773
  C  C151  1  0.267700  0.776100  0.558500  1.0  -0.169
  C  C152  1  0.666000  0.553600  0.090000  1.0  -0.1362
  C  C153  1  0.799600  0.975900  0.616700  1.0  0.7361
  C  C154  1  0.348800  0.332900  0.466100  1.0  -0.1754
  C  C155  1  0.164700  0.258600  0.078000  1.0  0.6507
  C  C156  1  0.681700  0.966100  0.667100  1.0  -0.1759
  C  C157  1  0.054700  0.789100  0.629500  1.0  -0.1681
  C  C158  1  0.812600  0.522000  0.287800  1.0  0.7832
  C  C159  1  0.001300  0.241400  0.422000  1.0  0.6546
  C  C160  1  0.774200  0.486500  0.054900  1.0  0.7183
  C  C161  1  0.315800  0.629500  0.710900  1.0  -0.1518
  C  C162  1  0.685900  0.379500  0.678700  1.0  -0.1374
  C  C163  1  0.265100  0.643200  0.149600  1.0  0.7253
  C  C164  1  0.815600  0.013500  0.445100  1.0  0.7181
  C  C165  1  0.431000  0.857700  0.061700  1.0  -0.1766
  C  C166  1  0.065400  0.178700  0.620500  1.0  -0.1342
  C  C167  1  0.998700  0.758600  0.578000  1.0  0.6576
  C  C168  1  0.244000  0.090000  0.946400  1.0  -0.1357
  C  C169  1  0.314100  0.620500  0.321300  1.0  -0.1361
  C  C170  1  0.107800  0.475900  0.116700  1.0  0.7382
  C  C171  1  0.897700  0.276100  0.058500  1.0  -0.1643
  C  C172  1  0.334000  0.446400  0.910000  1.0  -0.1341
  C  C173  1  0.908300  0.649600  0.356800  1.0  0.7265
  C  C174  1  0.156200  0.870500  0.789100  1.0  -0.153
  C  C175  1  0.934600  0.821300  0.379500  1.0  -0.1355
  C  C176  1  0.043800  0.058500  0.223900  1.0  -0.165
  C  C177  1  0.879800  0.827300  0.173900  1.0  0.7858
  C  C178  1  0.184400  0.986500  0.554900  1.0  0.7182
  C  C179  1  0.877600  0.022000  0.787800  1.0  0.7849
  C  C180  1  0.826200  0.441500  0.276100  1.0  -0.1639
  C  C181  1  0.557900  0.856800  0.350400  1.0  0.727
  C  C182  1  0.583700  0.616700  0.524100  1.0  0.7351
  C  C183  1  0.757300  0.078000  0.241400  1.0  0.6538
  C  C184  1  0.850400  0.642300  0.438300  1.0  -0.178
  C  C185  1  0.507300  0.061700  0.642300  1.0  -0.1797
  C  C186  1  0.899600  0.287800  0.978000  1.0  0.7845
  C  C187  1  0.423300  0.578000  0.741400  1.0  0.6559
  C  C188  1  0.381000  0.672700  0.326100  1.0  0.7838
  C  C189  1  0.647800  0.167100  0.033900  1.0  -0.1794
  C  C190  1  0.173800  0.558500  0.723900  1.0  -0.163
  C  C191  1  0.569000  0.142300  0.938300  1.0  -0.1775
  C  C192  1  0.707100  0.673900  0.172700  1.0  0.7875
  C  C193  1  0.665400  0.212200  0.522000  1.0  0.7839
  C  C194  1  0.780400  0.410000  0.553600  1.0  -0.1379
  C  C195  1  0.091700  0.350400  0.643200  1.0  0.727
  C  C196  1  0.734900  0.356800  0.850400  1.0  0.7264
  C  C197  1  0.651200  0.667100  0.533900  1.0  -0.1765
  C  C198  1  0.170900  0.054900  0.013500  1.0  0.7196
  C  C199  1  0.829100  0.945100  0.986500  1.0  0.7203
  C  C200  1  0.288700  0.561700  0.142300  1.0  -0.1787
  C  C201  1  0.244100  0.120500  0.821300  1.0  -0.1364
  C  C202  1  0.026700  0.289100  0.129500  1.0  -0.1558
  C  C203  1  0.739300  0.445100  0.486500  1.0  0.7204
  C  C204  1  0.576700  0.422000  0.258600  1.0  0.6587
  C  C205  1  0.711300  0.438300  0.857700  1.0  -0.1797
  C  C206  1  0.260700  0.554900  0.513500  1.0  0.72
  C  C207  1  0.100400  0.712200  0.022000  1.0  0.7833
  C  C208  1  0.334600  0.787800  0.478000  1.0  0.7819
  C  C209  1  0.775500  0.116700  0.024100  1.0  0.7367
  C  C210  1  0.053700  0.826100  0.327300  1.0  0.7855
  C  C211  1  0.122400  0.978000  0.212200  1.0  0.7831
  C  C212  1  0.946300  0.173900  0.672700  1.0  0.7855
  C  C213  1  0.442100  0.143200  0.649600  1.0  0.7257
  C  C214  1  0.318300  0.033900  0.332900  1.0  -0.1764
  C  C215  1  0.814900  0.533900  0.832900  1.0  -0.1769
  C  C216  1  0.292900  0.326100  0.827300  1.0  0.7884
  C  C217  1  0.835300  0.741400  0.922000  1.0  0.6544
  C  C218  1  0.619000  0.327300  0.673900  1.0  0.7853
  C  C219  1  0.756000  0.910000  0.053600  1.0  -0.1383
  C  C220  1  0.225800  0.513500  0.945100  1.0  0.7168
  C  C221  1  0.892200  0.524100  0.883300  1.0  0.7383
  C  C222  1  0.635400  0.678700  0.120500  1.0  -0.1367
  C  C223  1  0.956200  0.941500  0.776100  1.0  -0.1633
  C  C224  1  0.492700  0.938300  0.357700  1.0  -0.1796
  C  C225  1  0.755900  0.879500  0.178700  1.0  -0.1399
  C  C226  1  0.364600  0.321300  0.879500  1.0  -0.1371
  C  C227  1  0.187400  0.478000  0.712200  1.0  0.7828
  C  C228  1  0.684200  0.370500  0.289100  1.0  -0.1552
  C  C229  1  0.945300  0.210900  0.370500  1.0  -0.1633
  C  C230  1  0.224500  0.883300  0.975900  1.0  0.737
  C  C231  1  0.185100  0.466100  0.167100  1.0  -0.1745
  C  C232  1  0.973300  0.710900  0.870500  1.0  -0.1585
  N  N233  1  0.141700  0.826700  0.584100  1.0  -0.5307
  N  N234  1  0.760200  0.937400  0.121600  1.0  -0.4863
  N  N235  1  0.858300  0.173300  0.415900  1.0  -0.5303
  N  N236  1  0.414800  0.962800  0.309200  1.0  -0.5159
  N  N237  1  0.118200  0.121600  0.562600  1.0  -0.4871
  N  N238  1  0.947500  0.326700  0.084100  1.0  -0.53
  N  N239  1  0.680800  0.437400  0.621600  1.0  -0.4873
  N  N240  1  0.239800  0.062600  0.878400  1.0  -0.4848
  N  N241  1  0.052500  0.673300  0.915900  1.0  -0.5296
  N  N242  1  0.276000  0.309200  0.537200  1.0  -0.5172
  N  N243  1  0.186800  0.537200  0.190800  1.0  -0.5168
  N  N244  1  0.813200  0.462800  0.809200  1.0  -0.5171
  N  N245  1  0.319200  0.562600  0.378400  1.0  -0.4886
  N  N246  1  0.622400  0.190800  0.962800  1.0  -0.5128
  N  N247  1  0.968400  0.084100  0.173300  1.0  -0.5272
  N  N248  1  0.031600  0.915900  0.826700  1.0  -0.5253
  N  N249  1  0.724000  0.690800  0.462800  1.0  -0.5174
  N  N250  1  0.274200  0.584100  0.673300  1.0  -0.5257
  N  N251  1  0.881800  0.878400  0.437400  1.0  -0.4863
  N  N252  1  0.585200  0.037200  0.690800  1.0  -0.5149
  N  N253  1  0.302400  0.378400  0.937400  1.0  -0.4856
  N  N254  1  0.697600  0.621600  0.062600  1.0  -0.4852
  N  N255  1  0.725800  0.415900  0.326700  1.0  -0.5239
  N  N256  1  0.377600  0.809200  0.037200  1.0  -0.5123
  O  O257  1  0.289100  0.436100  0.676500  1.0  -0.7313
  O  O258  1  0.041400  0.541800  0.109000  1.0  -0.8072
  O  O259  1  0.972400  0.852100  0.144500  1.0  -0.8286
  O  O260  1  0.724700  0.068500  0.459100  1.0  -0.5708
  O  O261  1  0.166700  0.319900  0.680100  1.0  -0.7145
  O  O262  1  0.109700  0.235300  0.801900  1.0  -0.667
  O  O263  1  0.793200  0.959100  0.931500  1.0  -0.5724
  O  O264  1  0.910400  0.539200  0.260200  1.0  -0.7096
  O  O265  1  0.583200  0.609000  0.458200  1.0  -0.8062
  O  O266  1  0.353100  0.735300  0.301900  1.0  -0.6658
  O  O267  1  0.247700  0.568500  0.959100  1.0  -0.5718
  O  O268  1  0.918100  0.010200  0.455800  1.0  -0.7911
  O  O269  1  0.416800  0.391000  0.541800  1.0  -0.8066
  O  O270  1  0.034400  0.676500  0.063900  1.0  -0.7317
  O  O271  1  0.550400  0.239800  0.539200  1.0  -0.7104
  O  O272  1  0.192200  0.958200  0.391000  1.0  -0.8069
  O  O273  1  0.469000  0.647900  0.355500  1.0  -0.83
  O  O274  1  0.116900  0.855500  0.352100  1.0  -0.8295
  O  O275  1  0.666667  0.180100  0.819900  1.0  -0.7126
  O  O276  1  0.967100  0.224600  0.489000  1.0  -0.624
  O  O277  1  0.513400  0.819900  0.319900  1.0  -0.7161
  O  O278  1  0.883100  0.144500  0.647900  1.0  -0.8298
  O  O279  1  0.088400  0.801900  0.264700  1.0  -0.6665
  O  O280  1  0.646900  0.264700  0.698100  1.0  -0.6657
  O  O281  1  0.347500  0.672300  0.124100  1.0  -0.6136
  O  O282  1  0.121300  0.077400  0.415000  1.0  -0.647
  O  O283  1  0.089600  0.460800  0.739800  1.0  -0.7106
  O  O284  1  0.191700  0.989000  0.775400  1.0  -0.6226
  O  O285  1  0.113700  0.422600  0.085000  1.0  -0.6457
  O  O286  1  0.153200  0.680100  0.180100  1.0  -0.7146
  O  O287  1  0.920200  0.726500  0.611100  1.0  -0.5891
  O  O288  1  0.901700  0.063900  0.823500  1.0  -0.7316
  O  O289  1  0.819300  0.724600  0.989000  1.0  -0.6247
  O  O290  1  0.081900  0.989800  0.544200  1.0  -0.7909
  O  O291  1  0.333333  0.819900  0.180100  1.0  -0.7142
  O  O292  1  0.846800  0.319900  0.819900  1.0  -0.7146
  O  O293  1  0.079800  0.273500  0.388900  1.0  -0.5916
  O  O294  1  0.486600  0.180100  0.680100  1.0  -0.7171
  O  O295  1  0.655000  0.698100  0.235300  1.0  -0.6661
  O  O296  1  0.528400  0.124100  0.827700  1.0  -0.6155
  O  O297  1  0.652500  0.327700  0.875900  1.0  -0.6136
  O  O298  1  0.807800  0.041800  0.609000  1.0  -0.807
  O  O299  1  0.965600  0.323500  0.936100  1.0  -0.7304
  O  O300  1  0.886300  0.577400  0.915000  1.0  -0.6473
  O  O301  1  0.209800  0.960800  0.239800  1.0  -0.7105
  O  O302  1  0.019800  0.624100  0.327700  1.0  -0.6139
  O  O303  1  0.958600  0.458200  0.891000  1.0  -0.8061
  O  O304  1  0.531000  0.352100  0.644500  1.0  -0.8304
  O  O305  1  0.242200  0.226500  0.111100  1.0  -0.5979
  O  O306  1  0.829400  0.260200  0.960800  1.0  -0.7112
  O  O307  1  0.757800  0.773500  0.888900  1.0  -0.5967
  O  O308  1  0.878700  0.922600  0.585000  1.0  -0.6483
  O  O309  1  0.206800  0.040900  0.068500  1.0  -0.573
  O  O310  1  0.725200  0.176500  0.563900  1.0  -0.7341
  O  O311  1  0.752300  0.431500  0.040900  1.0  -0.5723
  O  O312  1  0.890300  0.764700  0.198100  1.0  -0.6667
  O  O313  1  0.032900  0.775400  0.511000  1.0  -0.6242
  O  O314  1  0.928300  0.955800  0.989800  1.0  -0.7913
  O  O315  1  0.463700  0.415000  0.422600  1.0  -0.6458
  O  O316  1  0.150400  0.891000  0.041800  1.0  -0.8065
  O  O317  1  0.098300  0.936100  0.176500  1.0  -0.7331
  O  O318  1  0.824500  0.644500  0.147900  1.0  -0.8291
  O  O319  1  0.808300  0.011000  0.224600  1.0  -0.6251
  O  O320  1  0.183800  0.540900  0.568500  1.0  -0.5727
  O  O321  1  0.274800  0.823500  0.436100  1.0  -0.7307
  O  O322  1  0.833300  0.680100  0.319900  1.0  -0.7128
  O  O323  1  0.816200  0.459100  0.431500  1.0  -0.5719
  O  O324  1  0.790200  0.039200  0.760200  1.0  -0.7107
  O  O325  1  0.115900  0.510200  0.955800  1.0  -0.7909
  O  O326  1  0.801300  0.085000  0.077400  1.0  -0.6447
  O  O327  1  0.353300  0.888900  0.726500  1.0  -0.5901
  O  O328  1  0.710900  0.563900  0.323500  1.0  -0.7317
  O  O329  1  0.373900  0.544200  0.510200  1.0  -0.7916
  O  O330  1  0.911600  0.198100  0.735300  1.0  -0.6664
  O  O331  1  0.531300  0.388900  0.226500  1.0  -0.5958
  O  O332  1  0.198700  0.915000  0.922600  1.0  -0.6452
  O  O333  1  0.626100  0.455800  0.489800  1.0  -0.7915
  O  O334  1  0.646700  0.111100  0.273500  1.0  -0.5882
  O  O335  1  0.456100  0.511000  0.724600  1.0  -0.6238
  O  O336  1  0.170600  0.739800  0.039200  1.0  -0.7102
  O  O337  1  0.980200  0.375900  0.672300  1.0  -0.6143
  O  O338  1  0.471600  0.875900  0.172300  1.0  -0.6145
  O  O339  1  0.275300  0.931500  0.540900  1.0  -0.5713
  O  O340  1  0.884100  0.489800  0.044200  1.0  -0.7911
  O  O341  1  0.356100  0.172300  0.624100  1.0  -0.6136
  O  O342  1  0.543900  0.489000  0.275400  1.0  -0.6234
  O  O343  1  0.849600  0.109000  0.958200  1.0  -0.8073
  O  O344  1  0.643900  0.827700  0.375900  1.0  -0.6141
  O  O345  1  0.180700  0.275400  0.011000  1.0  -0.6208
  O  O346  1  0.175500  0.355500  0.852100  1.0  -0.8286
  O  O347  1  0.468700  0.611100  0.773500  1.0  -0.5992
  O  O348  1  0.071700  0.044200  0.010200  1.0  -0.7905
  O  O349  1  0.027600  0.147900  0.855500  1.0  -0.8287
  O  O350  1  0.345000  0.301900  0.764700  1.0  -0.6658
  O  O351  1  0.449600  0.760200  0.460800  1.0  -0.7099
  O  O352  1  0.536300  0.585000  0.577400  1.0  -0.6451
