# generated using pymatgen
data_Cu7H12C16(ClO11)2
_symmetry_space_group_name_H-M   'P 1'
_cell_length_a   10.06010000
_cell_length_b   14.18510000
_cell_length_c   10.25370000
_cell_angle_alpha   92.26200000
_cell_angle_beta   90.00000000
_cell_angle_gamma   90.00000000
_symmetry_Int_Tables_number   1
_chemical_formula_structural   Cu7H12C16(ClO11)2
_chemical_formula_sum   'Cu14 H24 C32 Cl4 O44'
_cell_volume   1462.09896129
_cell_formula_units_Z   2
loop_
 _symmetry_equiv_pos_site_id
 _symmetry_equiv_pos_as_xyz
  1  'x, y, z'
loop_
 _atom_site_type_symbol
 _atom_site_label
 _atom_site_symmetry_multiplicity
 _atom_site_fract_x
 _atom_site_fract_y
 _atom_site_fract_z
 _atom_site_occupancy
 _atom_site_charge
  Cu  Cu1  1  0.249100  0.285270  0.925670  1.0  1.0146
  Cu  Cu2  1  0.231570  0.788660  0.931770  1.0  1.0034
  Cu  Cu3  1  0.877740  0.770660  0.701520  1.0  1.0254
  Cu  Cu4  1  0.406810  0.781580  0.656300  1.0  1.0011
  Cu  Cu5  1  0.281240  0.664300  0.408190  1.0  0.9277
  Cu  Cu6  1  0.264590  0.876120  0.440170  1.0  0.9757
  Cu  Cu7  1  0.257200  0.287360  0.437990  1.0  1.0227
  Cu  Cu8  1  0.750900  0.285270  0.425670  1.0  1.0146
  Cu  Cu9  1  0.768430  0.788660  0.431770  1.0  1.0036
  Cu  Cu10  1  0.122260  0.770660  0.201520  1.0  1.0254
  Cu  Cu11  1  0.593190  0.781580  0.156300  1.0  0.9999
  Cu  Cu12  1  0.718760  0.664300  0.908190  1.0  0.9315
  Cu  Cu13  1  0.735410  0.876120  0.940170  1.0  0.9743
  Cu  Cu14  1  0.742800  0.287360  0.937990  1.0  1.0228
  H  H15  1  0.359000  0.495000  0.769000  1.0  0.1273
  H  H16  1  0.181000  0.521000  0.621000  1.0  0.1827
  H  H17  1  0.003000  0.454000  0.712000  1.0  0.1264
  H  H18  1  0.065000  0.505000  0.969000  1.0  0.1009
  H  H19  1  0.131000  0.094000  0.082000  1.0  0.1291
  H  H20  1  0.314000  0.054000  0.254000  1.0  0.1219
  H  H21  1  0.501000  0.095000  0.135000  1.0  0.1433
  H  H22  1  0.433000  0.079000  0.891000  1.0  0.1489
  H  H23  1  0.025000  0.845000  0.022000  1.0  0.3031
  H  H24  1  0.926000  0.764000  0.936000  1.0  0.3887
  H  H25  1  0.411000  0.870400  0.858000  1.0  0.294
  H  H26  1  0.474000  0.774000  0.422000  1.0  0.4327
  H  H27  1  0.641000  0.495000  0.269000  1.0  0.1286
  H  H28  1  0.819000  0.521000  0.121000  1.0  0.1845
  H  H29  1  0.997000  0.454000  0.212000  1.0  0.1268
  H  H30  1  0.935000  0.505000  0.469000  1.0  0.1013
  H  H31  1  0.869000  0.094000  0.582000  1.0  0.1299
  H  H32  1  0.686000  0.054000  0.754000  1.0  0.1221
  H  H33  1  0.499000  0.095000  0.635000  1.0  0.1461
  H  H34  1  0.567000  0.079000  0.391000  1.0  0.1486
  H  H35  1  0.975000  0.845000  0.522000  1.0  0.3015
  H  H36  1  0.074000  0.764000  0.436000  1.0  0.3895
  H  H37  1  0.589000  0.870400  0.358000  1.0  0.2949
  H  H38  1  0.526000  0.774000  0.922000  1.0  0.4322
  C  C39  1  0.274600  0.462000  0.768500  1.0  0.0741
  C  C40  1  0.176000  0.531800  0.706400  1.0  -0.1623
  C  C41  1  0.044300  0.502000  0.765900  1.0  -0.1756
  C  C42  1  0.080300  0.459700  0.897100  1.0  0.0654
  C  C43  1  0.284500  0.371700  0.683400  1.0  0.6379
  C  C44  1  0.218500  0.632100  0.742800  1.0  0.6917
  C  C45  1  0.942000  0.581300  0.778200  1.0  0.6972
  C  C46  1  0.001600  0.369000  0.919300  1.0  0.6353
  C  C47  1  0.219000  0.117000  0.098000  1.0  0.0675
  C  C48  1  0.309700  0.041900  0.158800  1.0  -0.1873
  C  C49  1  0.445800  0.060900  0.091200  1.0  -0.1458
  C  C50  1  0.409700  0.110800  0.967200  1.0  0.0662
  C  C51  1  0.226100  0.210700  0.177800  1.0  0.644
  C  C52  1  0.258200  0.943000  0.124700  1.0  0.7142
  C  C53  1  0.529900  0.974100  0.067500  1.0  0.6736
  C  C54  1  0.491300  0.201000  0.950300  1.0  0.6295
  C  C55  1  0.725400  0.462000  0.268500  1.0  0.075
  C  C56  1  0.824000  0.531800  0.206400  1.0  -0.1602
  C  C57  1  0.955700  0.502000  0.265900  1.0  -0.1748
  C  C58  1  0.919700  0.459700  0.397100  1.0  0.0652
  C  C59  1  0.715500  0.371700  0.183400  1.0  0.6376
  C  C60  1  0.781500  0.632100  0.242800  1.0  0.6926
  C  C61  1  0.058000  0.581300  0.278200  1.0  0.6979
  C  C62  1  0.998400  0.369000  0.419300  1.0  0.6361
  C  C63  1  0.781000  0.117000  0.598000  1.0  0.0692
  C  C64  1  0.690300  0.041900  0.658800  1.0  -0.1887
  C  C65  1  0.554200  0.060900  0.591200  1.0  -0.1458
  C  C66  1  0.590300  0.110800  0.467200  1.0  0.0668
  C  C67  1  0.773900  0.210700  0.677800  1.0  0.6431
  C  C68  1  0.741800  0.943000  0.624700  1.0  0.7144
  C  C69  1  0.470100  0.974100  0.567500  1.0  0.6741
  C  C70  1  0.508700  0.201000  0.450300  1.0  0.6297
  Cl  Cl71  1  0.106020  0.970200  0.522430  1.0  -0.4865
  Cl  Cl72  1  0.625530  0.690280  0.652560  1.0  -0.6286
  Cl  Cl73  1  0.893980  0.970200  0.022430  1.0  -0.4877
  Cl  Cl74  1  0.374470  0.690280  0.152560  1.0  -0.6289
  O  O75  1  0.222200  0.443900  0.895200  1.0  -0.3281
  O  O76  1  0.243300  0.295400  0.728300  1.0  -0.565
  O  O77  1  0.326600  0.380870  0.568600  1.0  -0.5518
  O  O78  1  0.277600  0.675350  0.652300  1.0  -0.6514
  O  O79  1  0.197600  0.662700  0.856300  1.0  -0.5406
  O  O80  1  0.953800  0.644520  0.696300  1.0  -0.5625
  O  O81  1  0.854000  0.574370  0.864600  1.0  -0.5637
  O  O82  1  0.878800  0.379900  0.918800  1.0  -0.542
  O  O83  1  0.059500  0.292600  0.939200  1.0  -0.5606
  O  O84  1  0.067300  0.783300  0.024300  1.0  -0.8159
  O  O85  1  0.845600  0.768700  0.887500  1.0  -0.9105
  O  O86  1  0.269200  0.128570  0.968900  1.0  -0.3552
  O  O87  1  0.258600  0.284600  0.123000  1.0  -0.5611
  O  O88  1  0.199700  0.203160  0.297200  1.0  -0.5568
  O  O89  1  0.211800  0.895950  0.215200  1.0  -0.6224
  O  O90  1  0.267900  0.915920  0.007200  1.0  -0.575
  O  O91  1  0.530400  0.915470  0.156400  1.0  -0.5867
  O  O92  1  0.594600  0.966890  0.961700  1.0  -0.5525
  O  O93  1  0.613800  0.191000  0.972100  1.0  -0.5451
  O  O94  1  0.439200  0.274800  0.911800  1.0  -0.5525
  O  O95  1  0.393500  0.806030  0.839100  1.0  -0.8738
  O  O96  1  0.391200  0.768920  0.467600  1.0  -0.9126
  O  O97  1  0.777800  0.443900  0.395200  1.0  -0.3313
  O  O98  1  0.756700  0.295400  0.228300  1.0  -0.5649
  O  O99  1  0.673400  0.380870  0.068600  1.0  -0.549
  O  O100  1  0.722400  0.675350  0.152300  1.0  -0.6517
  O  O101  1  0.802400  0.662700  0.356300  1.0  -0.5404
  O  O102  1  0.046200  0.644520  0.196300  1.0  -0.562
  O  O103  1  0.146000  0.574370  0.364600  1.0  -0.5631
  O  O104  1  0.121200  0.379900  0.418800  1.0  -0.5422
  O  O105  1  0.940500  0.292600  0.439200  1.0  -0.5607
  O  O106  1  0.932700  0.783300  0.524300  1.0  -0.8164
  O  O107  1  0.154400  0.768700  0.387500  1.0  -0.9121
  O  O108  1  0.730800  0.128570  0.468900  1.0  -0.354
  O  O109  1  0.741400  0.284600  0.623000  1.0  -0.561
  O  O110  1  0.800300  0.203160  0.797200  1.0  -0.5562
  O  O111  1  0.788200  0.895950  0.715200  1.0  -0.623
  O  O112  1  0.732100  0.915920  0.507200  1.0  -0.5747
  O  O113  1  0.469600  0.915470  0.656400  1.0  -0.5867
  O  O114  1  0.405400  0.966890  0.461700  1.0  -0.5529
  O  O115  1  0.386200  0.191000  0.472100  1.0  -0.5452
  O  O116  1  0.560800  0.274800  0.411800  1.0  -0.5535
  O  O117  1  0.606500  0.806030  0.339100  1.0  -0.874
  O  O118  1  0.608800  0.768920  0.967600  1.0  -0.9131
