# generated using pymatgen
data_Cu7H12C16(ClO11)2
_symmetry_space_group_name_H-M   'P 1'
_cell_length_a   10.04300000
_cell_length_b   14.11900000
_cell_length_c   10.21000000
_cell_angle_alpha   92.16000000
_cell_angle_beta   90.00000000
_cell_angle_gamma   90.00000000
_symmetry_Int_Tables_number   1
_chemical_formula_structural   Cu7H12C16(ClO11)2
_chemical_formula_sum   'Cu14 H24 C32 Cl4 O44'
_cell_volume   1446.71989961
_cell_formula_units_Z   2
loop_
 _symmetry_equiv_pos_site_id
 _symmetry_equiv_pos_as_xyz
  1  'x, y, z'
loop_
 _atom_site_type_symbol
 _atom_site_label
 _atom_site_symmetry_multiplicity
 _atom_site_fract_x
 _atom_site_fract_y
 _atom_site_fract_z
 _atom_site_occupancy
 _atom_site_charge
  Cu  Cu1  1  0.248730  0.285770  0.925510  1.0  1.0055
  Cu  Cu2  1  0.232500  0.788890  0.933420  1.0  1.0063
  Cu  Cu3  1  0.873500  0.769460  0.699480  1.0  1.0195
  Cu  Cu4  1  0.405900  0.782320  0.654790  1.0  1.0248
  Cu  Cu5  1  0.281750  0.663880  0.406820  1.0  0.9354
  Cu  Cu6  1  0.263490  0.876090  0.442150  1.0  0.9725
  Cu  Cu7  1  0.257370  0.287810  0.438130  1.0  0.9878
  Cu  Cu8  1  0.751270  0.285770  0.425510  1.0  1.0054
  Cu  Cu9  1  0.767500  0.788890  0.433420  1.0  1.0062
  Cu  Cu10  1  0.126500  0.769460  0.199480  1.0  1.0198
  Cu  Cu11  1  0.594100  0.782320  0.154790  1.0  1.0239
  Cu  Cu12  1  0.718250  0.663880  0.906820  1.0  0.9375
  Cu  Cu13  1  0.736510  0.876090  0.942150  1.0  0.9728
  Cu  Cu14  1  0.742630  0.287810  0.938130  1.0  0.9878
  H  H15  1  0.364100  0.494000  0.777400  1.0  0.1298
  H  H16  1  0.174900  0.521700  0.607700  1.0  0.1304
  H  H17  1  0.005500  0.450400  0.707200  1.0  0.1317
  H  H18  1  0.058700  0.506900  0.969700  1.0  0.1099
  H  H19  1  0.125400  0.093500  0.093900  1.0  0.1324
  H  H20  1  0.317100  0.053700  0.256100  1.0  0.127
  H  H21  1  0.496200  0.105900  0.150100  1.0  0.1347
  H  H22  1  0.428800  0.068200  0.889800  1.0  0.1074
  H  H23  1  0.025000  0.848000  0.019000  1.0  0.3092
  H  H24  1  0.927000  0.754000  0.929000  1.0  0.4367
  H  H25  1  0.404000  0.872800  0.849000  1.0  0.3165
  H  H26  1  0.473000  0.777000  0.418000  1.0  0.4293
  H  H27  1  0.635900  0.494000  0.277400  1.0  0.1295
  H  H28  1  0.825100  0.521700  0.107700  1.0  0.1309
  H  H29  1  0.994500  0.450400  0.207200  1.0  0.1322
  H  H30  1  0.941300  0.506900  0.469700  1.0  0.1099
  H  H31  1  0.874600  0.093500  0.593900  1.0  0.1323
  H  H32  1  0.682900  0.053700  0.756100  1.0  0.1273
  H  H33  1  0.503800  0.105900  0.650100  1.0  0.1338
  H  H34  1  0.571200  0.068200  0.389800  1.0  0.1073
  H  H35  1  0.975000  0.848000  0.519000  1.0  0.3068
  H  H36  1  0.073000  0.754000  0.429000  1.0  0.436
  H  H37  1  0.596000  0.872800  0.349000  1.0  0.3154
  H  H38  1  0.527000  0.777000  0.918000  1.0  0.4279
  C  C39  1  0.274400  0.463700  0.768200  1.0  0.0736
  C  C40  1  0.176300  0.532400  0.705100  1.0  -0.1934
  C  C41  1  0.043500  0.502400  0.764900  1.0  -0.1841
  C  C42  1  0.080600  0.459700  0.897500  1.0  0.0692
  C  C43  1  0.284400  0.372400  0.682500  1.0  0.6334
  C  C44  1  0.218100  0.632800  0.741200  1.0  0.7088
  C  C45  1  0.941200  0.581000  0.775800  1.0  0.7025
  C  C46  1  0.002400  0.369200  0.918800  1.0  0.6411
  C  C47  1  0.219200  0.117100  0.098200  1.0  0.0775
  C  C48  1  0.309900  0.042400  0.159100  1.0  -0.1755
  C  C49  1  0.444400  0.060900  0.091800  1.0  -0.1803
  C  C50  1  0.409400  0.112600  0.966000  1.0  0.0619
  C  C51  1  0.225200  0.210700  0.178500  1.0  0.6344
  C  C52  1  0.258200  0.943600  0.126400  1.0  0.7016
  C  C53  1  0.529800  0.972800  0.066300  1.0  0.6771
  C  C54  1  0.491700  0.201700  0.948800  1.0  0.6494
  C  C55  1  0.725600  0.463700  0.268200  1.0  0.074
  C  C56  1  0.823700  0.532400  0.205100  1.0  -0.1921
  C  C57  1  0.956500  0.502400  0.264900  1.0  -0.1816
  C  C58  1  0.919400  0.459700  0.397500  1.0  0.0688
  C  C59  1  0.715600  0.372400  0.182500  1.0  0.6334
  C  C60  1  0.781900  0.632800  0.241200  1.0  0.7097
  C  C61  1  0.058800  0.581000  0.275800  1.0  0.7022
  C  C62  1  0.997600  0.369200  0.418800  1.0  0.6415
  C  C63  1  0.780800  0.117100  0.598200  1.0  0.079
  C  C64  1  0.690100  0.042400  0.659100  1.0  -0.1771
  C  C65  1  0.555600  0.060900  0.591800  1.0  -0.1807
  C  C66  1  0.590600  0.112600  0.466000  1.0  0.0622
  C  C67  1  0.774800  0.210700  0.678500  1.0  0.635
  C  C68  1  0.741800  0.943600  0.626400  1.0  0.7023
  C  C69  1  0.470200  0.972800  0.566300  1.0  0.6792
  C  C70  1  0.508300  0.201700  0.448800  1.0  0.6484
  Cl  Cl71  1  0.111340  0.962550  0.547150  1.0  -0.4986
  Cl  Cl72  1  0.627960  0.691170  0.649130  1.0  -0.633
  Cl  Cl73  1  0.888660  0.962550  0.047150  1.0  -0.4977
  Cl  Cl74  1  0.372040  0.691170  0.149130  1.0  -0.6332
  O  O75  1  0.221200  0.445000  0.895400  1.0  -0.309
  O  O76  1  0.244100  0.296300  0.727700  1.0  -0.5648
  O  O77  1  0.327200  0.381880  0.567400  1.0  -0.5479
  O  O78  1  0.278400  0.675500  0.651800  1.0  -0.6454
  O  O79  1  0.194700  0.664210  0.855500  1.0  -0.5576
  O  O80  1  0.953500  0.644980  0.694000  1.0  -0.5668
  O  O81  1  0.853600  0.574040  0.862200  1.0  -0.5676
  O  O82  1  0.879100  0.380450  0.918900  1.0  -0.5514
  O  O83  1  0.058700  0.293000  0.939200  1.0  -0.5541
  O  O84  1  0.067100  0.786830  0.024300  1.0  -0.8075
  O  O85  1  0.845500  0.768090  0.887000  1.0  -0.9255
  O  O86  1  0.269500  0.129380  0.967800  1.0  -0.3218
  O  O87  1  0.257800  0.284700  0.123400  1.0  -0.5617
  O  O88  1  0.198800  0.203650  0.298500  1.0  -0.5526
  O  O89  1  0.210600  0.896200  0.216400  1.0  -0.6191
  O  O90  1  0.267900  0.916340  0.006700  1.0  -0.5666
  O  O91  1  0.527100  0.914230  0.155100  1.0  -0.5825
  O  O92  1  0.595400  0.967320  0.961500  1.0  -0.5513
  O  O93  1  0.613300  0.191600  0.971800  1.0  -0.5362
  O  O94  1  0.438900  0.275690  0.912200  1.0  -0.5523
  O  O95  1  0.392800  0.806480  0.838700  1.0  -0.8593
  O  O96  1  0.391400  0.768160  0.465900  1.0  -0.9146
  O  O97  1  0.778800  0.445000  0.395400  1.0  -0.3071
  O  O98  1  0.755900  0.296300  0.227700  1.0  -0.5653
  O  O99  1  0.672800  0.381880  0.067400  1.0  -0.5454
  O  O100  1  0.721600  0.675500  0.151800  1.0  -0.6443
  O  O101  1  0.805300  0.664210  0.355500  1.0  -0.5573
  O  O102  1  0.046500  0.644980  0.194000  1.0  -0.5666
  O  O103  1  0.146400  0.574040  0.362200  1.0  -0.5664
  O  O104  1  0.120900  0.380450  0.418900  1.0  -0.5524
  O  O105  1  0.941300  0.293000  0.439200  1.0  -0.5539
  O  O106  1  0.932900  0.786830  0.524300  1.0  -0.8092
  O  O107  1  0.154500  0.768090  0.387000  1.0  -0.9271
  O  O108  1  0.730500  0.129380  0.467800  1.0  -0.3203
  O  O109  1  0.742200  0.284700  0.623400  1.0  -0.5616
  O  O110  1  0.801200  0.203650  0.798500  1.0  -0.5518
  O  O111  1  0.789400  0.896200  0.716400  1.0  -0.6201
  O  O112  1  0.732100  0.916340  0.506700  1.0  -0.5669
  O  O113  1  0.472900  0.914230  0.655100  1.0  -0.5839
  O  O114  1  0.404600  0.967320  0.461500  1.0  -0.5506
  O  O115  1  0.386700  0.191600  0.471800  1.0  -0.5355
  O  O116  1  0.561100  0.275690  0.412200  1.0  -0.5531
  O  O117  1  0.607200  0.806480  0.338700  1.0  -0.8589
  O  O118  1  0.608600  0.768160  0.965900  1.0  -0.9154
