# generated using pymatgen
data_Cu7H12C16(ClO11)2
_symmetry_space_group_name_H-M   'P 1'
_cell_length_a   10.03880000
_cell_length_b   14.22910000
_cell_length_c   10.34130000
_cell_angle_alpha   92.44900000
_cell_angle_beta   90.00000000
_cell_angle_gamma   90.00000000
_symmetry_Int_Tables_number   1
_chemical_formula_structural   Cu7H12C16(ClO11)2
_chemical_formula_sum   'Cu14 H24 C32 Cl4 O44'
_cell_volume   1475.83405504
_cell_formula_units_Z   2
loop_
 _symmetry_equiv_pos_site_id
 _symmetry_equiv_pos_as_xyz
  1  'x, y, z'
loop_
 _atom_site_type_symbol
 _atom_site_label
 _atom_site_symmetry_multiplicity
 _atom_site_fract_x
 _atom_site_fract_y
 _atom_site_fract_z
 _atom_site_occupancy
 _atom_site_charge
  Cu  Cu1  1  0.246990  0.282480  0.924500  1.0  1.0202
  Cu  Cu2  1  0.232900  0.786860  0.928600  1.0  0.9829
  Cu  Cu3  1  0.886630  0.773530  0.705320  1.0  1.0093
  Cu  Cu4  1  0.409030  0.780410  0.657670  1.0  1.0226
  Cu  Cu5  1  0.277010  0.667250  0.409750  1.0  0.9513
  Cu  Cu6  1  0.265340  0.876980  0.439440  1.0  1.0159
  Cu  Cu7  1  0.257720  0.286170  0.435850  1.0  1.019
  Cu  Cu8  1  0.753010  0.282480  0.424500  1.0  1.0203
  Cu  Cu9  1  0.767100  0.786860  0.428600  1.0  0.9832
  Cu  Cu10  1  0.113370  0.773530  0.205320  1.0  1.0093
  Cu  Cu11  1  0.590970  0.780410  0.157670  1.0  1.022
  Cu  Cu12  1  0.722990  0.667250  0.909750  1.0  0.9503
  Cu  Cu13  1  0.734660  0.876980  0.939440  1.0  1.0151
  Cu  Cu14  1  0.742280  0.286170  0.935850  1.0  1.0187
  H  H15  1  0.367800  0.486000  0.777600  1.0  0.1312
  H  H16  1  0.175900  0.517800  0.611500  1.0  0.1242
  H  H17  1  0.004300  0.451300  0.710300  1.0  0.1347
  H  H18  1  0.062700  0.504400  0.969100  1.0  0.116
  H  H19  1  0.123000  0.092900  0.094400  1.0  0.1305
  H  H20  1  0.314400  0.052600  0.251900  1.0  0.1291
  H  H21  1  0.495100  0.105800  0.148300  1.0  0.1331
  H  H22  1  0.427300  0.064700  0.890900  1.0  0.114
  H  H23  1  0.034000  0.829000  0.028000  1.0  0.2673
  H  H24  1  0.925000  0.750000  0.934000  1.0  0.4267
  H  H25  1  0.407000  0.871000  0.853000  1.0  0.2912
  H  H26  1  0.480000  0.777000  0.446000  1.0  0.4213
  H  H27  1  0.632200  0.486000  0.277600  1.0  0.1324
  H  H28  1  0.824100  0.517800  0.111500  1.0  0.1249
  H  H29  1  0.995700  0.451300  0.210300  1.0  0.1356
  H  H30  1  0.937300  0.504400  0.469100  1.0  0.1159
  H  H31  1  0.877000  0.092900  0.594400  1.0  0.131
  H  H32  1  0.685600  0.052600  0.751900  1.0  0.1289
  H  H33  1  0.504900  0.105800  0.648300  1.0  0.1331
  H  H34  1  0.572700  0.064700  0.390900  1.0  0.1144
  H  H35  1  0.966000  0.829000  0.528000  1.0  0.266
  H  H36  1  0.075000  0.750000  0.434000  1.0  0.426
  H  H37  1  0.593000  0.871000  0.353000  1.0  0.2881
  H  H38  1  0.520000  0.777000  0.946000  1.0  0.4213
  C  C39  1  0.276800  0.457800  0.769200  1.0  0.0742
  C  C40  1  0.178700  0.528400  0.707700  1.0  -0.1911
  C  C41  1  0.045800  0.501500  0.767700  1.0  -0.1783
  C  C42  1  0.082800  0.457600  0.896900  1.0  0.067
  C  C43  1  0.281200  0.367300  0.684600  1.0  0.6367
  C  C44  1  0.224400  0.628200  0.743300  1.0  0.7021
  C  C45  1  0.947200  0.581600  0.783900  1.0  0.7019
  C  C46  1  0.001200  0.368100  0.917900  1.0  0.6245
  C  C47  1  0.217300  0.115600  0.097200  1.0  0.0776
  C  C48  1  0.307900  0.041500  0.156000  1.0  -0.1718
  C  C49  1  0.444600  0.060000  0.091000  1.0  -0.1763
  C  C50  1  0.407900  0.109400  0.965700  1.0  0.0613
  C  C51  1  0.226500  0.209900  0.175800  1.0  0.6387
  C  C52  1  0.255700  0.942000  0.123200  1.0  0.7147
  C  C53  1  0.530200  0.973800  0.067900  1.0  0.6923
  C  C54  1  0.489700  0.198000  0.948200  1.0  0.6389
  C  C55  1  0.723200  0.457800  0.269200  1.0  0.0751
  C  C56  1  0.821300  0.528400  0.207700  1.0  -0.1903
  C  C57  1  0.954200  0.501500  0.267700  1.0  -0.1764
  C  C58  1  0.917200  0.457600  0.396900  1.0  0.0668
  C  C59  1  0.718800  0.367300  0.184600  1.0  0.6359
  C  C60  1  0.775600  0.628200  0.243300  1.0  0.7034
  C  C61  1  0.052800  0.581600  0.283900  1.0  0.7012
  C  C62  1  0.998800  0.368100  0.417900  1.0  0.6255
  C  C63  1  0.782700  0.115600  0.597200  1.0  0.079
  C  C64  1  0.692100  0.041500  0.656000  1.0  -0.174
  C  C65  1  0.555400  0.060000  0.591000  1.0  -0.177
  C  C66  1  0.592100  0.109400  0.465700  1.0  0.062
  C  C67  1  0.773500  0.209900  0.675800  1.0  0.6392
  C  C68  1  0.744300  0.942000  0.623200  1.0  0.7161
  C  C69  1  0.469800  0.973800  0.567900  1.0  0.6922
  C  C70  1  0.510300  0.198000  0.448200  1.0  0.6378
  Cl  Cl71  1  0.103990  0.974080  0.511130  1.0  -0.4987
  Cl  Cl72  1  0.625010  0.690120  0.656610  1.0  -0.6063
  Cl  Cl73  1  0.896010  0.974080  0.011130  1.0  -0.4994
  Cl  Cl74  1  0.374990  0.690120  0.156610  1.0  -0.6057
  O  O75  1  0.222700  0.440700  0.894800  1.0  -0.3105
  O  O76  1  0.239500  0.292000  0.729900  1.0  -0.5685
  O  O77  1  0.323200  0.375900  0.570200  1.0  -0.5496
  O  O78  1  0.280000  0.672500  0.653400  1.0  -0.6511
  O  O79  1  0.207900  0.658000  0.857100  1.0  -0.5419
  O  O80  1  0.959200  0.644900  0.703200  1.0  -0.5628
  O  O81  1  0.861900  0.577100  0.872200  1.0  -0.5685
  O  O82  1  0.877900  0.379400  0.914000  1.0  -0.5504
  O  O83  1  0.058100  0.291200  0.939800  1.0  -0.5627
  O  O84  1  0.072800  0.767500  0.024500  1.0  -0.7733
  O  O85  1  0.848000  0.772500  0.889900  1.0  -0.915
  O  O86  1  0.266400  0.126600  0.968000  1.0  -0.3184
  O  O87  1  0.258200  0.283200  0.119600  1.0  -0.5668
  O  O88  1  0.200600  0.203600  0.294000  1.0  -0.5693
  O  O89  1  0.208200  0.896400  0.213200  1.0  -0.6303
  O  O90  1  0.265000  0.914400  0.005900  1.0  -0.5769
  O  O91  1  0.532100  0.915800  0.157000  1.0  -0.5911
  O  O92  1  0.593900  0.966200  0.962200  1.0  -0.555
  O  O93  1  0.613100  0.189400  0.969800  1.0  -0.5401
  O  O94  1  0.436500  0.271000  0.908500  1.0  -0.5568
  O  O95  1  0.395900  0.805200  0.840000  1.0  -0.8605
  O  O96  1  0.389400  0.770100  0.471100  1.0  -0.929
  O  O97  1  0.777300  0.440700  0.394800  1.0  -0.3105
  O  O98  1  0.760500  0.292000  0.229900  1.0  -0.5688
  O  O99  1  0.676800  0.375900  0.070200  1.0  -0.5493
  O  O100  1  0.720000  0.672500  0.153400  1.0  -0.6516
  O  O101  1  0.792100  0.658000  0.357100  1.0  -0.5417
  O  O102  1  0.040800  0.644900  0.203200  1.0  -0.5623
  O  O103  1  0.138100  0.577100  0.372200  1.0  -0.5681
  O  O104  1  0.122100  0.379400  0.414000  1.0  -0.5505
  O  O105  1  0.941900  0.291200  0.439800  1.0  -0.5621
  O  O106  1  0.927200  0.767500  0.524500  1.0  -0.7732
  O  O107  1  0.152000  0.772500  0.389900  1.0  -0.9157
  O  O108  1  0.733600  0.126600  0.468000  1.0  -0.3173
  O  O109  1  0.741800  0.283200  0.619600  1.0  -0.5666
  O  O110  1  0.799400  0.203600  0.794000  1.0  -0.5683
  O  O111  1  0.791800  0.896400  0.713200  1.0  -0.6292
  O  O112  1  0.735000  0.914400  0.505900  1.0  -0.5771
  O  O113  1  0.467900  0.915800  0.657000  1.0  -0.5915
  O  O114  1  0.406100  0.966200  0.462200  1.0  -0.556
  O  O115  1  0.386900  0.189400  0.469800  1.0  -0.5398
  O  O116  1  0.563500  0.271000  0.408500  1.0  -0.5575
  O  O117  1  0.604100  0.805200  0.340000  1.0  -0.8607
  O  O118  1  0.610600  0.770100  0.971100  1.0  -0.929
