# generated using pymatgen
data_AgH12C10SN4(OF)3
_symmetry_space_group_name_H-M   'P 1'
_cell_length_a   9.81950000
_cell_length_b   17.69840000
_cell_length_c   17.69840000
_cell_angle_alpha   63.34000000
_cell_angle_beta   79.34230000
_cell_angle_gamma   100.65800000
_symmetry_Int_Tables_number   1
_chemical_formula_structural   AgH12C10SN4(OF)3
_chemical_formula_sum   'Ag6 H72 C60 S6 N24 O18 F18'
_cell_volume   2572.60380203
_cell_formula_units_Z   6
loop_
 _symmetry_equiv_pos_site_id
 _symmetry_equiv_pos_as_xyz
  1  'x, y, z'
loop_
 _atom_site_type_symbol
 _atom_site_label
 _atom_site_symmetry_multiplicity
 _atom_site_fract_x
 _atom_site_fract_y
 _atom_site_fract_z
 _atom_site_occupancy
 _atom_site_charge
  Ag  Ag1  1  0.550550  0.918190  0.551720  1.0  0.3623
  Ag  Ag2  1  0.102270  0.551720  0.530090  1.0  0.3621
  Ag  Ag3  1  0.632360  0.530090  0.918190  1.0  0.3624
  Ag  Ag4  1  0.449450  0.081810  0.448280  1.0  0.3632
  Ag  Ag5  1  0.897730  0.448280  0.469910  1.0  0.3626
  Ag  Ag6  1  0.367640  0.469910  0.081810  1.0  0.3626
  H  H7  1  0.103300  0.645100  0.693800  1.0  0.1297
  H  H8  1  0.293100  0.760700  0.560100  1.0  0.1028
  H  H9  1  0.420600  0.888900  0.723200  1.0  0.1384
  H  H10  1  0.260400  0.853700  0.785400  1.0  0.1232
  H  H11  1  0.368000  0.798300  0.812600  1.0  0.1417
  H  H12  1  0.207600  0.409100  0.960200  1.0  0.1102
  H  H13  1  0.091200  0.496400  0.856700  1.0  0.1393
  H  H14  1  0.087600  0.696900  0.871900  1.0  0.0984
  H  H15  1  0.994000  0.634000  0.847800  1.0  0.1049
  H  H16  1  0.299900  0.631900  0.027200  1.0  0.1299
  H  H17  1  0.310000  0.705900  0.932400  1.0  0.1489
  H  H18  1  0.160600  0.657700  0.008000  1.0  0.1282
  H  H19  1  0.797100  0.693800  0.661100  1.0  0.1311
  H  H20  1  0.853200  0.560100  0.679200  1.0  0.1028
  H  H21  1  0.143800  0.723200  0.387900  1.0  0.1362
  H  H22  1  0.045800  0.785400  0.360900  1.0  0.1239
  H  H23  1  0.180600  0.812600  0.389100  1.0  0.1438
  H  H24  1  0.167800  0.960200  0.630700  1.0  0.1097
  H  H25  1  0.947900  0.856700  0.646900  1.0  0.1387
  H  H26  1  0.959500  0.871900  0.431200  1.0  0.1009
  H  H27  1  0.841800  0.847800  0.518200  1.0  0.1031
  H  H28  1  0.327100  0.027200  0.340900  1.0  0.1315
  H  H29  1  0.242400  0.932400  0.361700  1.0  0.1458
  H  H30  1  0.168600  0.008000  0.334300  1.0  0.1287
  H  H31  1  0.458200  0.661100  0.645100  1.0  0.1297
  H  H32  1  0.532400  0.679200  0.760700  1.0  0.1027
  H  H33  1  0.531700  0.387900  0.888900  1.0  0.138
  H  H34  1  0.406700  0.360900  0.853700  1.0  0.1229
  H  H35  1  0.569700  0.389100  0.798300  1.0  0.1405
  H  H36  1  0.798500  0.630700  0.409100  1.0  0.1092
  H  H37  1  0.594800  0.646900  0.496400  1.0  0.1398
  H  H38  1  0.390700  0.431200  0.696900  1.0  0.1016
  H  H39  1  0.360000  0.518200  0.634000  1.0  0.1054
  H  H40  1  0.668000  0.340900  0.631900  1.0  0.1321
  H  H41  1  0.604100  0.361700  0.705900  1.0  0.1474
  H  H42  1  0.502900  0.334300  0.657700  1.0  0.128
  H  H43  1  0.896700  0.354900  0.306200  1.0  0.1301
  H  H44  1  0.706900  0.239300  0.439900  1.0  0.1039
  H  H45  1  0.579400  0.111100  0.276800  1.0  0.1395
  H  H46  1  0.739600  0.146300  0.214600  1.0  0.126
  H  H47  1  0.632000  0.201700  0.187400  1.0  0.1414
  H  H48  1  0.792400  0.590900  0.039800  1.0  0.1101
  H  H49  1  0.908800  0.503600  0.143300  1.0  0.1396
  H  H50  1  0.912400  0.303100  0.128100  1.0  0.098
  H  H51  1  0.006000  0.366000  0.152200  1.0  0.1044
  H  H52  1  0.700100  0.368100  0.972800  1.0  0.1284
  H  H53  1  0.690000  0.294100  0.067600  1.0  0.1496
  H  H54  1  0.839400  0.342300  0.992000  1.0  0.129
  H  H55  1  0.202900  0.306200  0.338900  1.0  0.1307
  H  H56  1  0.146800  0.439900  0.320800  1.0  0.1025
  H  H57  1  0.856200  0.276800  0.612100  1.0  0.1363
  H  H58  1  0.954200  0.214600  0.639100  1.0  0.125
  H  H59  1  0.819400  0.187400  0.610900  1.0  0.1445
  H  H60  1  0.832200  0.039800  0.369300  1.0  0.1099
  H  H61  1  0.052100  0.143300  0.353100  1.0  0.1389
  H  H62  1  0.040500  0.128100  0.568800  1.0  0.1001
  H  H63  1  0.158200  0.152200  0.481800  1.0  0.1018
  H  H64  1  0.672900  0.972800  0.659100  1.0  0.1313
  H  H65  1  0.757600  0.067600  0.638300  1.0  0.148
  H  H66  1  0.831400  0.992000  0.665700  1.0  0.1287
  H  H67  1  0.541800  0.338900  0.354900  1.0  0.1301
  H  H68  1  0.467600  0.320800  0.239300  1.0  0.1025
  H  H69  1  0.468300  0.612100  0.111100  1.0  0.1377
  H  H70  1  0.593300  0.639100  0.146300  1.0  0.1253
  H  H71  1  0.430300  0.610900  0.201700  1.0  0.1413
  H  H72  1  0.201500  0.369300  0.590900  1.0  0.1096
  H  H73  1  0.405200  0.353100  0.503600  1.0  0.1401
  H  H74  1  0.609300  0.568800  0.303100  1.0  0.0992
  H  H75  1  0.640000  0.481800  0.366000  1.0  0.1048
  H  H76  1  0.332000  0.659100  0.368100  1.0  0.1297
  H  H77  1  0.395900  0.638300  0.294100  1.0  0.1505
  H  H78  1  0.497100  0.665700  0.342300  1.0  0.1281
  C  C79  1  0.170200  0.693300  0.688400  1.0  -0.122
  C  C80  1  0.275100  0.757200  0.615200  1.0  0.042
  C  C81  1  0.292500  0.789200  0.716600  1.0  0.3746
  C  C82  1  0.339600  0.836800  0.763700  1.0  -0.3875
  C  C83  1  0.199000  0.464200  0.949600  1.0  0.0302
  C  C84  1  0.135100  0.511800  0.892200  1.0  -0.1339
  C  C85  1  0.217000  0.582800  0.957200  1.0  0.3864
  C  C86  1  0.092100  0.659500  0.845400  1.0  0.0033
  C  C87  1  0.249700  0.650400  0.983500  1.0  -0.3881
  C  C88  1  0.858600  0.688400  0.618300  1.0  -0.1203
  C  C89  1  0.890300  0.615200  0.627600  1.0  0.0412
  C  C90  1  0.009100  0.716600  0.494200  1.0  0.3741
  C  C91  1  0.103300  0.763700  0.399500  1.0  -0.3896
  C  C92  1  0.148600  0.949600  0.586200  1.0  0.0333
  C  C93  1  0.027300  0.892200  0.596000  1.0  -0.1314
  C  C94  1  0.174200  0.957200  0.460000  1.0  0.3872
  C  C95  1  0.937500  0.845400  0.495100  1.0  0.0032
  C  C96  1  0.233200  0.983500  0.366100  1.0  -0.3947
  C  C97  1  0.476900  0.618300  0.693300  1.0  -0.1216
  C  C98  1  0.517900  0.627600  0.757200  1.0  0.0425
  C  C99  1  0.503300  0.494200  0.789200  1.0  0.3746
  C  C100  1  0.502800  0.399500  0.836800  1.0  -0.3898
  C  C101  1  0.734800  0.586200  0.464200  1.0  0.0314
  C  C102  1  0.623300  0.596000  0.511800  1.0  -0.1334
  C  C103  1  0.634200  0.460000  0.582800  1.0  0.3858
  C  C104  1  0.432600  0.495100  0.659500  1.0  0.0051
  C  C105  1  0.599300  0.366100  0.650400  1.0  -0.3887
  C  C106  1  0.829800  0.306700  0.311600  1.0  -0.1201
  C  C107  1  0.724900  0.242800  0.384800  1.0  0.0431
  C  C108  1  0.707500  0.210800  0.283400  1.0  0.3753
  C  C109  1  0.660400  0.163200  0.236300  1.0  -0.3875
  C  C110  1  0.801000  0.535800  0.050400  1.0  0.0304
  C  C111  1  0.864900  0.488200  0.107800  1.0  -0.1311
  C  C112  1  0.783000  0.417200  0.042800  1.0  0.3875
  C  C113  1  0.907900  0.340500  0.154600  1.0  0.0035
  C  C114  1  0.750300  0.349600  0.016500  1.0  -0.3878
  C  C115  1  0.141400  0.311600  0.381700  1.0  -0.1202
  C  C116  1  0.109700  0.384800  0.372400  1.0  0.0401
  C  C117  1  0.990900  0.283400  0.505800  1.0  0.375
  C  C118  1  0.896700  0.236300  0.600500  1.0  -0.3869
  C  C119  1  0.851400  0.050400  0.413800  1.0  0.0328
  C  C120  1  0.972700  0.107800  0.404000  1.0  -0.132
  C  C121  1  0.825800  0.042800  0.540000  1.0  0.3892
  C  C122  1  0.062500  0.154600  0.504900  1.0  0.0017
  C  C123  1  0.766800  0.016500  0.633900  1.0  -0.3946
  C  C124  1  0.523100  0.381700  0.306700  1.0  -0.1216
  C  C125  1  0.482100  0.372400  0.242800  1.0  0.0425
  C  C126  1  0.496700  0.505800  0.210800  1.0  0.3745
  C  C127  1  0.497200  0.600500  0.163200  1.0  -0.3882
  C  C128  1  0.265200  0.413800  0.535800  1.0  0.0318
  C  C129  1  0.376700  0.404000  0.488200  1.0  -0.133
  C  C130  1  0.365800  0.540000  0.417200  1.0  0.3869
  C  C131  1  0.567400  0.504900  0.340500  1.0  0.0026
  C  C132  1  0.400700  0.633900  0.349600  1.0  -0.3874
  C  C133  1  0.691700  0.873500  0.302800  1.0  0.1628
  C  C134  1  0.994500  0.302800  0.823700  1.0  0.1637
  C  C135  1  0.818200  0.823700  0.873500  1.0  0.1613
  C  C136  1  0.308300  0.126500  0.697200  1.0  0.1639
  C  C137  1  0.005500  0.697200  0.176300  1.0  0.1634
  C  C138  1  0.181800  0.176300  0.126500  1.0  0.164
  S  S139  1  0.575050  0.849840  0.398320  1.0  1.406
  S  S140  1  0.973370  0.398320  0.751840  1.0  1.4064
  S  S141  1  0.725210  0.751840  0.849840  1.0  1.4063
  S  S142  1  0.424950  0.150160  0.601680  1.0  1.4046
  S  S143  1  0.026630  0.601680  0.248160  1.0  1.4057
  S  S144  1  0.274790  0.248160  0.150160  1.0  1.4045
  N  N145  1  0.180780  0.713100  0.754210  1.0  0.035
  N  N146  1  0.352040  0.816310  0.632670  1.0  -0.3646
  N  N147  1  0.249160  0.507980  0.989850  1.0  -0.3786
  N  N148  1  0.148120  0.588350  0.896790  1.0  0.062
  N  N149  1  0.934990  0.754210  0.532690  1.0  0.0339
  N  N150  1  0.984710  0.632670  0.551020  1.0  -0.3637
  N  N151  1  0.239010  0.989850  0.502170  1.0  -0.3791
  N  N152  1  0.044910  0.896790  0.514860  1.0  0.0622
  N  N153  1  0.467680  0.532690  0.713100  1.0  0.0345
  N  N154  1  0.535730  0.551020  0.816310  1.0  -0.361
  N  N155  1  0.741180  0.502170  0.507980  1.0  -0.3761
  N  N156  1  0.559770  0.514860  0.588350  1.0  0.0618
  N  N157  1  0.819220  0.286900  0.245790  1.0  0.0354
  N  N158  1  0.647960  0.183690  0.367330  1.0  -0.3671
  N  N159  1  0.750840  0.492020  0.010150  1.0  -0.3776
  N  N160  1  0.851880  0.411650  0.103210  1.0  0.0617
  N  N161  1  0.065010  0.245790  0.467310  1.0  0.0342
  N  N162  1  0.015290  0.367330  0.448980  1.0  -0.3653
  N  N163  1  0.760990  0.010150  0.497830  1.0  -0.3774
  N  N164  1  0.955090  0.103210  0.485140  1.0  0.0616
  N  N165  1  0.532320  0.467310  0.286900  1.0  0.0346
  N  N166  1  0.464270  0.448980  0.183690  1.0  -0.3602
  N  N167  1  0.258820  0.497830  0.492020  1.0  -0.3771
  N  N168  1  0.440230  0.485140  0.411650  1.0  0.0614
  O  O169  1  0.556000  0.929300  0.390600  1.0  -0.6352
  O  O170  1  0.453600  0.783500  0.415600  1.0  -0.5464
  O  O171  1  0.644300  0.812700  0.462800  1.0  -0.5721
  O  O172  1  0.946600  0.390600  0.680100  1.0  -0.636
  O  O173  1  0.869200  0.415600  0.800900  1.0  -0.547
  O  O174  1  0.107100  0.462800  0.724500  1.0  -0.5712
  O  O175  1  0.626700  0.680100  0.929300  1.0  -0.6347
  O  O176  1  0.670100  0.800900  0.783500  1.0  -0.5515
  O  O177  1  0.831600  0.724500  0.812700  1.0  -0.5717
  O  O178  1  0.444000  0.070700  0.609400  1.0  -0.6359
  O  O179  1  0.546400  0.216500  0.584400  1.0  -0.5484
  O  O180  1  0.355700  0.187300  0.537200  1.0  -0.573
  O  O181  1  0.053400  0.609400  0.319900  1.0  -0.6356
  O  O182  1  0.130800  0.584400  0.199100  1.0  -0.549
  O  O183  1  0.892900  0.537200  0.275500  1.0  -0.5711
  O  O184  1  0.373300  0.319900  0.070700  1.0  -0.6339
  O  O185  1  0.329900  0.199100  0.216500  1.0  -0.5512
  O  O186  1  0.168400  0.275500  0.187300  1.0  -0.5736
  F  F187  1  0.681200  0.828500  0.257200  1.0  -0.1903
  F  F188  1  0.836500  0.923800  0.294100  1.0  -0.2966
  F  F189  1  0.664600  0.951500  0.224800  1.0  -0.3488
  F  F190  1  0.938400  0.257200  0.914300  1.0  -0.1915
  F  F191  1  0.130600  0.294100  0.782100  1.0  -0.3009
  F  F192  1  0.889400  0.224800  0.823700  1.0  -0.347
  F  F193  1  0.852700  0.914300  0.828500  1.0  -0.1843
  F  F194  1  0.912700  0.782100  0.923800  1.0  -0.2979
  F  F195  1  0.713100  0.823700  0.951500  1.0  -0.3457
  F  F196  1  0.318800  0.171500  0.742800  1.0  -0.1881
  F  F197  1  0.163500  0.076200  0.705900  1.0  -0.298
  F  F198  1  0.335400  0.048500  0.775200  1.0  -0.3501
  F  F199  1  0.061600  0.742800  0.085700  1.0  -0.1919
  F  F200  1  0.869400  0.705900  0.217900  1.0  -0.2988
  F  F201  1  0.110600  0.775200  0.176300  1.0  -0.3472
  F  F202  1  0.147300  0.085700  0.171500  1.0  -0.187
  F  F203  1  0.087300  0.217900  0.076200  1.0  -0.2969
  F  F204  1  0.286900  0.176300  0.048500  1.0  -0.3452
