# generated using pymatgen
data_Co6H12C36O25
_symmetry_space_group_name_H-M   'P 1'
_cell_length_a   15.04100000
_cell_length_b   23.86200000
_cell_length_c   28.47900000
_cell_angle_alpha   90.00000000
_cell_angle_beta   90.00000000
_cell_angle_gamma   90.00000000
_symmetry_Int_Tables_number   1
_chemical_formula_structural   Co6H12C36O25
_chemical_formula_sum   'Co24 H48 C144 O100'
_cell_volume   10221.35067182
_cell_formula_units_Z   4
loop_
 _symmetry_equiv_pos_site_id
 _symmetry_equiv_pos_as_xyz
  1  'x, y, z'
loop_
 _atom_site_type_symbol
 _atom_site_label
 _atom_site_symmetry_multiplicity
 _atom_site_fract_x
 _atom_site_fract_y
 _atom_site_fract_z
 _atom_site_occupancy
 _atom_site_charge
  Co  Co1  1  0.590990  0.855270  0.977870  1.0  1.1021
  Co  Co2  1  0.746350  0.794990  0.063150  1.0  0.9524
  Co  Co3  1  0.090990  0.644730  0.022130  1.0  1.1011
  Co  Co4  1  0.246350  0.705010  0.936850  1.0  0.9537
  Co  Co5  1  0.409010  0.144730  0.477870  1.0  1.1002
  Co  Co6  1  0.253650  0.205010  0.563150  1.0  0.9463
  Co  Co7  1  0.909010  0.355270  0.522130  1.0  1.1007
  Co  Co8  1  0.753650  0.294990  0.436850  1.0  0.9518
  Co  Co9  1  0.409010  0.144730  0.022130  1.0  1.1006
  Co  Co10  1  0.253650  0.205010  0.936850  1.0  0.9493
  Co  Co11  1  0.909010  0.355270  0.977870  1.0  1.1006
  Co  Co12  1  0.753650  0.294990  0.063150  1.0  0.9452
  Co  Co13  1  0.590990  0.855270  0.522130  1.0  1.1019
  Co  Co14  1  0.746350  0.794990  0.436850  1.0  0.9527
  Co  Co15  1  0.090990  0.644730  0.477870  1.0  1.1017
  Co  Co16  1  0.246350  0.705010  0.563150  1.0  0.9547
  Co  Co17  1  0.101220  0.877830  0.750000  1.0  1.0679
  Co  Co18  1  0.888060  0.943760  0.750000  1.0  0.8199
  Co  Co19  1  0.601220  0.622170  0.250000  1.0  1.0684
  Co  Co20  1  0.388060  0.556240  0.250000  1.0  0.8293
  Co  Co21  1  0.898780  0.122170  0.250000  1.0  1.0686
  Co  Co22  1  0.111940  0.056240  0.250000  1.0  0.8274
  Co  Co23  1  0.398780  0.377830  0.750000  1.0  1.0681
  Co  Co24  1  0.611940  0.443760  0.750000  1.0  0.8312
  H  H25  1  0.046400  0.782700  0.871200  1.0  0.1199
  H  H26  1  0.874400  0.750300  0.976300  1.0  0.1208
  H  H27  1  0.804400  0.853000  0.870000  1.0  0.1189
  H  H28  1  0.203800  0.041400  0.878500  1.0  0.1201
  H  H29  1  0.407000  0.990300  0.959600  1.0  0.117
  H  H30  1  0.306200  0.886700  0.861700  1.0  0.1188
  H  H31  1  0.546400  0.717300  0.128800  1.0  0.12
  H  H32  1  0.374400  0.749700  0.023700  1.0  0.1202
  H  H33  1  0.304400  0.647000  0.130000  1.0  0.1194
  H  H34  1  0.703800  0.458600  0.121500  1.0  0.1215
  H  H35  1  0.907000  0.509700  0.040400  1.0  0.1166
  H  H36  1  0.806200  0.613300  0.138300  1.0  0.1194
  H  H37  1  0.953600  0.217300  0.371200  1.0  0.1201
  H  H38  1  0.125600  0.249700  0.476300  1.0  0.1205
  H  H39  1  0.195600  0.147000  0.370000  1.0  0.1184
  H  H40  1  0.796200  0.958600  0.378500  1.0  0.1212
  H  H41  1  0.593000  0.009700  0.459600  1.0  0.1166
  H  H42  1  0.693800  0.113300  0.361700  1.0  0.1188
  H  H43  1  0.453600  0.282700  0.628800  1.0  0.1204
  H  H44  1  0.625600  0.250300  0.523700  1.0  0.1208
  H  H45  1  0.695600  0.353000  0.630000  1.0  0.1196
  H  H46  1  0.296200  0.541400  0.621500  1.0  0.1218
  H  H47  1  0.093000  0.490300  0.540400  1.0  0.1164
  H  H48  1  0.193800  0.386700  0.638300  1.0  0.1187
  H  H49  1  0.953600  0.217300  0.128800  1.0  0.1202
  H  H50  1  0.125600  0.249700  0.023700  1.0  0.1203
  H  H51  1  0.195600  0.147000  0.130000  1.0  0.1189
  H  H52  1  0.796200  0.958600  0.121500  1.0  0.1196
  H  H53  1  0.593000  0.009700  0.040400  1.0  0.1163
  H  H54  1  0.693800  0.113300  0.138300  1.0  0.1189
  H  H55  1  0.453600  0.282700  0.871200  1.0  0.1202
  H  H56  1  0.625600  0.250300  0.976300  1.0  0.1209
  H  H57  1  0.695600  0.353000  0.870000  1.0  0.1194
  H  H58  1  0.296200  0.541400  0.878500  1.0  0.1217
  H  H59  1  0.093000  0.490300  0.959600  1.0  0.1166
  H  H60  1  0.193800  0.386700  0.861700  1.0  0.1183
  H  H61  1  0.046400  0.782700  0.628800  1.0  0.1201
  H  H62  1  0.874400  0.750300  0.523700  1.0  0.1207
  H  H63  1  0.804400  0.853000  0.630000  1.0  0.1189
  H  H64  1  0.203800  0.041400  0.621500  1.0  0.1222
  H  H65  1  0.407000  0.990300  0.540400  1.0  0.1166
  H  H66  1  0.306200  0.886700  0.638300  1.0  0.1191
  H  H67  1  0.546400  0.717300  0.371200  1.0  0.1199
  H  H68  1  0.374400  0.749700  0.476300  1.0  0.1205
  H  H69  1  0.304400  0.647000  0.370000  1.0  0.1192
  H  H70  1  0.703800  0.458600  0.378500  1.0  0.1212
  H  H71  1  0.907000  0.509700  0.459600  1.0  0.117
  H  H72  1  0.806200  0.613300  0.361700  1.0  0.1191
  C  C73  1  0.952200  0.853200  0.818900  1.0  0.736
  C  C74  1  0.928700  0.822600  0.863680  1.0  -0.1569
  C  C75  1  0.990900  0.787700  0.884990  1.0  0.0462
  C  C76  1  0.970600  0.760110  0.927080  1.0  -0.1489
  C  C77  1  0.888000  0.768170  0.948170  1.0  0.0336
  C  C78  1  0.826000  0.803330  0.926660  1.0  -0.1533
  C  C79  1  0.846400  0.830050  0.884350  1.0  0.0484
  C  C80  1  0.737500  0.814410  0.949150  1.0  0.6641
  C  C81  1  0.039500  0.722170  0.948720  1.0  0.7456
  C  C82  1  0.177300  0.951600  0.825750  1.0  0.7016
  C  C83  1  0.243900  0.962300  0.864380  1.0  -0.1533
  C  C84  1  0.244400  0.013880  0.887200  1.0  0.0437
  C  C85  1  0.305400  0.024530  0.923020  1.0  -0.1675
  C  C86  1  0.366700  0.983370  0.935500  1.0  0.0457
  C  C87  1  0.368100  0.932060  0.912350  1.0  -0.1506
  C  C88  1  0.306200  0.921150  0.876920  1.0  0.0323
  C  C89  1  0.308300  0.080900  0.946540  1.0  0.7545
  C  C90  1  0.437200  0.888820  0.925820  1.0  0.6833
  C  C91  1  0.452200  0.646800  0.181100  1.0  0.7357
  C  C92  1  0.428700  0.677400  0.136320  1.0  -0.1592
  C  C93  1  0.490900  0.712300  0.115010  1.0  0.0464
  C  C94  1  0.470600  0.739890  0.072920  1.0  -0.1486
  C  C95  1  0.388000  0.731830  0.051830  1.0  0.0335
  C  C96  1  0.326000  0.696670  0.073340  1.0  -0.1536
  C  C97  1  0.346400  0.669950  0.115650  1.0  0.0486
  C  C98  1  0.237500  0.685590  0.050850  1.0  0.6639
  C  C99  1  0.539500  0.777830  0.051280  1.0  0.7449
  C  C100  1  0.677300  0.548400  0.174250  1.0  0.7014
  C  C101  1  0.743900  0.537700  0.135620  1.0  -0.1542
  C  C102  1  0.744400  0.486120  0.112800  1.0  0.0438
  C  C103  1  0.805400  0.475470  0.076980  1.0  -0.1683
  C  C104  1  0.866700  0.516630  0.064500  1.0  0.0458
  C  C105  1  0.868100  0.567940  0.087650  1.0  -0.1507
  C  C106  1  0.806200  0.578850  0.123080  1.0  0.0315
  C  C107  1  0.808300  0.419100  0.053460  1.0  0.7543
  C  C108  1  0.937200  0.611180  0.074180  1.0  0.6813
  C  C109  1  0.047800  0.146800  0.318900  1.0  0.736
  C  C110  1  0.071300  0.177400  0.363680  1.0  -0.1574
  C  C111  1  0.009100  0.212300  0.384990  1.0  0.0453
  C  C112  1  0.029400  0.239890  0.427080  1.0  -0.1483
  C  C113  1  0.112000  0.231830  0.448170  1.0  0.0338
  C  C114  1  0.174000  0.196670  0.426660  1.0  -0.1543
  C  C115  1  0.153600  0.169950  0.384350  1.0  0.0485
  C  C116  1  0.262500  0.185590  0.449150  1.0  0.6625
  C  C117  1  0.960500  0.277830  0.448720  1.0  0.7448
  C  C118  1  0.822700  0.048400  0.325750  1.0  0.7011
  C  C119  1  0.756100  0.037700  0.364380  1.0  -0.1526
  C  C120  1  0.755600  0.986120  0.387200  1.0  0.0451
  C  C121  1  0.694600  0.975470  0.423020  1.0  -0.1682
  C  C122  1  0.633300  0.016630  0.435500  1.0  0.0459
  C  C123  1  0.631900  0.067940  0.412350  1.0  -0.1507
  C  C124  1  0.693800  0.078850  0.376920  1.0  0.0304
  C  C125  1  0.691700  0.919100  0.446540  1.0  0.7558
  C  C126  1  0.562800  0.111180  0.425820  1.0  0.682
  C  C127  1  0.547800  0.353200  0.681100  1.0  0.7363
  C  C128  1  0.571300  0.322600  0.636320  1.0  -0.159
  C  C129  1  0.509100  0.287700  0.615010  1.0  0.0456
  C  C130  1  0.529400  0.260110  0.572920  1.0  -0.1487
  C  C131  1  0.612000  0.268170  0.551830  1.0  0.0334
  C  C132  1  0.674000  0.303330  0.573340  1.0  -0.1543
  C  C133  1  0.653600  0.330050  0.615650  1.0  0.0488
  C  C134  1  0.762500  0.314410  0.550850  1.0  0.6642
  C  C135  1  0.460500  0.222170  0.551280  1.0  0.7448
  C  C136  1  0.322700  0.451600  0.674250  1.0  0.7015
  C  C137  1  0.256100  0.462300  0.635620  1.0  -0.1533
  C  C138  1  0.255600  0.513880  0.612800  1.0  0.0447
  C  C139  1  0.194600  0.524530  0.576980  1.0  -0.1676
  C  C140  1  0.133300  0.483370  0.564500  1.0  0.0455
  C  C141  1  0.131900  0.432060  0.587650  1.0  -0.1513
  C  C142  1  0.193800  0.421150  0.623080  1.0  0.0323
  C  C143  1  0.191700  0.580900  0.553460  1.0  0.7549
  C  C144  1  0.062800  0.388820  0.574180  1.0  0.6826
  C  C145  1  0.047800  0.146800  0.181100  1.0  0.7363
  C  C146  1  0.071300  0.177400  0.136320  1.0  -0.159
  C  C147  1  0.009100  0.212300  0.115010  1.0  0.0454
  C  C148  1  0.029400  0.239890  0.072920  1.0  -0.1483
  C  C149  1  0.112000  0.231830  0.051830  1.0  0.0338
  C  C150  1  0.174000  0.196670  0.073340  1.0  -0.1544
  C  C151  1  0.153600  0.169950  0.115650  1.0  0.0489
  C  C152  1  0.262500  0.185590  0.050850  1.0  0.6628
  C  C153  1  0.960500  0.277830  0.051280  1.0  0.7445
  C  C154  1  0.822700  0.048400  0.174250  1.0  0.7034
  C  C155  1  0.756100  0.037700  0.135620  1.0  -0.1534
  C  C156  1  0.755600  0.986120  0.112800  1.0  0.0454
  C  C157  1  0.694600  0.975470  0.076980  1.0  -0.1681
  C  C158  1  0.633300  0.016630  0.064500  1.0  0.0457
  C  C159  1  0.631900  0.067940  0.087650  1.0  -0.1507
  C  C160  1  0.693800  0.078850  0.123080  1.0  0.0307
  C  C161  1  0.691700  0.919100  0.053460  1.0  0.7553
  C  C162  1  0.562800  0.111180  0.074180  1.0  0.6815
  C  C163  1  0.547800  0.353200  0.818900  1.0  0.7364
  C  C164  1  0.571300  0.322600  0.863680  1.0  -0.157
  C  C165  1  0.509100  0.287700  0.884990  1.0  0.0451
  C  C166  1  0.529400  0.260110  0.927080  1.0  -0.1485
  C  C167  1  0.612000  0.268170  0.948170  1.0  0.0338
  C  C168  1  0.674000  0.303330  0.926660  1.0  -0.1542
  C  C169  1  0.653600  0.330050  0.884350  1.0  0.0486
  C  C170  1  0.762500  0.314410  0.949150  1.0  0.6646
  C  C171  1  0.460500  0.222170  0.948720  1.0  0.7453
  C  C172  1  0.322700  0.451600  0.825750  1.0  0.7015
  C  C173  1  0.256100  0.462300  0.864380  1.0  -0.1526
  C  C174  1  0.255600  0.513880  0.887200  1.0  0.0444
  C  C175  1  0.194600  0.524530  0.923020  1.0  -0.1678
  C  C176  1  0.133300  0.483370  0.935500  1.0  0.0459
  C  C177  1  0.131900  0.432060  0.912350  1.0  -0.1512
  C  C178  1  0.193800  0.421150  0.876920  1.0  0.0318
  C  C179  1  0.191700  0.580900  0.946540  1.0  0.7552
  C  C180  1  0.062800  0.388820  0.925820  1.0  0.6831
  C  C181  1  0.952200  0.853200  0.681100  1.0  0.7357
  C  C182  1  0.928700  0.822600  0.636320  1.0  -0.1592
  C  C183  1  0.990900  0.787700  0.615010  1.0  0.0464
  C  C184  1  0.970600  0.760110  0.572920  1.0  -0.1488
  C  C185  1  0.888000  0.768170  0.551830  1.0  0.0334
  C  C186  1  0.826000  0.803330  0.573340  1.0  -0.1536
  C  C187  1  0.846400  0.830050  0.615650  1.0  0.0487
  C  C188  1  0.737500  0.814410  0.550850  1.0  0.6638
  C  C189  1  0.039500  0.722170  0.551280  1.0  0.7453
  C  C190  1  0.177300  0.951600  0.674250  1.0  0.7008
  C  C191  1  0.243900  0.962300  0.635620  1.0  -0.154
  C  C192  1  0.244400  0.013880  0.612800  1.0  0.0441
  C  C193  1  0.305400  0.024530  0.576980  1.0  -0.1675
  C  C194  1  0.366700  0.983370  0.564500  1.0  0.0456
  C  C195  1  0.368100  0.932060  0.587650  1.0  -0.1507
  C  C196  1  0.306200  0.921150  0.623080  1.0  0.0329
  C  C197  1  0.308300  0.080900  0.553460  1.0  0.7542
  C  C198  1  0.437200  0.888820  0.574180  1.0  0.6825
  C  C199  1  0.452200  0.646800  0.318900  1.0  0.7356
  C  C200  1  0.428700  0.677400  0.363680  1.0  -0.1573
  C  C201  1  0.490900  0.712300  0.384990  1.0  0.0463
  C  C202  1  0.470600  0.739890  0.427080  1.0  -0.1488
  C  C203  1  0.388000  0.731830  0.448170  1.0  0.0333
  C  C204  1  0.326000  0.696670  0.426660  1.0  -0.1533
  C  C205  1  0.346400  0.669950  0.384350  1.0  0.0481
  C  C206  1  0.237500  0.685590  0.449150  1.0  0.6628
  C  C207  1  0.539500  0.777830  0.448720  1.0  0.7452
  C  C208  1  0.677300  0.548400  0.325750  1.0  0.7018
  C  C209  1  0.743900  0.537700  0.364380  1.0  -0.1533
  C  C210  1  0.744400  0.486120  0.387200  1.0  0.0435
  C  C211  1  0.805400  0.475470  0.423020  1.0  -0.1682
  C  C212  1  0.866700  0.516630  0.435500  1.0  0.0459
  C  C213  1  0.868100  0.567940  0.412350  1.0  -0.1507
  C  C214  1  0.806200  0.578850  0.376920  1.0  0.0309
  C  C215  1  0.808300  0.419100  0.446540  1.0  0.7547
  C  C216  1  0.937200  0.611180  0.425820  1.0  0.6814
  O  O217  1  0.027800  0.842680  0.801970  1.0  -0.618
  O  O218  1  0.894300  0.885990  0.803110  1.0  -0.6138
  O  O219  1  0.678200  0.840330  0.925730  1.0  -0.5715
  O  O220  1  0.721200  0.799180  0.990460  1.0  -0.646
  O  O221  1  0.017400  0.697670  0.986580  1.0  -0.5989
  O  O222  1  0.111500  0.716540  0.927240  1.0  -0.6168
  O  O223  1  0.116000  0.987000  0.820990  1.0  -0.4899
  O  O224  1  0.188300  0.908400  0.800930  1.0  -0.5896
  O  O225  1  0.259700  0.118930  0.930080  1.0  -0.6372
  O  O226  1  0.359800  0.084650  0.981660  1.0  -0.6006
  O  O227  1  0.499900  0.907000  0.951900  1.0  -0.579
  O  O228  1  0.430200  0.839140  0.912460  1.0  -0.4203
  O  O229  1  0.527800  0.657320  0.198030  1.0  -0.6184
  O  O230  1  0.394300  0.614010  0.196890  1.0  -0.6147
  O  O231  1  0.178200  0.659670  0.074270  1.0  -0.5714
  O  O232  1  0.221200  0.700820  0.009540  1.0  -0.6457
  O  O233  1  0.517400  0.802330  0.013420  1.0  -0.5976
  O  O234  1  0.611500  0.783460  0.072760  1.0  -0.6171
  O  O235  1  0.616000  0.513000  0.179010  1.0  -0.4959
  O  O236  1  0.688300  0.591600  0.199070  1.0  -0.5894
  O  O237  1  0.759700  0.381070  0.069920  1.0  -0.6376
  O  O238  1  0.859800  0.415350  0.018340  1.0  -0.6001
  O  O239  1  0.999900  0.593000  0.048100  1.0  -0.58
  O  O240  1  0.930200  0.660860  0.087540  1.0  -0.4202
  O  O241  1  0.972200  0.157320  0.301970  1.0  -0.6192
  O  O242  1  0.105700  0.114010  0.303110  1.0  -0.6153
  O  O243  1  0.321800  0.159670  0.425730  1.0  -0.5718
  O  O244  1  0.278800  0.200820  0.490460  1.0  -0.649
  O  O245  1  0.982600  0.302330  0.486580  1.0  -0.5966
  O  O246  1  0.888500  0.283460  0.427240  1.0  -0.6156
  O  O247  1  0.884000  0.013000  0.320990  1.0  -0.4893
  O  O248  1  0.811700  0.091600  0.300930  1.0  -0.5906
  O  O249  1  0.740300  0.881070  0.430080  1.0  -0.6375
  O  O250  1  0.640200  0.915350  0.481660  1.0  -0.601
  O  O251  1  0.500100  0.093000  0.451900  1.0  -0.5806
  O  O252  1  0.569800  0.160860  0.412460  1.0  -0.419
  O  O253  1  0.472200  0.342680  0.698030  1.0  -0.6186
  O  O254  1  0.605700  0.385990  0.696890  1.0  -0.6163
  O  O255  1  0.821800  0.340330  0.574270  1.0  -0.5687
  O  O256  1  0.778800  0.299180  0.509540  1.0  -0.648
  O  O257  1  0.482600  0.197670  0.513420  1.0  -0.5954
  O  O258  1  0.388500  0.216540  0.572760  1.0  -0.616
  O  O259  1  0.384000  0.487000  0.679010  1.0  -0.4988
  O  O260  1  0.311700  0.408400  0.699070  1.0  -0.5888
  O  O261  1  0.240300  0.618930  0.569920  1.0  -0.6379
  O  O262  1  0.140200  0.584650  0.518340  1.0  -0.5999
  O  O263  1  0.000100  0.407000  0.548100  1.0  -0.5794
  O  O264  1  0.069800  0.339140  0.587540  1.0  -0.419
  O  O265  1  0.972200  0.157320  0.198030  1.0  -0.6188
  O  O266  1  0.105700  0.114010  0.196890  1.0  -0.6164
  O  O267  1  0.321800  0.159670  0.074270  1.0  -0.57
  O  O268  1  0.278800  0.200820  0.009540  1.0  -0.6482
  O  O269  1  0.982600  0.302330  0.013420  1.0  -0.5955
  O  O270  1  0.888500  0.283460  0.072760  1.0  -0.6162
  O  O271  1  0.884000  0.013000  0.179010  1.0  -0.4899
  O  O272  1  0.811700  0.091600  0.199070  1.0  -0.5898
  O  O273  1  0.740300  0.881070  0.069920  1.0  -0.6386
  O  O274  1  0.640200  0.915350  0.018340  1.0  -0.6001
  O  O275  1  0.500100  0.093000  0.048100  1.0  -0.5794
  O  O276  1  0.569800  0.160860  0.087540  1.0  -0.4185
  O  O277  1  0.472200  0.342680  0.801970  1.0  -0.6189
  O  O278  1  0.605700  0.385990  0.803110  1.0  -0.6154
  O  O279  1  0.821800  0.340330  0.925730  1.0  -0.5713
  O  O280  1  0.778800  0.299180  0.990460  1.0  -0.6481
  O  O281  1  0.482600  0.197670  0.986580  1.0  -0.5963
  O  O282  1  0.388500  0.216540  0.927240  1.0  -0.615
  O  O283  1  0.384000  0.487000  0.820990  1.0  -0.4981
  O  O284  1  0.311700  0.408400  0.800930  1.0  -0.5901
  O  O285  1  0.240300  0.618930  0.930080  1.0  -0.6377
  O  O286  1  0.140200  0.584650  0.981660  1.0  -0.6009
  O  O287  1  0.000100  0.407000  0.951900  1.0  -0.579
  O  O288  1  0.069800  0.339140  0.912460  1.0  -0.4201
  O  O289  1  0.027800  0.842680  0.698030  1.0  -0.6176
  O  O290  1  0.894300  0.885990  0.696890  1.0  -0.6136
  O  O291  1  0.678200  0.840330  0.574270  1.0  -0.5703
  O  O292  1  0.721200  0.799180  0.509540  1.0  -0.6458
  O  O293  1  0.017400  0.697670  0.513420  1.0  -0.597
  O  O294  1  0.111500  0.716540  0.572760  1.0  -0.6164
  O  O295  1  0.116000  0.987000  0.679010  1.0  -0.4905
  O  O296  1  0.188300  0.908400  0.699070  1.0  -0.5883
  O  O297  1  0.259700  0.118930  0.569920  1.0  -0.6373
  O  O298  1  0.359800  0.084650  0.518340  1.0  -0.5996
  O  O299  1  0.499900  0.907000  0.548100  1.0  -0.5792
  O  O300  1  0.430200  0.839140  0.587540  1.0  -0.4203
  O  O301  1  0.527800  0.657320  0.301970  1.0  -0.6186
  O  O302  1  0.394300  0.614010  0.303110  1.0  -0.6143
  O  O303  1  0.178200  0.659670  0.425730  1.0  -0.5704
  O  O304  1  0.221200  0.700820  0.490460  1.0  -0.6472
  O  O305  1  0.517400  0.802330  0.486580  1.0  -0.5991
  O  O306  1  0.611500  0.783460  0.427240  1.0  -0.617
  O  O307  1  0.616000  0.513000  0.320990  1.0  -0.4954
  O  O308  1  0.688300  0.591600  0.300930  1.0  -0.5897
  O  O309  1  0.759700  0.381070  0.430080  1.0  -0.6376
  O  O310  1  0.859800  0.415350  0.481660  1.0  -0.6012
  O  O311  1  0.999900  0.593000  0.451900  1.0  -0.5802
  O  O312  1  0.930200  0.660860  0.412460  1.0  -0.419
  O  O313  1  0.026000  0.955090  0.750000  1.0  -0.6617
  O  O314  1  0.526000  0.544910  0.250000  1.0  -0.6622
  O  O315  1  0.974000  0.044910  0.250000  1.0  -0.6631
  O  O316  1  0.474000  0.455090  0.750000  1.0  -0.6629
