# generated using pymatgen
data_CdH24(C5N2)6
_symmetry_space_group_name_H-M   'P 1'
_cell_length_a   17.54200000
_cell_length_b   17.54200000
_cell_length_c   17.54200000
_cell_angle_alpha   90.00000000
_cell_angle_beta   90.00000000
_cell_angle_gamma   90.00000000
_symmetry_Int_Tables_number   1
_chemical_formula_structural   CdH24(C5N2)6
_chemical_formula_sum   'Cd4 H96 C120 N48'
_cell_volume   5398.05518409
_cell_formula_units_Z   4
loop_
 _symmetry_equiv_pos_site_id
 _symmetry_equiv_pos_as_xyz
  1  'x, y, z'
loop_
 _atom_site_type_symbol
 _atom_site_label
 _atom_site_symmetry_multiplicity
 _atom_site_fract_x
 _atom_site_fract_y
 _atom_site_fract_z
 _atom_site_occupancy
 _atom_site_charge
  Cd  Cd1  1  0.500000  0.500000  0.000000  1.0  0.8893
  Cd  Cd2  1  0.000000  0.500000  0.500000  1.0  0.8893
  Cd  Cd3  1  0.500000  0.000000  0.500000  1.0  0.8893
  Cd  Cd4  1  0.000000  0.000000  0.000000  1.0  0.8893
  H  H5  1  0.528000  0.670600  0.244400  1.0  0.2406
  H  H6  1  0.585800  0.779900  0.267400  1.0  0.087
  H  H7  1  0.628600  0.640300  0.049000  1.0  0.0661
  H  H8  1  0.470500  0.561400  0.185000  1.0  0.0777
  H  H9  1  0.972000  0.329400  0.744400  1.0  0.2402
  H  H10  1  0.914200  0.220100  0.767400  1.0  0.0866
  H  H11  1  0.871400  0.359700  0.549000  1.0  0.0654
  H  H12  1  0.029500  0.438600  0.685000  1.0  0.0781
  H  H13  1  0.472000  0.170600  0.255600  1.0  0.2393
  H  H14  1  0.414200  0.279900  0.232600  1.0  0.0865
  H  H15  1  0.371400  0.140300  0.451000  1.0  0.0668
  H  H16  1  0.529500  0.061400  0.315000  1.0  0.0775
  H  H17  1  0.028000  0.829400  0.755600  1.0  0.2401
  H  H18  1  0.085800  0.720100  0.732600  1.0  0.087
  H  H19  1  0.128600  0.859700  0.951000  1.0  0.067
  H  H20  1  0.970500  0.938600  0.815000  1.0  0.0778
  H  H21  1  0.244400  0.528000  0.670600  1.0  0.2362
  H  H22  1  0.267400  0.585800  0.779900  1.0  0.0871
  H  H23  1  0.049000  0.628600  0.640300  1.0  0.066
  H  H24  1  0.185000  0.470500  0.561400  1.0  0.0762
  H  H25  1  0.744400  0.972000  0.329400  1.0  0.2376
  H  H26  1  0.767400  0.914200  0.220100  1.0  0.0869
  H  H27  1  0.549000  0.871400  0.359700  1.0  0.0658
  H  H28  1  0.685000  0.029500  0.438600  1.0  0.0758
  H  H29  1  0.255600  0.472000  0.170600  1.0  0.2358
  H  H30  1  0.232600  0.414200  0.279900  1.0  0.0877
  H  H31  1  0.451000  0.371400  0.140300  1.0  0.0656
  H  H32  1  0.315000  0.529500  0.061400  1.0  0.0757
  H  H33  1  0.755600  0.028000  0.829400  1.0  0.2358
  H  H34  1  0.732600  0.085800  0.720100  1.0  0.0877
  H  H35  1  0.951000  0.128600  0.859700  1.0  0.0654
  H  H36  1  0.815000  0.970500  0.938600  1.0  0.075
  H  H37  1  0.670600  0.244400  0.528000  1.0  0.2391
  H  H38  1  0.779900  0.267400  0.585800  1.0  0.0882
  H  H39  1  0.640300  0.049000  0.628600  1.0  0.0662
  H  H40  1  0.561400  0.185000  0.470500  1.0  0.0768
  H  H41  1  0.329400  0.744400  0.972000  1.0  0.2394
  H  H42  1  0.220100  0.767400  0.914200  1.0  0.0879
  H  H43  1  0.359700  0.549000  0.871400  1.0  0.0659
  H  H44  1  0.438600  0.685000  0.029500  1.0  0.0773
  H  H45  1  0.170600  0.255600  0.472000  1.0  0.2382
  H  H46  1  0.279900  0.232600  0.414200  1.0  0.0882
  H  H47  1  0.140300  0.451000  0.371400  1.0  0.0661
  H  H48  1  0.061400  0.315000  0.529500  1.0  0.0778
  H  H49  1  0.829400  0.755600  0.028000  1.0  0.2372
  H  H50  1  0.720100  0.732600  0.085800  1.0  0.0879
  H  H51  1  0.859700  0.951000  0.128600  1.0  0.0661
  H  H52  1  0.938600  0.815000  0.970500  1.0  0.0775
  H  H53  1  0.472000  0.329400  0.755600  1.0  0.2395
  H  H54  1  0.414200  0.220100  0.732600  1.0  0.0866
  H  H55  1  0.371400  0.359700  0.951000  1.0  0.0669
  H  H56  1  0.529500  0.438600  0.815000  1.0  0.0776
  H  H57  1  0.028000  0.670600  0.255600  1.0  0.2399
  H  H58  1  0.085800  0.779900  0.232600  1.0  0.0868
  H  H59  1  0.128600  0.640300  0.451000  1.0  0.0671
  H  H60  1  0.970500  0.561400  0.315000  1.0  0.0776
  H  H61  1  0.528000  0.829400  0.744400  1.0  0.2408
  H  H62  1  0.585800  0.720100  0.767400  1.0  0.0868
  H  H63  1  0.628600  0.859700  0.549000  1.0  0.0658
  H  H64  1  0.470500  0.938600  0.685000  1.0  0.0779
  H  H65  1  0.972000  0.170600  0.244400  1.0  0.2403
  H  H66  1  0.914200  0.279900  0.267400  1.0  0.0869
  H  H67  1  0.871400  0.140300  0.049000  1.0  0.0658
  H  H68  1  0.029500  0.061400  0.185000  1.0  0.0779
  H  H69  1  0.755600  0.472000  0.329400  1.0  0.2358
  H  H70  1  0.732600  0.414200  0.220100  1.0  0.0877
  H  H71  1  0.951000  0.371400  0.359700  1.0  0.0654
  H  H72  1  0.815000  0.529500  0.438600  1.0  0.0751
  H  H73  1  0.255600  0.028000  0.670600  1.0  0.2358
  H  H74  1  0.232600  0.085800  0.779900  1.0  0.0874
  H  H75  1  0.451000  0.128600  0.640300  1.0  0.0658
  H  H76  1  0.315000  0.970500  0.561400  1.0  0.0754
  H  H77  1  0.744400  0.528000  0.829400  1.0  0.2365
  H  H78  1  0.767400  0.585800  0.720100  1.0  0.0874
  H  H79  1  0.549000  0.628600  0.859700  1.0  0.0653
  H  H80  1  0.685000  0.470500  0.938600  1.0  0.0761
  H  H81  1  0.244400  0.972000  0.170600  1.0  0.2372
  H  H82  1  0.267400  0.914200  0.279900  1.0  0.0869
  H  H83  1  0.049000  0.871400  0.140300  1.0  0.0661
  H  H84  1  0.185000  0.029500  0.061400  1.0  0.0763
  H  H85  1  0.329400  0.755600  0.472000  1.0  0.2381
  H  H86  1  0.220100  0.732600  0.414200  1.0  0.088
  H  H87  1  0.359700  0.951000  0.371400  1.0  0.066
  H  H88  1  0.438600  0.815000  0.529500  1.0  0.0782
  H  H89  1  0.670600  0.255600  0.028000  1.0  0.2376
  H  H90  1  0.779900  0.232600  0.085800  1.0  0.088
  H  H91  1  0.640300  0.451000  0.128600  1.0  0.0661
  H  H92  1  0.561400  0.315000  0.970500  1.0  0.0771
  H  H93  1  0.829400  0.744400  0.528000  1.0  0.2391
  H  H94  1  0.720100  0.767400  0.585800  1.0  0.0878
  H  H95  1  0.859700  0.549000  0.628600  1.0  0.0666
  H  H96  1  0.938600  0.685000  0.470500  1.0  0.0769
  H  H97  1  0.170600  0.244400  0.972000  1.0  0.2397
  H  H98  1  0.279900  0.267400  0.914200  1.0  0.0882
  H  H99  1  0.140300  0.049000  0.871400  1.0  0.066
  H  H100  1  0.061400  0.185000  0.029500  1.0  0.0773
  C  C101  1  0.644700  0.746700  0.172800  1.0  0.0059
  C  C102  1  0.628100  0.792200  0.235900  1.0  -0.1548
  C  C103  1  0.597900  0.680100  0.154200  1.0  0.0086
  C  C104  1  0.596100  0.634500  0.091900  1.0  0.0406
  C  C105  1  0.510500  0.591500  0.164400  1.0  0.1203
  C  C106  1  0.855300  0.253300  0.672800  1.0  0.0065
  C  C107  1  0.871900  0.207800  0.735900  1.0  -0.1558
  C  C108  1  0.902100  0.319900  0.654200  1.0  0.0073
  C  C109  1  0.903900  0.365500  0.591900  1.0  0.04
  C  C110  1  0.989500  0.408500  0.664400  1.0  0.1201
  C  C111  1  0.355300  0.246700  0.327200  1.0  0.0066
  C  C112  1  0.371900  0.292200  0.264100  1.0  -0.1563
  C  C113  1  0.402100  0.180100  0.345800  1.0  0.0067
  C  C114  1  0.403900  0.134500  0.408100  1.0  0.0396
  C  C115  1  0.489500  0.091500  0.335600  1.0  0.12
  C  C116  1  0.144700  0.753300  0.827200  1.0  0.006
  C  C117  1  0.128100  0.707800  0.764100  1.0  -0.154
  C  C118  1  0.097900  0.819900  0.845800  1.0  0.0074
  C  C119  1  0.096100  0.865500  0.908100  1.0  0.0416
  C  C120  1  0.010500  0.908500  0.835600  1.0  0.1208
  C  C121  1  0.172800  0.644700  0.746700  1.0  0.0085
  C  C122  1  0.235900  0.628100  0.792200  1.0  -0.1547
  C  C123  1  0.154200  0.597900  0.680100  1.0  0.0037
  C  C124  1  0.091900  0.596100  0.634500  1.0  0.0379
  C  C125  1  0.164400  0.510500  0.591500  1.0  0.1179
  C  C126  1  0.672800  0.855300  0.253300  1.0  0.0081
  C  C127  1  0.735900  0.871900  0.207800  1.0  -0.1557
  C  C128  1  0.654200  0.902100  0.319900  1.0  0.0053
  C  C129  1  0.591900  0.903900  0.365500  1.0  0.0386
  C  C130  1  0.664400  0.989500  0.408500  1.0  0.1182
  C  C131  1  0.327200  0.355300  0.246700  1.0  0.0081
  C  C132  1  0.264100  0.371900  0.292200  1.0  -0.154
  C  C133  1  0.345800  0.402100  0.180100  1.0  0.0044
  C  C134  1  0.408100  0.403900  0.134500  1.0  0.0392
  C  C135  1  0.335600  0.489500  0.091500  1.0  0.1184
  C  C136  1  0.827200  0.144700  0.753300  1.0  0.0081
  C  C137  1  0.764100  0.128100  0.707800  1.0  -0.1534
  C  C138  1  0.845800  0.097900  0.819900  1.0  0.0068
  C  C139  1  0.908100  0.096100  0.865500  1.0  0.0384
  C  C140  1  0.835600  0.010500  0.908500  1.0  0.1182
  C  C141  1  0.746700  0.172800  0.644700  1.0  0.0082
  C  C142  1  0.792200  0.235900  0.628100  1.0  -0.1533
  C  C143  1  0.680100  0.154200  0.597900  1.0  0.0042
  C  C144  1  0.634500  0.091900  0.596100  1.0  0.0392
  C  C145  1  0.591500  0.164400  0.510500  1.0  0.1192
  C  C146  1  0.253300  0.672800  0.855300  1.0  0.0079
  C  C147  1  0.207800  0.735900  0.871900  1.0  -0.1535
  C  C148  1  0.319900  0.654200  0.902100  1.0  0.0054
  C  C149  1  0.365500  0.591900  0.903900  1.0  0.0383
  C  C150  1  0.408500  0.664400  0.989500  1.0  0.1193
  C  C151  1  0.246700  0.327200  0.355300  1.0  0.0077
  C  C152  1  0.292200  0.264100  0.371900  1.0  -0.1538
  C  C153  1  0.180100  0.345800  0.402100  1.0  0.0054
  C  C154  1  0.134500  0.408100  0.403900  1.0  0.0379
  C  C155  1  0.091500  0.335600  0.489500  1.0  0.1207
  C  C156  1  0.753300  0.827200  0.144700  1.0  0.0083
  C  C157  1  0.707800  0.764100  0.128100  1.0  -0.1543
  C  C158  1  0.819900  0.845800  0.097900  1.0  0.0041
  C  C159  1  0.865500  0.908100  0.096100  1.0  0.0379
  C  C160  1  0.908500  0.835600  0.010500  1.0  0.1192
  C  C161  1  0.355300  0.253300  0.827200  1.0  0.0067
  C  C162  1  0.371900  0.207800  0.764100  1.0  -0.1557
  C  C163  1  0.402100  0.319900  0.845800  1.0  0.0061
  C  C164  1  0.403900  0.365500  0.908100  1.0  0.0401
  C  C165  1  0.489500  0.408500  0.835600  1.0  0.1201
  C  C166  1  0.144700  0.746700  0.327200  1.0  0.0061
  C  C167  1  0.128100  0.792200  0.264100  1.0  -0.1548
  C  C168  1  0.097900  0.680100  0.345800  1.0  0.0079
  C  C169  1  0.096100  0.634500  0.408100  1.0  0.041
  C  C170  1  0.010500  0.591500  0.335600  1.0  0.1211
  C  C171  1  0.644700  0.753300  0.672800  1.0  0.0059
  C  C172  1  0.628100  0.707800  0.735900  1.0  -0.1544
  C  C173  1  0.597900  0.819900  0.654200  1.0  0.0084
  C  C174  1  0.596100  0.865500  0.591900  1.0  0.0407
  C  C175  1  0.510500  0.908500  0.664400  1.0  0.1198
  C  C176  1  0.855300  0.246700  0.172800  1.0  0.0065
  C  C177  1  0.871900  0.292200  0.235900  1.0  -0.1561
  C  C178  1  0.902100  0.180100  0.154200  1.0  0.0077
  C  C179  1  0.903900  0.134500  0.091900  1.0  0.04
  C  C180  1  0.989500  0.091500  0.164400  1.0  0.1201
  C  C181  1  0.827200  0.355300  0.253300  1.0  0.0079
  C  C182  1  0.764100  0.371900  0.207800  1.0  -0.1543
  C  C183  1  0.845800  0.402100  0.319900  1.0  0.0059
  C  C184  1  0.908100  0.403900  0.365500  1.0  0.0389
  C  C185  1  0.835600  0.489500  0.408500  1.0  0.1175
  C  C186  1  0.327200  0.144700  0.746700  1.0  0.0083
  C  C187  1  0.264100  0.128100  0.792200  1.0  -0.1532
  C  C188  1  0.345800  0.097900  0.680100  1.0  0.0044
  C  C189  1  0.408100  0.096100  0.634500  1.0  0.0385
  C  C190  1  0.335600  0.010500  0.591500  1.0  0.118
  C  C191  1  0.672800  0.644700  0.753300  1.0  0.0083
  C  C192  1  0.735900  0.628100  0.707800  1.0  -0.155
  C  C193  1  0.654200  0.597900  0.819900  1.0  0.0058
  C  C194  1  0.591900  0.596100  0.865500  1.0  0.0379
  C  C195  1  0.664400  0.510500  0.908500  1.0  0.1192
  C  C196  1  0.172800  0.855300  0.246700  1.0  0.0084
  C  C197  1  0.235900  0.871900  0.292200  1.0  -0.1553
  C  C198  1  0.154200  0.902100  0.180100  1.0  0.0038
  C  C199  1  0.091900  0.903900  0.134500  1.0  0.0389
  C  C200  1  0.164400  0.989500  0.091500  1.0  0.1183
  C  C201  1  0.253300  0.827200  0.355300  1.0  0.0078
  C  C202  1  0.207800  0.764100  0.371900  1.0  -0.1541
  C  C203  1  0.319900  0.845800  0.402100  1.0  0.0054
  C  C204  1  0.365500  0.908100  0.403900  1.0  0.0377
  C  C205  1  0.408500  0.835600  0.489500  1.0  0.1204
  C  C206  1  0.746700  0.327200  0.144700  1.0  0.008
  C  C207  1  0.792200  0.264100  0.128100  1.0  -0.1538
  C  C208  1  0.680100  0.345800  0.097900  1.0  0.0041
  C  C209  1  0.634500  0.408100  0.096100  1.0  0.0381
  C  C210  1  0.591500  0.335600  0.010500  1.0  0.1196
  C  C211  1  0.753300  0.672800  0.644700  1.0  0.0084
  C  C212  1  0.707800  0.735900  0.628100  1.0  -0.1538
  C  C213  1  0.819900  0.654200  0.597900  1.0  0.0041
  C  C214  1  0.865500  0.591900  0.596100  1.0  0.039
  C  C215  1  0.908500  0.664400  0.510500  1.0  0.1192
  C  C216  1  0.246700  0.172800  0.855300  1.0  0.0078
  C  C217  1  0.292200  0.235900  0.871900  1.0  -0.1534
  C  C218  1  0.180100  0.154200  0.902100  1.0  0.0056
  C  C219  1  0.134500  0.091900  0.903900  1.0  0.0385
  C  C220  1  0.091500  0.164400  0.989500  1.0  0.1191
  N  N221  1  0.541600  0.652200  0.199700  1.0  -0.2418
  N  N222  1  0.542000  0.579400  0.098400  1.0  -0.3908
  N  N223  1  0.958400  0.347800  0.699700  1.0  -0.2403
  N  N224  1  0.958000  0.420600  0.598400  1.0  -0.3893
  N  N225  1  0.458400  0.152200  0.300300  1.0  -0.2428
  N  N226  1  0.458000  0.079400  0.401600  1.0  -0.3909
  N  N227  1  0.041600  0.847800  0.800300  1.0  -0.2417
  N  N228  1  0.042000  0.920600  0.901600  1.0  -0.3896
  N  N229  1  0.199700  0.541600  0.652200  1.0  -0.2461
  N  N230  1  0.098400  0.542000  0.579400  1.0  -0.3887
  N  N231  1  0.699700  0.958400  0.347800  1.0  -0.2459
  N  N232  1  0.598400  0.958000  0.420600  1.0  -0.3899
  N  N233  1  0.300300  0.458400  0.152200  1.0  -0.2477
  N  N234  1  0.401600  0.458000  0.079400  1.0  -0.3898
  N  N235  1  0.800300  0.041600  0.847800  1.0  -0.2466
  N  N236  1  0.901600  0.042000  0.920600  1.0  -0.3904
  N  N237  1  0.652200  0.199700  0.541600  1.0  -0.2425
  N  N238  1  0.579400  0.098400  0.542000  1.0  -0.3893
  N  N239  1  0.347800  0.699700  0.958400  1.0  -0.2431
  N  N240  1  0.420600  0.598400  0.958000  1.0  -0.3909
  N  N241  1  0.152200  0.300300  0.458400  1.0  -0.2462
  N  N242  1  0.079400  0.401600  0.458000  1.0  -0.3891
  N  N243  1  0.847800  0.800300  0.041600  1.0  -0.2471
  N  N244  1  0.920600  0.901600  0.042000  1.0  -0.3899
  N  N245  1  0.458400  0.347800  0.800300  1.0  -0.2425
  N  N246  1  0.458000  0.420600  0.901600  1.0  -0.3891
  N  N247  1  0.041600  0.652200  0.300300  1.0  -0.2422
  N  N248  1  0.042000  0.579400  0.401600  1.0  -0.3914
  N  N249  1  0.541600  0.847800  0.699700  1.0  -0.2409
  N  N250  1  0.542000  0.920600  0.598400  1.0  -0.3896
  N  N251  1  0.958400  0.152200  0.199700  1.0  -0.2409
  N  N252  1  0.958000  0.079400  0.098400  1.0  -0.3904
  N  N253  1  0.800300  0.458400  0.347800  1.0  -0.2467
  N  N254  1  0.901600  0.458000  0.420600  1.0  -0.3906
  N  N255  1  0.300300  0.041600  0.652200  1.0  -0.2475
  N  N256  1  0.401600  0.042000  0.579400  1.0  -0.3898
  N  N257  1  0.699700  0.541600  0.847800  1.0  -0.2461
  N  N258  1  0.598400  0.542000  0.920600  1.0  -0.3896
  N  N259  1  0.199700  0.958400  0.152200  1.0  -0.2461
  N  N260  1  0.098400  0.958000  0.079400  1.0  -0.3888
  N  N261  1  0.347800  0.800300  0.458400  1.0  -0.2466
  N  N262  1  0.420600  0.901600  0.458000  1.0  -0.3902
  N  N263  1  0.652200  0.300300  0.041600  1.0  -0.247
  N  N264  1  0.579400  0.401600  0.042000  1.0  -0.3887
  N  N265  1  0.847800  0.699700  0.541600  1.0  -0.243
  N  N266  1  0.920600  0.598400  0.542000  1.0  -0.3908
  N  N267  1  0.152200  0.199700  0.958400  1.0  -0.2424
  N  N268  1  0.079400  0.098400  0.958000  1.0  -0.3893
