# generated using pymatgen
data_Zn5P6(HO5)4
_symmetry_space_group_name_H-M   'P 1'
_cell_length_a   33.89400000
_cell_length_b   13.22900000
_cell_length_c   8.93700000
_cell_angle_alpha   90.00000000
_cell_angle_beta   104.37000000
_cell_angle_gamma   90.00000000
_symmetry_Int_Tables_number   1
_chemical_formula_structural   Zn5P6(HO5)4
_chemical_formula_sum   'Zn20 P24 H16 O80'
_cell_volume   3881.83289522
_cell_formula_units_Z   4
loop_
 _symmetry_equiv_pos_site_id
 _symmetry_equiv_pos_as_xyz
  1  'x, y, z'
loop_
 _atom_site_type_symbol
 _atom_site_label
 _atom_site_symmetry_multiplicity
 _atom_site_fract_x
 _atom_site_fract_y
 _atom_site_fract_z
 _atom_site_occupancy
 _atom_site_charge
  Zn  Zn1  1  0.148580  0.395700  0.160010  1.0  1.1451
  Zn  Zn2  1  0.229320  0.641630  0.127240  1.0  1.1629
  Zn  Zn3  1  0.648580  0.895700  0.160010  1.0  1.1451
  Zn  Zn4  1  0.729320  0.141630  0.127240  1.0  1.1629
  Zn  Zn5  1  0.851420  0.395700  0.339990  1.0  1.1451
  Zn  Zn6  1  0.770680  0.641630  0.372760  1.0  1.1644
  Zn  Zn7  1  0.351420  0.895700  0.339990  1.0  1.1451
  Zn  Zn8  1  0.270680  0.141630  0.372760  1.0  1.1644
  Zn  Zn9  1  0.851420  0.604300  0.839990  1.0  1.1443
  Zn  Zn10  1  0.770680  0.358370  0.872760  1.0  1.1644
  Zn  Zn11  1  0.351420  0.104300  0.839990  1.0  1.1443
  Zn  Zn12  1  0.270680  0.858370  0.872760  1.0  1.1644
  Zn  Zn13  1  0.148580  0.604300  0.660010  1.0  1.1446
  Zn  Zn14  1  0.229320  0.358370  0.627240  1.0  1.163
  Zn  Zn15  1  0.648580  0.104300  0.660010  1.0  1.1446
  Zn  Zn16  1  0.729320  0.858370  0.627240  1.0  1.163
  Zn  Zn17  1  0.000000  0.488620  0.750000  1.0  1.1506
  Zn  Zn18  1  0.500000  0.988620  0.750000  1.0  1.1506
  Zn  Zn19  1  0.000000  0.511380  0.250000  1.0  1.1512
  Zn  Zn20  1  0.500000  0.011380  0.250000  1.0  1.1512
  P  P21  1  0.195700  0.551640  0.403570  1.0  1.5771
  P  P22  1  0.051630  0.382680  0.066600  1.0  1.4534
  P  P23  1  0.180050  0.209730  0.384600  1.0  1.5394
  P  P24  1  0.695700  0.051640  0.403570  1.0  1.5771
  P  P25  1  0.551630  0.882680  0.066600  1.0  1.4534
  P  P26  1  0.680050  0.709730  0.384600  1.0  1.5394
  P  P27  1  0.804300  0.551640  0.096430  1.0  1.5757
  P  P28  1  0.948370  0.382680  0.433400  1.0  1.4557
  P  P29  1  0.819950  0.209730  0.115400  1.0  1.5396
  P  P30  1  0.304300  0.051640  0.096430  1.0  1.5757
  P  P31  1  0.448370  0.882680  0.433400  1.0  1.4557
  P  P32  1  0.319950  0.709730  0.115400  1.0  1.5396
  P  P33  1  0.804300  0.448360  0.596430  1.0  1.5763
  P  P34  1  0.948370  0.617320  0.933400  1.0  1.4537
  P  P35  1  0.819950  0.790270  0.615400  1.0  1.5386
  P  P36  1  0.304300  0.948360  0.596430  1.0  1.5763
  P  P37  1  0.448370  0.117320  0.933400  1.0  1.4537
  P  P38  1  0.319950  0.290270  0.615400  1.0  1.5386
  P  P39  1  0.195700  0.448360  0.903570  1.0  1.5777
  P  P40  1  0.051630  0.617320  0.566600  1.0  1.4524
  P  P41  1  0.180050  0.790270  0.884600  1.0  1.5382
  P  P42  1  0.695700  0.948360  0.903570  1.0  1.5777
  P  P43  1  0.551630  0.117320  0.566600  1.0  1.4524
  P  P44  1  0.680050  0.290270  0.884600  1.0  1.5382
  H  H45  1  0.057000  0.285000  0.107000  1.0  -0.0186
  H  H46  1  0.162400  0.118900  0.388000  1.0  -0.0279
  H  H47  1  0.557000  0.785000  0.107000  1.0  -0.0186
  H  H48  1  0.662400  0.618900  0.388000  1.0  -0.0279
  H  H49  1  0.943000  0.285000  0.393000  1.0  -0.0178
  H  H50  1  0.837600  0.118900  0.112000  1.0  -0.0261
  H  H51  1  0.443000  0.785000  0.393000  1.0  -0.0178
  H  H52  1  0.337600  0.618900  0.112000  1.0  -0.0261
  H  H53  1  0.943000  0.715000  0.893000  1.0  -0.0192
  H  H54  1  0.837600  0.881100  0.612000  1.0  -0.0276
  H  H55  1  0.443000  0.215000  0.893000  1.0  -0.0192
  H  H56  1  0.337600  0.381100  0.612000  1.0  -0.0276
  H  H57  1  0.057000  0.715000  0.607000  1.0  -0.0202
  H  H58  1  0.162400  0.881100  0.888000  1.0  -0.0295
  H  H59  1  0.557000  0.215000  0.607000  1.0  -0.0202
  H  H60  1  0.662400  0.381100  0.888000  1.0  -0.0295
  O  O61  1  0.224710  0.627000  0.330500  1.0  -0.7458
  O  O62  1  0.158650  0.519600  0.281800  1.0  -0.7346
  O  O63  1  0.219400  0.457800  0.477000  1.0  -0.845
  O  O64  1  0.184420  0.620000  0.525200  1.0  -0.7421
  O  O65  1  0.091820  0.411700  0.042000  1.0  -0.7112
  O  O66  1  0.017990  0.395200  0.922600  1.0  -0.7295
  O  O67  1  0.043920  0.428300  0.210000  1.0  -0.7153
  O  O68  1  0.215030  0.192300  0.314300  1.0  -0.7755
  O  O69  1  0.147550  0.274700  0.288700  1.0  -0.6998
  O  O70  1  0.192240  0.242800  0.547700  1.0  -0.7012
  O  O71  1  0.724710  0.127000  0.330500  1.0  -0.7458
  O  O72  1  0.658650  0.019600  0.281800  1.0  -0.7346
  O  O73  1  0.719400  0.957800  0.477000  1.0  -0.845
  O  O74  1  0.684420  0.120000  0.525200  1.0  -0.7421
  O  O75  1  0.591820  0.911700  0.042000  1.0  -0.7112
  O  O76  1  0.517990  0.895200  0.922600  1.0  -0.7295
  O  O77  1  0.543920  0.928300  0.210000  1.0  -0.7153
  O  O78  1  0.715030  0.692300  0.314300  1.0  -0.7755
  O  O79  1  0.647550  0.774700  0.288700  1.0  -0.6998
  O  O80  1  0.692240  0.742800  0.547700  1.0  -0.7012
  O  O81  1  0.775290  0.627000  0.169500  1.0  -0.747
  O  O82  1  0.841350  0.519600  0.218200  1.0  -0.7364
  O  O83  1  0.780600  0.457800  0.023000  1.0  -0.8453
  O  O84  1  0.815580  0.620000  0.974800  1.0  -0.7417
  O  O85  1  0.908180  0.411700  0.458000  1.0  -0.7123
  O  O86  1  0.982010  0.395200  0.577400  1.0  -0.7301
  O  O87  1  0.956080  0.428300  0.290000  1.0  -0.7144
  O  O88  1  0.784970  0.192300  0.185700  1.0  -0.7775
  O  O89  1  0.852450  0.274700  0.211300  1.0  -0.7016
  O  O90  1  0.807760  0.242800  0.952300  1.0  -0.7017
  O  O91  1  0.275290  0.127000  0.169500  1.0  -0.747
  O  O92  1  0.341350  0.019600  0.218200  1.0  -0.7364
  O  O93  1  0.280600  0.957800  0.023000  1.0  -0.8453
  O  O94  1  0.315580  0.120000  0.974800  1.0  -0.7417
  O  O95  1  0.408180  0.911700  0.458000  1.0  -0.7123
  O  O96  1  0.482010  0.895200  0.577400  1.0  -0.7301
  O  O97  1  0.456080  0.928300  0.290000  1.0  -0.7144
  O  O98  1  0.284970  0.692300  0.185700  1.0  -0.7775
  O  O99  1  0.352450  0.774700  0.211300  1.0  -0.7016
  O  O100  1  0.307760  0.742800  0.952300  1.0  -0.7017
  O  O101  1  0.775290  0.373000  0.669500  1.0  -0.7473
  O  O102  1  0.841350  0.480400  0.718200  1.0  -0.7364
  O  O103  1  0.780600  0.542200  0.523000  1.0  -0.8458
  O  O104  1  0.815580  0.380000  0.474800  1.0  -0.7429
  O  O105  1  0.908180  0.588300  0.958000  1.0  -0.7127
  O  O106  1  0.982010  0.604800  0.077400  1.0  -0.7292
  O  O107  1  0.956080  0.571700  0.790000  1.0  -0.7146
  O  O108  1  0.784970  0.807700  0.685700  1.0  -0.7795
  O  O109  1  0.852450  0.725300  0.711300  1.0  -0.7018
  O  O110  1  0.807760  0.757200  0.452300  1.0  -0.7026
  O  O111  1  0.275290  0.873000  0.669500  1.0  -0.7473
  O  O112  1  0.341350  0.980400  0.718200  1.0  -0.7364
  O  O113  1  0.280600  0.042200  0.523000  1.0  -0.8458
  O  O114  1  0.315580  0.880000  0.474800  1.0  -0.7429
  O  O115  1  0.408180  0.088300  0.958000  1.0  -0.7127
  O  O116  1  0.482010  0.104800  0.077400  1.0  -0.7292
  O  O117  1  0.456080  0.071700  0.790000  1.0  -0.7146
  O  O118  1  0.284970  0.307700  0.685700  1.0  -0.7795
  O  O119  1  0.352450  0.225300  0.711300  1.0  -0.7018
  O  O120  1  0.307760  0.257200  0.452300  1.0  -0.7026
  O  O121  1  0.224710  0.373000  0.830500  1.0  -0.7465
  O  O122  1  0.158650  0.480400  0.781800  1.0  -0.7345
  O  O123  1  0.219400  0.542200  0.977000  1.0  -0.8452
  O  O124  1  0.184420  0.380000  0.025200  1.0  -0.7431
  O  O125  1  0.091820  0.588300  0.542000  1.0  -0.7117
  O  O126  1  0.017990  0.604800  0.422600  1.0  -0.7291
  O  O127  1  0.043920  0.571700  0.710000  1.0  -0.7151
  O  O128  1  0.215030  0.807700  0.814300  1.0  -0.7779
  O  O129  1  0.147550  0.725300  0.788700  1.0  -0.7006
  O  O130  1  0.192240  0.757200  0.047700  1.0  -0.7016
  O  O131  1  0.724710  0.873000  0.830500  1.0  -0.7465
  O  O132  1  0.658650  0.980400  0.781800  1.0  -0.7345
  O  O133  1  0.719400  0.042200  0.977000  1.0  -0.8452
  O  O134  1  0.684420  0.880000  0.025200  1.0  -0.7431
  O  O135  1  0.591820  0.088300  0.542000  1.0  -0.7117
  O  O136  1  0.517990  0.104800  0.422600  1.0  -0.7291
  O  O137  1  0.543920  0.071700  0.710000  1.0  -0.7151
  O  O138  1  0.715030  0.307700  0.814300  1.0  -0.7779
  O  O139  1  0.647550  0.225300  0.788700  1.0  -0.7006
  O  O140  1  0.692240  0.257200  0.047700  1.0  -0.7016
