# generated using pymatgen
data_ZnCo2P4(HO3)4
_symmetry_space_group_name_H-M   'P 1'
_cell_length_a   14.11300000
_cell_length_b   14.59000000
_cell_length_c   10.46900000
_cell_angle_alpha   90.00000000
_cell_angle_beta   90.00000000
_cell_angle_gamma   90.00000000
_symmetry_Int_Tables_number   1
_chemical_formula_structural   ZnCo2P4(HO3)4
_chemical_formula_sum   'Zn4 Co8 P16 H16 O48'
_cell_volume   2155.65786623
_cell_formula_units_Z   4
loop_
 _symmetry_equiv_pos_site_id
 _symmetry_equiv_pos_as_xyz
  1  'x, y, z'
loop_
 _atom_site_type_symbol
 _atom_site_label
 _atom_site_symmetry_multiplicity
 _atom_site_fract_x
 _atom_site_fract_y
 _atom_site_fract_z
 _atom_site_occupancy
 _atom_site_charge
  Zn  Zn1  1  0.253610  0.038690  0.649910  1.0  1.1
  Zn  Zn2  1  0.613620  0.348480  0.119210  1.0  1.147
  Zn  Zn3  1  0.746390  0.961310  0.149910  1.0  1.1001
  Zn  Zn4  1  0.386380  0.651520  0.619210  1.0  1.1463
  Co  Co5  1  0.396920  0.169700  0.182640  1.0  1.0657
  Co  Co6  1  0.113620  0.151520  0.119210  1.0  1.0809
  Co  Co7  1  0.246390  0.538690  0.149910  1.0  1.0107
  Co  Co8  1  0.603080  0.830300  0.682640  1.0  1.0673
  Co  Co9  1  0.886380  0.848480  0.619210  1.0  1.0762
  Co  Co10  1  0.753610  0.461310  0.649910  1.0  1.0106
  Co  Co11  1  0.896920  0.330300  0.182640  1.0  1.0655
  Co  Co12  1  0.103080  0.669700  0.682640  1.0  1.0678
  P  P13  1  0.282240  0.138450  0.926400  1.0  1.5351
  P  P14  1  0.615660  0.131790  0.169600  1.0  1.6448
  P  P15  1  0.223500  0.089820  0.364900  1.0  1.5171
  P  P16  1  0.399000  0.384890  0.121300  1.0  1.6145
  P  P17  1  0.717760  0.861550  0.426400  1.0  1.5373
  P  P18  1  0.384340  0.868210  0.669600  1.0  1.6432
  P  P19  1  0.776500  0.910180  0.864900  1.0  1.5162
  P  P20  1  0.601000  0.615110  0.621300  1.0  1.6166
  P  P21  1  0.782240  0.361550  0.926400  1.0  1.5372
  P  P22  1  0.115660  0.368210  0.169600  1.0  1.6453
  P  P23  1  0.723500  0.410180  0.364900  1.0  1.5164
  P  P24  1  0.899000  0.115110  0.121300  1.0  1.6148
  P  P25  1  0.217760  0.638450  0.426400  1.0  1.5353
  P  P26  1  0.884340  0.631790  0.669600  1.0  1.6432
  P  P27  1  0.276500  0.589820  0.864900  1.0  1.5179
  P  P28  1  0.101000  0.884890  0.621300  1.0  1.6166
  H  H29  1  0.264000  0.228000  0.904000  1.0  -0.0644
  H  H30  1  0.682000  0.140000  0.275000  1.0  -0.0659
  H  H31  1  0.234000  0.991700  0.344000  1.0  -0.041
  H  H32  1  0.342000  0.361000  0.016000  1.0  -0.0825
  H  H33  1  0.736000  0.772000  0.404000  1.0  -0.0636
  H  H34  1  0.318000  0.860000  0.775000  1.0  -0.0647
  H  H35  1  0.766000  0.008300  0.844000  1.0  -0.043
  H  H36  1  0.658000  0.639000  0.516000  1.0  -0.0821
  H  H37  1  0.764000  0.272000  0.904000  1.0  -0.0635
  H  H38  1  0.182000  0.360000  0.275000  1.0  -0.0657
  H  H39  1  0.734000  0.508300  0.344000  1.0  -0.0424
  H  H40  1  0.842000  0.139000  0.016000  1.0  -0.0824
  H  H41  1  0.236000  0.728000  0.404000  1.0  -0.0641
  H  H42  1  0.818000  0.640000  0.775000  1.0  -0.0647
  H  H43  1  0.266000  0.491700  0.844000  1.0  -0.0414
  H  H44  1  0.158000  0.861000  0.516000  1.0  -0.0823
  O  O45  1  0.372800  0.134500  0.006000  1.0  -0.7568
  O  O46  1  0.303000  0.092800  0.800500  1.0  -0.8193
  O  O47  1  0.198000  0.095800  0.993400  1.0  -0.7384
  O  O48  1  0.135400  0.122800  0.297200  1.0  -0.7598
  O  O49  1  0.618900  0.217500  0.090800  1.0  -0.8122
  O  O50  1  0.518600  0.113800  0.230200  1.0  -0.7395
  O  O51  1  0.646900  0.048000  0.092500  1.0  -0.7412
  O  O52  1  0.218900  0.113400  0.506200  1.0  -0.7339
  O  O53  1  0.314400  0.115000  0.304800  1.0  -0.839
  O  O54  1  0.355000  0.463900  0.195600  1.0  -0.7516
  O  O55  1  0.495700  0.410400  0.070200  1.0  -0.7606
  O  O56  1  0.403100  0.300400  0.203300  1.0  -0.8385
  O  O57  1  0.627200  0.865500  0.506000  1.0  -0.7553
  O  O58  1  0.697000  0.907200  0.300500  1.0  -0.8204
  O  O59  1  0.802000  0.904200  0.493400  1.0  -0.7378
  O  O60  1  0.864600  0.877200  0.797200  1.0  -0.7607
  O  O61  1  0.381100  0.782500  0.590800  1.0  -0.8119
  O  O62  1  0.481400  0.886200  0.730200  1.0  -0.7387
  O  O63  1  0.353100  0.952000  0.592500  1.0  -0.7401
  O  O64  1  0.781100  0.886600  0.006200  1.0  -0.7369
  O  O65  1  0.685600  0.885000  0.804800  1.0  -0.8377
  O  O66  1  0.645000  0.536100  0.695600  1.0  -0.753
  O  O67  1  0.504300  0.589600  0.570200  1.0  -0.7617
  O  O68  1  0.596900  0.699600  0.703300  1.0  -0.839
  O  O69  1  0.872800  0.365500  0.006000  1.0  -0.757
  O  O70  1  0.803000  0.407200  0.800500  1.0  -0.8202
  O  O71  1  0.698000  0.404200  0.993400  1.0  -0.7382
  O  O72  1  0.635400  0.377200  0.297200  1.0  -0.7581
  O  O73  1  0.118900  0.282500  0.090800  1.0  -0.8153
  O  O74  1  0.018600  0.386200  0.230200  1.0  -0.7389
  O  O75  1  0.146900  0.452000  0.092500  1.0  -0.7411
  O  O76  1  0.718900  0.386600  0.506200  1.0  -0.7368
  O  O77  1  0.814400  0.385000  0.304800  1.0  -0.8395
  O  O78  1  0.855000  0.036100  0.195600  1.0  -0.7512
  O  O79  1  0.995700  0.089600  0.070200  1.0  -0.7622
  O  O80  1  0.903100  0.199600  0.203300  1.0  -0.8384
  O  O81  1  0.127200  0.634500  0.506000  1.0  -0.7551
  O  O82  1  0.197000  0.592800  0.300500  1.0  -0.8216
  O  O83  1  0.302000  0.595800  0.493400  1.0  -0.7385
  O  O84  1  0.364600  0.622800  0.797200  1.0  -0.7585
  O  O85  1  0.881100  0.717500  0.590800  1.0  -0.8153
  O  O86  1  0.981400  0.613800  0.730200  1.0  -0.7401
  O  O87  1  0.853100  0.548000  0.592500  1.0  -0.7401
  O  O88  1  0.281100  0.613400  0.006200  1.0  -0.7347
  O  O89  1  0.185600  0.615000  0.804800  1.0  -0.8377
  O  O90  1  0.145000  0.963900  0.695600  1.0  -0.7525
  O  O91  1  0.004300  0.910400  0.570200  1.0  -0.7623
  O  O92  1  0.096900  0.800400  0.703300  1.0  -0.839
