# generated using pymatgen
data_MgH8C14O5
_symmetry_space_group_name_H-M   'P 1'
_cell_length_a   11.37480000
_cell_length_b   23.71110000
_cell_length_c   22.08420000
_cell_angle_alpha   90.00000000
_cell_angle_beta   90.00000000
_cell_angle_gamma   90.00000000
_symmetry_Int_Tables_number   1
_chemical_formula_structural   MgH8C14O5
_chemical_formula_sum   'Mg12 H96 C168 O60'
_cell_volume   5956.30794567
_cell_formula_units_Z   12
loop_
 _symmetry_equiv_pos_site_id
 _symmetry_equiv_pos_as_xyz
  1  'x, y, z'
loop_
 _atom_site_type_symbol
 _atom_site_label
 _atom_site_symmetry_multiplicity
 _atom_site_fract_x
 _atom_site_fract_y
 _atom_site_fract_z
 _atom_site_occupancy
 _atom_site_charge
  Mg  Mg1  1  0.711100  0.940580  0.002430  1.0  1.5904
  Mg  Mg2  1  0.288900  0.059420  0.997570  1.0  1.5899
  Mg  Mg3  1  0.000000  0.000000  0.000000  1.0  1.5569
  Mg  Mg4  1  0.288900  0.440580  0.497570  1.0  1.5912
  Mg  Mg5  1  0.788900  0.559420  0.002430  1.0  1.5898
  Mg  Mg6  1  0.211100  0.059420  0.497570  1.0  1.5892
  Mg  Mg7  1  0.000000  0.500000  0.500000  1.0  1.5569
  Mg  Mg8  1  0.788900  0.940580  0.502430  1.0  1.5912
  Mg  Mg9  1  0.211100  0.440580  0.997570  1.0  1.5901
  Mg  Mg10  1  0.711100  0.559420  0.502430  1.0  1.5888
  Mg  Mg11  1  0.500000  0.000000  0.500000  1.0  1.5569
  Mg  Mg12  1  0.500000  0.500000  0.000000  1.0  1.5569
  H  H13  1  0.114800  0.616400  0.369800  1.0  0.0879
  H  H14  1  0.692300  0.696900  0.884700  1.0  0.0867
  H  H15  1  0.863100  0.124100  0.749500  1.0  0.1166
  H  H16  1  0.938900  0.433600  0.324800  1.0  0.0959
  H  H17  1  0.096300  0.583300  0.126300  1.0  0.0921
  H  H18  1  0.061100  0.933600  0.175200  1.0  0.0957
  H  H19  1  0.898600  0.171800  0.329400  1.0  0.111
  H  H20  1  0.624500  0.767800  0.821900  1.0  0.0982
  H  H21  1  0.318600  0.685300  0.804700  1.0  0.1022
  H  H22  1  0.061100  0.566400  0.675200  1.0  0.0957
  H  H23  1  0.907300  0.755100  0.204400  1.0  0.1023
  H  H24  1  0.181400  0.685300  0.304700  1.0  0.1024
  H  H25  1  0.407300  0.244900  0.295600  1.0  0.1022
  H  H26  1  0.592700  0.755100  0.704400  1.0  0.1029
  H  H27  1  0.681400  0.314700  0.195300  1.0  0.1022
  H  H28  1  0.438900  0.933600  0.675200  1.0  0.0954
  H  H29  1  0.872100  0.123300  0.977600  1.0  0.0875
  H  H30  1  0.621700  0.287700  0.932100  1.0  0.1157
  H  H31  1  0.407300  0.255100  0.795600  1.0  0.1023
  H  H32  1  0.092700  0.255100  0.295600  1.0  0.1028
  H  H33  1  0.818600  0.185300  0.195300  1.0  0.1019
  H  H34  1  0.385200  0.616400  0.869800  1.0  0.0878
  H  H35  1  0.378300  0.787700  0.567900  1.0  0.1155
  H  H36  1  0.878300  0.212300  0.932100  1.0  0.1155
  H  H37  1  0.898600  0.328200  0.829400  1.0  0.1104
  H  H38  1  0.403700  0.916700  0.126300  1.0  0.0921
  H  H39  1  0.596300  0.083300  0.873700  1.0  0.0921
  H  H40  1  0.938900  0.066400  0.824800  1.0  0.0947
  H  H41  1  0.375500  0.267800  0.678100  1.0  0.0985
  H  H42  1  0.627900  0.376700  0.977600  1.0  0.0879
  H  H43  1  0.114800  0.883600  0.869800  1.0  0.0883
  H  H44  1  0.192300  0.303100  0.615300  1.0  0.0865
  H  H45  1  0.121700  0.712300  0.567900  1.0  0.1155
  H  H46  1  0.627900  0.123300  0.477600  1.0  0.0878
  H  H47  1  0.124500  0.232200  0.678100  1.0  0.0983
  H  H48  1  0.601400  0.328200  0.329400  1.0  0.1101
  H  H49  1  0.092700  0.244900  0.795600  1.0  0.1023
  H  H50  1  0.329200  0.186200  0.368400  1.0  0.0881
  H  H51  1  0.101400  0.828200  0.670600  1.0  0.1098
  H  H52  1  0.614800  0.116400  0.630200  1.0  0.0884
  H  H53  1  0.596300  0.416700  0.373700  1.0  0.0923
  H  H54  1  0.192300  0.196900  0.115300  1.0  0.0865
  H  H55  1  0.375500  0.232200  0.178100  1.0  0.0983
  H  H56  1  0.363100  0.624100  0.250500  1.0  0.1161
  H  H57  1  0.624500  0.732200  0.321900  1.0  0.0984
  H  H58  1  0.875500  0.732200  0.821900  1.0  0.0983
  H  H59  1  0.878300  0.287700  0.432100  1.0  0.1161
  H  H60  1  0.136900  0.624100  0.750500  1.0  0.1181
  H  H61  1  0.372100  0.623300  0.022400  1.0  0.0877
  H  H62  1  0.170800  0.186200  0.868400  1.0  0.0886
  H  H63  1  0.692300  0.803100  0.384700  1.0  0.0867
  H  H64  1  0.307700  0.196900  0.615300  1.0  0.0863
  H  H65  1  0.807700  0.803100  0.884700  1.0  0.0864
  H  H66  1  0.681400  0.185300  0.695300  1.0  0.1022
  H  H67  1  0.170800  0.313800  0.368400  1.0  0.0887
  H  H68  1  0.329200  0.313800  0.868400  1.0  0.0883
  H  H69  1  0.670800  0.813800  0.631600  1.0  0.0882
  H  H70  1  0.378300  0.712300  0.067900  1.0  0.1155
  H  H71  1  0.372100  0.876700  0.522400  1.0  0.0876
  H  H72  1  0.863100  0.375900  0.249500  1.0  0.1175
  H  H73  1  0.181400  0.814700  0.804700  1.0  0.1025
  H  H74  1  0.636900  0.375900  0.749500  1.0  0.1175
  H  H75  1  0.614800  0.383600  0.130200  1.0  0.0885
  H  H76  1  0.670800  0.686200  0.131600  1.0  0.0886
  H  H77  1  0.398600  0.671800  0.670600  1.0  0.1107
  H  H78  1  0.101400  0.671800  0.170600  1.0  0.11
  H  H79  1  0.829200  0.813800  0.131600  1.0  0.0879
  H  H80  1  0.121700  0.787700  0.067900  1.0  0.1152
  H  H81  1  0.875500  0.767800  0.321900  1.0  0.0983
  H  H82  1  0.818600  0.314700  0.695300  1.0  0.1019
  H  H83  1  0.403700  0.583300  0.626300  1.0  0.0925
  H  H84  1  0.907300  0.744900  0.704400  1.0  0.1025
  H  H85  1  0.621700  0.212300  0.432100  1.0  0.1161
  H  H86  1  0.829200  0.686200  0.631600  1.0  0.0881
  H  H87  1  0.561100  0.433600  0.824800  1.0  0.0961
  H  H88  1  0.903700  0.083300  0.373700  1.0  0.0927
  H  H89  1  0.096300  0.916700  0.626300  1.0  0.0918
  H  H90  1  0.136900  0.875900  0.250500  1.0  0.1174
  H  H91  1  0.127900  0.623300  0.522400  1.0  0.0878
  H  H92  1  0.885200  0.116400  0.130200  1.0  0.0882
  H  H93  1  0.307700  0.303100  0.115300  1.0  0.0864
  H  H94  1  0.903700  0.416700  0.873700  1.0  0.0928
  H  H95  1  0.872100  0.376700  0.477600  1.0  0.0876
  H  H96  1  0.363100  0.875900  0.750500  1.0  0.1171
  H  H97  1  0.592700  0.744900  0.204400  1.0  0.1025
  H  H98  1  0.438900  0.566400  0.175200  1.0  0.0946
  H  H99  1  0.398600  0.828200  0.170600  1.0  0.1101
  H  H100  1  0.885200  0.383600  0.630200  1.0  0.0887
  H  H101  1  0.318600  0.814700  0.304700  1.0  0.1024
  H  H102  1  0.561100  0.066400  0.324800  1.0  0.0956
  H  H103  1  0.385200  0.883600  0.369800  1.0  0.0884
  H  H104  1  0.807700  0.696900  0.384700  1.0  0.0863
  H  H105  1  0.127900  0.876700  0.022400  1.0  0.0876
  H  H106  1  0.124500  0.267800  0.178100  1.0  0.0986
  H  H107  1  0.636900  0.124100  0.249500  1.0  0.1177
  H  H108  1  0.601400  0.171800  0.829400  1.0  0.1103
  C  C109  1  0.938000  0.708900  0.698800  1.0  -0.2861
  C  C110  1  0.678100  0.186130  0.420300  1.0  -0.1727
  C  C111  1  0.231700  0.536080  0.045460  1.0  0.6438
  C  C112  1  0.653600  0.390880  0.385400  1.0  -0.0318
  C  C113  1  0.818400  0.367320  0.447500  1.0  -0.037
  C  C114  1  0.156200  0.661900  0.141200  1.0  -0.2336
  C  C115  1  0.607700  0.826100  0.654800  1.0  -0.0456
  C  C116  1  0.076500  0.262700  0.668400  1.0  -0.258
  C  C117  1  0.883700  0.805090  0.869400  1.0  -0.0629
  C  C118  1  0.970000  0.397720  0.319000  1.0  -0.0401
  C  C119  1  0.561400  0.620770  0.144800  1.0  -0.1677
  C  C120  1  0.605000  0.584190  0.093400  1.0  0.6982
  C  C121  1  0.424200  0.863200  0.726000  1.0  -0.2429
  C  C122  1  0.576500  0.737300  0.831600  1.0  -0.2591
  C  C123  1  0.893200  0.188100  0.178400  1.0  -0.2136
  C  C124  1  0.438600  0.379230  0.855200  1.0  -0.1658
  C  C125  1  0.846400  0.109120  0.385400  1.0  -0.0304
  C  C126  1  0.758100  0.199380  0.376700  1.0  0.2625
  C  C127  1  0.933700  0.353320  0.639800  1.0  -0.0515
  C  C128  1  0.587700  0.604270  0.927300  1.0  0.7204
  C  C129  1  0.234600  0.594080  0.070820  1.0  -0.1608
  C  C130  1  0.438000  0.291100  0.801200  1.0  -0.2863
  C  C131  1  0.343800  0.838100  0.141200  1.0  -0.2334
  C  C132  1  0.029800  0.690100  0.734200  1.0  0.3089
  C  C133  1  0.383700  0.305090  0.130600  1.0  -0.0635
  C  C134  1  0.821900  0.313870  0.420300  1.0  -0.1786
  C  C135  1  0.758100  0.300620  0.876700  1.0  0.2618
  C  C136  1  0.036200  0.766500  0.808400  1.0  0.29
  C  C137  1  0.454600  0.149390  0.615030  1.0  -0.1529
  C  C138  1  0.606800  0.311900  0.178400  1.0  -0.2147
  C  C139  1  0.062000  0.208900  0.801200  1.0  -0.2832
  C  C140  1  0.536200  0.266500  0.191600  1.0  0.2976
  C  C141  1  0.768300  0.463920  0.954540  1.0  0.6415
  C  C142  1  0.265400  0.594080  0.570820  1.0  -0.1594
  C  C143  1  0.606800  0.188100  0.678400  1.0  -0.2109
  C  C144  1  0.741900  0.300620  0.376700  1.0  0.2581
  C  C145  1  0.395000  0.415810  0.906600  1.0  0.6968
  C  C146  1  0.438600  0.120770  0.355200  1.0  -0.1665
  C  C147  1  0.318400  0.632680  0.052500  1.0  -0.0356
  C  C148  1  0.454600  0.350610  0.115030  1.0  -0.1522
  C  C149  1  0.433700  0.853320  0.360200  1.0  -0.0517
  C  C150  1  0.470200  0.809900  0.734200  1.0  0.3023
  C  C151  1  0.923500  0.762700  0.831600  1.0  -0.2594
  C  C152  1  0.678100  0.313870  0.920300  1.0  -0.1782
  C  C153  1  0.893200  0.311900  0.678400  1.0  -0.2153
  C  C154  1  0.765400  0.405920  0.929180  1.0  -0.1596
  C  C155  1  0.843800  0.338100  0.858800  1.0  -0.2337
  C  C156  1  0.346400  0.609120  0.614600  1.0  -0.0302
  C  C157  1  0.566300  0.146680  0.639800  1.0  -0.0508
  C  C158  1  0.530000  0.397720  0.819000  1.0  -0.0402
  C  C159  1  0.433700  0.646680  0.860200  1.0  -0.0504
  C  C160  1  0.681600  0.367320  0.947500  1.0  -0.0358
  C  C161  1  0.045400  0.149390  0.115030  1.0  -0.1526
  C  C162  1  0.423500  0.262700  0.168400  1.0  -0.2589
  C  C163  1  0.393200  0.688100  0.821600  1.0  -0.2131
  C  C164  1  0.530000  0.102280  0.319000  1.0  -0.041
  C  C165  1  0.938600  0.620770  0.644800  1.0  -0.1675
  C  C166  1  0.970000  0.102280  0.819000  1.0  -0.0406
  C  C167  1  0.231700  0.963920  0.545460  1.0  0.6462
  C  C168  1  0.105000  0.415810  0.406600  1.0  0.6988
  C  C169  1  0.765400  0.094080  0.429180  1.0  -0.1601
  C  C170  1  0.575800  0.136800  0.274000  1.0  -0.238
  C  C171  1  0.045400  0.350610  0.615030  1.0  -0.1523
  C  C172  1  0.268300  0.963920  0.045460  1.0  0.6434
  C  C173  1  0.087700  0.395730  0.572700  1.0  0.7213
  C  C174  1  0.734600  0.094080  0.929180  1.0  -0.1592
  C  C175  1  0.061400  0.120770  0.855200  1.0  -0.1685
  C  C176  1  0.105000  0.084190  0.906600  1.0  0.6986
  C  C177  1  0.241900  0.699380  0.123300  1.0  0.2615
  C  C178  1  0.321900  0.686130  0.079700  1.0  -0.1711
  C  C179  1  0.587700  0.895730  0.427300  1.0  0.7216
  C  C180  1  0.463800  0.733500  0.808400  1.0  0.2898
  C  C181  1  0.924200  0.136800  0.774000  1.0  -0.2413
  C  C182  1  0.061400  0.379230  0.355200  1.0  -0.1679
  C  C183  1  0.561400  0.879230  0.644800  1.0  -0.1674
  C  C184  1  0.846400  0.390880  0.885400  1.0  -0.0293
  C  C185  1  0.181600  0.632680  0.552500  1.0  -0.0349
  C  C186  1  0.741900  0.199380  0.876700  1.0  0.2609
  C  C187  1  0.343800  0.661900  0.641200  1.0  -0.2335
  C  C188  1  0.265400  0.905920  0.070820  1.0  -0.1581
  C  C189  1  0.178100  0.813870  0.079700  1.0  -0.1711
  C  C190  1  0.605000  0.915810  0.593400  1.0  0.6979
  C  C191  1  0.241900  0.800620  0.623300  1.0  0.2597
  C  C192  1  0.470200  0.690100  0.234200  1.0  0.3022
  C  C193  1  0.318400  0.867320  0.552500  1.0  -0.0366
  C  C194  1  0.545400  0.850610  0.384970  1.0  -0.1527
  C  C195  1  0.731700  0.036080  0.954540  1.0  0.6439
  C  C196  1  0.970200  0.309900  0.265800  1.0  0.3031
  C  C197  1  0.076500  0.237300  0.168400  1.0  -0.259
  C  C198  1  0.075800  0.863200  0.226000  1.0  -0.2386
  C  C199  1  0.912300  0.895730  0.927300  1.0  0.7203
  C  C200  1  0.656200  0.338100  0.358800  1.0  -0.2332
  C  C201  1  0.036200  0.733500  0.308400  1.0  0.2982
  C  C202  1  0.181600  0.867320  0.052500  1.0  -0.0364
  C  C203  1  0.616300  0.694910  0.869400  1.0  -0.0596
  C  C204  1  0.536200  0.233500  0.691600  1.0  0.2976
  C  C205  1  0.562000  0.791100  0.698800  1.0  -0.2814
  C  C206  1  0.030000  0.897720  0.181000  1.0  -0.0408
  C  C207  1  0.062000  0.291100  0.301200  1.0  -0.2827
  C  C208  1  0.545400  0.649390  0.884970  1.0  -0.1529
  C  C209  1  0.066300  0.853320  0.860200  1.0  -0.0519
  C  C210  1  0.470000  0.897720  0.681000  1.0  -0.0407
  C  C211  1  0.030000  0.602280  0.681000  1.0  -0.039
  C  C212  1  0.116300  0.305090  0.630600  1.0  -0.0596
  C  C213  1  0.575800  0.363200  0.774000  1.0  -0.2365
  C  C214  1  0.178100  0.686130  0.579700  1.0  -0.1678
  C  C215  1  0.566300  0.353320  0.139800  1.0  -0.0516
  C  C216  1  0.412300  0.395730  0.072700  1.0  0.7202
  C  C217  1  0.768300  0.036080  0.454540  1.0  0.6412
  C  C218  1  0.346400  0.890880  0.114600  1.0  -0.0292
  C  C219  1  0.576500  0.762700  0.331600  1.0  -0.259
  C  C220  1  0.954600  0.850610  0.884970  1.0  -0.152
  C  C221  1  0.153600  0.609120  0.114600  1.0  -0.0315
  C  C222  1  0.616300  0.805090  0.369400  1.0  -0.0595
  C  C223  1  0.731700  0.463920  0.454540  1.0  0.644
  C  C224  1  0.883700  0.694910  0.369400  1.0  -0.0597
  C  C225  1  0.321900  0.813870  0.579700  1.0  -0.1746
  C  C226  1  0.963800  0.233500  0.191600  1.0  0.2981
  C  C227  1  0.106800  0.688100  0.321600  1.0  -0.2137
  C  C228  1  0.383700  0.194910  0.630600  1.0  -0.056
  C  C229  1  0.395000  0.084190  0.406600  1.0  0.6976
  C  C230  1  0.392300  0.173900  0.345200  1.0  -0.0523
  C  C231  1  0.087700  0.104270  0.072700  1.0  0.7199
  C  C232  1  0.923500  0.737300  0.331600  1.0  -0.2598
  C  C233  1  0.681600  0.132680  0.447500  1.0  -0.0354
  C  C234  1  0.107700  0.326100  0.345200  1.0  -0.0509
  C  C235  1  0.895000  0.915810  0.093400  1.0  0.6978
  C  C236  1  0.424200  0.636800  0.226000  1.0  -0.2418
  C  C237  1  0.258100  0.800620  0.123300  1.0  0.262
  C  C238  1  0.970200  0.190100  0.765800  1.0  0.303
  C  C239  1  0.116300  0.194910  0.130600  1.0  -0.0599
  C  C240  1  0.818400  0.132680  0.947500  1.0  -0.0359
  C  C241  1  0.438000  0.208900  0.301200  1.0  -0.2865
  C  C242  1  0.412300  0.104270  0.572700  1.0  0.7201
  C  C243  1  0.529800  0.190100  0.265800  1.0  0.31
  C  C244  1  0.924200  0.363200  0.274000  1.0  -0.2387
  C  C245  1  0.066300  0.646680  0.360200  1.0  -0.0508
  C  C246  1  0.954600  0.649390  0.384970  1.0  -0.1526
  C  C247  1  0.963800  0.266500  0.691600  1.0  0.2892
  C  C248  1  0.268300  0.536080  0.545460  1.0  0.6401
  C  C249  1  0.895000  0.584190  0.593400  1.0  0.6966
  C  C250  1  0.529800  0.309900  0.765800  1.0  0.3027
  C  C251  1  0.938600  0.879230  0.144800  1.0  -0.1666
  C  C252  1  0.656200  0.161900  0.858800  1.0  -0.2335
  C  C253  1  0.933700  0.146680  0.139800  1.0  -0.0505
  C  C254  1  0.392300  0.326100  0.845200  1.0  -0.0475
  C  C255  1  0.562000  0.708900  0.198800  1.0  -0.2832
  C  C256  1  0.912300  0.604270  0.427300  1.0  0.7202
  C  C257  1  0.075800  0.636800  0.726000  1.0  -0.2394
  C  C258  1  0.653600  0.109120  0.885400  1.0  -0.0316
  C  C259  1  0.892300  0.826100  0.154800  1.0  -0.0564
  C  C260  1  0.892300  0.673900  0.654800  1.0  -0.0515
  C  C261  1  0.607700  0.673900  0.154800  1.0  -0.0517
  C  C262  1  0.843800  0.161900  0.358800  1.0  -0.2333
  C  C263  1  0.258100  0.699380  0.623300  1.0  0.2623
  C  C264  1  0.156200  0.838100  0.641200  1.0  -0.2331
  C  C265  1  0.107700  0.173900  0.845200  1.0  -0.0536
  C  C266  1  0.463800  0.766500  0.308400  1.0  0.2898
  C  C267  1  0.106800  0.811900  0.821600  1.0  -0.2149
  C  C268  1  0.029800  0.809900  0.234200  1.0  0.3096
  C  C269  1  0.821900  0.186130  0.920300  1.0  -0.1776
  C  C270  1  0.938000  0.791100  0.198800  1.0  -0.2848
  C  C271  1  0.470000  0.602280  0.181000  1.0  -0.0389
  C  C272  1  0.234600  0.905920  0.570820  1.0  -0.1594
  C  C273  1  0.393200  0.811900  0.321600  1.0  -0.2154
  C  C274  1  0.734600  0.405920  0.429180  1.0  -0.159
  C  C275  1  0.423500  0.237300  0.668400  1.0  -0.2597
  C  C276  1  0.153600  0.890880  0.614600  1.0  -0.0321
  O  O277  1  0.987600  0.571580  0.448250  1.0  -0.642
  O  O278  1  0.589000  0.276930  0.723970  1.0  -0.2737
  O  O279  1  0.146300  0.504420  0.057470  1.0  -0.6036
  O  O280  1  0.589000  0.223070  0.223970  1.0  -0.274
  O  O281  1  0.250000  0.750000  0.655800  1.0  -0.2703
  O  O282  1  0.814000  0.017860  0.988370  1.0  -0.6949
  O  O283  1  0.959500  0.544130  0.577170  1.0  -0.6573
  O  O284  1  0.646300  0.004420  0.942530  1.0  -0.605
  O  O285  1  0.411000  0.723070  0.276030  1.0  -0.2741
  O  O286  1  0.540500  0.544130  0.077170  1.0  -0.6577
  O  O287  1  0.459500  0.044130  0.422830  1.0  -0.6576
  O  O288  1  0.303600  0.103310  0.561020  1.0  -0.6792
  O  O289  1  0.314000  0.982140  0.511630  1.0  -0.6954
  O  O290  1  0.040500  0.455870  0.422830  1.0  -0.6579
  O  O291  1  0.797900  0.597250  0.570570  1.0  -0.6391
  O  O292  1  0.459500  0.455870  0.922830  1.0  -0.6582
  O  O293  1  0.250000  0.750000  0.155800  1.0  -0.2702
  O  O294  1  0.750000  0.250000  0.844200  1.0  -0.2695
  O  O295  1  0.487600  0.428420  0.051750  1.0  -0.6411
  O  O296  1  0.646300  0.495580  0.442530  1.0  -0.6025
  O  O297  1  0.803600  0.896690  0.938980  1.0  -0.6787
  O  O298  1  0.487600  0.071580  0.551750  1.0  -0.6414
  O  O299  1  0.297900  0.402750  0.929430  1.0  -0.6398
  O  O300  1  0.987600  0.928420  0.948250  1.0  -0.6414
  O  O301  1  0.803600  0.603310  0.438980  1.0  -0.6792
  O  O302  1  0.040500  0.044130  0.922830  1.0  -0.6582
  O  O303  1  0.314000  0.517860  0.011630  1.0  -0.696
  O  O304  1  0.797900  0.902750  0.070570  1.0  -0.6393
  O  O305  1  0.686000  0.482140  0.988370  1.0  -0.6949
  O  O306  1  0.297900  0.097250  0.429430  1.0  -0.6394
  O  O307  1  0.202100  0.097250  0.929430  1.0  -0.6359
  O  O308  1  0.911000  0.276930  0.223970  1.0  -0.2726
  O  O309  1  0.686000  0.017860  0.488370  1.0  -0.6949
  O  O310  1  0.853700  0.004420  0.442530  1.0  -0.6032
  O  O311  1  0.303600  0.396690  0.061020  1.0  -0.6785
  O  O312  1  0.540500  0.955870  0.577170  1.0  -0.6572
  O  O313  1  0.012400  0.071580  0.051750  1.0  -0.6409
  O  O314  1  0.353700  0.995580  0.057470  1.0  -0.6017
  O  O315  1  0.202100  0.402750  0.429430  1.0  -0.636
  O  O316  1  0.696400  0.896690  0.438980  1.0  -0.678
  O  O317  1  0.512400  0.928420  0.448250  1.0  -0.641
  O  O318  1  0.089000  0.723070  0.776030  1.0  -0.2742
  O  O319  1  0.512400  0.571580  0.948250  1.0  -0.6418
  O  O320  1  0.702100  0.597250  0.070570  1.0  -0.636
  O  O321  1  0.702100  0.902750  0.570570  1.0  -0.6356
  O  O322  1  0.411000  0.776930  0.776030  1.0  -0.2742
  O  O323  1  0.012400  0.428420  0.551750  1.0  -0.6405
  O  O324  1  0.089000  0.776930  0.276030  1.0  -0.2744
  O  O325  1  0.959500  0.955870  0.077170  1.0  -0.6573
  O  O326  1  0.853700  0.495580  0.942530  1.0  -0.603
  O  O327  1  0.196400  0.396690  0.561020  1.0  -0.6774
  O  O328  1  0.186000  0.517860  0.511630  1.0  -0.6957
  O  O329  1  0.696400  0.603310  0.938980  1.0  -0.6784
  O  O330  1  0.814000  0.482140  0.488370  1.0  -0.6953
  O  O331  1  0.911000  0.223070  0.723970  1.0  -0.2732
  O  O332  1  0.353700  0.504420  0.557470  1.0  -0.602
  O  O333  1  0.186000  0.982140  0.011630  1.0  -0.695
  O  O334  1  0.196400  0.103310  0.061020  1.0  -0.6777
  O  O335  1  0.750000  0.250000  0.344200  1.0  -0.2695
  O  O336  1  0.146300  0.995580  0.557470  1.0  -0.602
