# generated using pymatgen
data_Cu2Ag2H8C10N7
_symmetry_space_group_name_H-M   'P 1'
_cell_length_a   9.01400000
_cell_length_b   12.27300000
_cell_length_c   17.83500000
_cell_angle_alpha   90.00000000
_cell_angle_beta   91.02000000
_cell_angle_gamma   90.00000000
_symmetry_Int_Tables_number   1
_chemical_formula_structural   Cu2Ag2H8C10N7
_chemical_formula_sum   'Cu8 Ag8 H32 C40 N28'
_cell_volume   1972.75239283
_cell_formula_units_Z   4
loop_
 _symmetry_equiv_pos_site_id
 _symmetry_equiv_pos_as_xyz
  1  'x, y, z'
loop_
 _atom_site_type_symbol
 _atom_site_label
 _atom_site_symmetry_multiplicity
 _atom_site_fract_x
 _atom_site_fract_y
 _atom_site_fract_z
 _atom_site_occupancy
 _atom_site_charge
  Cu  Cu1  1  0.624380  0.056250  0.006740  1.0  0.462
  Cu  Cu2  1  0.151290  0.286890  0.014790  1.0  0.7225
  Cu  Cu3  1  0.375620  0.556250  0.493260  1.0  0.4579
  Cu  Cu4  1  0.848710  0.786890  0.485210  1.0  0.7209
  Cu  Cu5  1  0.375620  0.943750  0.993260  1.0  0.4501
  Cu  Cu6  1  0.848710  0.713110  0.985210  1.0  0.7194
  Cu  Cu7  1  0.624380  0.443750  0.506740  1.0  0.4598
  Cu  Cu8  1  0.151290  0.213110  0.514790  1.0  0.725
  Ag  Ag9  1  0.912340  0.081590  0.257360  1.0  0.3342
  Ag  Ag10  1  0.854610  0.126470  0.755220  1.0  0.3402
  Ag  Ag11  1  0.087660  0.581590  0.242640  1.0  0.3338
  Ag  Ag12  1  0.145390  0.626470  0.744780  1.0  0.3403
  Ag  Ag13  1  0.087660  0.918410  0.742640  1.0  0.3345
  Ag  Ag14  1  0.145390  0.873530  0.244780  1.0  0.3405
  Ag  Ag15  1  0.912340  0.418410  0.757360  1.0  0.3347
  Ag  Ag16  1  0.854610  0.373530  0.255220  1.0  0.3402
  H  H17  1  0.192500  0.512500  0.946900  1.0  0.0689
  H  H18  1  0.307900  0.673700  0.978500  1.0  0.0904
  H  H19  1  0.443200  0.685100  0.088800  1.0  0.0954
  H  H20  1  0.457900  0.535000  0.166400  1.0  0.108
  H  H21  1  0.334000  0.378300  0.131700  1.0  0.0692
  H  H22  1  0.955100  0.152800  0.990500  1.0  0.3052
  H  H23  1  0.093600  0.104900  0.966200  1.0  0.3162
  H  H24  1  0.057400  0.105300  0.045300  1.0  0.3037
  H  H25  1  0.807500  0.012500  0.553100  1.0  0.0682
  H  H26  1  0.692100  0.173700  0.521500  1.0  0.0893
  H  H27  1  0.556800  0.185100  0.411200  1.0  0.0956
  H  H28  1  0.542100  0.035000  0.333600  1.0  0.1066
  H  H29  1  0.666000  0.878300  0.368300  1.0  0.0689
  H  H30  1  0.044900  0.652800  0.509500  1.0  0.3073
  H  H31  1  0.906400  0.604900  0.533800  1.0  0.3177
  H  H32  1  0.942600  0.605300  0.454700  1.0  0.3029
  H  H33  1  0.807500  0.487500  0.053100  1.0  0.0681
  H  H34  1  0.692100  0.326300  0.021500  1.0  0.0916
  H  H35  1  0.556800  0.314900  0.911200  1.0  0.0951
  H  H36  1  0.542100  0.465000  0.833600  1.0  0.1077
  H  H37  1  0.666000  0.621700  0.868300  1.0  0.0688
  H  H38  1  0.044900  0.847200  0.009500  1.0  0.3074
  H  H39  1  0.906400  0.895100  0.033800  1.0  0.3177
  H  H40  1  0.942600  0.894700  0.954700  1.0  0.3025
  H  H41  1  0.192500  0.987500  0.446900  1.0  0.069
  H  H42  1  0.307900  0.826300  0.478500  1.0  0.0918
  H  H43  1  0.443200  0.814900  0.588800  1.0  0.0953
  H  H44  1  0.457900  0.965000  0.666400  1.0  0.1088
  H  H45  1  0.334000  0.121700  0.631700  1.0  0.0671
  H  H46  1  0.955100  0.347200  0.490500  1.0  0.304
  H  H47  1  0.093600  0.395100  0.466200  1.0  0.3158
  H  H48  1  0.057400  0.394700  0.545300  1.0  0.3037
  C  C49  1  0.801100  0.074600  0.859900  1.0  -0.0351
  C  C50  1  0.813200  0.046600  0.155200  1.0  -0.0654
  C  C51  1  0.003900  0.366000  0.858100  1.0  0.0262
  C  C52  1  0.963500  0.334000  0.159900  1.0  0.0299
  C  C53  1  0.444900  0.141500  0.006900  1.0  0.0139
  C  C54  1  0.246600  0.516800  0.991600  1.0  0.1466
  C  C55  1  0.315700  0.613800  0.010300  1.0  -0.1333
  C  C56  1  0.395200  0.620600  0.075600  1.0  -0.0928
  C  C57  1  0.403900  0.532200  0.121500  1.0  -0.1394
  C  C58  1  0.330300  0.438200  0.099800  1.0  0.1194
  C  C59  1  0.198900  0.574600  0.640100  1.0  -0.0347
  C  C60  1  0.186800  0.546600  0.344800  1.0  -0.0642
  C  C61  1  0.996100  0.866000  0.641900  1.0  0.0266
  C  C62  1  0.036500  0.834000  0.340100  1.0  0.0269
  C  C63  1  0.555100  0.641500  0.493100  1.0  0.0146
  C  C64  1  0.753400  0.016800  0.508400  1.0  0.146
  C  C65  1  0.684300  0.113800  0.489700  1.0  -0.1356
  C  C66  1  0.604800  0.120600  0.424400  1.0  -0.0917
  C  C67  1  0.596100  0.032200  0.378500  1.0  -0.1376
  C  C68  1  0.669700  0.938200  0.400200  1.0  0.1207
  C  C69  1  0.198900  0.925400  0.140100  1.0  -0.0351
  C  C70  1  0.186800  0.953400  0.844800  1.0  -0.0642
  C  C71  1  0.996100  0.634000  0.141900  1.0  0.0262
  C  C72  1  0.036500  0.666000  0.840100  1.0  0.0265
  C  C73  1  0.555100  0.858500  0.993100  1.0  0.014
  C  C74  1  0.753400  0.483200  0.008400  1.0  0.1485
  C  C75  1  0.684300  0.386200  0.989700  1.0  -0.1387
  C  C76  1  0.604800  0.379400  0.924400  1.0  -0.0933
  C  C77  1  0.596100  0.467800  0.878500  1.0  -0.1368
  C  C78  1  0.669700  0.561800  0.900200  1.0  0.1223
  C  C79  1  0.801100  0.425400  0.359900  1.0  -0.0354
  C  C80  1  0.813200  0.453400  0.655200  1.0  -0.0652
  C  C81  1  0.003900  0.134000  0.358100  1.0  0.0246
  C  C82  1  0.963500  0.166000  0.659900  1.0  0.0302
  C  C83  1  0.444900  0.358500  0.506900  1.0  0.0129
  C  C84  1  0.246600  0.983200  0.491600  1.0  0.1473
  C  C85  1  0.315700  0.886200  0.510300  1.0  -0.1356
  C  C86  1  0.395200  0.879400  0.575600  1.0  -0.0924
  C  C87  1  0.403900  0.967800  0.621500  1.0  -0.1385
  C  C88  1  0.330300  0.061800  0.599800  1.0  0.1196
  N  N89  1  0.750500  0.058500  0.916300  1.0  -0.4249
  N  N90  1  0.751000  0.039000  0.098500  1.0  -0.4079
  N  N91  1  0.058900  0.339200  0.913200  1.0  -0.4039
  N  N92  1  0.027600  0.313700  0.107900  1.0  -0.4496
  N  N93  1  0.349000  0.203800  0.007500  1.0  -0.4508
  N  N94  1  0.255000  0.429300  0.035500  1.0  -0.3247
  N  N95  1  0.050300  0.142400  0.002500  1.0  -0.6224
  N  N96  1  0.249500  0.558500  0.583700  1.0  -0.4288
  N  N97  1  0.249000  0.539000  0.401500  1.0  -0.4079
  N  N98  1  0.941100  0.839200  0.586800  1.0  -0.4044
  N  N99  1  0.972400  0.813700  0.392100  1.0  -0.4424
  N  N100  1  0.651000  0.703800  0.492500  1.0  -0.4517
  N  N101  1  0.745000  0.929300  0.464500  1.0  -0.3243
  N  N102  1  0.949700  0.642400  0.497500  1.0  -0.6214
  N  N103  1  0.249500  0.941500  0.083700  1.0  -0.4293
  N  N104  1  0.249000  0.961000  0.901500  1.0  -0.4077
  N  N105  1  0.941100  0.660800  0.086800  1.0  -0.4078
  N  N106  1  0.972400  0.686300  0.892100  1.0  -0.4397
  N  N107  1  0.651000  0.796200  0.992500  1.0  -0.4515
  N  N108  1  0.745000  0.570700  0.964500  1.0  -0.3229
  N  N109  1  0.949700  0.857600  0.997500  1.0  -0.6203
  N  N110  1  0.750500  0.441500  0.416300  1.0  -0.4258
  N  N111  1  0.751000  0.461000  0.598500  1.0  -0.408
  N  N112  1  0.058900  0.160800  0.413200  1.0  -0.4039
  N  N113  1  0.027600  0.186300  0.607900  1.0  -0.4437
  N  N114  1  0.349000  0.296200  0.507500  1.0  -0.4507
  N  N115  1  0.255000  0.070700  0.535500  1.0  -0.3234
  N  N116  1  0.050300  0.357600  0.502500  1.0  -0.622
