# generated using pymatgen
data_CuAg3H8C10N7
_symmetry_space_group_name_H-M   'P 1'
_cell_length_a   9.23800000
_cell_length_b   12.26800000
_cell_length_c   18.09800000
_cell_angle_alpha   90.00000000
_cell_angle_beta   91.41000000
_cell_angle_gamma   90.00000000
_symmetry_Int_Tables_number   1
_chemical_formula_structural   CuAg3H8C10N7
_chemical_formula_sum   'Cu4 Ag12 H32 C40 N28'
_cell_volume   2050.45758142
_cell_formula_units_Z   4
loop_
 _symmetry_equiv_pos_site_id
 _symmetry_equiv_pos_as_xyz
  1  'x, y, z'
loop_
 _atom_site_type_symbol
 _atom_site_label
 _atom_site_symmetry_multiplicity
 _atom_site_fract_x
 _atom_site_fract_y
 _atom_site_fract_z
 _atom_site_occupancy
 _atom_site_charge
  Cu  Cu1  1  0.148700  0.212100  0.515040  1.0  0.7268
  Cu  Cu2  1  0.851300  0.712100  0.984960  1.0  0.7236
  Cu  Cu3  1  0.851300  0.787900  0.484960  1.0  0.7241
  Cu  Cu4  1  0.148700  0.287900  0.015040  1.0  0.727
  Ag  Ag5  1  0.625580  0.437590  0.508560  1.0  0.4212
  Ag  Ag6  1  0.859700  0.371050  0.254090  1.0  0.3692
  Ag  Ag7  1  0.916300  0.413830  0.760050  1.0  0.3603
  Ag  Ag8  1  0.374420  0.937590  0.991440  1.0  0.4235
  Ag  Ag9  1  0.140300  0.871050  0.245910  1.0  0.3697
  Ag  Ag10  1  0.083700  0.913830  0.739950  1.0  0.3591
  Ag  Ag11  1  0.374420  0.562410  0.491440  1.0  0.4231
  Ag  Ag12  1  0.140300  0.628950  0.745910  1.0  0.3695
  Ag  Ag13  1  0.083700  0.586170  0.239950  1.0  0.3588
  Ag  Ag14  1  0.625580  0.062410  0.008560  1.0  0.4205
  Ag  Ag15  1  0.859700  0.128950  0.754090  1.0  0.3691
  Ag  Ag16  1  0.916300  0.086170  0.260050  1.0  0.36
  H  H17  1  0.976400  0.347300  0.470800  1.0  0.3221
  H  H18  1  0.114700  0.402000  0.482600  1.0  0.3268
  H  H19  1  0.023400  0.379100  0.545000  1.0  0.3141
  H  H20  1  0.192000  0.988000  0.449000  1.0  0.0522
  H  H21  1  0.307400  0.831400  0.476200  1.0  0.0869
  H  H22  1  0.442600  0.816900  0.578600  1.0  0.1013
  H  H23  1  0.437500  0.962000  0.666300  1.0  0.1093
  H  H24  1  0.328500  0.121000  0.626200  1.0  0.0431
  H  H25  1  0.023600  0.847300  0.029200  1.0  0.3235
  H  H26  1  0.885300  0.902000  0.017400  1.0  0.3275
  H  H27  1  0.976600  0.879100  0.955000  1.0  0.3134
  H  H28  1  0.808000  0.488000  0.051000  1.0  0.0525
  H  H29  1  0.692600  0.331400  0.023800  1.0  0.0871
  H  H30  1  0.557400  0.316900  0.921400  1.0  0.1008
  H  H31  1  0.562500  0.462000  0.833700  1.0  0.1081
  H  H32  1  0.671500  0.621000  0.873800  1.0  0.0428
  H  H33  1  0.023600  0.652700  0.529200  1.0  0.3235
  H  H34  1  0.885300  0.598000  0.517400  1.0  0.3274
  H  H35  1  0.976600  0.620900  0.455000  1.0  0.3135
  H  H36  1  0.808000  0.012000  0.551000  1.0  0.0526
  H  H37  1  0.692600  0.168600  0.523800  1.0  0.0869
  H  H38  1  0.557400  0.183100  0.421400  1.0  0.1014
  H  H39  1  0.562500  0.038000  0.333700  1.0  0.1082
  H  H40  1  0.671500  0.879000  0.373800  1.0  0.0428
  H  H41  1  0.976400  0.152700  0.970800  1.0  0.3225
  H  H42  1  0.114700  0.098000  0.982600  1.0  0.3265
  H  H43  1  0.023400  0.120900  0.045000  1.0  0.3138
  H  H44  1  0.192000  0.512000  0.949000  1.0  0.0521
  H  H45  1  0.307400  0.668600  0.976200  1.0  0.0871
  H  H46  1  0.442600  0.683100  0.078600  1.0  0.1016
  H  H47  1  0.437500  0.538000  0.166300  1.0  0.109
  H  H48  1  0.328500  0.379000  0.126200  1.0  0.0438
  C  C49  1  0.440800  0.350800  0.505900  1.0  -0.0036
  C  C50  1  0.964300  0.168100  0.658300  1.0  0.0381
  C  C51  1  0.805000  0.421200  0.358500  1.0  -0.0218
  C  C52  1  0.006300  0.135000  0.360900  1.0  0.0395
  C  C53  1  0.821300  0.451800  0.660900  1.0  -0.0268
  C  C54  1  0.245900  0.984300  0.493000  1.0  0.1568
  C  C55  1  0.314800  0.889700  0.508900  1.0  -0.1138
  C  C56  1  0.390100  0.880200  0.568800  1.0  -0.1454
  C  C57  1  0.392400  0.967100  0.619900  1.0  -0.1997
  C  C58  1  0.322400  0.060100  0.595700  1.0  0.1548
  C  C59  1  0.559200  0.850800  0.994100  1.0  -0.0021
  C  C60  1  0.035700  0.668100  0.841700  1.0  0.0366
  C  C61  1  0.195000  0.921200  0.141500  1.0  -0.022
  C  C62  1  0.993700  0.635000  0.139100  1.0  0.0384
  C  C63  1  0.178700  0.951800  0.839100  1.0  -0.0277
  C  C64  1  0.754100  0.484300  0.007000  1.0  0.1568
  C  C65  1  0.685200  0.389700  0.991100  1.0  -0.1134
  C  C66  1  0.609900  0.380200  0.931200  1.0  -0.1468
  C  C67  1  0.607600  0.467100  0.880100  1.0  -0.2001
  C  C68  1  0.677600  0.560100  0.904300  1.0  0.1544
  C  C69  1  0.559200  0.649200  0.494100  1.0  0.0002
  C  C70  1  0.035700  0.831900  0.341700  1.0  0.0375
  C  C71  1  0.195000  0.578800  0.641500  1.0  -0.028
  C  C72  1  0.993700  0.865000  0.639100  1.0  0.0387
  C  C73  1  0.178700  0.548200  0.339100  1.0  -0.028
  C  C74  1  0.754100  0.015700  0.507000  1.0  0.1563
  C  C75  1  0.685200  0.110300  0.491100  1.0  -0.1136
  C  C76  1  0.609900  0.119800  0.431200  1.0  -0.1495
  C  C77  1  0.607600  0.032900  0.380100  1.0  -0.1994
  C  C78  1  0.677600  0.939900  0.404300  1.0  0.1544
  C  C79  1  0.440800  0.149200  0.005900  1.0  -0.0008
  C  C80  1  0.964300  0.331900  0.158300  1.0  0.0383
  C  C81  1  0.805000  0.078800  0.858500  1.0  -0.0269
  C  C82  1  0.006300  0.365000  0.860900  1.0  0.0407
  C  C83  1  0.821300  0.048200  0.160900  1.0  -0.0272
  C  C84  1  0.245900  0.515700  0.993000  1.0  0.1559
  C  C85  1  0.314800  0.610300  0.008900  1.0  -0.1136
  C  C86  1  0.390100  0.619800  0.068800  1.0  -0.146
  C  C87  1  0.392400  0.532900  0.119900  1.0  -0.1991
  C  C88  1  0.322400  0.439900  0.095700  1.0  0.1546
  N  N89  1  0.343400  0.292800  0.506000  1.0  -0.4586
  N  N90  1  0.024600  0.186400  0.606100  1.0  -0.4235
  N  N91  1  0.764400  0.440800  0.416200  1.0  -0.4467
  N  N92  1  0.060100  0.160100  0.414400  1.0  -0.4077
  N  N93  1  0.766800  0.460700  0.603000  1.0  -0.4565
  N  N94  1  0.052600  0.354700  0.501500  1.0  -0.6321
  N  N95  1  0.249500  0.070300  0.534600  1.0  -0.2809
  N  N96  1  0.656600  0.792800  0.994000  1.0  -0.4584
  N  N97  1  0.975400  0.686400  0.893900  1.0  -0.4218
  N  N98  1  0.235600  0.940800  0.083800  1.0  -0.4443
  N  N99  1  0.939900  0.660100  0.085600  1.0  -0.4107
  N  N100  1  0.233200  0.960700  0.897000  1.0  -0.4578
  N  N101  1  0.947400  0.854700  0.998500  1.0  -0.6312
  N  N102  1  0.750500  0.570300  0.965400  1.0  -0.2823
  N  N103  1  0.656600  0.707200  0.494000  1.0  -0.4583
  N  N104  1  0.975400  0.813600  0.393900  1.0  -0.4217
  N  N105  1  0.235600  0.559200  0.583800  1.0  -0.4438
  N  N106  1  0.939900  0.839900  0.585600  1.0  -0.4105
  N  N107  1  0.233200  0.539300  0.397000  1.0  -0.4579
  N  N108  1  0.947400  0.645300  0.498500  1.0  -0.6322
  N  N109  1  0.750500  0.929700  0.465400  1.0  -0.2829
  N  N110  1  0.343400  0.207200  0.006000  1.0  -0.4586
  N  N111  1  0.024600  0.313600  0.106100  1.0  -0.4235
  N  N112  1  0.764400  0.059200  0.916200  1.0  -0.4461
  N  N113  1  0.060100  0.339900  0.914400  1.0  -0.4075
  N  N114  1  0.766800  0.039300  0.103000  1.0  -0.4563
  N  N115  1  0.052600  0.145300  0.001500  1.0  -0.6327
  N  N116  1  0.249500  0.429700  0.034600  1.0  -0.2824
