# generated using pymatgen
data_CuBH16C20(NF)4
_symmetry_space_group_name_H-M   'P 1'
_cell_length_a   9.59900000
_cell_length_b   13.36700000
_cell_length_c   14.46830000
_cell_angle_alpha   95.06990000
_cell_angle_beta   109.37400000
_cell_angle_gamma   74.55000000
_symmetry_Int_Tables_number   1
_chemical_formula_structural   CuBH16C20(NF)4
_chemical_formula_sum   'Cu2 B2 H32 C40 N8 F8'
_cell_volume   1688.01563005
_cell_formula_units_Z   2
loop_
 _symmetry_equiv_pos_site_id
 _symmetry_equiv_pos_as_xyz
  1  'x, y, z'
loop_
 _atom_site_type_symbol
 _atom_site_label
 _atom_site_symmetry_multiplicity
 _atom_site_fract_x
 _atom_site_fract_y
 _atom_site_fract_z
 _atom_site_occupancy
 _atom_site_charge
  Cu  Cu1  1  0.184290  0.981500  0.226780  1.0  0.5209
  Cu  Cu2  1  0.957510  0.481500  0.773220  1.0  0.5207
  B  B3  1  0.261900  0.061000  0.653800  1.0  0.9852
  B  B4  1  0.608100  0.561000  0.346200  1.0  0.9818
  H  H5  1  0.578700  0.673900  0.150600  1.0  0.0874
  H  H6  1  0.569300  0.822000  0.864000  1.0  0.0456
  H  H7  1  0.747200  0.512000  0.152400  1.0  0.1095
  H  H8  1  0.822500  0.543700  0.086600  1.0  0.154
  H  H9  1  0.749600  0.467600  0.034600  1.0  0.1396
  H  H10  1  0.427700  0.977300  0.920600  1.0  0.2009
  H  H11  1  0.300300  0.923400  0.862200  1.0  0.0826
  H  H12  1  0.311700  0.962200  0.968200  1.0  0.0831
  H  H13  1  0.226800  0.847300  0.556800  1.0  0.0762
  H  H14  1  0.902200  0.633900  0.445800  1.0  0.0996
  H  H15  1  0.303000  0.750100  0.729400  1.0  0.0998
  H  H16  1  0.161700  0.730700  0.747400  1.0  0.2137
  H  H17  1  0.162500  0.841900  0.725200  1.0  0.089
  H  H18  1  0.868200  0.773900  0.260000  1.0  0.1086
  H  H19  1  0.869600  0.660400  0.276200  1.0  0.2664
  H  H20  1  0.009600  0.684300  0.260400  1.0  0.1097
  H  H21  1  0.428100  0.173900  0.849400  1.0  0.0863
  H  H22  1  0.705300  0.322000  0.136000  1.0  0.0465
  H  H23  1  0.594800  0.012000  0.847600  1.0  0.1109
  H  H24  1  0.735900  0.043700  0.913400  1.0  0.1566
  H  H25  1  0.715000  0.967600  0.965400  1.0  0.1386
  H  H26  1  0.507100  0.477300  0.079400  1.0  0.2007
  H  H27  1  0.438100  0.423400  0.137800  1.0  0.0838
  H  H28  1  0.343500  0.462200  0.031800  1.0  0.084
  H  H29  1  0.670000  0.347300  0.443200  1.0  0.0748
  H  H30  1  0.456400  0.133900  0.554200  1.0  0.0962
  H  H31  1  0.573600  0.250100  0.270600  1.0  0.1078
  H  H32  1  0.414300  0.230700  0.252600  1.0  0.2099
  H  H33  1  0.437300  0.341900  0.274800  1.0  0.0901
  H  H34  1  0.608200  0.273900  0.740000  1.0  0.108
  H  H35  1  0.593400  0.160400  0.723800  1.0  0.2653
  H  H36  1  0.749200  0.184300  0.739600  1.0  0.1121
  C  C37  1  0.384000  0.854000  0.110000  1.0  0.2787
  C  C38  1  0.482000  0.788000  0.052000  1.0  -0.0575
  C  C39  1  0.576700  0.698000  0.093400  1.0  -0.1271
  C  C40  1  0.669100  0.631000  0.042200  1.0  0.0248
  C  C41  1  0.662300  0.668000  0.952600  1.0  -0.0932
  C  C42  1  0.567400  0.770000  0.916800  1.0  -0.0966
  C  C43  1  0.473200  0.827200  0.966400  1.0  0.0342
  C  C44  1  0.749800  0.610000  0.899600  1.0  0.0526
  C  C45  1  0.770400  0.529000  0.080800  1.0  -0.1094
  C  C46  1  0.372100  0.934000  0.926200  1.0  -0.2707
  C  C47  1  0.134900  0.840000  0.371800  1.0  0.1448
  C  C48  1  0.095000  0.788500  0.440000  1.0  0.0506
  C  C49  1  0.164300  0.802000  0.540600  1.0  -0.1552
  C  C50  1  0.133500  0.752800  0.609000  1.0  0.115
  C  C51  1  0.025700  0.691000  0.569400  1.0  -0.0981
  C  C52  1  0.968100  0.673000  0.470200  1.0  -0.1313
  C  C53  1  0.006400  0.724000  0.406800  1.0  -0.0313
  C  C54  1  0.997100  0.629000  0.638200  1.0  0.2939
  C  C55  1  0.187700  0.769000  0.711400  1.0  -0.3063
  C  C56  1  0.927700  0.703000  0.291400  1.0  -0.329
  C  C57  1  0.274000  0.354000  0.890000  1.0  0.276
  C  C58  1  0.430000  0.288000  0.948000  1.0  -0.0578
  C  C59  1  0.483300  0.198000  0.906600  1.0  -0.1262
  C  C60  1  0.626900  0.131000  0.957800  1.0  0.0209
  C  C61  1  0.709700  0.168000  0.047400  1.0  -0.0959
  C  C62  1  0.650600  0.270000  0.083200  1.0  -0.0984
  C  C63  1  0.506800  0.327200  0.033600  1.0  0.0343
  C  C64  1  0.850200  0.110000  0.100400  1.0  0.0562
  C  C65  1  0.689600  0.029000  0.919200  1.0  -0.1068
  C  C66  1  0.445900  0.434000  0.073800  1.0  -0.2712
  C  C67  1  0.763100  0.340000  0.628200  1.0  0.1451
  C  C68  1  0.655000  0.288500  0.560000  1.0  0.0512
  C  C69  1  0.623700  0.302000  0.459400  1.0  -0.1554
  C  C70  1  0.524500  0.252800  0.391000  1.0  0.1142
  C  C71  1  0.456300  0.191000  0.430600  1.0  -0.1008
  C  C72  1  0.497900  0.173000  0.529800  1.0  -0.1324
  C  C73  1  0.599600  0.224000  0.593200  1.0  -0.0319
  C  C74  1  0.358900  0.129000  0.361800  1.0  0.292
  C  C75  1  0.476300  0.269000  0.288600  1.0  -0.3104
  C  C76  1  0.636300  0.203000  0.708600  1.0  -0.3296
  N  N77  1  0.314700  0.896600  0.151400  1.0  -0.3407
  N  N78  1  0.831900  0.556600  0.855800  1.0  -0.4668
  N  N79  1  0.156900  0.887000  0.315800  1.0  -0.4013
  N  N80  1  0.973000  0.583600  0.686000  1.0  -0.4037
  N  N81  1  0.163300  0.396600  0.848600  1.0  -0.3405
  N  N82  1  0.976100  0.056600  0.144200  1.0  -0.4664
  N  N83  1  0.841100  0.387000  0.684200  1.0  -0.3993
  N  N84  1  0.287000  0.083600  0.314000  1.0  -0.4013
  F  F85  1  0.389900  0.996000  0.697800  1.0  -0.2721
  F  F86  1  0.238300  0.048600  0.554600  1.0  -0.2447
  F  F87  1  0.296000  0.152400  0.682000  1.0  -0.2761
  F  F88  1  0.158500  0.038400  0.681000  1.0  -0.2469
  F  F89  1  0.692100  0.496000  0.302200  1.0  -0.2745
  F  F90  1  0.683700  0.548600  0.445400  1.0  -0.2451
  F  F91  1  0.614000  0.652400  0.318000  1.0  -0.2754
  F  F92  1  0.477500  0.538400  0.319000  1.0  -0.2529
