# generated using pymatgen
data_CuH16C20N4ClO4
_symmetry_space_group_name_H-M   'P 1'
_cell_length_a   9.59000000
_cell_length_b   13.41600000
_cell_length_c   14.52860000
_cell_angle_alpha   95.15570000
_cell_angle_beta   109.27100000
_cell_angle_gamma   74.20010000
_symmetry_Int_Tables_number   1
_chemical_formula_structural   CuH16C20N4ClO4
_chemical_formula_sum   'Cu2 H32 C40 N8 Cl2 O8'
_cell_volume   1697.83874164
_cell_formula_units_Z   2
loop_
 _symmetry_equiv_pos_site_id
 _symmetry_equiv_pos_as_xyz
  1  'x, y, z'
loop_
 _atom_site_type_symbol
 _atom_site_label
 _atom_site_symmetry_multiplicity
 _atom_site_fract_x
 _atom_site_fract_y
 _atom_site_fract_z
 _atom_site_occupancy
 _atom_site_charge
  Cu  Cu1  1  0.290870  0.225400  0.228940  1.0  0.4806
  Cu  Cu2  1  0.061930  0.725400  0.771060  1.0  0.4804
  H  H3  1  0.685200  0.919200  0.150400  1.0  0.077
  H  H4  1  0.689800  0.033600  0.872800  1.0  0.1607
  H  H5  1  0.869200  0.762300  0.139200  1.0  0.1132
  H  H6  1  0.977400  0.771200  0.082800  1.0  0.2108
  H  H7  1  0.842200  0.721800  0.032800  1.0  0.1565
  H  H8  1  0.366700  0.172100  0.914200  1.0  0.1185
  H  H9  1  0.488100  0.229400  0.974600  1.0  0.1139
  H  H10  1  0.480200  0.194600  0.868600  1.0  0.2044
  H  H11  1  0.341500  0.096800  0.563200  1.0  0.0895
  H  H12  1  0.001600  0.870400  0.440600  1.0  0.0829
  H  H13  1  0.368300  0.051800  0.730800  1.0  0.1134
  H  H14  1  0.352500  0.942300  0.743800  1.0  0.1143
  H  H15  1  0.218400  0.039000  0.741400  1.0  0.2704
  H  H16  1  0.070400  0.981900  0.256000  1.0  0.2347
  H  H17  1  0.930500  0.965600  0.278000  1.0  0.1073
  H  H18  1  0.071500  0.872900  0.284400  1.0  0.099
  H  H19  1  0.534800  0.419200  0.849600  1.0  0.0759
  H  H20  1  0.817000  0.533600  0.127200  1.0  0.1593
  H  H21  1  0.730000  0.262300  0.860800  1.0  0.1129
  H  H22  1  0.894600  0.271200  0.917200  1.0  0.2108
  H  H23  1  0.809400  0.221800  0.967200  1.0  0.1566
  H  H24  1  0.452500  0.672100  0.085800  1.0  0.1187
  H  H25  1  0.513500  0.729400  0.025400  1.0  0.113
  H  H26  1  0.611600  0.694600  0.131400  1.0  0.2031
  H  H27  1  0.778300  0.596800  0.436800  1.0  0.0879
  H  H28  1  0.561000  0.370400  0.559400  1.0  0.0819
  H  H29  1  0.637500  0.551800  0.269200  1.0  0.1123
  H  H30  1  0.608700  0.442300  0.256200  1.0  0.1151
  H  H31  1  0.477000  0.539000  0.258600  1.0  0.2628
  H  H32  1  0.814400  0.481900  0.744000  1.0  0.2352
  H  H33  1  0.652500  0.465600  0.722000  1.0  0.1064
  H  H34  1  0.787100  0.372900  0.715600  1.0  0.0995
  C  C35  1  0.489400  0.096000  0.108800  1.0  0.3276
  C  C36  1  0.582500  0.034300  0.053000  1.0  -0.0553
  C  C37  1  0.683500  0.939000  0.091000  1.0  -0.0836
  C  C38  1  0.777900  0.874000  0.041800  1.0  0.1107
  C  C39  1  0.763800  0.914000  0.951600  1.0  0.0437
  C  C40  1  0.672100  0.012500  0.916200  1.0  -0.1196
  C  C41  1  0.581700  0.071500  0.967400  1.0  0.0531
  C  C42  1  0.856800  0.853100  0.897600  1.0  0.1223
  C  C43  1  0.878100  0.772000  0.076200  1.0  -0.2248
  C  C44  1  0.477000  0.177000  0.926000  1.0  -0.3081
  C  C45  1  0.237700  0.087000  0.373400  1.0  0.3386
  C  C46  1  0.200600  0.033000  0.439200  1.0  0.0363
  C  C47  1  0.267100  0.047800  0.540200  1.0  -0.1544
  C  C48  1  0.236700  0.996800  0.607400  1.0  0.0799
  C  C49  1  0.131600  0.935600  0.567200  1.0  -0.0632
  C  C50  1  0.073700  0.919400  0.471400  1.0  -0.0612
  C  C51  1  0.110100  0.968000  0.402200  1.0  0.0895
  C  C52  1  0.095900  0.876200  0.635800  1.0  0.3174
  C  C53  1  0.292800  0.014000  0.715600  1.0  -0.3139
  C  C54  1  0.038400  0.951000  0.294800  1.0  -0.3103
  C  C55  1  0.380600  0.596000  0.891200  1.0  0.3271
  C  C56  1  0.529500  0.534300  0.947000  1.0  -0.0557
  C  C57  1  0.592500  0.439000  0.909000  1.0  -0.086
  C  C58  1  0.736100  0.374000  0.958200  1.0  0.1091
  C  C59  1  0.812200  0.414000  0.048400  1.0  0.0365
  C  C60  1  0.755900  0.512500  0.083800  1.0  -0.1242
  C  C61  1  0.614300  0.571500  0.032600  1.0  0.0538
  C  C62  1  0.959200  0.353100  0.102400  1.0  0.1252
  C  C63  1  0.801900  0.272000  0.923800  1.0  -0.2254
  C  C64  1  0.551000  0.677000  0.074000  1.0  -0.3066
  C  C65  1  0.864300  0.587000  0.626600  1.0  0.3407
  C  C66  1  0.761400  0.533000  0.560800  1.0  0.0369
  C  C67  1  0.726900  0.547800  0.459800  1.0  -0.1531
  C  C68  1  0.629300  0.496800  0.392600  1.0  0.0788
  C  C69  1  0.564400  0.435600  0.432800  1.0  -0.0637
  C  C70  1  0.602300  0.419400  0.528600  1.0  -0.0613
  C  C71  1  0.707900  0.468000  0.597800  1.0  0.0908
  C  C72  1  0.460100  0.376200  0.364200  1.0  0.3161
  C  C73  1  0.577200  0.514000  0.284400  1.0  -0.316
  C  C74  1  0.743600  0.451000  0.705200  1.0  -0.312
  N  N75  1  0.417600  0.141900  0.151200  1.0  -0.4
  N  N76  1  0.932900  0.801900  0.851800  1.0  -0.4521
  N  N77  1  0.264900  0.129100  0.319800  1.0  -0.472
  N  N78  1  0.078100  0.826700  0.686200  1.0  -0.416
  N  N79  1  0.266400  0.641900  0.848800  1.0  -0.3974
  N  N80  1  0.081100  0.301900  0.148200  1.0  -0.4483
  N  N81  1  0.945100  0.629100  0.680200  1.0  -0.4697
  N  N82  1  0.391900  0.326700  0.313800  1.0  -0.413
  Cl  Cl83  1  0.707600  0.809000  0.346000  1.0  1.5291
  Cl  Cl84  1  0.361600  0.309000  0.654000  1.0  1.5307
  O  O85  1  0.779600  0.795700  0.447200  1.0  -0.5916
  O  O86  1  0.709500  0.908000  0.319000  1.0  -0.5905
  O  O87  1  0.801500  0.737000  0.299000  1.0  -0.6181
  O  O88  1  0.570000  0.785100  0.316000  1.0  -0.5538
  O  O89  1  0.332400  0.295700  0.552800  1.0  -0.5898
  O  O90  1  0.390500  0.408000  0.681000  1.0  -0.5906
  O  O91  1  0.502500  0.237000  0.701000  1.0  -0.6175
  O  O92  1  0.254000  0.285100  0.684000  1.0  -0.5541
