# generated using pymatgen
data_CuBH16C20(NF)4
_symmetry_space_group_name_H-M   'P 1'
_cell_length_a   9.59900000
_cell_length_b   13.36700000
_cell_length_c   14.46830000
_cell_angle_alpha   95.06990000
_cell_angle_beta   109.37400000
_cell_angle_gamma   74.55000000
_symmetry_Int_Tables_number   1
_chemical_formula_structural   CuBH16C20(NF)4
_chemical_formula_sum   'Cu2 B2 H32 C40 N8 F8'
_cell_volume   1688.01563005
_cell_formula_units_Z   2
loop_
 _symmetry_equiv_pos_site_id
 _symmetry_equiv_pos_as_xyz
  1  'x, y, z'
loop_
 _atom_site_type_symbol
 _atom_site_label
 _atom_site_symmetry_multiplicity
 _atom_site_fract_x
 _atom_site_fract_y
 _atom_site_fract_z
 _atom_site_occupancy
 _atom_site_charge
  Cu  Cu1  1  0.184290  0.981500  0.226780  1.0  0.5214
  Cu  Cu2  1  0.957510  0.481500  0.773220  1.0  0.5213
  B  B3  1  0.261900  0.061000  0.653800  1.0  0.9836
  B  B4  1  0.608100  0.561000  0.346200  1.0  0.9807
  H  H5  1  0.578700  0.673900  0.150600  1.0  0.0882
  H  H6  1  0.569300  0.822000  0.864000  1.0  0.0457
  H  H7  1  0.747200  0.512000  0.152400  1.0  0.1102
  H  H8  1  0.822500  0.543700  0.086600  1.0  0.1555
  H  H9  1  0.749600  0.467600  0.034600  1.0  0.14
  H  H10  1  0.427700  0.977300  0.920600  1.0  0.2014
  H  H11  1  0.300300  0.923400  0.862200  1.0  0.0832
  H  H12  1  0.311700  0.962200  0.968200  1.0  0.0836
  H  H13  1  0.226800  0.847300  0.556800  1.0  0.0775
  H  H14  1  0.902200  0.633900  0.445800  1.0  0.1008
  H  H15  1  0.303000  0.750100  0.729400  1.0  0.0996
  H  H16  1  0.161700  0.730700  0.747400  1.0  0.2178
  H  H17  1  0.162500  0.841900  0.725200  1.0  0.0896
  H  H18  1  0.868200  0.773900  0.260000  1.0  0.1092
  H  H19  1  0.869600  0.660400  0.276200  1.0  0.267
  H  H20  1  0.009600  0.684300  0.260400  1.0  0.1102
  H  H21  1  0.428100  0.173900  0.849400  1.0  0.0871
  H  H22  1  0.705300  0.322000  0.136000  1.0  0.0459
  H  H23  1  0.594800  0.012000  0.847600  1.0  0.1116
  H  H24  1  0.735900  0.043700  0.913400  1.0  0.1547
  H  H25  1  0.715000  0.967600  0.965400  1.0  0.1391
  H  H26  1  0.507100  0.477300  0.079400  1.0  0.2019
  H  H27  1  0.438100  0.423400  0.137800  1.0  0.0845
  H  H28  1  0.343500  0.462200  0.031800  1.0  0.0845
  H  H29  1  0.670000  0.347300  0.443200  1.0  0.0773
  H  H30  1  0.456400  0.133900  0.554200  1.0  0.099
  H  H31  1  0.573600  0.250100  0.270600  1.0  0.1083
  H  H32  1  0.414300  0.230700  0.252600  1.0  0.214
  H  H33  1  0.437300  0.341900  0.274800  1.0  0.0902
  H  H34  1  0.608200  0.273900  0.740000  1.0  0.1084
  H  H35  1  0.593400  0.160400  0.723800  1.0  0.2659
  H  H36  1  0.749200  0.184300  0.739600  1.0  0.1126
  C  C37  1  0.384000  0.854000  0.110000  1.0  0.2792
  C  C38  1  0.482000  0.788000  0.052000  1.0  -0.0571
  C  C39  1  0.576700  0.698000  0.093400  1.0  -0.1277
  C  C40  1  0.669100  0.631000  0.042200  1.0  0.0253
  C  C41  1  0.662300  0.668000  0.952600  1.0  -0.0917
  C  C42  1  0.567400  0.770000  0.916800  1.0  -0.0961
  C  C43  1  0.473200  0.827200  0.966400  1.0  0.0347
  C  C44  1  0.749800  0.610000  0.899600  1.0  0.0483
  C  C45  1  0.770400  0.529000  0.080800  1.0  -0.1087
  C  C46  1  0.372100  0.934000  0.926200  1.0  -0.2702
  C  C47  1  0.134900  0.840000  0.371800  1.0  0.1364
  C  C48  1  0.095000  0.788000  0.440000  1.0  0.0465
  C  C49  1  0.164300  0.802000  0.540600  1.0  -0.1604
  C  C50  1  0.133500  0.753000  0.609000  1.0  0.1167
  C  C51  1  0.025700  0.691000  0.569400  1.0  -0.1011
  C  C52  1  0.968100  0.673000  0.470200  1.0  -0.129
  C  C53  1  0.006400  0.724000  0.406800  1.0  -0.0247
  C  C54  1  0.997100  0.629000  0.638200  1.0  0.2943
  C  C55  1  0.187700  0.769000  0.711400  1.0  -0.3089
  C  C56  1  0.927700  0.703000  0.291400  1.0  -0.3261
  C  C57  1  0.274000  0.354000  0.890000  1.0  0.2772
  C  C58  1  0.430000  0.288000  0.948000  1.0  -0.0573
  C  C59  1  0.483300  0.198000  0.906600  1.0  -0.1277
  C  C60  1  0.626900  0.131000  0.957800  1.0  0.0214
  C  C61  1  0.709700  0.168000  0.047400  1.0  -0.0927
  C  C62  1  0.650600  0.270000  0.083200  1.0  -0.0978
  C  C63  1  0.506800  0.327200  0.033600  1.0  0.0348
  C  C64  1  0.850200  0.110000  0.100400  1.0  0.0512
  C  C65  1  0.689600  0.029000  0.919200  1.0  -0.108
  C  C66  1  0.445900  0.434000  0.073800  1.0  -0.2673
  C  C67  1  0.763100  0.340000  0.628200  1.0  0.136
  C  C68  1  0.655000  0.288000  0.560000  1.0  0.0451
  C  C69  1  0.623700  0.302000  0.459400  1.0  -0.1608
  C  C70  1  0.524500  0.253000  0.391000  1.0  0.1153
  C  C71  1  0.456300  0.191000  0.430600  1.0  -0.1041
  C  C72  1  0.497900  0.173000  0.529800  1.0  -0.1293
  C  C73  1  0.599600  0.224000  0.593200  1.0  -0.0248
  C  C74  1  0.358900  0.129000  0.361800  1.0  0.2924
  C  C75  1  0.476300  0.269000  0.288600  1.0  -0.312
  C  C76  1  0.636300  0.203000  0.708600  1.0  -0.326
  N  N77  1  0.314700  0.896600  0.151400  1.0  -0.3402
  N  N78  1  0.831900  0.556600  0.855800  1.0  -0.4677
  N  N79  1  0.156900  0.887000  0.315800  1.0  -0.3999
  N  N80  1  0.973000  0.583600  0.686000  1.0  -0.4031
  N  N81  1  0.163300  0.396600  0.848600  1.0  -0.34
  N  N82  1  0.976100  0.056600  0.144200  1.0  -0.4669
  N  N83  1  0.841100  0.387000  0.684200  1.0  -0.3979
  N  N84  1  0.287000  0.083600  0.314000  1.0  -0.4008
  F  F85  1  0.389900  0.996000  0.697800  1.0  -0.2769
  F  F86  1  0.238300  0.048600  0.554600  1.0  -0.2464
  F  F87  1  0.296000  0.152000  0.682000  1.0  -0.2748
  F  F88  1  0.158500  0.038000  0.681000  1.0  -0.2483
  F  F89  1  0.692100  0.496000  0.302200  1.0  -0.2796
  F  F90  1  0.683700  0.548600  0.445400  1.0  -0.2461
  F  F91  1  0.614000  0.652000  0.318000  1.0  -0.2738
  F  F92  1  0.477500  0.538000  0.319000  1.0  -0.2545
