# generated using pymatgen
data_EuH7(C7O3)2
_symmetry_space_group_name_H-M   'P 1'
_cell_length_a   6.46330000
_cell_length_b   17.07200000
_cell_length_c   23.81600000
_cell_angle_alpha   90.00000000
_cell_angle_beta   90.60200000
_cell_angle_gamma   90.00000000
_symmetry_Int_Tables_number   1
_chemical_formula_structural   EuH7(C7O3)2
_chemical_formula_sum   'Eu4 H28 C56 O24'
_cell_volume   2627.74710302
_cell_formula_units_Z   4
loop_
 _symmetry_equiv_pos_site_id
 _symmetry_equiv_pos_as_xyz
  1  'x, y, z'
loop_
 _atom_site_type_symbol
 _atom_site_label
 _atom_site_symmetry_multiplicity
 _atom_site_fract_x
 _atom_site_fract_y
 _atom_site_fract_z
 _atom_site_occupancy
 _atom_site_charge
  Eu  Eu1  1  0.261890  0.062800  0.022770  1.0  2.1686
  Eu  Eu2  1  0.738110  0.562800  0.477230  1.0  2.1681
  Eu  Eu3  1  0.738110  0.937200  0.977230  1.0  2.1677
  Eu  Eu4  1  0.261890  0.437200  0.522770  1.0  2.1687
  H  H5  1  0.612400  0.788800  0.815800  1.0  0.094
  H  H6  1  0.027100  0.833000  0.769100  1.0  0.1139
  H  H7  1  0.987200  0.910300  0.847700  1.0  0.087
  H  H8  1  0.068400  0.709000  0.732100  1.0  0.0921
  H  H9  1  0.699700  0.700700  0.644200  1.0  0.0973
  H  H10  1  0.651500  0.780600  0.720400  1.0  0.1013
  H  H11  1  0.090600  0.580700  0.629300  1.0  0.3808
  H  H12  1  0.387600  0.288800  0.684200  1.0  0.0941
  H  H13  1  0.972900  0.333000  0.730900  1.0  0.1138
  H  H14  1  0.012800  0.410300  0.652300  1.0  0.0873
  H  H15  1  0.931600  0.209000  0.767900  1.0  0.0913
  H  H16  1  0.300300  0.200700  0.855800  1.0  0.0949
  H  H17  1  0.348500  0.280600  0.779600  1.0  0.1017
  H  H18  1  0.909400  0.080700  0.870700  1.0  0.3815
  H  H19  1  0.387600  0.211200  0.184200  1.0  0.0946
  H  H20  1  0.972900  0.167000  0.230900  1.0  0.1141
  H  H21  1  0.012800  0.089700  0.152300  1.0  0.0872
  H  H22  1  0.931600  0.291000  0.267900  1.0  0.0911
  H  H23  1  0.300300  0.299300  0.355800  1.0  0.098
  H  H24  1  0.348500  0.219400  0.279600  1.0  0.1015
  H  H25  1  0.909400  0.419300  0.370700  1.0  0.3808
  H  H26  1  0.612400  0.711200  0.315800  1.0  0.094
  H  H27  1  0.027100  0.667000  0.269100  1.0  0.1137
  H  H28  1  0.987200  0.589700  0.347700  1.0  0.0867
  H  H29  1  0.068400  0.791000  0.232100  1.0  0.0918
  H  H30  1  0.699700  0.799300  0.144200  1.0  0.0948
  H  H31  1  0.651500  0.719400  0.220400  1.0  0.101
  H  H32  1  0.090600  0.919300  0.129300  1.0  0.3802
  C  C33  1  0.234900  0.940800  0.931300  1.0  0.6394
  C  C34  1  0.271700  0.894400  0.882500  1.0  -0.0623
  C  C35  1  0.467700  0.857000  0.872500  1.0  0.3241
  C  C36  1  0.486300  0.812800  0.823100  1.0  -0.1226
  C  C37  1  0.326500  0.803300  0.784700  1.0  0.006
  C  C38  1  0.136600  0.839400  0.794400  1.0  -0.1503
  C  C39  1  0.112700  0.885000  0.842200  1.0  -0.1188
  C  C40  1  0.356200  0.751300  0.734800  1.0  0.049
  C  C41  1  0.196600  0.706100  0.714800  1.0  -0.1456
  C  C42  1  0.221600  0.655700  0.669200  1.0  0.3235
  C  C43  1  0.412100  0.652600  0.642000  1.0  -0.1895
  C  C44  1  0.572400  0.701100  0.662000  1.0  -0.0878
  C  C45  1  0.543300  0.749200  0.707700  1.0  -0.1497
  C  C46  1  0.446400  0.600900  0.593500  1.0  0.7155
  C  C47  1  0.765100  0.440800  0.568700  1.0  0.6384
  C  C48  1  0.728300  0.394400  0.617500  1.0  -0.0635
  C  C49  1  0.532300  0.357000  0.627500  1.0  0.3274
  C  C50  1  0.513700  0.312800  0.676900  1.0  -0.1233
  C  C51  1  0.673500  0.303300  0.715300  1.0  0.0053
  C  C52  1  0.863400  0.339400  0.705600  1.0  -0.1499
  C  C53  1  0.887300  0.385000  0.657800  1.0  -0.1215
  C  C54  1  0.643800  0.251300  0.765200  1.0  0.0495
  C  C55  1  0.803400  0.206100  0.785200  1.0  -0.1442
  C  C56  1  0.778400  0.155700  0.830800  1.0  0.3236
  C  C57  1  0.587900  0.152600  0.858000  1.0  -0.1882
  C  C58  1  0.427600  0.201100  0.838000  1.0  -0.0868
  C  C59  1  0.456700  0.249200  0.792300  1.0  -0.1486
  C  C60  1  0.553600  0.100900  0.906500  1.0  0.7136
  C  C61  1  0.765100  0.059200  0.068700  1.0  0.6388
  C  C62  1  0.728300  0.105600  0.117500  1.0  -0.0635
  C  C63  1  0.532300  0.143000  0.127500  1.0  0.3271
  C  C64  1  0.513700  0.187200  0.176900  1.0  -0.1243
  C  C65  1  0.673500  0.196700  0.215300  1.0  0.0053
  C  C66  1  0.863400  0.160600  0.205600  1.0  -0.1495
  C  C67  1  0.887300  0.115000  0.157800  1.0  -0.1213
  C  C68  1  0.643800  0.248700  0.265200  1.0  0.0498
  C  C69  1  0.803400  0.293900  0.285200  1.0  -0.1439
  C  C70  1  0.778400  0.344300  0.330800  1.0  0.3238
  C  C71  1  0.587900  0.347400  0.358000  1.0  -0.1881
  C  C72  1  0.427600  0.298900  0.338000  1.0  -0.0865
  C  C73  1  0.456700  0.250800  0.292300  1.0  -0.1485
  C  C74  1  0.553600  0.399100  0.406500  1.0  0.7134
  C  C75  1  0.234900  0.559200  0.431300  1.0  0.6393
  C  C76  1  0.271700  0.605600  0.382500  1.0  -0.0624
  C  C77  1  0.467700  0.643000  0.372500  1.0  0.3244
  C  C78  1  0.486300  0.687200  0.323100  1.0  -0.1232
  C  C79  1  0.326500  0.696700  0.284700  1.0  0.006
  C  C80  1  0.136600  0.660600  0.294400  1.0  -0.1501
  C  C81  1  0.112700  0.615000  0.342200  1.0  -0.1185
  C  C82  1  0.356200  0.748700  0.234800  1.0  0.0493
  C  C83  1  0.196600  0.793900  0.214800  1.0  -0.1463
  C  C84  1  0.221600  0.844300  0.169200  1.0  0.3236
  C  C85  1  0.412100  0.847400  0.142000  1.0  -0.1895
  C  C86  1  0.572400  0.798900  0.162000  1.0  -0.0878
  C  C87  1  0.543300  0.750800  0.207700  1.0  -0.1496
  C  C88  1  0.446400  0.899100  0.093500  1.0  0.7152
  O  O89  1  0.063100  0.976600  0.940100  1.0  -0.8074
  O  O90  1  0.375900  0.950900  0.969200  1.0  -0.7384
  O  O91  1  0.601100  0.612600  0.562800  1.0  -0.7642
  O  O92  1  0.315600  0.545400  0.585400  1.0  -0.6629
  O  O93  1  0.626700  0.862900  0.906900  1.0  -0.6672
  O  O94  1  0.056500  0.611600  0.653900  1.0  -0.5251
  O  O95  1  0.936900  0.476600  0.559900  1.0  -0.8071
  O  O96  1  0.624100  0.450900  0.530800  1.0  -0.7386
  O  O97  1  0.398900  0.112600  0.937200  1.0  -0.7648
  O  O98  1  0.684400  0.045400  0.914600  1.0  -0.6628
  O  O99  1  0.373300  0.362900  0.593100  1.0  -0.6672
  O  O100  1  0.943500  0.111600  0.846100  1.0  -0.5257
  O  O101  1  0.936900  0.023400  0.059900  1.0  -0.8074
  O  O102  1  0.624100  0.049100  0.030800  1.0  -0.738
  O  O103  1  0.398900  0.387400  0.437200  1.0  -0.7651
  O  O104  1  0.684400  0.454600  0.414600  1.0  -0.6625
  O  O105  1  0.373300  0.137100  0.093100  1.0  -0.6655
  O  O106  1  0.943500  0.388400  0.346100  1.0  -0.5253
  O  O107  1  0.063100  0.523400  0.440100  1.0  -0.8069
  O  O108  1  0.375900  0.549100  0.469200  1.0  -0.7384
  O  O109  1  0.601100  0.887400  0.062800  1.0  -0.7647
  O  O110  1  0.315600  0.954600  0.085400  1.0  -0.6629
  O  O111  1  0.626700  0.637100  0.406900  1.0  -0.6664
  O  O112  1  0.056500  0.888400  0.153900  1.0  -0.5246
