# generated using pymatgen
data_DyH7(C7O3)2
_symmetry_space_group_name_H-M   'P 1'
_cell_length_a   6.34620000
_cell_length_b   16.58000000
_cell_length_c   24.01800000
_cell_angle_alpha   90.00000000
_cell_angle_beta   90.68300000
_cell_angle_gamma   90.00000000
_symmetry_Int_Tables_number   1
_chemical_formula_structural   DyH7(C7O3)2
_chemical_formula_sum   'Dy4 H28 C56 O24'
_cell_volume   2526.99430950
_cell_formula_units_Z   4
loop_
 _symmetry_equiv_pos_site_id
 _symmetry_equiv_pos_as_xyz
  1  'x, y, z'
loop_
 _atom_site_type_symbol
 _atom_site_label
 _atom_site_symmetry_multiplicity
 _atom_site_fract_x
 _atom_site_fract_y
 _atom_site_fract_z
 _atom_site_occupancy
 _atom_site_charge
  Dy  Dy1  1  0.262390  0.062170  0.023210  1.0  2.2751
  Dy  Dy2  1  0.737610  0.562170  0.476790  1.0  2.2746
  Dy  Dy3  1  0.737610  0.937830  0.976790  1.0  2.2763
  Dy  Dy4  1  0.262390  0.437830  0.523210  1.0  2.2768
  H  H5  1  0.624900  0.792500  0.813400  1.0  0.0866
  H  H6  1  0.028100  0.847000  0.765800  1.0  0.1067
  H  H7  1  0.983000  0.919100  0.846400  1.0  0.079
  H  H8  1  0.061600  0.715700  0.728800  1.0  0.0937
  H  H9  1  0.709700  0.708900  0.639900  1.0  0.0799
  H  H10  1  0.663300  0.793900  0.715600  1.0  0.0996
  H  H11  1  0.094300  0.582000  0.627000  1.0  0.3712
  H  H12  1  0.375100  0.292500  0.686600  1.0  0.087
  H  H13  1  0.971900  0.347000  0.734200  1.0  0.1073
  H  H14  1  0.017000  0.419100  0.653600  1.0  0.0787
  H  H15  1  0.938400  0.215700  0.771200  1.0  0.0928
  H  H16  1  0.290300  0.208900  0.860100  1.0  0.0817
  H  H17  1  0.336700  0.293900  0.784400  1.0  0.0991
  H  H18  1  0.905700  0.082000  0.873000  1.0  0.3723
  H  H19  1  0.375100  0.207500  0.186600  1.0  0.0869
  H  H20  1  0.971900  0.153000  0.234200  1.0  0.1074
  H  H21  1  0.017000  0.080900  0.153600  1.0  0.079
  H  H22  1  0.938400  0.284300  0.271200  1.0  0.0929
  H  H23  1  0.290300  0.291100  0.360100  1.0  0.0802
  H  H24  1  0.336700  0.206100  0.284400  1.0  0.0986
  H  H25  1  0.905700  0.418000  0.373000  1.0  0.3719
  H  H26  1  0.624900  0.707500  0.313400  1.0  0.0871
  H  H27  1  0.028100  0.653000  0.265800  1.0  0.1067
  H  H28  1  0.983000  0.580900  0.346400  1.0  0.0792
  H  H29  1  0.061600  0.784300  0.228800  1.0  0.0935
  H  H30  1  0.709700  0.791100  0.139900  1.0  0.0814
  H  H31  1  0.663300  0.706100  0.215600  1.0  0.0993
  H  H32  1  0.094300  0.918000  0.127000  1.0  0.3703
  C  C33  1  0.232800  0.944100  0.932200  1.0  0.6114
  C  C34  1  0.273200  0.899100  0.881200  1.0  -0.1053
  C  C35  1  0.471100  0.861500  0.871300  1.0  0.2865
  C  C36  1  0.493900  0.817800  0.820800  1.0  -0.1349
  C  C37  1  0.332600  0.811000  0.782300  1.0  0.0066
  C  C38  1  0.139800  0.850300  0.792400  1.0  -0.1898
  C  C39  1  0.113700  0.892800  0.840400  1.0  -0.0658
  C  C40  1  0.359300  0.761500  0.731300  1.0  0.0165
  C  C41  1  0.194900  0.713300  0.711300  1.0  -0.1699
  C  C42  1  0.222500  0.662400  0.666667  1.0  0.2744
  C  C43  1  0.417500  0.659600  0.638600  1.0  -0.1453
  C  C44  1  0.577700  0.709500  0.658200  1.0  -0.0721
  C  C45  1  0.550900  0.760100  0.703500  1.0  -0.1692
  C  C46  1  0.451700  0.604400  0.591200  1.0  0.7237
  C  C47  1  0.767200  0.444100  0.567800  1.0  0.61
  C  C48  1  0.726800  0.399100  0.618800  1.0  -0.1058
  C  C49  1  0.528900  0.361500  0.628700  1.0  0.2881
  C  C50  1  0.506100  0.317800  0.679200  1.0  -0.138
  C  C51  1  0.667400  0.311000  0.717700  1.0  0.0058
  C  C52  1  0.860200  0.350300  0.707600  1.0  -0.1902
  C  C53  1  0.886300  0.392800  0.659600  1.0  -0.0676
  C  C54  1  0.640700  0.261500  0.768700  1.0  0.0167
  C  C55  1  0.805100  0.213300  0.788700  1.0  -0.1701
  C  C56  1  0.777500  0.162400  0.833300  1.0  0.2743
  C  C57  1  0.582500  0.159600  0.861400  1.0  -0.1455
  C  C58  1  0.422300  0.209500  0.841800  1.0  -0.0713
  C  C59  1  0.449100  0.260100  0.796500  1.0  -0.1696
  C  C60  1  0.548300  0.104400  0.908800  1.0  0.7232
  C  C61  1  0.767200  0.055900  0.067800  1.0  0.6107
  C  C62  1  0.726800  0.100900  0.118800  1.0  -0.1053
  C  C63  1  0.528900  0.138500  0.128700  1.0  0.2884
  C  C64  1  0.506100  0.182200  0.179200  1.0  -0.1388
  C  C65  1  0.667400  0.189000  0.217700  1.0  0.0063
  C  C66  1  0.860200  0.149700  0.207600  1.0  -0.1902
  C  C67  1  0.886300  0.107200  0.159600  1.0  -0.0677
  C  C68  1  0.640700  0.238500  0.268700  1.0  0.0167
  C  C69  1  0.805100  0.286700  0.288700  1.0  -0.1695
  C  C70  1  0.777500  0.337600  0.333333  1.0  0.2736
  C  C71  1  0.582500  0.340400  0.361400  1.0  -0.1463
  C  C72  1  0.422300  0.290500  0.341800  1.0  -0.0702
  C  C73  1  0.449100  0.239900  0.296500  1.0  -0.1696
  C  C74  1  0.548300  0.395600  0.408800  1.0  0.7235
  C  C75  1  0.232800  0.555900  0.432200  1.0  0.6116
  C  C76  1  0.273200  0.600900  0.381200  1.0  -0.1051
  C  C77  1  0.471100  0.638500  0.371300  1.0  0.2877
  C  C78  1  0.493900  0.682200  0.320800  1.0  -0.1352
  C  C79  1  0.332600  0.689000  0.282300  1.0  0.0063
  C  C80  1  0.139800  0.649700  0.292400  1.0  -0.1895
  C  C81  1  0.113700  0.607200  0.340400  1.0  -0.0656
  C  C82  1  0.359300  0.738500  0.231300  1.0  0.0168
  C  C83  1  0.194900  0.786700  0.211300  1.0  -0.1698
  C  C84  1  0.222500  0.837600  0.166700  1.0  0.2751
  C  C85  1  0.417500  0.840400  0.138600  1.0  -0.1457
  C  C86  1  0.577700  0.790500  0.158200  1.0  -0.0717
  C  C87  1  0.550900  0.739900  0.203500  1.0  -0.1698
  C  C88  1  0.451700  0.895600  0.091200  1.0  0.7242
  O  O89  1  0.059400  0.981000  0.940300  1.0  -0.7625
  O  O90  1  0.372800  0.949200  0.970600  1.0  -0.6722
  O  O91  1  0.609300  0.616800  0.559700  1.0  -0.7439
  O  O92  1  0.322900  0.546400  0.584700  1.0  -0.6658
  O  O93  1  0.633900  0.863300  0.906400  1.0  -0.686
  O  O94  1  0.055800  0.615100  0.651300  1.0  -0.5274
  O  O95  1  0.940600  0.481000  0.559700  1.0  -0.7616
  O  O96  1  0.627200  0.449200  0.529400  1.0  -0.673
  O  O97  1  0.390700  0.116800  0.940300  1.0  -0.7436
  O  O98  1  0.677100  0.046400  0.915300  1.0  -0.6651
  O  O99  1  0.366100  0.363300  0.593600  1.0  -0.6866
  O  O100  1  0.944200  0.115100  0.848700  1.0  -0.5283
  O  O101  1  0.940600  0.019000  0.059700  1.0  -0.7616
  O  O102  1  0.627200  0.050800  0.029400  1.0  -0.6715
  O  O103  1  0.390700  0.383200  0.440300  1.0  -0.7439
  O  O104  1  0.677100  0.453600  0.415300  1.0  -0.6655
  O  O105  1  0.366100  0.136700  0.093600  1.0  -0.6878
  O  O106  1  0.944200  0.384900  0.348700  1.0  -0.5276
  O  O107  1  0.059400  0.519000  0.440300  1.0  -0.7626
  O  O108  1  0.372800  0.550800  0.470600  1.0  -0.6722
  O  O109  1  0.609300  0.883200  0.059700  1.0  -0.7447
  O  O110  1  0.322900  0.953600  0.084700  1.0  -0.6662
  O  O111  1  0.633900  0.636700  0.406400  1.0  -0.6842
  O  O112  1  0.055800  0.884900  0.151300  1.0  -0.5271
