# generated using pymatgen
data_GdH7(C7O3)2
_symmetry_space_group_name_H-M   'P 1'
_cell_length_a   6.43990000
_cell_length_b   17.02300000
_cell_length_c   23.83300000
_cell_angle_alpha   90.00000000
_cell_angle_beta   90.79200000
_cell_angle_gamma   90.00000000
_symmetry_Int_Tables_number   1
_chemical_formula_structural   GdH7(C7O3)2
_chemical_formula_sum   'Gd4 H28 C56 O24'
_cell_volume   2612.47680296
_cell_formula_units_Z   4
loop_
 _symmetry_equiv_pos_site_id
 _symmetry_equiv_pos_as_xyz
  1  'x, y, z'
loop_
 _atom_site_type_symbol
 _atom_site_label
 _atom_site_symmetry_multiplicity
 _atom_site_fract_x
 _atom_site_fract_y
 _atom_site_fract_z
 _atom_site_occupancy
 _atom_site_charge
  Gd  Gd1  1  0.262970  0.063120  0.022160  1.0  2.2219
  Gd  Gd2  1  0.737030  0.563120  0.477840  1.0  2.2214
  Gd  Gd3  1  0.737030  0.936880  0.977840  1.0  2.221
  Gd  Gd4  1  0.262970  0.436880  0.522160  1.0  2.2218
  H  H5  1  0.612300  0.787900  0.816700  1.0  0.0928
  H  H6  1  0.022000  0.830700  0.772000  1.0  0.1014
  H  H7  1  0.984500  0.907900  0.848500  1.0  0.0909
  H  H8  1  0.066600  0.703000  0.734200  1.0  0.0964
  H  H9  1  0.699400  0.697300  0.645100  1.0  0.092
  H  H10  1  0.648200  0.781300  0.721000  1.0  0.1014
  H  H11  1  0.093000  0.575000  0.631200  1.0  0.3734
  H  H12  1  0.387700  0.287900  0.683300  1.0  0.0912
  H  H13  1  0.978000  0.330700  0.728000  1.0  0.1014
  H  H14  1  0.015500  0.407900  0.651500  1.0  0.0904
  H  H15  1  0.933400  0.203000  0.765800  1.0  0.0958
  H  H16  1  0.300600  0.197300  0.854900  1.0  0.093
  H  H17  1  0.351800  0.281300  0.779000  1.0  0.102
  H  H18  1  0.907000  0.075000  0.868800  1.0  0.3736
  H  H19  1  0.387700  0.212100  0.183300  1.0  0.0931
  H  H20  1  0.978000  0.169300  0.228000  1.0  0.1016
  H  H21  1  0.015500  0.092100  0.151500  1.0  0.0904
  H  H22  1  0.933400  0.297000  0.265800  1.0  0.0959
  H  H23  1  0.300600  0.302700  0.354900  1.0  0.0928
  H  H24  1  0.351800  0.218700  0.279000  1.0  0.1015
  H  H25  1  0.907000  0.425000  0.368800  1.0  0.3735
  H  H26  1  0.612300  0.712100  0.316700  1.0  0.0912
  H  H27  1  0.022000  0.669300  0.272000  1.0  0.1015
  H  H28  1  0.984500  0.592100  0.348500  1.0  0.0909
  H  H29  1  0.066600  0.797000  0.234200  1.0  0.0961
  H  H30  1  0.699400  0.802700  0.145100  1.0  0.0925
  H  H31  1  0.648200  0.718700  0.221000  1.0  0.1011
  H  H32  1  0.093000  0.925000  0.131200  1.0  0.373
  C  C33  1  0.232900  0.938800  0.932300  1.0  0.6495
  C  C34  1  0.270500  0.892500  0.883300  1.0  -0.0703
  C  C35  1  0.466100  0.854300  0.873700  1.0  0.2886
  C  C36  1  0.484400  0.810600  0.824500  1.0  -0.1236
  C  C37  1  0.322800  0.799100  0.786600  1.0  0.0297
  C  C38  1  0.132900  0.837000  0.797000  1.0  -0.1529
  C  C39  1  0.110400  0.882400  0.843100  1.0  -0.0952
  C  C40  1  0.355700  0.748500  0.736300  1.0  0.005
  C  C41  1  0.194800  0.701700  0.716700  1.0  -0.1237
  C  C42  1  0.224800  0.652500  0.670900  1.0  0.2724
  C  C43  1  0.411100  0.650500  0.643200  1.0  -0.1817
  C  C44  1  0.571500  0.698300  0.662800  1.0  -0.0639
  C  C45  1  0.541500  0.748300  0.708900  1.0  -0.1472
  C  C46  1  0.446800  0.599600  0.593300  1.0  0.6956
  C  C47  1  0.767100  0.438800  0.567700  1.0  0.6485
  C  C48  1  0.729500  0.392500  0.616700  1.0  -0.0711
  C  C49  1  0.533900  0.354300  0.626300  1.0  0.2938
  C  C50  1  0.515600  0.310600  0.675500  1.0  -0.1233
  C  C51  1  0.677200  0.299100  0.713400  1.0  0.0294
  C  C52  1  0.867100  0.337000  0.703000  1.0  -0.1537
  C  C53  1  0.889600  0.382400  0.656900  1.0  -0.0979
  C  C54  1  0.644300  0.248500  0.763700  1.0  0.0052
  C  C55  1  0.805200  0.201700  0.783300  1.0  -0.1234
  C  C56  1  0.775200  0.152500  0.829100  1.0  0.2728
  C  C57  1  0.588900  0.150500  0.856800  1.0  -0.1809
  C  C58  1  0.428500  0.198300  0.837200  1.0  -0.064
  C  C59  1  0.458500  0.248300  0.791100  1.0  -0.1479
  C  C60  1  0.553200  0.099600  0.906700  1.0  0.6956
  C  C61  1  0.767100  0.061200  0.067700  1.0  0.6483
  C  C62  1  0.729500  0.107500  0.116700  1.0  -0.0713
  C  C63  1  0.533900  0.145700  0.126300  1.0  0.2941
  C  C64  1  0.515600  0.189400  0.175500  1.0  -0.1244
  C  C65  1  0.677200  0.200900  0.213400  1.0  0.0291
  C  C66  1  0.867100  0.163000  0.203000  1.0  -0.1534
  C  C67  1  0.889600  0.117600  0.156900  1.0  -0.0974
  C  C68  1  0.644300  0.251500  0.263700  1.0  0.0053
  C  C69  1  0.805200  0.298300  0.283300  1.0  -0.1232
  C  C70  1  0.775200  0.347500  0.329100  1.0  0.2728
  C  C71  1  0.588900  0.349500  0.356800  1.0  -0.1816
  C  C72  1  0.428500  0.301700  0.337200  1.0  -0.0635
  C  C73  1  0.458500  0.251700  0.291100  1.0  -0.1478
  C  C74  1  0.553200  0.400400  0.406700  1.0  0.6954
  C  C75  1  0.232900  0.561200  0.432300  1.0  0.6488
  C  C76  1  0.270500  0.607500  0.383300  1.0  -0.0708
  C  C77  1  0.466100  0.645700  0.373700  1.0  0.2895
  C  C78  1  0.484400  0.689400  0.324500  1.0  -0.1242
  C  C79  1  0.322800  0.700900  0.286600  1.0  0.0295
  C  C80  1  0.132900  0.663000  0.297000  1.0  -0.1524
  C  C81  1  0.110400  0.617600  0.343100  1.0  -0.0945
  C  C82  1  0.355700  0.751500  0.236300  1.0  0.0049
  C  C83  1  0.194800  0.798300  0.216700  1.0  -0.1236
  C  C84  1  0.224800  0.847500  0.170900  1.0  0.2723
  C  C85  1  0.411100  0.849500  0.143200  1.0  -0.1822
  C  C86  1  0.571500  0.801700  0.162800  1.0  -0.064
  C  C87  1  0.541500  0.751700  0.208900  1.0  -0.1474
  C  C88  1  0.446800  0.900400  0.093300  1.0  0.6947
  O  O89  1  0.060900  0.974900  0.940300  1.0  -0.7942
  O  O90  1  0.375500  0.949100  0.969700  1.0  -0.7465
  O  O91  1  0.602900  0.612200  0.562700  1.0  -0.7456
  O  O92  1  0.319300  0.542400  0.586400  1.0  -0.6453
  O  O93  1  0.628700  0.861100  0.907700  1.0  -0.6808
  O  O94  1  0.057700  0.605800  0.655700  1.0  -0.5383
  O  O95  1  0.939100  0.474900  0.559700  1.0  -0.7941
  O  O96  1  0.624500  0.449100  0.530300  1.0  -0.7452
  O  O97  1  0.397100  0.112200  0.937300  1.0  -0.7472
  O  O98  1  0.680700  0.042400  0.913600  1.0  -0.6457
  O  O99  1  0.371300  0.361100  0.592300  1.0  -0.6805
  O  O100  1  0.942300  0.105800  0.844300  1.0  -0.5398
  O  O101  1  0.939100  0.025100  0.059700  1.0  -0.7944
  O  O102  1  0.624500  0.050900  0.030300  1.0  -0.7447
  O  O103  1  0.397100  0.387800  0.437300  1.0  -0.7463
  O  O104  1  0.680700  0.457600  0.413600  1.0  -0.6454
  O  O105  1  0.371300  0.138900  0.092300  1.0  -0.683
  O  O106  1  0.942300  0.394200  0.344300  1.0  -0.5394
  O  O107  1  0.060900  0.525100  0.440300  1.0  -0.794
  O  O108  1  0.375500  0.550900  0.469700  1.0  -0.7465
  O  O109  1  0.602900  0.887800  0.062700  1.0  -0.7466
  O  O110  1  0.319300  0.957600  0.086400  1.0  -0.6452
  O  O111  1  0.628700  0.638900  0.407700  1.0  -0.6789
  O  O112  1  0.057700  0.894200  0.155700  1.0  -0.5379
