# generated using pymatgen
data_Cd2H21C34N5O8
_symmetry_space_group_name_H-M   'P 1'
_cell_length_a   7.57640000
_cell_length_b   14.12000000
_cell_length_c   15.79500000
_cell_angle_alpha   71.81000000
_cell_angle_beta   87.78000000
_cell_angle_gamma   79.38000000
_symmetry_Int_Tables_number   1
_chemical_formula_structural   Cd2H21C34N5O8
_chemical_formula_sum   'Cd4 H42 C68 N10 O16'
_cell_volume   1577.47153064
_cell_formula_units_Z   2
loop_
 _symmetry_equiv_pos_site_id
 _symmetry_equiv_pos_as_xyz
  1  'x, y, z'
loop_
 _atom_site_type_symbol
 _atom_site_label
 _atom_site_symmetry_multiplicity
 _atom_site_fract_x
 _atom_site_fract_y
 _atom_site_fract_z
 _atom_site_occupancy
 _atom_site_charge
  Cd  Cd1  1  0.021000  0.270300  0.726300  1.0  1.0036
  Cd  Cd2  1  0.514190  0.166250  0.737730  1.0  1.0434
  Cd  Cd3  1  0.979000  0.729700  0.273700  1.0  1.0059
  Cd  Cd4  1  0.485810  0.833750  0.262270  1.0  1.0421
  H  H5  1  0.212500  0.115000  0.037200  1.0  0.1031
  H  H6  1  0.063800  0.188100  0.134700  1.0  0.1019
  H  H7  1  0.005200  0.360300  0.102700  1.0  0.1081
  H  H8  1  0.113500  0.461000  0.973300  1.0  0.1086
  H  H9  1  0.288300  0.672900  0.779700  1.0  0.1228
  H  H10  1  0.398900  0.768300  0.650900  1.0  0.0967
  H  H11  1  0.493200  0.701200  0.539000  1.0  0.1226
  H  H12  1  0.465500  0.536700  0.556800  1.0  0.0874
  H  H13  1  0.314400  0.916100  0.982200  1.0  0.1238
  H  H14  1  0.485000  0.864700  0.877200  1.0  0.0886
  H  H15  1  0.380700  0.901100  0.734400  1.0  0.1254
  H  H16  1  0.086400  0.986700  0.698300  1.0  0.1159
  H  H17  1  0.343800  0.055400  0.353500  1.0  0.1244
  H  H18  1  0.160300  0.194900  0.264800  1.0  0.0912
  H  H19  1  0.030300  0.321200  0.315400  1.0  0.109
  H  H20  1  0.073600  0.310800  0.462900  1.0  0.134
  H  H21  1  0.517300  0.587900  0.937800  1.0  0.1039
  H  H22  1  0.631300  0.318700  0.989500  1.0  0.1236
  H  H23  1  0.805700  0.236700  0.903700  1.0  0.0771
  H  H24  1  0.882700  0.490900  0.735800  1.0  0.088
  H  H25  1  0.708100  0.578600  0.816400  1.0  0.0945
  H  H26  1  0.787500  0.885000  0.962800  1.0  0.1022
  H  H27  1  0.936200  0.811900  0.865300  1.0  0.1019
  H  H28  1  0.994800  0.639700  0.897300  1.0  0.1085
  H  H29  1  0.886500  0.539000  0.026700  1.0  0.1082
  H  H30  1  0.711700  0.327100  0.220300  1.0  0.1226
  H  H31  1  0.601100  0.231700  0.349100  1.0  0.0978
  H  H32  1  0.506800  0.298800  0.461000  1.0  0.1233
  H  H33  1  0.534500  0.463300  0.443200  1.0  0.0875
  H  H34  1  0.685600  0.083900  0.017800  1.0  0.1245
  H  H35  1  0.515000  0.135300  0.122800  1.0  0.0888
  H  H36  1  0.619300  0.098900  0.265600  1.0  0.1253
  H  H37  1  0.913600  0.013300  0.301700  1.0  0.1164
  H  H38  1  0.656200  0.944600  0.646500  1.0  0.1242
  H  H39  1  0.839700  0.805100  0.735200  1.0  0.0909
  H  H40  1  0.969700  0.678800  0.684600  1.0  0.109
  H  H41  1  0.926400  0.689200  0.537100  1.0  0.1344
  H  H42  1  0.482700  0.412100  0.062200  1.0  0.1009
  H  H43  1  0.368700  0.681300  0.010500  1.0  0.1235
  H  H44  1  0.194300  0.763300  0.096300  1.0  0.0765
  H  H45  1  0.117300  0.509100  0.264200  1.0  0.0873
  H  H46  1  0.291900  0.421400  0.183600  1.0  0.0945
  C  C47  1  0.339700  0.198300  0.881100  1.0  0.6829
  C  C48  1  0.244400  0.242500  0.945800  1.0  0.034
  C  C49  1  0.189800  0.185300  0.023300  1.0  -0.1123
  C  C50  1  0.102200  0.228700  0.081300  1.0  -0.0764
  C  C51  1  0.069100  0.331000  0.063000  1.0  -0.0956
  C  C52  1  0.131200  0.391100  0.985000  1.0  -0.1252
  C  C53  1  0.217700  0.348500  0.925400  1.0  0.2279
  C  C54  1  0.312800  0.546400  0.744900  1.0  0.2818
  C  C55  1  0.325000  0.644700  0.734600  1.0  -0.1739
  C  C56  1  0.391400  0.701400  0.657600  1.0  -0.0785
  C  C57  1  0.446400  0.662600  0.590900  1.0  -0.111
  C  C58  1  0.430400  0.563900  0.602700  1.0  -0.0719
  C  C59  1  0.366300  0.504400  0.677600  1.0  0.0371
  C  C60  1  0.340200  0.402800  0.679100  1.0  0.7045
  C  C61  1  0.091700  0.982900  0.901700  1.0  0.2205
  C  C62  1  0.268100  0.930300  0.925000  1.0  -0.195
  C  C63  1  0.369000  0.900700  0.861800  1.0  -0.0895
  C  C64  1  0.307900  0.921400  0.776600  1.0  -0.1661
  C  C65  1  0.133300  0.974000  0.755100  1.0  -0.07
  C  C66  1  0.031500  0.006600  0.815700  1.0  -0.0238
  C  C67  1  0.849400  0.065800  0.787500  1.0  0.6963
  C  C68  1  0.322500  0.101500  0.461600  1.0  0.2176
  C  C69  1  0.291100  0.107300  0.375900  1.0  -0.1861
  C  C70  1  0.181300  0.190300  0.323700  1.0  -0.0769
  C  C71  1  0.103200  0.264800  0.353400  1.0  -0.0908
  C  C72  1  0.129800  0.258900  0.441200  1.0  -0.0802
  C  C73  1  0.240500  0.175200  0.496200  1.0  -0.067
  C  C74  1  0.275900  0.173300  0.588400  1.0  0.7162
  C  C75  1  0.538000  0.517700  0.962500  1.0  -0.0954
  C  C76  1  0.652300  0.460700  0.911900  1.0  0.0988
  C  C77  1  0.681800  0.355500  0.937900  1.0  -0.209
  C  C78  1  0.786200  0.307200  0.886100  1.0  0.1837
  C  C79  1  0.831500  0.455300  0.787700  1.0  0.1779
  C  C80  1  0.727300  0.508100  0.836300  1.0  -0.1682
  C  C81  1  0.660300  0.801700  0.118900  1.0  0.6821
  C  C82  1  0.755600  0.757500  0.054200  1.0  0.0343
  C  C83  1  0.810200  0.814700  0.976700  1.0  -0.1133
  C  C84  1  0.897800  0.771300  0.918700  1.0  -0.0756
  C  C85  1  0.930900  0.669000  0.937000  1.0  -0.0961
  C  C86  1  0.868800  0.608900  0.015000  1.0  -0.1255
  C  C87  1  0.782300  0.651500  0.074600  1.0  0.2274
  C  C88  1  0.687200  0.453600  0.255100  1.0  0.2843
  C  C89  1  0.675000  0.355300  0.265400  1.0  -0.173
  C  C90  1  0.608600  0.298600  0.342400  1.0  -0.0785
  C  C91  1  0.553600  0.337400  0.409100  1.0  -0.1111
  C  C92  1  0.569600  0.436100  0.397300  1.0  -0.0723
  C  C93  1  0.633700  0.495600  0.322400  1.0  0.0391
  C  C94  1  0.659800  0.597200  0.320900  1.0  0.7037
  C  C95  1  0.908300  0.017100  0.098300  1.0  0.2196
  C  C96  1  0.731900  0.069700  0.075000  1.0  -0.1946
  C  C97  1  0.631000  0.099300  0.138200  1.0  -0.0917
  C  C98  1  0.692100  0.078600  0.223400  1.0  -0.1665
  C  C99  1  0.866700  0.026000  0.244900  1.0  -0.0709
  C  C100  1  0.968500  0.993400  0.184300  1.0  -0.0236
  C  C101  1  0.150600  0.934200  0.212500  1.0  0.6967
  C  C102  1  0.677500  0.898500  0.538400  1.0  0.2186
  C  C103  1  0.708900  0.892700  0.624100  1.0  -0.1874
  C  C104  1  0.818700  0.809700  0.676300  1.0  -0.075
  C  C105  1  0.896800  0.735200  0.646600  1.0  -0.0895
  C  C106  1  0.870200  0.741100  0.558800  1.0  -0.0801
  C  C107  1  0.759500  0.824800  0.503800  1.0  -0.065
  C  C108  1  0.724100  0.826700  0.411600  1.0  0.7169
  C  C109  1  0.462000  0.482300  0.037500  1.0  -0.0958
  C  C110  1  0.347700  0.539300  0.088100  1.0  0.0987
  C  C111  1  0.318200  0.644500  0.062100  1.0  -0.2091
  C  C112  1  0.213800  0.692800  0.113900  1.0  0.1833
  C  C113  1  0.168500  0.544700  0.212300  1.0  0.178
  C  C114  1  0.272700  0.491900  0.163700  1.0  -0.1682
  N  N115  1  0.279700  0.402100  0.843400  1.0  -0.2096
  N  N116  1  0.243900  0.495800  0.826300  1.0  -0.2017
  N  N117  1  0.975000  0.017600  0.960000  1.0  -0.2444
  N  N118  1  0.434500  0.015600  0.519500  1.0  -0.1731
  N  N119  1  0.861500  0.355900  0.811800  1.0  -0.3529
  N  N120  1  0.720300  0.597900  0.156600  1.0  -0.2113
  N  N121  1  0.756100  0.504200  0.173700  1.0  -0.2009
  N  N122  1  0.025000  0.982400  0.040000  1.0  -0.2444
  N  N123  1  0.565500  0.984400  0.480500  1.0  -0.173
  N  N124  1  0.138500  0.644100  0.188200  1.0  -0.3565
  O  O125  1  0.255300  0.189200  0.817700  1.0  -0.6589
  O  O126  1  0.506500  0.174200  0.885600  1.0  -0.6182
  O  O127  1  0.475500  0.337500  0.682800  1.0  -0.6226
  O  O128  1  0.182800  0.393200  0.671000  1.0  -0.6715
  O  O129  1  0.825700  0.160200  0.763200  1.0  -0.6337
  O  O130  1  0.724100  0.021700  0.786400  1.0  -0.5687
  O  O131  1  0.143000  0.195700  0.629900  1.0  -0.682
  O  O132  1  0.433300  0.149900  0.615600  1.0  -0.5769
  O  O133  1  0.744700  0.810800  0.182300  1.0  -0.6593
  O  O134  1  0.493500  0.825800  0.114400  1.0  -0.6173
  O  O135  1  0.524500  0.662500  0.317200  1.0  -0.622
  O  O136  1  0.817200  0.606800  0.329000  1.0  -0.6715
  O  O137  1  0.174300  0.839800  0.236800  1.0  -0.6338
  O  O138  1  0.275900  0.978300  0.213600  1.0  -0.5671
  O  O139  1  0.857000  0.804300  0.370100  1.0  -0.6811
  O  O140  1  0.566700  0.850100  0.384400  1.0  -0.5779
