# generated using pymatgen
data_Cd2H31C49(N4O3)2
_symmetry_space_group_name_H-M   'P 1'
_cell_length_a   18.66600000
_cell_length_b   13.99800000
_cell_length_c   27.17900000
_cell_angle_alpha   90.00000000
_cell_angle_beta   131.03200000
_cell_angle_gamma   90.00000000
_symmetry_Int_Tables_number   1
_chemical_formula_structural   Cd2H31C49(N4O3)2
_chemical_formula_sum   'Cd8 H124 C196 N32 O24'
_cell_volume   5356.97497706
_cell_formula_units_Z   4
loop_
 _symmetry_equiv_pos_site_id
 _symmetry_equiv_pos_as_xyz
  1  'x, y, z'
loop_
 _atom_site_type_symbol
 _atom_site_label
 _atom_site_symmetry_multiplicity
 _atom_site_fract_x
 _atom_site_fract_y
 _atom_site_fract_z
 _atom_site_occupancy
 _atom_site_charge
  Cd  Cd1  1  0.398860  0.763000  0.001040  1.0  0.8302
  Cd  Cd2  1  0.119160  0.777150  0.860770  1.0  0.9728
  Cd  Cd3  1  0.601140  0.263000  0.498960  1.0  0.8323
  Cd  Cd4  1  0.880840  0.277150  0.639230  1.0  0.9734
  Cd  Cd5  1  0.601140  0.237000  0.998960  1.0  0.8339
  Cd  Cd6  1  0.880840  0.222850  0.139230  1.0  0.9736
  Cd  Cd7  1  0.398860  0.737000  0.501040  1.0  0.8317
  Cd  Cd8  1  0.119160  0.722850  0.360770  1.0  0.9731
  H  H9  1  0.399000  0.979800  0.955600  1.0  0.0818
  H  H10  1  0.389800  0.060200  0.880300  1.0  0.1145
  H  H11  1  0.425300  0.819800  0.825800  1.0  0.101
  H  H12  1  0.424800  0.740600  0.899800  1.0  0.0839
  H  H13  1  0.407700  0.133200  0.820600  1.0  0.1055
  H  H14  1  0.372300  0.118100  0.659300  1.0  0.1186
  H  H15  1  0.365800  0.038300  0.595800  1.0  0.1368
  H  H16  1  0.366300  0.944700  0.527000  1.0  0.0816
  H  H17  1  0.373800  0.801500  0.680400  1.0  0.1074
  H  H18  1  0.384800  0.715600  0.613900  1.0  0.087
  H  H19  1  0.379900  0.284400  0.802500  1.0  0.1121
  H  H20  1  0.376700  0.446200  0.791200  1.0  0.0792
  H  H21  1  0.383800  0.424700  0.654300  1.0  0.0691
  H  H22  1  0.387500  0.262500  0.659000  1.0  0.1296
  H  H23  1  0.752500  0.740000  0.181600  1.0  0.1086
  H  H24  1  0.899100  0.499800  0.228100  1.0  0.1017
  H  H25  1  0.622200  0.508600  0.070000  1.0  0.1062
  H  H26  1  0.125700  0.783000  0.984400  1.0  0.0892
  H  H27  1  0.132400  0.691100  0.055500  1.0  0.1429
  H  H28  1  0.103300  0.462500  0.956400  1.0  0.1182
  H  H29  1  0.101000  0.561800  0.887800  1.0  0.0786
  H  H30  1  0.132900  0.611600  0.114400  1.0  0.1192
  H  H31  1  0.133700  0.356500  0.177700  1.0  0.1091
  H  H32  1  0.179100  0.669900  0.198100  1.0  0.1289
  H  H33  1  0.184700  0.740600  0.275800  1.0  0.07
  H  H34  1  0.097400  0.512700  0.300000  1.0  0.0815
  H  H35  1  0.100400  0.430200  0.229400  1.0  0.1167
  H  H36  1  0.153400  0.213600  0.179000  1.0  0.1161
  H  H37  1  0.147900  0.048500  0.169500  1.0  0.107
  H  H38  1  0.079300  0.073800  0.995600  1.0  0.1042
  H  H39  1  0.084800  0.238900  0.005200  1.0  0.1144
  H  H40  1  0.601000  0.479800  0.544400  1.0  0.0833
  H  H41  1  0.610200  0.560200  0.619700  1.0  0.1143
  H  H42  1  0.574700  0.319800  0.674200  1.0  0.1011
  H  H43  1  0.575200  0.240600  0.600200  1.0  0.0838
  H  H44  1  0.592300  0.633200  0.679400  1.0  0.1063
  H  H45  1  0.627700  0.618100  0.840700  1.0  0.1185
  H  H46  1  0.634200  0.538300  0.904200  1.0  0.1363
  H  H47  1  0.633700  0.444700  0.973000  1.0  0.0805
  H  H48  1  0.626200  0.301500  0.819600  1.0  0.1075
  H  H49  1  0.615200  0.215600  0.886100  1.0  0.0876
  H  H50  1  0.620100  0.784400  0.697500  1.0  0.1119
  H  H51  1  0.623300  0.946200  0.708800  1.0  0.0795
  H  H52  1  0.616200  0.924700  0.845700  1.0  0.0685
  H  H53  1  0.612500  0.762500  0.841000  1.0  0.1291
  H  H54  1  0.247500  0.240000  0.318400  1.0  0.1087
  H  H55  1  0.100900  0.999800  0.271900  1.0  0.102
  H  H56  1  0.377800  0.008600  0.430000  1.0  0.106
  H  H57  1  0.874300  0.283000  0.515600  1.0  0.0892
  H  H58  1  0.867600  0.191100  0.444500  1.0  0.1422
  H  H59  1  0.896700  0.962500  0.543600  1.0  0.1182
  H  H60  1  0.899000  0.061800  0.612200  1.0  0.0782
  H  H61  1  0.867100  0.111600  0.385600  1.0  0.1195
  H  H62  1  0.866300  0.856500  0.322300  1.0  0.1086
  H  H63  1  0.820900  0.169900  0.301900  1.0  0.1293
  H  H64  1  0.815300  0.240600  0.224200  1.0  0.0702
  H  H65  1  0.902600  0.012700  0.200000  1.0  0.0824
  H  H66  1  0.899600  0.930200  0.270600  1.0  0.1165
  H  H67  1  0.846600  0.713600  0.321000  1.0  0.1144
  H  H68  1  0.852100  0.548500  0.330500  1.0  0.107
  H  H69  1  0.920700  0.573800  0.504400  1.0  0.1055
  H  H70  1  0.915200  0.738900  0.494800  1.0  0.1136
  H  H71  1  0.601000  0.020200  0.044400  1.0  0.0826
  H  H72  1  0.610200  0.939800  0.119700  1.0  0.1133
  H  H73  1  0.574700  0.180200  0.174200  1.0  0.1011
  H  H74  1  0.575200  0.259400  0.100200  1.0  0.083
  H  H75  1  0.592300  0.866800  0.179400  1.0  0.1064
  H  H76  1  0.627700  0.881900  0.340700  1.0  0.1187
  H  H77  1  0.634200  0.961700  0.404200  1.0  0.1367
  H  H78  1  0.633700  0.055300  0.473000  1.0  0.0809
  H  H79  1  0.626200  0.198500  0.319600  1.0  0.1073
  H  H80  1  0.615200  0.284400  0.386100  1.0  0.0865
  H  H81  1  0.620100  0.715600  0.197500  1.0  0.1117
  H  H82  1  0.623300  0.553800  0.208800  1.0  0.0794
  H  H83  1  0.616200  0.575300  0.345700  1.0  0.0685
  H  H84  1  0.612500  0.737500  0.341000  1.0  0.1291
  H  H85  1  0.247500  0.260000  0.818400  1.0  0.1103
  H  H86  1  0.100900  0.500200  0.771900  1.0  0.1019
  H  H87  1  0.377800  0.491400  0.930000  1.0  0.1055
  H  H88  1  0.874300  0.217000  0.015600  1.0  0.0926
  H  H89  1  0.867600  0.308900  0.944500  1.0  0.1413
  H  H90  1  0.896700  0.537500  0.043600  1.0  0.1164
  H  H91  1  0.899000  0.438200  0.112200  1.0  0.0785
  H  H92  1  0.867100  0.388400  0.885600  1.0  0.1203
  H  H93  1  0.866300  0.643500  0.822300  1.0  0.1091
  H  H94  1  0.820900  0.330100  0.801900  1.0  0.1293
  H  H95  1  0.815300  0.259400  0.724200  1.0  0.0705
  H  H96  1  0.902600  0.487300  0.700000  1.0  0.0823
  H  H97  1  0.899600  0.569800  0.770600  1.0  0.1163
  H  H98  1  0.846600  0.786400  0.821000  1.0  0.1156
  H  H99  1  0.852100  0.951500  0.830500  1.0  0.1068
  H  H100  1  0.920700  0.926200  0.004400  1.0  0.1054
  H  H101  1  0.915200  0.761100  0.994800  1.0  0.1135
  H  H102  1  0.399000  0.520200  0.455600  1.0  0.0816
  H  H103  1  0.389800  0.439800  0.380300  1.0  0.1129
  H  H104  1  0.425300  0.680200  0.325800  1.0  0.101
  H  H105  1  0.424800  0.759400  0.399800  1.0  0.083
  H  H106  1  0.407700  0.366800  0.320600  1.0  0.1054
  H  H107  1  0.372300  0.381900  0.159300  1.0  0.118
  H  H108  1  0.365800  0.461700  0.095800  1.0  0.1378
  H  H109  1  0.366300  0.555300  0.027000  1.0  0.0819
  H  H110  1  0.373800  0.698500  0.180400  1.0  0.107
  H  H111  1  0.384800  0.784400  0.113900  1.0  0.0866
  H  H112  1  0.379900  0.215600  0.302500  1.0  0.1121
  H  H113  1  0.376700  0.053800  0.291200  1.0  0.0788
  H  H114  1  0.383800  0.075300  0.154300  1.0  0.07
  H  H115  1  0.387500  0.237500  0.159000  1.0  0.1296
  H  H116  1  0.752500  0.760000  0.681600  1.0  0.1099
  H  H117  1  0.899100  0.000200  0.728100  1.0  0.1015
  H  H118  1  0.622200  0.991400  0.570000  1.0  0.1059
  H  H119  1  0.125700  0.717000  0.484400  1.0  0.0933
  H  H120  1  0.132400  0.808900  0.555500  1.0  0.1418
  H  H121  1  0.103300  0.037500  0.456400  1.0  0.1165
  H  H122  1  0.101000  0.938200  0.387800  1.0  0.0787
  H  H123  1  0.132900  0.888400  0.614400  1.0  0.1201
  H  H124  1  0.133700  0.143500  0.677700  1.0  0.1093
  H  H125  1  0.179100  0.830100  0.698100  1.0  0.1289
  H  H126  1  0.184700  0.759400  0.775800  1.0  0.0702
  H  H127  1  0.097400  0.987300  0.800000  1.0  0.0814
  H  H128  1  0.100400  0.069800  0.729400  1.0  0.1166
  H  H129  1  0.153400  0.286400  0.679000  1.0  0.1158
  H  H130  1  0.147900  0.451500  0.669500  1.0  0.1067
  H  H131  1  0.079300  0.426200  0.495600  1.0  0.1043
  H  H132  1  0.084800  0.261100  0.505200  1.0  0.1143
  C  C133  1  0.401500  0.945400  0.927500  1.0  0.1823
  C  C134  1  0.397500  0.994300  0.883100  1.0  -0.2111
  C  C135  1  0.404300  0.949200  0.842900  1.0  0.0431
  C  C136  1  0.416900  0.854300  0.850900  1.0  -0.1081
  C  C137  1  0.417700  0.806600  0.896200  1.0  0.1472
  C  C138  1  0.395600  0.001000  0.790200  1.0  0.1151
  C  C139  1  0.398100  0.097300  0.788000  1.0  -0.1047
  C  C140  1  0.386500  0.144500  0.737400  1.0  0.0534
  C  C141  1  0.378800  0.089100  0.692900  1.0  -0.0981
  C  C142  1  0.372700  0.931400  0.649100  1.0  0.0359
  C  C143  1  0.369100  0.972200  0.600600  1.0  -0.2108
  C  C144  1  0.370300  0.915300  0.559500  1.0  0.1764
  C  C145  1  0.375100  0.833500  0.651000  1.0  -0.1588
  C  C146  1  0.379600  0.781700  0.609600  1.0  0.1659
  C  C147  1  0.384800  0.249700  0.731700  1.0  0.0826
  C  C148  1  0.380600  0.310300  0.771300  1.0  -0.1891
  C  C149  1  0.377800  0.407900  0.763700  1.0  0.1762
  C  C150  1  0.381800  0.395800  0.684300  1.0  0.1984
  C  C151  1  0.385100  0.297100  0.687100  1.0  -0.2196
  C  C152  1  0.578200  0.686700  0.077600  1.0  0.6474
  C  C153  1  0.672100  0.631700  0.121000  1.0  -0.1532
  C  C154  1  0.754300  0.675800  0.173700  1.0  -0.032
  C  C155  1  0.839100  0.626900  0.214900  1.0  -0.1635
  C  C156  1  0.842100  0.533300  0.200700  1.0  -0.0114
  C  C157  1  0.762500  0.488100  0.146800  1.0  -0.1634
  C  C158  1  0.676600  0.538200  0.106600  1.0  -0.0115
  C  C159  1  0.930800  0.674200  0.271200  1.0  0.6687
  C  C160  1  0.769400  0.387800  0.130700  1.0  0.6819
  C  C161  1  0.122400  0.717100  0.979100  1.0  0.1752
  C  C162  1  0.126200  0.662200  0.022000  1.0  -0.2284
  C  C163  1  0.120700  0.564500  0.016300  1.0  0.0599
  C  C164  1  0.109500  0.528000  0.963700  1.0  -0.1255
  C  C165  1  0.107400  0.588500  0.921900  1.0  0.175
  C  C166  1  0.123800  0.506900  0.062500  1.0  0.1456
  C  C167  1  0.130100  0.545500  0.109800  1.0  -0.0943
  C  C168  1  0.132500  0.489600  0.151200  1.0  -0.0044
  C  C169  1  0.130900  0.393100  0.147900  1.0  -0.1338
  C  C170  1  0.125100  0.350000  0.100100  1.0  0.0578
  C  C171  1  0.137000  0.539000  0.201800  1.0  0.043
  C  C172  1  0.162500  0.634700  0.218300  1.0  -0.2002
  C  C173  1  0.163300  0.677800  0.264500  1.0  0.1894
  C  C174  1  0.114400  0.545500  0.279200  1.0  0.1872
  C  C175  1  0.115000  0.495000  0.235800  1.0  -0.196
  C  C176  1  0.119700  0.242600  0.093100  1.0  -0.0567
  C  C177  1  0.138600  0.185600  0.142300  1.0  -0.0997
  C  C178  1  0.135200  0.086700  0.136600  1.0  0.1577
  C  C179  1  0.094100  0.101800  0.032400  1.0  0.1408
  C  C180  1  0.097500  0.200800  0.038100  1.0  -0.0317
  C  C181  1  0.380500  0.994700  0.696600  1.0  0.1816
  C  C182  1  0.598500  0.445400  0.572500  1.0  0.1827
  C  C183  1  0.602500  0.494300  0.616900  1.0  -0.2104
  C  C184  1  0.595700  0.449200  0.657100  1.0  0.0474
  C  C185  1  0.583100  0.354300  0.649100  1.0  -0.1059
  C  C186  1  0.582300  0.306600  0.603800  1.0  0.147
  C  C187  1  0.604400  0.501000  0.709800  1.0  0.1149
  C  C188  1  0.601900  0.597300  0.712000  1.0  -0.1042
  C  C189  1  0.613500  0.644500  0.762600  1.0  0.0533
  C  C190  1  0.621200  0.589100  0.807100  1.0  -0.0971
  C  C191  1  0.627300  0.431400  0.850900  1.0  0.0362
  C  C192  1  0.630900  0.472200  0.899400  1.0  -0.2107
  C  C193  1  0.629700  0.415300  0.940500  1.0  0.1767
  C  C194  1  0.624900  0.333500  0.849000  1.0  -0.1603
  C  C195  1  0.620400  0.281700  0.890400  1.0  0.1647
  C  C196  1  0.615200  0.749700  0.768300  1.0  0.0833
  C  C197  1  0.619400  0.810300  0.728700  1.0  -0.1897
  C  C198  1  0.622200  0.907900  0.736300  1.0  0.1759
  C  C199  1  0.618200  0.895800  0.815700  1.0  0.1977
  C  C200  1  0.614900  0.797100  0.812900  1.0  -0.2191
  C  C201  1  0.421800  0.186700  0.422400  1.0  0.6485
  C  C202  1  0.327900  0.131700  0.379000  1.0  -0.1545
  C  C203  1  0.245700  0.175800  0.326300  1.0  -0.0328
  C  C204  1  0.160900  0.126900  0.285100  1.0  -0.1636
  C  C205  1  0.157900  0.033300  0.299300  1.0  -0.0118
  C  C206  1  0.237500  0.988100  0.353200  1.0  -0.1631
  C  C207  1  0.323400  0.038200  0.393400  1.0  -0.0111
  C  C208  1  0.069200  0.174200  0.228800  1.0  0.6676
  C  C209  1  0.230600  0.887800  0.369300  1.0  0.6825
  C  C210  1  0.877600  0.217100  0.520900  1.0  0.1756
  C  C211  1  0.873800  0.162200  0.478000  1.0  -0.2269
  C  C212  1  0.879300  0.064500  0.483700  1.0  0.0601
  C  C213  1  0.890500  0.028000  0.536300  1.0  -0.1239
  C  C214  1  0.892600  0.088500  0.578100  1.0  0.1755
  C  C215  1  0.876200  0.006900  0.437500  1.0  0.1452
  C  C216  1  0.869900  0.045500  0.390200  1.0  -0.0943
  C  C217  1  0.867500  0.989600  0.348800  1.0  -0.0042
  C  C218  1  0.869100  0.893100  0.352100  1.0  -0.1338
  C  C219  1  0.874900  0.850000  0.399900  1.0  0.0578
  C  C220  1  0.863000  0.039000  0.298200  1.0  0.042
  C  C221  1  0.837500  0.134700  0.281700  1.0  -0.1996
  C  C222  1  0.836700  0.177800  0.235500  1.0  0.1887
  C  C223  1  0.885600  0.045500  0.220800  1.0  0.188
  C  C224  1  0.885000  0.995000  0.264200  1.0  -0.1965
  C  C225  1  0.880300  0.742600  0.406900  1.0  -0.0572
  C  C226  1  0.861400  0.685600  0.357700  1.0  -0.0986
  C  C227  1  0.864800  0.586700  0.363400  1.0  0.1564
  C  C228  1  0.905900  0.601800  0.467600  1.0  0.1403
  C  C229  1  0.902500  0.700800  0.461900  1.0  -0.0394
  C  C230  1  0.619500  0.494700  0.803400  1.0  0.1811
  C  C231  1  0.598500  0.054600  0.072500  1.0  0.1829
  C  C232  1  0.602500  0.005700  0.116900  1.0  -0.2097
  C  C233  1  0.595700  0.050800  0.157100  1.0  0.0472
  C  C234  1  0.583100  0.145700  0.149100  1.0  -0.107
  C  C235  1  0.582300  0.193400  0.103800  1.0  0.1478
  C  C236  1  0.604400  0.999000  0.209800  1.0  0.1155
  C  C237  1  0.601900  0.902700  0.212000  1.0  -0.1039
  C  C238  1  0.613500  0.855500  0.262600  1.0  0.053
  C  C239  1  0.621200  0.910900  0.307100  1.0  -0.0965
  C  C240  1  0.627300  0.068600  0.350900  1.0  0.0357
  C  C241  1  0.630900  0.027800  0.399400  1.0  -0.209
  C  C242  1  0.629700  0.084700  0.440500  1.0  0.1777
  C  C243  1  0.624900  0.166500  0.349000  1.0  -0.1616
  C  C244  1  0.620400  0.218300  0.390400  1.0  0.1649
  C  C245  1  0.615200  0.750300  0.268300  1.0  0.0834
  C  C246  1  0.619400  0.689700  0.228700  1.0  -0.1901
  C  C247  1  0.622200  0.592100  0.236300  1.0  0.1777
  C  C248  1  0.618200  0.604200  0.315700  1.0  0.1983
  C  C249  1  0.614900  0.702900  0.312900  1.0  -0.2184
  C  C250  1  0.421800  0.313300  0.922400  1.0  0.6478
  C  C251  1  0.327900  0.368300  0.879000  1.0  -0.1532
  C  C252  1  0.245700  0.324200  0.826300  1.0  -0.0326
  C  C253  1  0.160900  0.373100  0.785100  1.0  -0.1636
  C  C254  1  0.157900  0.466700  0.799300  1.0  -0.0116
  C  C255  1  0.237500  0.511900  0.853200  1.0  -0.1636
  C  C256  1  0.323400  0.461800  0.893400  1.0  -0.011
  C  C257  1  0.069200  0.325800  0.728800  1.0  0.668
  C  C258  1  0.230600  0.612200  0.869300  1.0  0.6828
  C  C259  1  0.877600  0.282900  0.020900  1.0  0.1775
  C  C260  1  0.873800  0.337800  0.978000  1.0  -0.2247
  C  C261  1  0.879300  0.435500  0.983700  1.0  0.0597
  C  C262  1  0.890500  0.472000  0.036300  1.0  -0.1254
  C  C263  1  0.892600  0.411500  0.078100  1.0  0.175
  C  C264  1  0.876200  0.493100  0.937500  1.0  0.1453
  C  C265  1  0.869900  0.454500  0.890200  1.0  -0.095
  C  C266  1  0.867500  0.510400  0.848800  1.0  -0.0041
  C  C267  1  0.869100  0.606900  0.852100  1.0  -0.1341
  C  C268  1  0.874900  0.650000  0.899900  1.0  0.0579
  C  C269  1  0.863000  0.461000  0.798200  1.0  0.0418
  C  C270  1  0.837500  0.365300  0.781700  1.0  -0.1999
  C  C271  1  0.836700  0.322200  0.735500  1.0  0.188
  C  C272  1  0.885600  0.454500  0.720800  1.0  0.1879
  C  C273  1  0.885000  0.505000  0.764200  1.0  -0.1973
  C  C274  1  0.880300  0.757400  0.906900  1.0  -0.0567
  C  C275  1  0.861400  0.814400  0.857700  1.0  -0.0989
  C  C276  1  0.864800  0.913300  0.863400  1.0  0.156
  C  C277  1  0.905900  0.898200  0.967600  1.0  0.1394
  C  C278  1  0.902500  0.799200  0.961900  1.0  -0.0391
  C  C279  1  0.619500  0.005300  0.303400  1.0  0.1811
  C  C280  1  0.401500  0.554600  0.427500  1.0  0.1825
  C  C281  1  0.397500  0.505700  0.383100  1.0  -0.2091
  C  C282  1  0.404300  0.550800  0.342900  1.0  0.0429
  C  C283  1  0.416900  0.645700  0.350900  1.0  -0.1075
  C  C284  1  0.417700  0.693400  0.396200  1.0  0.1478
  C  C285  1  0.395600  0.499000  0.290200  1.0  0.1152
  C  C286  1  0.398100  0.402700  0.288000  1.0  -0.1043
  C  C287  1  0.386500  0.355500  0.237400  1.0  0.0531
  C  C288  1  0.378800  0.410900  0.192900  1.0  -0.0976
  C  C289  1  0.372700  0.568600  0.149100  1.0  0.036
  C  C290  1  0.369100  0.527800  0.100600  1.0  -0.2108
  C  C291  1  0.370300  0.584700  0.059500  1.0  0.1769
  C  C292  1  0.375100  0.666500  0.151000  1.0  -0.1608
  C  C293  1  0.379600  0.718300  0.109600  1.0  0.1659
  C  C294  1  0.384800  0.250300  0.231700  1.0  0.0829
  C  C295  1  0.380600  0.189700  0.271300  1.0  -0.1898
  C  C296  1  0.377800  0.092100  0.263700  1.0  0.1788
  C  C297  1  0.381800  0.104200  0.184300  1.0  0.1975
  C  C298  1  0.385100  0.202900  0.187100  1.0  -0.2193
  C  C299  1  0.578200  0.813300  0.577600  1.0  0.647
  C  C300  1  0.672100  0.868300  0.621000  1.0  -0.1546
  C  C301  1  0.754300  0.824200  0.673700  1.0  -0.0333
  C  C302  1  0.839100  0.873100  0.714900  1.0  -0.1637
  C  C303  1  0.842100  0.966700  0.700700  1.0  -0.0114
  C  C304  1  0.762500  0.011900  0.646800  1.0  -0.1635
  C  C305  1  0.676600  0.961800  0.606600  1.0  -0.0113
  C  C306  1  0.930800  0.825800  0.771200  1.0  0.6685
  C  C307  1  0.769400  0.112200  0.630700  1.0  0.6829
  C  C308  1  0.122400  0.782900  0.479100  1.0  0.1777
  C  C309  1  0.126200  0.837800  0.522000  1.0  -0.2257
  C  C310  1  0.120700  0.935500  0.516300  1.0  0.0597
  C  C311  1  0.109500  0.972000  0.463700  1.0  -0.1267
  C  C312  1  0.107400  0.911500  0.421900  1.0  0.1746
  C  C313  1  0.123800  0.993100  0.562500  1.0  0.1464
  C  C314  1  0.130100  0.954500  0.609800  1.0  -0.0948
  C  C315  1  0.132500  0.010400  0.651200  1.0  -0.0043
  C  C316  1  0.130900  0.106900  0.647900  1.0  -0.1344
  C  C317  1  0.125100  0.150000  0.600100  1.0  0.059
  C  C318  1  0.137000  0.961000  0.701800  1.0  0.0428
  C  C319  1  0.162500  0.865300  0.718300  1.0  -0.2005
  C  C320  1  0.163300  0.822200  0.764500  1.0  0.1886
  C  C321  1  0.114400  0.954500  0.779200  1.0  0.187
  C  C322  1  0.115000  0.005000  0.735800  1.0  -0.1973
  C  C323  1  0.119700  0.257400  0.593100  1.0  -0.057
  C  C324  1  0.138600  0.314400  0.642300  1.0  -0.0995
  C  C325  1  0.135200  0.413300  0.636600  1.0  0.1572
  C  C326  1  0.094100  0.398200  0.532400  1.0  0.1399
  C  C327  1  0.097500  0.299200  0.538100  1.0  -0.0318
  C  C328  1  0.380500  0.505300  0.196600  1.0  0.1816
  N  N329  1  0.113000  0.044800  0.081600  1.0  -0.4107
  N  N330  1  0.408700  0.851600  0.933600  1.0  -0.3258
  N  N331  1  0.376800  0.822100  0.564200  1.0  -0.3527
  N  N332  1  0.114300  0.682200  0.929000  1.0  -0.3561
  N  N333  1  0.136200  0.637000  0.293500  1.0  -0.342
  N  N334  1  0.376400  0.450600  0.719300  1.0  -0.3967
  N  N335  1  0.386400  0.947200  0.743700  1.0  -0.4822
  N  N336  1  0.121700  0.407700  0.056500  1.0  -0.499
  N  N337  1  0.887000  0.544800  0.418400  1.0  -0.4109
  N  N338  1  0.591300  0.351600  0.566400  1.0  -0.3244
  N  N339  1  0.623200  0.322100  0.935800  1.0  -0.3515
  N  N340  1  0.885700  0.182200  0.571000  1.0  -0.357
  N  N341  1  0.863800  0.137000  0.206500  1.0  -0.3407
  N  N342  1  0.623600  0.950600  0.780700  1.0  -0.3967
  N  N343  1  0.613600  0.447200  0.756300  1.0  -0.4836
  N  N344  1  0.878300  0.907700  0.443500  1.0  -0.5013
  N  N345  1  0.887000  0.955200  0.918400  1.0  -0.4143
  N  N346  1  0.591300  0.148400  0.066400  1.0  -0.3234
  N  N347  1  0.623200  0.177900  0.435800  1.0  -0.3516
  N  N348  1  0.885700  0.317800  0.071000  1.0  -0.3572
  N  N349  1  0.863800  0.363000  0.706500  1.0  -0.3418
  N  N350  1  0.623600  0.549400  0.280700  1.0  -0.3934
  N  N351  1  0.613600  0.052800  0.256300  1.0  -0.4838
  N  N352  1  0.878300  0.592300  0.943500  1.0  -0.5019
  N  N353  1  0.113000  0.455200  0.581600  1.0  -0.4142
  N  N354  1  0.408700  0.648400  0.433600  1.0  -0.3267
  N  N355  1  0.376800  0.677900  0.064200  1.0  -0.3516
  N  N356  1  0.114300  0.817800  0.429000  1.0  -0.358
  N  N357  1  0.136200  0.863000  0.793500  1.0  -0.3408
  N  N358  1  0.376400  0.049400  0.219300  1.0  -0.3935
  N  N359  1  0.386400  0.552800  0.243700  1.0  -0.4824
  N  N360  1  0.121700  0.092300  0.556500  1.0  -0.4992
  O  O361  1  0.509300  0.645000  0.027000  1.0  -0.5875
  O  O362  1  0.572900  0.768200  0.093500  1.0  -0.6188
  O  O363  1  0.850600  0.351800  0.168700  1.0  -0.5986
  O  O364  1  0.698000  0.348500  0.081900  1.0  -0.6817
  O  O365  1  0.940200  0.761700  0.272100  1.0  -0.6629
  O  O366  1  0.997000  0.620600  0.316300  1.0  -0.5944
  O  O367  1  0.490700  0.145000  0.473000  1.0  -0.5868
  O  O368  1  0.427100  0.268200  0.406500  1.0  -0.6198
  O  O369  1  0.149400  0.851800  0.331300  1.0  -0.5993
  O  O370  1  0.302000  0.848500  0.418100  1.0  -0.6799
  O  O371  1  0.059800  0.261700  0.227900  1.0  -0.6616
  O  O372  1  0.003000  0.120600  0.183700  1.0  -0.5935
  O  O373  1  0.490700  0.355000  0.973000  1.0  -0.5866
  O  O374  1  0.427100  0.231800  0.906500  1.0  -0.6197
  O  O375  1  0.149400  0.648200  0.831300  1.0  -0.5986
  O  O376  1  0.302000  0.651500  0.918100  1.0  -0.6806
  O  O377  1  0.059800  0.238300  0.727900  1.0  -0.6609
  O  O378  1  0.003000  0.379400  0.683700  1.0  -0.5928
  O  O379  1  0.509300  0.855000  0.527000  1.0  -0.5875
  O  O380  1  0.572900  0.731800  0.593500  1.0  -0.6193
  O  O381  1  0.850600  0.148200  0.668700  1.0  -0.5985
  O  O382  1  0.698000  0.151500  0.581900  1.0  -0.6822
  O  O383  1  0.940200  0.738300  0.772100  1.0  -0.6628
  O  O384  1  0.997000  0.879400  0.816300  1.0  -0.5946
