# generated using pymatgen
data_CdH8C12(NO2)2
_symmetry_space_group_name_H-M   'P 1'
_cell_length_a   25.36600000
_cell_length_b   6.03920000
_cell_length_c   12.31950000
_cell_angle_alpha   90.00000000
_cell_angle_beta   90.00000000
_cell_angle_gamma   90.00000000
_symmetry_Int_Tables_number   1
_chemical_formula_structural   CdH8C12(NO2)2
_chemical_formula_sum   'Cd4 H32 C48 N8 O16'
_cell_volume   1887.22848233
_cell_formula_units_Z   4
loop_
 _symmetry_equiv_pos_site_id
 _symmetry_equiv_pos_as_xyz
  1  'x, y, z'
loop_
 _atom_site_type_symbol
 _atom_site_label
 _atom_site_symmetry_multiplicity
 _atom_site_fract_x
 _atom_site_fract_y
 _atom_site_fract_z
 _atom_site_occupancy
 _atom_site_charge
  Cd  Cd1  1  0.371370  0.699710  0.864920  1.0  0.9154
  Cd  Cd2  1  0.628630  0.300290  0.364920  1.0  0.9158
  Cd  Cd3  1  0.871370  0.800290  0.864920  1.0  0.9159
  Cd  Cd4  1  0.128630  0.199710  0.364920  1.0  0.9154
  H  H5  1  0.460400  0.917000  0.018200  1.0  0.0805
  H  H6  1  0.525900  0.830400  0.137100  1.0  0.1198
  H  H7  1  0.456800  0.247500  0.185600  1.0  0.1242
  H  H8  1  0.392000  0.353900  0.065600  1.0  0.0765
  H  H9  1  0.362100  0.067800  0.676300  1.0  0.0838
  H  H10  1  0.307700  0.199200  0.544300  1.0  0.1231
  H  H11  1  0.221800  0.651600  0.574800  1.0  0.1293
  H  H12  1  0.280000  0.535600  0.705400  1.0  0.0703
  H  H13  1  0.539600  0.083000  0.518200  1.0  0.0799
  H  H14  1  0.474100  0.169600  0.637100  1.0  0.1197
  H  H15  1  0.543200  0.752500  0.685600  1.0  0.1238
  H  H16  1  0.608000  0.646100  0.565600  1.0  0.0764
  H  H17  1  0.637900  0.932200  0.176300  1.0  0.0838
  H  H18  1  0.692300  0.800800  0.044300  1.0  0.1232
  H  H19  1  0.778200  0.348400  0.074800  1.0  0.1293
  H  H20  1  0.720000  0.464400  0.205400  1.0  0.0702
  H  H21  1  0.960400  0.583000  0.018200  1.0  0.08
  H  H22  1  0.025900  0.669600  0.137100  1.0  0.12
  H  H23  1  0.956800  0.252500  0.185600  1.0  0.1239
  H  H24  1  0.892000  0.146100  0.065600  1.0  0.0769
  H  H25  1  0.862100  0.432200  0.676300  1.0  0.0838
  H  H26  1  0.807700  0.300800  0.544300  1.0  0.123
  H  H27  1  0.721800  0.848400  0.574800  1.0  0.1299
  H  H28  1  0.780000  0.964400  0.705400  1.0  0.0703
  H  H29  1  0.039600  0.417000  0.518200  1.0  0.0802
  H  H30  1  0.974100  0.330400  0.637100  1.0  0.1198
  H  H31  1  0.043200  0.747500  0.685600  1.0  0.1239
  H  H32  1  0.108000  0.853900  0.565600  1.0  0.0764
  H  H33  1  0.137900  0.567800  0.176300  1.0  0.084
  H  H34  1  0.192300  0.699200  0.044300  1.0  0.1233
  H  H35  1  0.278200  0.151600  0.074800  1.0  0.1291
  H  H36  1  0.220000  0.035600  0.205400  1.0  0.0701
  C  C37  1  0.460300  0.777500  0.050200  1.0  0.17
  C  C38  1  0.499700  0.727100  0.122100  1.0  -0.1381
  C  C39  1  0.500600  0.523800  0.172200  1.0  -0.0591
  C  C40  1  0.459000  0.384000  0.151000  1.0  -0.1503
  C  C41  1  0.420300  0.448900  0.077300  1.0  0.1698
  C  C42  1  0.544700  0.451700  0.244200  1.0  0.6836
  C  C43  1  0.333100  0.983000  0.656200  1.0  0.1642
  C  C44  1  0.300300  0.063900  0.577100  1.0  -0.1659
  C  C45  1  0.257200  0.946300  0.546600  1.0  -0.0517
  C  C46  1  0.249900  0.741600  0.594800  1.0  -0.1422
  C  C47  1  0.285300  0.673400  0.673500  1.0  0.1877
  C  C48  1  0.217300  0.041100  0.469100  1.0  0.6769
  C  C49  1  0.539700  0.222500  0.550200  1.0  0.1692
  C  C50  1  0.500300  0.272900  0.622100  1.0  -0.1372
  C  C51  1  0.499400  0.476200  0.672200  1.0  -0.0606
  C  C52  1  0.541000  0.616000  0.651000  1.0  -0.1504
  C  C53  1  0.579700  0.551100  0.577300  1.0  0.1693
  C  C54  1  0.455300  0.548300  0.744200  1.0  0.6835
  C  C55  1  0.666900  0.017000  0.156200  1.0  0.1649
  C  C56  1  0.699700  0.936100  0.077100  1.0  -0.1652
  C  C57  1  0.742800  0.053700  0.046600  1.0  -0.051
  C  C58  1  0.750100  0.258400  0.094800  1.0  -0.1437
  C  C59  1  0.714700  0.326600  0.173500  1.0  0.1869
  C  C60  1  0.782700  0.958900  0.969100  1.0  0.6756
  C  C61  1  0.960300  0.722500  0.050200  1.0  0.1694
  C  C62  1  0.999700  0.772900  0.122100  1.0  -0.1382
  C  C63  1  0.000600  0.976200  0.172200  1.0  -0.0592
  C  C64  1  0.959000  0.116000  0.151000  1.0  -0.1499
  C  C65  1  0.920300  0.051100  0.077300  1.0  0.1692
  C  C66  1  0.044700  0.048300  0.244200  1.0  0.6836
  C  C67  1  0.833100  0.517000  0.656200  1.0  0.1643
  C  C68  1  0.800300  0.436100  0.577100  1.0  -0.1655
  C  C69  1  0.757200  0.553700  0.546600  1.0  -0.052
  C  C70  1  0.749900  0.758400  0.594800  1.0  -0.1428
  C  C71  1  0.785300  0.826600  0.673500  1.0  0.1864
  C  C72  1  0.717300  0.458900  0.469100  1.0  0.6767
  C  C73  1  0.039700  0.277500  0.550200  1.0  0.1695
  C  C74  1  0.000300  0.227100  0.622100  1.0  -0.1378
  C  C75  1  0.999400  0.023800  0.672200  1.0  -0.0605
  C  C76  1  0.041000  0.884000  0.651000  1.0  -0.1504
  C  C77  1  0.079700  0.948900  0.577300  1.0  0.17
  C  C78  1  0.955300  0.951700  0.744200  1.0  0.6833
  C  C79  1  0.166900  0.483000  0.156200  1.0  0.1647
  C  C80  1  0.199700  0.563900  0.077100  1.0  -0.1658
  C  C81  1  0.242800  0.446300  0.046600  1.0  -0.0508
  C  C82  1  0.250100  0.241600  0.094800  1.0  -0.143
  C  C83  1  0.214700  0.173400  0.173500  1.0  0.188
  C  C84  1  0.282700  0.541100  0.969100  1.0  0.6759
  N  N85  1  0.421450  0.636000  0.023400  1.0  -0.3368
  N  N86  1  0.325600  0.789600  0.705700  1.0  -0.3426
  N  N87  1  0.578550  0.364000  0.523400  1.0  -0.335
  N  N88  1  0.674400  0.210400  0.205700  1.0  -0.3429
  N  N89  1  0.921450  0.864000  0.023400  1.0  -0.3374
  N  N90  1  0.825600  0.710400  0.705700  1.0  -0.3425
  N  N91  1  0.078550  0.136000  0.523400  1.0  -0.3347
  N  N92  1  0.174400  0.289600  0.205700  1.0  -0.3435
  O  O93  1  0.547970  0.254900  0.270700  1.0  -0.5995
  O  O94  1  0.579140  0.593200  0.271300  1.0  -0.5841
  O  O95  1  0.186590  0.912000  0.418700  1.0  -0.614
  O  O96  1  0.212840  0.245700  0.463800  1.0  -0.5886
  O  O97  1  0.452030  0.745100  0.770700  1.0  -0.5997
  O  O98  1  0.420860  0.406800  0.771300  1.0  -0.5826
  O  O99  1  0.813410  0.088000  0.918700  1.0  -0.6133
  O  O100  1  0.787160  0.754300  0.963800  1.0  -0.5912
  O  O101  1  0.047970  0.245100  0.270700  1.0  -0.5998
  O  O102  1  0.079140  0.906800  0.271300  1.0  -0.5842
  O  O103  1  0.686590  0.588000  0.418700  1.0  -0.6132
  O  O104  1  0.712840  0.254300  0.463800  1.0  -0.5911
  O  O105  1  0.952030  0.754900  0.770700  1.0  -0.5999
  O  O106  1  0.920860  0.093200  0.771300  1.0  -0.5822
  O  O107  1  0.313410  0.412000  0.918700  1.0  -0.6138
  O  O108  1  0.287160  0.745700  0.963800  1.0  -0.5896
