# generated using pymatgen
data_Cu3H16C36(N5O7)2
_symmetry_space_group_name_H-M   'P 1'
_cell_length_a   31.49550000
_cell_length_b   31.49550000
_cell_length_c   31.62340000
_cell_angle_alpha   119.86600000
_cell_angle_beta   119.86600000
_cell_angle_gamma   90.00000000
_symmetry_Int_Tables_number   1
_chemical_formula_structural   Cu3H16C36(N5O7)2
_chemical_formula_sum   'Cu24 H128 C288 N80 O112'
_cell_volume   22271.03371799
_cell_formula_units_Z   8
loop_
 _symmetry_equiv_pos_site_id
 _symmetry_equiv_pos_as_xyz
  1  'x, y, z'
loop_
 _atom_site_type_symbol
 _atom_site_label
 _atom_site_symmetry_multiplicity
 _atom_site_fract_x
 _atom_site_fract_y
 _atom_site_fract_z
 _atom_site_occupancy
 _atom_site_charge
  Cu  Cu1  1  0.769620  0.732280  0.251420  1.0  0.9638
  Cu  Cu2  1  0.518190  0.480860  0.748570  1.0  0.9641
  Cu  Cu3  1  0.481810  0.519140  0.251430  1.0  0.9614
  Cu  Cu4  1  0.453330  0.165840  0.000010  1.0  0.8892
  Cu  Cu5  1  0.809680  0.475760  0.334860  1.0  0.9596
  Cu  Cu6  1  0.834160  0.453330  0.000000  1.0  0.8883
  Cu  Cu7  1  0.732280  0.481810  0.251420  1.0  0.9659
  Cu  Cu8  1  0.859100  0.809680  0.334860  1.0  0.9557
  Cu  Cu9  1  0.750720  0.464560  0.000000  1.0  0.898
  Cu  Cu10  1  0.140900  0.190320  0.665140  1.0  0.9576
  Cu  Cu11  1  0.525180  0.859100  0.334860  1.0  0.9585
  Cu  Cu12  1  0.475760  0.525180  0.334860  1.0  0.9595
  Cu  Cu13  1  0.464560  0.249280  0.000000  1.0  0.889
  Cu  Cu14  1  0.535440  0.750720  0.000000  1.0  0.8894
  Cu  Cu15  1  0.230380  0.267720  0.748580  1.0  0.9621
  Cu  Cu16  1  0.519140  0.769620  0.251430  1.0  0.9639
  Cu  Cu17  1  0.249280  0.535440  0.000000  1.0  0.8974
  Cu  Cu18  1  0.165840  0.546670  0.000000  1.0  0.8887
  Cu  Cu19  1  0.474820  0.140900  0.665140  1.0  0.9579
  Cu  Cu20  1  0.524240  0.474820  0.665140  1.0  0.9542
  Cu  Cu21  1  0.546670  0.834160  0.999990  1.0  0.8896
  Cu  Cu22  1  0.267720  0.518190  0.748580  1.0  0.9645
  Cu  Cu23  1  0.190320  0.524240  0.665140  1.0  0.9614
  Cu  Cu24  1  0.480860  0.230380  0.748570  1.0  0.9635
  H  H25  1  0.926200  0.899200  0.410800  1.0  0.4395
  H  H26  1  0.214500  0.746300  0.726600  1.0  0.1153
  H  H27  1  0.274500  0.896900  0.784400  1.0  0.2064
  H  H28  1  0.691300  0.786500  0.141000  1.0  0.1149
  H  H29  1  0.930700  0.614600  0.123800  1.0  0.1201
  H  H30  1  0.463900  0.182300  0.550800  1.0  0.1231
  H  H31  1  0.564600  0.770700  0.856000  1.0  0.1199
  H  H32  1  0.330200  0.519600  0.144400  1.0  0.1198
  H  H33  1  0.624800  0.330200  0.144400  1.0  0.1202
  H  H34  1  0.462300  0.207600  0.214000  1.0  0.1079
  H  H35  1  0.490100  0.112500  0.215600  1.0  0.2064
  H  H36  1  0.689400  0.500200  0.749600  1.0  0.1261
  H  H37  1  0.073800  0.100800  0.589200  1.0  0.4434
  H  H38  1  0.691600  0.934500  0.448800  1.0  0.1265
  H  H39  1  0.725500  0.103100  0.215600  1.0  0.2076
  H  H40  1  0.914700  0.435400  0.144000  1.0  0.1218
  H  H41  1  0.308700  0.213500  0.859000  1.0  0.1151
  H  H42  1  0.490800  0.069300  0.876200  1.0  0.1207
  H  H43  1  0.511600  0.926200  0.410800  1.0  0.4378
  H  H44  1  0.205800  0.468400  0.456600  1.0  0.1169
  H  H45  1  0.322100  0.501400  0.826800  1.0  0.4637
  H  H46  1  0.905800  0.445600  0.270600  1.0  0.1182
  H  H47  1  0.185800  0.375200  0.855600  1.0  0.12
  H  H48  1  0.749200  0.011800  0.543400  1.0  0.1175
  H  H49  1  0.069300  0.385400  0.876200  1.0  0.1209
  H  H50  1  0.913100  0.631500  0.449200  1.0  0.1223
  H  H51  1  0.817700  0.913100  0.449200  1.0  0.123
  H  H52  1  0.059900  0.445000  0.184400  1.0  0.3292
  H  H53  1  0.516100  0.679300  0.317000  1.0  0.115
  H  H54  1  0.480400  0.185800  0.855600  1.0  0.1213
  H  H55  1  0.940100  0.555000  0.815600  1.0  0.3267
  H  H56  1  0.750600  0.310600  0.250400  1.0  0.1244
  H  H57  1  0.484600  0.511600  0.410800  1.0  0.4338
  H  H58  1  0.531600  0.749200  0.543400  1.0  0.1169
  H  H59  1  0.939800  0.750600  0.250400  1.0  0.1247
  H  H60  1  0.631500  0.536100  0.449200  1.0  0.1228
  H  H61  1  0.487900  0.019700  0.273400  1.0  0.1153
  H  H62  1  0.637700  0.516100  0.317000  1.0  0.1154
  H  H63  1  0.674600  0.677900  0.173200  1.0  0.4715
  H  H64  1  0.746300  0.512100  0.726600  1.0  0.1156
  H  H65  1  0.814200  0.624800  0.144400  1.0  0.1202
  H  H66  1  0.085300  0.564600  0.856000  1.0  0.122
  H  H67  1  0.364800  0.825000  0.270600  1.0  0.1191
  H  H68  1  0.512100  0.980300  0.726600  1.0  0.1164
  H  H69  1  0.019700  0.785500  0.273400  1.0  0.1162
  H  H70  1  0.792400  0.248300  0.786000  1.0  0.1092
  H  H71  1  0.509200  0.930700  0.123800  1.0  0.1212
  H  H72  1  0.229300  0.708600  0.144000  1.0  0.1212
  H  H73  1  0.504700  0.325400  0.826800  1.0  0.4732
  H  H74  1  0.060200  0.249400  0.749600  1.0  0.1251
  H  H75  1  0.751700  0.006400  0.214000  1.0  0.1069
  H  H76  1  0.495300  0.674600  0.173200  1.0  0.4765
  H  H77  1  0.086900  0.368500  0.550800  1.0  0.1228
  H  H78  1  0.785500  0.253700  0.273400  1.0  0.1156
  H  H79  1  0.554400  0.635200  0.729400  1.0  0.1185
  H  H80  1  0.213500  0.550300  0.859000  1.0  0.1141
  H  H81  1  0.291400  0.085300  0.856000  1.0  0.1196
  H  H82  1  0.514300  0.691600  0.448800  1.0  0.1277
  H  H83  1  0.645500  0.308700  0.859000  1.0  0.1136
  H  H84  1  0.509900  0.887500  0.784400  1.0  0.2084
  H  H85  1  0.614600  0.193100  0.123800  1.0  0.1229
  H  H86  1  0.124500  0.739400  0.184400  1.0  0.3297
  H  H87  1  0.112500  0.725500  0.215600  1.0  0.2064
  H  H88  1  0.385400  0.806900  0.876200  1.0  0.1225
  H  H89  1  0.249400  0.689400  0.749600  1.0  0.1252
  H  H90  1  0.899200  0.484600  0.410800  1.0  0.4361
  H  H91  1  0.708600  0.914700  0.144000  1.0  0.1197
  H  H92  1  0.250800  0.988200  0.456600  1.0  0.1164
  H  H93  1  0.445600  0.364800  0.270600  1.0  0.1188
  H  H94  1  0.354500  0.691300  0.141000  1.0  0.1134
  H  H95  1  0.325400  0.322100  0.826800  1.0  0.4668
  H  H96  1  0.435400  0.229300  0.144000  1.0  0.1209
  H  H97  1  0.515400  0.488400  0.589200  1.0  0.4342
  H  H98  1  0.449700  0.354500  0.141000  1.0  0.114
  H  H99  1  0.094200  0.554400  0.729400  1.0  0.1184
  H  H100  1  0.739400  0.059900  0.184400  1.0  0.3292
  H  H101  1  0.794200  0.531600  0.543400  1.0  0.1159
  H  H102  1  0.887500  0.274500  0.784400  1.0  0.2065
  H  H103  1  0.786500  0.449700  0.141000  1.0  0.1148
  H  H104  1  0.993600  0.537700  0.786000  1.0  0.1092
  H  H105  1  0.011800  0.794200  0.543400  1.0  0.1181
  H  H106  1  0.368500  0.463900  0.550800  1.0  0.1232
  H  H107  1  0.679300  0.800900  0.317000  1.0  0.1159
  H  H108  1  0.182300  0.086900  0.550800  1.0  0.1223
  H  H109  1  0.501400  0.504700  0.826800  1.0  0.4691
  H  H110  1  0.550300  0.645500  0.859000  1.0  0.1143
  H  H111  1  0.483900  0.320700  0.683000  1.0  0.1151
  H  H112  1  0.806900  0.490800  0.876200  1.0  0.1239
  H  H113  1  0.199100  0.362300  0.683000  1.0  0.115
  H  H114  1  0.488400  0.073800  0.589200  1.0  0.4341
  H  H115  1  0.519600  0.814200  0.144400  1.0  0.1213
  H  H116  1  0.934500  0.757200  0.448800  1.0  0.1265
  H  H117  1  0.445000  0.124500  0.184400  1.0  0.3286
  H  H118  1  0.499800  0.939800  0.250400  1.0  0.1269
  H  H119  1  0.800900  0.637700  0.317000  1.0  0.1153
  H  H120  1  0.100800  0.515400  0.589200  1.0  0.44
  H  H121  1  0.980300  0.214500  0.726600  1.0  0.1153
  H  H122  1  0.468400  0.250800  0.456600  1.0  0.1174
  H  H123  1  0.555000  0.875500  0.815600  1.0  0.3283
  H  H124  1  0.248300  0.993600  0.786000  1.0  0.1077
  H  H125  1  0.308400  0.065500  0.551200  1.0  0.1263
  H  H126  1  0.320700  0.199100  0.683000  1.0  0.1158
  H  H127  1  0.498600  0.495300  0.173200  1.0  0.4701
  H  H128  1  0.362300  0.483900  0.683000  1.0  0.1156
  H  H129  1  0.310600  0.499800  0.250400  1.0  0.1258
  H  H130  1  0.065500  0.242800  0.551200  1.0  0.1261
  H  H131  1  0.103100  0.490100  0.215600  1.0  0.2076
  H  H132  1  0.175000  0.094200  0.729400  1.0  0.1181
  H  H133  1  0.635200  0.175000  0.729400  1.0  0.1192
  H  H134  1  0.253700  0.487900  0.273400  1.0  0.1154
  H  H135  1  0.500200  0.060200  0.749600  1.0  0.127
  H  H136  1  0.193100  0.509200  0.123800  1.0  0.1237
  H  H137  1  0.896900  0.509900  0.784400  1.0  0.2058
  H  H138  1  0.537700  0.792400  0.786000  1.0  0.1082
  H  H139  1  0.375200  0.669800  0.855600  1.0  0.1199
  H  H140  1  0.988200  0.205800  0.456600  1.0  0.118
  H  H141  1  0.006400  0.462300  0.214000  1.0  0.1087
  H  H142  1  0.825000  0.905800  0.270600  1.0  0.1178
  H  H143  1  0.485700  0.308400  0.551200  1.0  0.1269
  H  H144  1  0.669800  0.480400  0.855600  1.0  0.1202
  H  H145  1  0.207600  0.751700  0.214000  1.0  0.1089
  H  H146  1  0.536100  0.817700  0.449200  1.0  0.1231
  H  H147  1  0.260600  0.940100  0.815600  1.0  0.3283
  H  H148  1  0.757200  0.514300  0.448800  1.0  0.1269
  H  H149  1  0.677900  0.498600  0.173200  1.0  0.4616
  H  H150  1  0.770700  0.291400  0.856000  1.0  0.1212
  H  H151  1  0.242800  0.485700  0.551200  1.0  0.1282
  H  H152  1  0.875500  0.260600  0.815600  1.0  0.3323
  C  C153  1  0.706330  0.229200  0.788800  1.0  0.2337
  C  C154  1  0.711350  0.819680  0.159060  1.0  0.0407
  C  C155  1  0.930550  0.697690  0.456840  1.0  0.0971
  C  C156  1  0.445040  0.345550  0.236420  1.0  -0.0245
  C  C157  1  0.481680  0.300630  0.647860  1.0  0.0331
  C  C158  1  0.855750  0.202480  0.740880  1.0  0.2536
  C  C159  1  0.461600  0.144250  0.259120  1.0  0.2561
  C  C160  1  0.178750  0.479850  0.241240  1.0  0.0857
  C  C161  1  0.131370  0.388710  0.872300  1.0  -0.1501
  C  C162  1  0.472380  0.224020  0.651900  1.0  0.6928
  C  C163  1  0.527620  0.775980  0.348100  1.0  0.6931
  C  C164  1  0.640040  0.309500  0.156420  1.0  0.0299
  C  C165  1  0.697690  0.526290  0.456840  1.0  0.0987
  C  C166  1  0.851740  0.203210  0.323680  1.0  -0.0122
  C  C167  1  0.485830  0.147970  0.763360  1.0  0.6808
  C  C168  1  0.770080  0.214800  0.763020  1.0  -0.0404
  C  C169  1  0.468550  0.219560  0.452720  1.0  -0.0541
  C  C170  1  0.535120  0.834270  0.642760  1.0  -0.0026
  C  C171  1  0.774520  0.168690  0.724620  1.0  0.062
  C  C172  1  0.808490  0.535120  0.642760  1.0  -0.0022
  C  C173  1  0.552290  0.660620  0.840940  1.0  0.0391
  C  C174  1  0.120470  0.851740  0.323680  1.0  -0.0096
  C  C175  1  0.165730  0.892360  0.357240  1.0  -0.003
  C  C176  1  0.796790  0.528060  0.676320  1.0  -0.0105
  C  C177  1  0.099250  0.351080  0.568720  1.0  -0.0253
  C  C178  1  0.761210  0.841520  0.210000  1.0  -0.1525
  C  C179  1  0.743390  0.364340  0.918320  1.0  0.6959
  C  C180  1  0.831310  0.049900  0.275380  1.0  0.0642
  C  C181  1  0.241440  0.777680  0.754280  1.0  -0.0161
  C  C182  1  0.503070  0.942130  0.189560  1.0  0.0897
  C  C183  1  0.225480  0.831310  0.275380  1.0  0.061
  C  C184  1  0.277530  0.615390  0.763360  1.0  0.6801
  C  C185  1  0.834910  0.529020  0.724880  1.0  -0.0171
  C  C186  1  0.752570  0.496930  0.810440  1.0  0.0912
  C  C187  1  0.761310  0.474770  0.920680  1.0  0.7021
  C  C188  1  0.885130  0.538400  0.740880  1.0  0.2565
  C  C189  1  0.238790  0.158480  0.790000  1.0  -0.1525
  C  C190  1  0.921840  0.715590  0.219600  1.0  -0.0735
  C  C191  1  0.297760  0.504010  0.219600  1.0  -0.0759
  C  C192  1  0.373450  0.473760  0.621480  1.0  -0.146
  C  C193  1  0.554960  0.654450  0.763580  1.0  -0.0229
  C  C194  1  0.782420  0.813900  0.239120  1.0  0.6933
  C  C195  1  0.308890  0.152760  0.865360  1.0  -0.154
  C  C196  1  0.531450  0.780440  0.547280  1.0  -0.0522
  C  C197  1  0.259070  0.516410  0.127700  1.0  -0.1498
  C  C198  1  0.293380  0.086410  0.568840  1.0  -0.0835
  C  C199  1  0.820480  0.572120  0.348100  1.0  0.693
  C  C200  1  0.890870  0.445040  0.236420  1.0  -0.0224
  C  C201  1  0.293670  0.770800  0.211200  1.0  0.2345
  C  C202  1  0.660620  0.288650  0.840940  1.0  0.0429
  C  C203  1  0.345550  0.791380  0.236420  1.0  -0.0207
  C  C204  1  0.706620  0.913590  0.431160  1.0  -0.0828
  C  C205  1  0.222320  0.487160  0.245720  1.0  -0.0153
  C  C206  1  0.202480  0.885130  0.740880  1.0  0.254
  C  C207  1  0.456700  0.425220  0.239120  1.0  0.6929
  C  C208  1  0.889970  0.195860  0.724880  1.0  -0.0172
  C  C209  1  0.180320  0.552290  0.840940  1.0  0.04
  C  C210  1  0.858790  0.544330  0.659220  1.0  0.0175
  C  C211  1  0.676770  0.864570  0.378240  1.0  -0.1442
  C  C212  1  0.525230  0.840630  0.079320  1.0  0.7022
  C  C213  1  0.057570  0.767810  0.590800  1.0  0.1157
  C  C214  1  0.278460  0.103560  0.839320  1.0  -0.0782
  C  C215  1  0.652770  0.518320  0.352140  1.0  0.0411
  C  C216  1  0.810610  0.162410  0.708640  1.0  0.1748
  C  C217  1  0.007060  0.451780  0.236980  1.0  -0.0429
  C  C218  1  0.186100  0.543300  0.760880  1.0  0.694
  C  C219  1  0.885110  0.141210  0.340780  1.0  0.0153
  C  C220  1  0.868630  0.611290  0.127700  1.0  -0.15
  C  C221  1  0.516410  0.868630  0.127700  1.0  -0.1492
  C  C222  1  0.083720  0.366080  0.856540  1.0  -0.0385
  C  C223  1  0.800430  0.114890  0.659220  1.0  0.0119
  C  C224  1  0.841520  0.448790  0.210000  1.0  -0.1533
  C  C225  1  0.256610  0.635660  0.081680  1.0  0.6949
  C  C226  1  0.114870  0.461600  0.259120  1.0  0.2558
  C  C227  1  0.049900  0.444070  0.275380  1.0  0.0659
  C  C228  1  0.834270  0.107640  0.642760  1.0  -0.0031
  C  C229  1  0.444070  0.225480  0.275380  1.0  0.0637
  C  C230  1  0.109130  0.554960  0.763580  1.0  -0.0229
  C  C231  1  0.528060  0.879530  0.676320  1.0  -0.0105
  C  C232  1  0.504010  0.921840  0.219600  1.0  -0.0813
  C  C233  1  0.302310  0.473710  0.543160  1.0  0.1
  C  C234  1  0.984170  0.233160  0.452720  1.0  -0.0595
  C  C235  1  0.135430  0.298530  0.621760  1.0  -0.1439
  C  C236  1  0.069450  0.302310  0.543160  1.0  0.0964
  C  C237  1  0.443530  0.287400  0.134640  1.0  -0.1586
  C  C238  1  0.529020  0.889970  0.724880  1.0  -0.0182
  C  C239  1  0.514170  0.852030  0.236640  1.0  0.6796
  C  C240  1  0.284410  0.702240  0.780400  1.0  -0.077
  C  C241  1  0.165090  0.470980  0.275120  1.0  -0.0166
  C  C242  1  0.766840  0.531450  0.547280  1.0  -0.0548
  C  C243  1  0.715590  0.297760  0.219600  1.0  -0.0769
  C  C244  1  0.177010  0.942430  0.409200  1.0  0.1142
  C  C245  1  0.451780  0.229920  0.236980  1.0  -0.0415
  C  C246  1  0.821250  0.520150  0.758760  1.0  0.0856
  C  C247  1  0.913590  0.724540  0.431160  1.0  -0.0786
  C  C248  1  0.937510  0.238610  0.758760  1.0  0.0858
  C  C249  1  0.082470  0.559600  0.788800  1.0  0.2341
  C  C250  1  0.772820  0.490460  0.856540  1.0  -0.0438
  C  C251  1  0.208620  0.109130  0.763580  1.0  -0.0238
  C  C252  1  0.722470  0.384610  0.236640  1.0  0.6804
  C  C253  1  0.023400  0.758560  0.245720  1.0  -0.0177
  C  C254  1  0.240850  0.069450  0.543160  1.0  0.1002
  C  C255  1  0.482430  0.293380  0.568840  1.0  -0.0801
  C  C256  1  0.110030  0.804140  0.275120  1.0  -0.0175
  C  C257  1  0.518320  0.699370  0.352140  1.0  0.0336
  C  C258  1  0.992940  0.548220  0.763020  1.0  -0.0397
  C  C259  1  0.976600  0.241440  0.754280  1.0  -0.0183
  C  C260  1  0.473710  0.240850  0.543160  1.0  0.0998
  C  C261  1  0.670980  0.488570  0.796420  1.0  -0.1329
  C  C262  1  0.247430  0.503070  0.189560  1.0  0.0896
  C  C263  1  0.635660  0.825070  0.081680  1.0  0.6948
  C  C264  1  0.648920  0.530530  0.431280  1.0  -0.0223
  C  C265  1  0.574780  0.217580  0.760880  1.0  0.6929
  C  C266  1  0.813900  0.456700  0.239120  1.0  0.6938
  C  C267  1  0.845610  0.728870  0.348040  1.0  0.6941
  C  C268  1  0.168690  0.950100  0.724620  1.0  0.0625
  C  C269  1  0.152760  0.556470  0.865360  1.0  -0.158
  C  C270  1  0.767810  0.533230  0.590800  1.0  0.1121
  C  C271  1  0.900750  0.648920  0.431280  1.0  -0.0234
  C  C272  1  0.275460  0.482430  0.568840  1.0  -0.0827
  C  C273  1  0.692150  0.329020  0.203580  1.0  -0.1317
  C  C274  1  0.712600  0.308890  0.865360  1.0  -0.1535
  C  C275  1  0.544330  0.800430  0.659220  1.0  0.0131
  C  C276  1  0.490460  0.083720  0.856540  1.0  -0.0421
  C  C277  1  0.686490  0.247430  0.189560  1.0  0.0923
  C  C278  1  0.825070  0.446020  0.081680  1.0  0.6951
  C  C279  1  0.942430  0.232190  0.409200  1.0  0.1145
  C  C280  1  0.471940  0.120470  0.323680  1.0  -0.0091
  C  C281  1  0.804140  0.165090  0.275120  1.0  -0.0188
  C  C282  1  0.144250  0.797520  0.259120  1.0  0.2547
  C  C283  1  0.232190  0.466770  0.409200  1.0  0.1102
  C  C284  1  0.556470  0.712600  0.865360  1.0  -0.1591
  C  C285  1  0.464880  0.165730  0.357240  1.0  -0.0019
  C  C286  1  0.699370  0.833820  0.352140  1.0  0.0409
  C  C287  1  0.309500  0.516380  0.156420  1.0  0.0267
  C  C288  1  0.248030  0.147720  0.621480  1.0  -0.1453
  C  C289  1  0.690500  0.483620  0.843580  1.0  0.027
  C  C290  1  0.103560  0.560860  0.839320  1.0  -0.0839
  C  C291  1  0.572120  0.527620  0.348100  1.0  0.6927
  C  C292  1  0.479850  0.062490  0.241240  1.0  0.0845
  C  C293  1  0.313510  0.752570  0.810440  1.0  0.0921
  C  C294  1  0.199570  0.885110  0.340780  1.0  0.0116
  C  C295  1  0.751970  0.852280  0.378520  1.0  -0.1447
  C  C296  1  0.555930  0.774520  0.724620  1.0  0.0657
  C  C297  1  0.086410  0.275460  0.568840  1.0  -0.0808
  C  C298  1  0.728870  0.502430  0.348040  1.0  0.6947
  C  C299  1  0.777680  0.512840  0.754280  1.0  -0.013
  C  C300  1  0.229920  0.785200  0.236980  1.0  -0.0409
  C  C301  1  0.633920  0.227180  0.143460  1.0  -0.0385
  C  C302  1  0.153080  0.359960  0.843580  1.0  0.0303
  C  C303  1  0.701470  0.513670  0.378240  1.0  -0.1443
  C  C304  1  0.538400  0.855750  0.740880  1.0  0.2586
  C  C305  1  0.486330  0.323230  0.621760  1.0  -0.144
  C  C306  1  0.512840  0.976600  0.754280  1.0  -0.014
  C  C307  1  0.148260  0.796790  0.676320  1.0  -0.0097
  C  C308  1  0.469470  0.217640  0.568720  1.0  -0.0145
  C  C309  1  0.879530  0.148260  0.676320  1.0  -0.0133
  C  C310  1  0.502430  0.619170  0.348040  1.0  0.6944
  C  C311  1  0.530530  0.782360  0.431280  1.0  -0.0146
  C  C312  1  0.015830  0.766840  0.547280  1.0  -0.0594
  C  C313  1  0.466770  0.177010  0.409200  1.0  0.1147
  C  C314  1  0.159370  0.445910  0.920680  1.0  0.6996
  C  C315  1  0.107640  0.808490  0.642760  1.0  -0.0021
  C  C316  1  0.615390  0.485830  0.763360  1.0  0.6803
  C  C317  1  0.791380  0.890870  0.236420  1.0  -0.0233
  C  C318  1  0.339380  0.711350  0.159060  1.0  0.0435
  C  C319  1  0.553980  0.743390  0.918320  1.0  0.6954
  C  C320  1  0.721540  0.896440  0.160680  1.0  -0.0781
  C  C321  1  0.351080  0.469470  0.568720  1.0  -0.0222
  C  C322  1  0.619170  0.845610  0.348040  1.0  0.6939
  C  C323  1  0.797520  0.114870  0.259120  1.0  0.2574
  C  C324  1  0.307850  0.670980  0.796420  1.0  -0.1318
  C  C325  1  0.495990  0.078160  0.780400  1.0  -0.0797
  C  C326  1  0.388710  0.740930  0.872300  1.0  -0.1483
  C  C327  1  0.224020  0.179520  0.651900  1.0  0.6929
  C  C328  1  0.298530  0.486330  0.621760  1.0  -0.1443
  C  C329  1  0.833820  0.652770  0.352140  1.0  0.0413
  C  C330  1  0.323230  0.135430  0.621760  1.0  -0.1436
  C  C331  1  0.446020  0.256610  0.081680  1.0  0.6945
  C  C332  1  0.474770  0.159370  0.920680  1.0  0.7028
  C  C333  1  0.917530  0.440400  0.211200  1.0  0.2346
  C  C334  1  0.551210  0.631520  0.790000  1.0  -0.1535
  C  C335  1  0.078160  0.284410  0.780400  1.0  -0.0759
  C  C336  1  0.950100  0.555930  0.724620  1.0  0.0655
  C  C337  1  0.174930  0.553980  0.918320  1.0  0.6955
  C  C338  1  0.427880  0.472380  0.651900  1.0  0.6923
  C  C339  1  0.758560  0.222320  0.245720  1.0  -0.0148
  C  C340  1  0.548220  0.770080  0.763020  1.0  -0.0425
  C  C341  1  0.147970  0.277530  0.763360  1.0  0.6797
  C  C342  1  0.141210  0.455670  0.340780  1.0  0.0169
  C  C343  1  0.822990  0.057570  0.590800  1.0  0.1156
  C  C344  1  0.219560  0.984170  0.452720  1.0  -0.0529
  C  C345  1  0.509540  0.916280  0.143460  1.0  -0.0423
  C  C346  1  0.702240  0.495990  0.780400  1.0  -0.0773
  C  C347  1  0.125440  0.307850  0.796420  1.0  -0.1325
  C  C348  1  0.496930  0.057870  0.810440  1.0  0.1004
  C  C349  1  0.511430  0.874560  0.203580  1.0  -0.1338
  C  C350  1  0.057870  0.313510  0.810440  1.0  0.089
  C  C351  1  0.488570  0.125440  0.796420  1.0  -0.1338
  C  C352  1  0.440400  0.293670  0.211200  1.0  0.2241
  C  C353  1  0.497570  0.380830  0.651960  1.0  0.6946
  C  C354  1  0.217580  0.186100  0.760880  1.0  0.6934
  C  C355  1  0.162410  0.898030  0.708640  1.0  0.1692
  C  C356  1  0.238610  0.821250  0.758760  1.0  0.0884
  C  C357  1  0.654450  0.208620  0.763580  1.0  -0.0215
  C  C358  1  0.846920  0.640040  0.156420  1.0  0.0312
  C  C359  1  0.425220  0.782420  0.239120  1.0  0.6924
  C  C360  1  0.626550  0.526240  0.378520  1.0  -0.146
  C  C361  1  0.229200  0.082470  0.788800  1.0  0.2253
  C  C362  1  0.770800  0.917530  0.211200  1.0  0.2248
  C  C363  1  0.761390  0.178750  0.241240  1.0  0.0901
  C  C364  1  0.487160  0.023400  0.245720  1.0  -0.0158
  C  C365  1  0.364340  0.174930  0.918320  1.0  0.6959
  C  C366  1  0.455670  0.199570  0.340780  1.0  0.0146
  C  C367  1  0.546230  0.810610  0.708640  1.0  0.17
  C  C368  1  0.264240  0.721540  0.160680  1.0  -0.0752
  C  C369  1  0.366080  0.772820  0.856540  1.0  -0.0373
  C  C370  1  0.847240  0.443530  0.134640  1.0  -0.1571
  C  C371  1  0.483590  0.131370  0.872300  1.0  -0.149
  C  C372  1  0.347230  0.481680  0.647860  1.0  0.0408
  C  C373  1  0.158480  0.551210  0.790000  1.0  -0.1527
  C  C374  1  0.203210  0.471940  0.323680  1.0  -0.0153
  C  C375  1  0.516380  0.846920  0.156420  1.0  0.0334
  C  C376  1  0.837590  0.101970  0.291360  1.0  0.1691
  C  C377  1  0.445910  0.761310  0.920680  1.0  0.7012
  C  C378  1  0.775980  0.820480  0.348100  1.0  0.6925
  C  C379  1  0.520150  0.937510  0.758760  1.0  0.0848
  C  C380  1  0.533230  0.822990  0.590800  1.0  0.1151
  C  C381  1  0.483620  0.153080  0.843580  1.0  0.0315
  C  C382  1  0.942130  0.686490  0.189560  1.0  0.0891
  C  C383  1  0.101970  0.453770  0.291360  1.0  0.1735
  C  C384  1  0.380830  0.154390  0.651960  1.0  0.6942
  C  C385  1  0.359960  0.690500  0.843580  1.0  0.0308
  C  C386  1  0.892360  0.191510  0.357240  1.0  -0.0032
  C  C387  1  0.470980  0.110030  0.275120  1.0  -0.0192
  C  C388  1  0.554090  0.238690  0.079320  1.0  0.7017
  C  C389  1  0.840630  0.554090  0.079320  1.0  0.6992
  C  C390  1  0.898030  0.546230  0.708640  1.0  0.1716
  C  C391  1  0.233160  0.468550  0.452720  1.0  -0.0548
  C  C392  1  0.147720  0.373450  0.621480  1.0  -0.1437
  C  C393  1  0.195860  0.834910  0.724880  1.0  -0.0197
  C  C394  1  0.384610  0.514170  0.236640  1.0  0.6803
  C  C395  1  0.517570  0.706620  0.431160  1.0  -0.0789
  C  C396  1  0.217640  0.099250  0.568720  1.0  -0.0201
  C  C397  1  0.559600  0.706330  0.788800  1.0  0.2238
  C  C398  1  0.271130  0.497570  0.651960  1.0  0.6954
  C  C399  1  0.368480  0.761210  0.210000  1.0  -0.1521
  C  C400  1  0.439140  0.264240  0.160680  1.0  -0.0773
  C  C401  1  0.166180  0.347230  0.647860  1.0  0.0418
  C  C402  1  0.735760  0.278460  0.839320  1.0  -0.0754
  C  C403  1  0.329020  0.511430  0.203580  1.0  -0.1327
  C  C404  1  0.526240  0.751970  0.378520  1.0  -0.1476
  C  C405  1  0.189390  0.837590  0.291360  1.0  0.1732
  C  C406  1  0.062490  0.761390  0.241240  1.0  0.0873
  C  C407  1  0.214800  0.992940  0.763020  1.0  -0.0393
  C  C408  1  0.691110  0.847240  0.134640  1.0  -0.1541
  C  C409  1  0.227180  0.509540  0.143460  1.0  -0.0455
  C  C410  1  0.473760  0.248030  0.621480  1.0  -0.1469
  C  C411  1  0.526290  0.759150  0.456840  1.0  0.099
  C  C412  1  0.288650  0.180320  0.840940  1.0  0.0405
  C  C413  1  0.852030  0.722470  0.236640  1.0  0.68
  C  C414  1  0.780440  0.015830  0.547280  1.0  -0.0531
  C  C415  1  0.191510  0.464880  0.357240  1.0  -0.0031
  C  C416  1  0.896440  0.439140  0.160680  1.0  -0.0822
  C  C417  1  0.874560  0.692150  0.203580  1.0  -0.133
  C  C418  1  0.238690  0.525230  0.079320  1.0  0.7022
  C  C419  1  0.759150  0.930550  0.456840  1.0  0.1001
  C  C420  1  0.819680  0.447710  0.159060  1.0  0.0383
  C  C421  1  0.611290  0.259070  0.127700  1.0  -0.1482
  C  C422  1  0.154390  0.271130  0.651960  1.0  0.6936
  C  C423  1  0.852280  0.626550  0.378520  1.0  -0.1438
  C  C424  1  0.448790  0.368480  0.210000  1.0  -0.1532
  C  C425  1  0.287400  0.691110  0.134640  1.0  -0.1524
  C  C426  1  0.782360  0.900750  0.431280  1.0  -0.0192
  C  C427  1  0.631520  0.238790  0.790000  1.0  -0.1531
  C  C428  1  0.543300  0.574780  0.760880  1.0  0.693
  C  C429  1  0.114890  0.858790  0.659220  1.0  0.0173
  C  C430  1  0.560860  0.735760  0.839320  1.0  -0.0786
  C  C431  1  0.740930  0.483590  0.872300  1.0  -0.1493
  C  C432  1  0.453770  0.189390  0.291360  1.0  0.1725
  C  C433  1  0.785200  0.007060  0.236980  1.0  -0.0408
  C  C434  1  0.179520  0.427880  0.651900  1.0  0.6936
  C  C435  1  0.916280  0.633920  0.143460  1.0  -0.0393
  C  C436  1  0.513670  0.676770  0.378240  1.0  -0.1443
  C  C437  1  0.864570  0.701470  0.378240  1.0  -0.144
  C  C438  1  0.724540  0.517570  0.431160  1.0  -0.0819
  C  C439  1  0.300630  0.166180  0.647860  1.0  0.0406
  C  C440  1  0.447710  0.339380  0.159060  1.0  0.0387
  N  N441  1  0.314310  0.836790  0.831020  1.0  -0.2282
  N  N442  1  0.798760  0.968230  0.239940  1.0  0.0016
  N  N443  1  0.575000  0.705940  0.721360  1.0  -0.2092
  N  N444  1  0.522550  0.949240  0.806500  1.0  -0.1585
  N  N445  1  0.213600  0.493240  0.203760  1.0  0.0489
  N  N446  1  0.716050  0.142740  0.193500  1.0  -0.1502
  N  N447  1  0.990160  0.710520  0.203760  1.0  0.0538
  N  N448  1  0.047460  0.721400  0.579920  1.0  -0.1734
  N  N449  1  0.009840  0.289480  0.796240  1.0  0.0514
  N  N450  1  0.037500  0.429000  0.302500  1.0  -0.3107
  N  N451  1  0.308460  0.471600  0.470400  1.0  -0.2431
  N  N452  1  0.005770  0.685690  0.168980  1.0  -0.2366
  N  N453  1  0.728290  0.201240  0.760060  1.0  0.0016
  N  N454  1  0.916400  0.526100  0.780400  1.0  -0.4927
  N  N455  1  0.691540  0.528400  0.529600  1.0  -0.2328
  N  N456  1  0.209220  0.018510  0.489020  1.0  0.0766
  N  N457  1  0.685690  0.163210  0.168980  1.0  -0.2298
  N  N458  1  0.015420  0.575000  0.721360  1.0  -0.21
  N  N459  1  0.271710  0.798760  0.239940  1.0  0.0015
  N  N460  1  0.981490  0.720200  0.510980  1.0  0.0737
  N  N461  1  0.473900  0.136000  0.219600  1.0  -0.4877
  N  N462  1  0.467540  0.141480  0.420080  1.0  -0.1691
  N  N463  1  0.529490  0.790780  0.510980  1.0  0.0735
  N  N464  1  0.962500  0.571000  0.697500  1.0  -0.3127
  N  N465  1  0.283950  0.857260  0.806500  1.0  -0.1502
  N  N466  1  0.429000  0.265000  0.302500  1.0  -0.293
  N  N467  1  0.516710  0.994230  0.831020  1.0  -0.2272
  N  N468  1  0.050760  0.716050  0.193500  1.0  -0.1592
  N  N469  1  0.279800  0.470510  0.489020  1.0  0.0755
  N  N470  1  0.477450  0.050760  0.193500  1.0  -0.1611
  N  N471  1  0.984580  0.425000  0.278640  1.0  -0.2071
  N  N472  1  0.294060  0.853640  0.278640  1.0  -0.2082
  N  N473  1  0.571000  0.735000  0.697500  1.0  -0.296
  N  N474  1  0.994230  0.314310  0.831020  1.0  -0.2311
  N  N475  1  0.864000  0.254300  0.780400  1.0  -0.4826
  N  N476  1  0.493240  0.990160  0.203760  1.0  0.0505
  N  N477  1  0.836790  0.516710  0.831020  1.0  -0.2291
  N  N478  1  0.786400  0.506760  0.796240  1.0  0.0499
  N  N479  1  0.278600  0.467540  0.420080  1.0  -0.1684
  N  N480  1  0.705940  0.146360  0.721360  1.0  -0.2102
  N  N481  1  0.141480  0.952540  0.420080  1.0  -0.1749
  N  N482  1  0.558820  0.728290  0.760060  1.0  0.0025
  N  N483  1  0.720200  0.529490  0.510980  1.0  0.0762
  N  N484  1  0.721400  0.532460  0.579920  1.0  -0.1686
  N  N485  1  0.790780  0.981490  0.510980  1.0  0.0768
  N  N486  1  0.838060  0.001200  0.529600  1.0  -0.245
  N  N487  1  0.526100  0.864000  0.780400  1.0  -0.4868
  N  N488  1  0.710520  0.213600  0.203760  1.0  0.0498
  N  N489  1  0.001200  0.691540  0.529600  1.0  -0.2369
  N  N490  1  0.745700  0.083600  0.219600  1.0  -0.4966
  N  N491  1  0.735000  0.126500  0.697500  1.0  -0.3001
  N  N492  1  0.506760  0.009840  0.796240  1.0  0.054
  N  N493  1  0.873500  0.037500  0.302500  1.0  -0.317
  N  N494  1  0.483290  0.005770  0.168980  1.0  -0.2304
  N  N495  1  0.853640  0.984580  0.278640  1.0  -0.22
  N  N496  1  0.126500  0.962500  0.697500  1.0  -0.314
  N  N497  1  0.470510  0.209220  0.489020  1.0  0.0754
  N  N498  1  0.265000  0.873500  0.302500  1.0  -0.2982
  N  N499  1  0.949240  0.283950  0.806500  1.0  -0.1544
  N  N500  1  0.142740  0.477450  0.193500  1.0  -0.1644
  N  N501  1  0.163210  0.483290  0.168980  1.0  -0.2279
  N  N502  1  0.254300  0.916400  0.780400  1.0  -0.4962
  N  N503  1  0.136000  0.745700  0.219600  1.0  -0.482
  N  N504  1  0.018510  0.279800  0.489020  1.0  0.0744
  N  N505  1  0.532460  0.858520  0.579920  1.0  -0.1714
  N  N506  1  0.998800  0.308460  0.470400  1.0  -0.2372
  N  N507  1  0.528400  0.838060  0.529600  1.0  -0.2413
  N  N508  1  0.471600  0.161940  0.470400  1.0  -0.2363
  N  N509  1  0.968230  0.441180  0.239940  1.0  0.0006
  N  N510  1  0.441180  0.271710  0.239940  1.0  0.0012
  N  N511  1  0.425000  0.294060  0.278640  1.0  -0.2079
  N  N512  1  0.031770  0.558820  0.760060  1.0  -0.0
  N  N513  1  0.201240  0.031770  0.760060  1.0  0.0021
  N  N514  1  0.161940  0.998800  0.470400  1.0  -0.2325
  N  N515  1  0.146360  0.015420  0.721360  1.0  -0.2103
  N  N516  1  0.952540  0.278600  0.420080  1.0  -0.1735
  N  N517  1  0.858520  0.047460  0.579920  1.0  -0.179
  N  N518  1  0.857260  0.522550  0.806500  1.0  -0.1599
  N  N519  1  0.289480  0.786400  0.796240  1.0  0.0507
  N  N520  1  0.083600  0.473900  0.219600  1.0  -0.4932
  O  O521  1  0.476170  0.205300  0.938480  1.0  -0.5646
  O  O522  1  0.229980  0.538620  0.785800  1.0  -0.5734
  O  O523  1  0.803910  0.467520  0.938820  1.0  -0.5647
  O  O524  1  0.770020  0.461380  0.214200  1.0  -0.573
  O  O525  1  0.597170  0.483470  0.716420  1.0  -0.5618
  O  O526  1  0.229350  0.506190  0.629440  1.0  -0.5611
  O  O527  1  0.556970  0.789800  0.937580  1.0  -0.5656
  O  O528  1  0.210200  0.619390  0.062420  1.0  -0.5646
  O  O529  1  0.548030  0.719580  0.938080  1.0  -0.5632
  O  O530  1  0.380610  0.147780  0.937580  1.0  -0.5672
  O  O531  1  0.506190  0.400090  0.629440  1.0  -0.5606
  O  O532  1  0.493810  0.599910  0.370560  1.0  -0.5608
  O  O533  1  0.667650  0.485040  0.184260  1.0  -0.63
  O  O534  1  0.767050  0.402830  0.283580  1.0  -0.5618
  O  O535  1  0.523620  0.746580  0.300400  1.0  -0.5685
  O  O536  1  0.550350  0.172940  0.713620  1.0  -0.572
  O  O537  1  0.467520  0.134910  0.938820  1.0  -0.5669
  O  O538  1  0.549630  0.532170  0.372700  1.0  -0.5693
  O  O539  1  0.462310  0.733180  0.938480  1.0  -0.5669
  O  O540  1  0.516610  0.699220  0.184260  1.0  -0.6277
  O  O541  1  0.827060  0.836730  0.286380  1.0  -0.5715
  O  O542  1  0.609950  0.781500  0.061920  1.0  -0.5621
  O  O543  1  0.232950  0.597170  0.716420  1.0  -0.5598
  O  O544  1  0.619390  0.852220  0.062420  1.0  -0.5676
  O  O545  1  0.555820  0.247180  0.785800  1.0  -0.5734
  O  O546  1  0.483470  0.119250  0.716420  1.0  -0.5613
  O  O547  1  0.266820  0.523830  0.061520  1.0  -0.5672
  O  O548  1  0.800060  0.707290  0.302020  1.0  -0.5609
  O  O549  1  0.470430  0.530460  0.401820  1.0  -0.6478
  O  O550  1  0.446180  0.476380  0.699600  1.0  -0.5697
  O  O551  1  0.530460  0.931390  0.401820  1.0  -0.6493
  O  O552  1  0.871360  0.470430  0.401820  1.0  -0.6507
  O  O553  1  0.119250  0.232950  0.716420  1.0  -0.5615
  O  O554  1  0.746580  0.776780  0.300400  1.0  -0.5671
  O  O555  1  0.443030  0.210200  0.062420  1.0  -0.5648
  O  O556  1  0.449650  0.827060  0.286380  1.0  -0.5715
  O  O557  1  0.253420  0.223220  0.699600  1.0  -0.5657
  O  O558  1  0.483390  0.300780  0.815740  1.0  -0.6263
  O  O559  1  0.590960  0.485070  0.784600  1.0  -0.5599
  O  O560  1  0.292710  0.498040  0.697980  1.0  -0.5618
  O  O561  1  0.700470  0.409040  0.215400  1.0  -0.5577
  O  O562  1  0.205300  0.462310  0.938480  1.0  -0.5627
  O  O563  1  0.068610  0.128640  0.598180  1.0  -0.654
  O  O564  1  0.840530  0.549630  0.372700  1.0  -0.5664
  O  O565  1  0.789800  0.380610  0.937580  1.0  -0.5654
  O  O566  1  0.332350  0.514960  0.815740  1.0  -0.6274
  O  O567  1  0.299530  0.590960  0.784600  1.0  -0.5588
  O  O568  1  0.752820  0.770020  0.214200  1.0  -0.5725
  O  O569  1  0.176930  0.159470  0.627300  1.0  -0.5659
  O  O570  1  0.223220  0.446180  0.699600  1.0  -0.5676
  O  O571  1  0.444180  0.752820  0.214200  1.0  -0.5724
  O  O572  1  0.770650  0.493810  0.370560  1.0  -0.5612
  O  O573  1  0.514930  0.806360  0.215400  1.0  -0.5556
  O  O574  1  0.459320  0.449650  0.286380  1.0  -0.5736
  O  O575  1  0.733180  0.476170  0.938480  1.0  -0.5668
  O  O576  1  0.553820  0.523620  0.300400  1.0  -0.5698
  O  O577  1  0.134910  0.471300  0.938820  1.0  -0.5677
  O  O578  1  0.163270  0.540680  0.713620  1.0  -0.57
  O  O579  1  0.540680  0.550350  0.713620  1.0  -0.5737
  O  O580  1  0.538620  0.555820  0.785800  1.0  -0.5737
  O  O581  1  0.781500  0.451970  0.061920  1.0  -0.5618
  O  O582  1  0.199940  0.292710  0.697980  1.0  -0.5623
  O  O583  1  0.450370  0.467830  0.627300  1.0  -0.5688
  O  O584  1  0.836730  0.459320  0.286380  1.0  -0.5717
  O  O585  1  0.280420  0.609950  0.061920  1.0  -0.5626
  O  O586  1  0.806360  0.700470  0.215400  1.0  -0.5593
  O  O587  1  0.471300  0.803910  0.938820  1.0  -0.5642
  O  O588  1  0.400090  0.123250  0.629440  1.0  -0.5603
  O  O589  1  0.402830  0.516530  0.283580  1.0  -0.562
  O  O590  1  0.476380  0.253420  0.699600  1.0  -0.5684
  O  O591  1  0.516530  0.880750  0.283580  1.0  -0.5623
  O  O592  1  0.528700  0.196090  0.061180  1.0  -0.5634
  O  O593  1  0.405270  0.199940  0.697980  1.0  -0.561
  O  O594  1  0.196090  0.532480  0.061180  1.0  -0.5643
  O  O595  1  0.537690  0.266820  0.061520  1.0  -0.5664
  O  O596  1  0.469540  0.068610  0.598180  1.0  -0.6542
  O  O597  1  0.193640  0.299530  0.784600  1.0  -0.5587
  O  O598  1  0.523830  0.794700  0.061520  1.0  -0.565
  O  O599  1  0.865090  0.528700  0.061180  1.0  -0.568
  O  O600  1  0.599910  0.876750  0.370560  1.0  -0.5607
  O  O601  1  0.876750  0.770650  0.370560  1.0  -0.5612
  O  O602  1  0.794700  0.537690  0.061520  1.0  -0.563
  O  O603  1  0.776780  0.553820  0.300400  1.0  -0.5665
  O  O604  1  0.529570  0.469540  0.598180  1.0  -0.6455
  O  O605  1  0.532170  0.823070  0.372700  1.0  -0.5644
  O  O606  1  0.823070  0.840530  0.372700  1.0  -0.5647
  O  O607  1  0.498040  0.405270  0.697980  1.0  -0.5613
  O  O608  1  0.390050  0.218500  0.938080  1.0  -0.5624
  O  O609  1  0.159470  0.450370  0.627300  1.0  -0.5657
  O  O610  1  0.719580  0.390050  0.938080  1.0  -0.5628
  O  O611  1  0.128640  0.529570  0.598180  1.0  -0.65
  O  O612  1  0.300780  0.332350  0.815740  1.0  -0.6244
  O  O613  1  0.247180  0.229980  0.785800  1.0  -0.5707
  O  O614  1  0.409040  0.514930  0.215400  1.0  -0.5587
  O  O615  1  0.852220  0.443030  0.062420  1.0  -0.5677
  O  O616  1  0.147780  0.556970  0.937580  1.0  -0.5663
  O  O617  1  0.485070  0.193640  0.784600  1.0  -0.5562
  O  O618  1  0.218500  0.548030  0.938080  1.0  -0.5614
  O  O619  1  0.123250  0.229350  0.629440  1.0  -0.5624
  O  O620  1  0.880750  0.767050  0.283580  1.0  -0.5618
  O  O621  1  0.501960  0.594730  0.302020  1.0  -0.5614
  O  O622  1  0.514960  0.483390  0.815740  1.0  -0.6239
  O  O623  1  0.461380  0.444180  0.214200  1.0  -0.5724
  O  O624  1  0.451970  0.280420  0.061920  1.0  -0.5631
  O  O625  1  0.931390  0.871360  0.401820  1.0  -0.6445
  O  O626  1  0.707290  0.501960  0.302020  1.0  -0.5618
  O  O627  1  0.172940  0.163270  0.713620  1.0  -0.5711
  O  O628  1  0.467830  0.176930  0.627300  1.0  -0.565
  O  O629  1  0.485040  0.516610  0.184260  1.0  -0.6244
  O  O630  1  0.699220  0.667650  0.184260  1.0  -0.6282
  O  O631  1  0.532480  0.865090  0.061180  1.0  -0.5681
  O  O632  1  0.594730  0.800060  0.302020  1.0  -0.5605
