# generated using pymatgen
data_U5P8H18(CO3)8
_symmetry_space_group_name_H-M   'P 1'
_cell_length_a   9.87920000
_cell_length_b   12.07980000
_cell_length_c   12.25910000
_cell_angle_alpha   109.80800000
_cell_angle_beta   100.04500000
_cell_angle_gamma   102.51500000
_symmetry_Int_Tables_number   1
_chemical_formula_structural   U5P8H18(CO3)8
_chemical_formula_sum   'U5 P8 H18 C8 O24'
_cell_volume   1293.87168303
_cell_formula_units_Z   1
loop_
 _symmetry_equiv_pos_site_id
 _symmetry_equiv_pos_as_xyz
  1  'x, y, z'
loop_
 _atom_site_type_symbol
 _atom_site_label
 _atom_site_symmetry_multiplicity
 _atom_site_fract_x
 _atom_site_fract_y
 _atom_site_fract_z
 _atom_site_occupancy
 _atom_site_charge
  U  U1  1  0.896200  0.174110  0.521610  1.0  1.6479
  U  U2  1  0.136820  0.337240  0.988420  1.0  1.7421
  U  U3  1  0.103800  0.825890  0.478390  1.0  1.6506
  U  U4  1  0.863180  0.662760  0.011580  1.0  1.7397
  U  U5  1  0.500000  0.500000  0.500000  1.0  1.8191
  P  P6  1  0.742800  0.337900  0.366200  1.0  1.6199
  P  P7  1  0.017100  0.542500  0.208500  1.0  1.6098
  P  P8  1  0.035500  0.047400  0.728300  1.0  1.6284
  P  P9  1  0.722800  0.758500  0.779400  1.0  1.6617
  P  P10  1  0.257200  0.662100  0.633800  1.0  1.6205
  P  P11  1  0.982900  0.457500  0.791500  1.0  1.6108
  P  P12  1  0.964500  0.952600  0.271700  1.0  1.6274
  P  P13  1  0.277200  0.241500  0.220600  1.0  1.6664
  H  H14  1  0.562200  0.229000  0.245700  1.0  0.3859
  H  H15  1  0.757400  0.470800  0.271400  1.0  0.1421
  H  H16  1  0.870300  0.532000  0.397500  1.0  0.144
  H  H17  1  0.912800  0.351000  0.198700  1.0  0.143
  H  H18  1  0.028500  0.428800  0.322500  1.0  0.1396
  H  H19  1  0.014200  0.936700  0.849300  1.0  0.1738
  H  H20  1  0.895800  0.004500  0.850700  1.0  0.1379
  H  H21  1  0.883500  0.783500  0.667800  1.0  0.1423
  H  H22  1  0.772500  0.855700  0.652100  1.0  0.139
  H  H23  1  0.437800  0.771000  0.754300  1.0  0.3843
  H  H24  1  0.242600  0.529200  0.728600  1.0  0.1435
  H  H25  1  0.129700  0.468000  0.602500  1.0  0.1441
  H  H26  1  0.087200  0.649000  0.801300  1.0  0.1426
  H  H27  1  0.971500  0.571200  0.677500  1.0  0.1405
  H  H28  1  0.985800  0.063300  0.150700  1.0  0.1773
  H  H29  1  0.104200  0.995500  0.149300  1.0  0.1381
  H  H30  1  0.116500  0.216500  0.332200  1.0  0.142
  H  H31  1  0.227500  0.144300  0.347900  1.0  0.139
  C  C32  1  0.829500  0.456700  0.325600  1.0  -0.4772
  C  C33  1  0.949800  0.431400  0.264600  1.0  -0.4302
  C  C34  1  0.943400  0.955800  0.798900  1.0  -0.4667
  C  C35  1  0.833900  0.837700  0.710700  1.0  -0.5004
  C  C36  1  0.170500  0.543300  0.674400  1.0  -0.4791
  C  C37  1  0.050200  0.568600  0.735400  1.0  -0.4288
  C  C38  1  0.056600  0.044200  0.201100  1.0  -0.4629
  C  C39  1  0.166100  0.162300  0.289300  1.0  -0.504
  O  O40  1  0.646600  0.230600  0.251100  1.0  -0.6673
  O  O41  1  0.658600  0.387200  0.452500  1.0  -0.8854
  O  O42  1  0.862500  0.296500  0.421600  1.0  -0.9139
  O  O43  1  0.128900  0.505600  0.142900  1.0  -0.8889
  O  O44  1  0.887300  0.548800  0.124400  1.0  -0.877
  O  O45  1  0.093700  0.667300  0.309100  1.0  -0.9208
  O  O46  1  0.133100  0.169600  0.825900  1.0  -0.9332
  O  O47  1  0.921400  0.065500  0.639600  1.0  -0.9245
  O  O48  1  0.132700  0.980500  0.663900  1.0  -0.886
  O  O49  1  0.620400  0.830800  0.822600  1.0  -0.742
  O  O50  1  0.643600  0.628000  0.688600  1.0  -0.9281
  O  O51  1  0.828100  0.758600  0.886500  1.0  -0.9263
  O  O52  1  0.353400  0.769400  0.748900  1.0  -0.6674
  O  O53  1  0.341400  0.612800  0.547500  1.0  -0.8855
  O  O54  1  0.137500  0.703500  0.578400  1.0  -0.9134
  O  O55  1  0.871100  0.494400  0.857100  1.0  -0.8901
  O  O56  1  0.112700  0.451200  0.875600  1.0  -0.8788
  O  O57  1  0.906300  0.332700  0.690900  1.0  -0.9177
  O  O58  1  0.866900  0.830400  0.174100  1.0  -0.9348
  O  O59  1  0.078600  0.934500  0.360400  1.0  -0.9267
  O  O60  1  0.867300  0.019500  0.336100  1.0  -0.8867
  O  O61  1  0.379600  0.169200  0.177400  1.0  -0.7438
  O  O62  1  0.356400  0.372000  0.311400  1.0  -0.9299
  O  O63  1  0.171900  0.241400  0.113500  1.0  -0.9261
