# generated using pymatgen
data_V2NiH14C10(NO)4
_symmetry_space_group_name_H-M   'P 1'
_cell_length_a   11.08300000
_cell_length_b   17.98300000
_cell_length_c   17.98300000
_cell_angle_alpha   90.00000000
_cell_angle_beta   90.00000000
_cell_angle_gamma   90.00000000
_symmetry_Int_Tables_number   1
_chemical_formula_structural   V2NiH14C10(NO)4
_chemical_formula_sum   'V16 Ni8 H112 C80 N32 O32'
_cell_volume   3584.11240699
_cell_formula_units_Z   8
loop_
 _symmetry_equiv_pos_site_id
 _symmetry_equiv_pos_as_xyz
  1  'x, y, z'
loop_
 _atom_site_type_symbol
 _atom_site_label
 _atom_site_symmetry_multiplicity
 _atom_site_fract_x
 _atom_site_fract_y
 _atom_site_fract_z
 _atom_site_occupancy
 _atom_site_charge
  V  V1  1  0.154570  0.037360  0.559690  1.0  1.1455
  V  V2  1  0.654570  0.962640  0.440310  1.0  1.1376
  V  V3  1  0.404570  0.940310  0.537360  1.0  1.1428
  V  V4  1  0.904570  0.059690  0.462640  1.0  1.1325
  V  V5  1  0.095430  0.462640  0.059690  1.0  1.1375
  V  V6  1  0.595430  0.537360  0.940310  1.0  1.1441
  V  V7  1  0.845430  0.559690  0.037360  1.0  1.1327
  V  V8  1  0.345430  0.440310  0.962640  1.0  1.143
  V  V9  1  0.250000  0.039330  0.960670  1.0  2.1491
  V  V10  1  0.750000  0.960670  0.039330  1.0  2.15
  V  V11  1  0.500000  0.539330  0.539330  1.0  2.15
  V  V12  1  0.000000  0.460670  0.460670  1.0  2.149
  V  V13  1  0.000000  0.067130  0.067130  1.0  0.7262
  V  V14  1  0.500000  0.932870  0.932870  1.0  0.7221
  V  V15  1  0.250000  0.432870  0.567130  1.0  0.7208
  V  V16  1  0.750000  0.567130  0.432870  1.0  0.7277
  Ni  Ni17  1  0.172190  0.029310  0.764600  1.0  0.6825
  Ni  Ni18  1  0.672190  0.970690  0.235400  1.0  0.6807
  Ni  Ni19  1  0.422190  0.735400  0.529310  1.0  0.6826
  Ni  Ni20  1  0.922190  0.264600  0.470690  1.0  0.6824
  Ni  Ni21  1  0.077810  0.470690  0.264600  1.0  0.6804
  Ni  Ni22  1  0.577810  0.529310  0.735400  1.0  0.6806
  Ni  Ni23  1  0.827810  0.764600  0.029310  1.0  0.6812
  Ni  Ni24  1  0.327810  0.235400  0.970690  1.0  0.6818
  H  H25  1  0.212400  0.890200  0.654000  1.0  0.0832
  H  H26  1  0.200300  0.759400  0.687600  1.0  0.1207
  H  H27  1  0.141500  0.881900  0.866000  1.0  0.0932
  H  H28  1  0.224000  0.722100  0.868500  1.0  0.0702
  H  H29  1  0.085600  0.738500  0.875600  1.0  0.0797
  H  H30  1  0.932000  0.026200  0.666800  1.0  0.105
  H  H31  1  0.945200  0.038200  0.883600  1.0  0.1119
  H  H32  1  0.732500  0.034600  0.848200  1.0  0.13
  H  H33  1  0.051200  0.485900  0.843000  1.0  0.0673
  H  H34  1  0.131200  0.511300  0.775900  1.0  0.0572
  H  H35  1  0.024500  0.610600  0.878100  1.0  0.0895
  H  H36  1  0.160900  0.587900  0.880000  1.0  0.0648
  H  H37  1  0.055200  0.670600  0.763000  1.0  0.0671
  H  H38  1  0.192100  0.648200  0.765500  1.0  0.0811
  H  H39  1  0.712400  0.109800  0.346000  1.0  0.0834
  H  H40  1  0.700300  0.240600  0.312400  1.0  0.1207
  H  H41  1  0.641500  0.118100  0.134000  1.0  0.0935
  H  H42  1  0.724000  0.277900  0.131500  1.0  0.0701
  H  H43  1  0.585600  0.261500  0.124400  1.0  0.0796
  H  H44  1  0.432000  0.973800  0.333200  1.0  0.1062
  H  H45  1  0.445200  0.961800  0.116400  1.0  0.112
  H  H46  1  0.232500  0.965400  0.151800  1.0  0.1299
  H  H47  1  0.551200  0.514100  0.157000  1.0  0.0619
  H  H48  1  0.631200  0.488700  0.224100  1.0  0.0572
  H  H49  1  0.524500  0.389400  0.121900  1.0  0.0901
  H  H50  1  0.660900  0.412100  0.120000  1.0  0.065
  H  H51  1  0.555200  0.329400  0.237000  1.0  0.0672
  H  H52  1  0.692100  0.351800  0.234500  1.0  0.0814
  H  H53  1  0.462400  0.846000  0.390200  1.0  0.0829
  H  H54  1  0.450300  0.812400  0.259400  1.0  0.122
  H  H55  1  0.391500  0.634000  0.381900  1.0  0.0931
  H  H56  1  0.474000  0.631500  0.222100  1.0  0.071
  H  H57  1  0.335600  0.624400  0.238500  1.0  0.0785
  H  H58  1  0.182000  0.833200  0.526200  1.0  0.1047
  H  H59  1  0.195200  0.616400  0.538200  1.0  0.1128
  H  H60  1  0.982500  0.651800  0.534600  1.0  0.1306
  H  H61  1  0.301200  0.657000  0.985900  1.0  0.062
  H  H62  1  0.381200  0.724100  0.011300  1.0  0.0572
  H  H63  1  0.274500  0.621900  0.110600  1.0  0.0897
  H  H64  1  0.410900  0.620000  0.087900  1.0  0.0639
  H  H65  1  0.305200  0.737000  0.170600  1.0  0.0669
  H  H66  1  0.442100  0.734500  0.148200  1.0  0.0811
  H  H67  1  0.962400  0.154000  0.609800  1.0  0.0831
  H  H68  1  0.950300  0.187600  0.740600  1.0  0.1212
  H  H69  1  0.891500  0.366000  0.618100  1.0  0.0937
  H  H70  1  0.974000  0.368500  0.777900  1.0  0.0708
  H  H71  1  0.835600  0.375600  0.761500  1.0  0.0794
  H  H72  1  0.682000  0.166800  0.473800  1.0  0.1046
  H  H73  1  0.695200  0.383600  0.461800  1.0  0.112
  H  H74  1  0.482500  0.348200  0.465400  1.0  0.131
  H  H75  1  0.801200  0.343000  0.014100  1.0  0.0643
  H  H76  1  0.881200  0.275900  0.988700  1.0  0.0551
  H  H77  1  0.774500  0.378100  0.889400  1.0  0.0909
  H  H78  1  0.910900  0.380000  0.912100  1.0  0.0649
  H  H79  1  0.805200  0.263000  0.829400  1.0  0.0672
  H  H80  1  0.942100  0.265500  0.851800  1.0  0.0807
  H  H81  1  0.037600  0.609800  0.154000  1.0  0.0849
  H  H82  1  0.049700  0.740600  0.187600  1.0  0.1212
  H  H83  1  0.108500  0.618100  0.366000  1.0  0.0933
  H  H84  1  0.026000  0.777900  0.368500  1.0  0.0702
  H  H85  1  0.164400  0.761500  0.375600  1.0  0.0794
  H  H86  1  0.318000  0.473800  0.166800  1.0  0.1062
  H  H87  1  0.304800  0.461800  0.383600  1.0  0.1125
  H  H88  1  0.517500  0.465400  0.348200  1.0  0.1293
  H  H89  1  0.198800  0.014100  0.343000  1.0  0.0625
  H  H90  1  0.118800  0.988700  0.275900  1.0  0.0567
  H  H91  1  0.225500  0.889400  0.378100  1.0  0.0892
  H  H92  1  0.089100  0.912100  0.380000  1.0  0.0644
  H  H93  1  0.194800  0.829400  0.263000  1.0  0.0672
  H  H94  1  0.057900  0.851800  0.265500  1.0  0.0829
  H  H95  1  0.537600  0.390200  0.846000  1.0  0.0847
  H  H96  1  0.549700  0.259400  0.812400  1.0  0.1211
  H  H97  1  0.608500  0.381900  0.634000  1.0  0.0932
  H  H98  1  0.526000  0.222100  0.631500  1.0  0.0705
  H  H99  1  0.664400  0.238500  0.624400  1.0  0.0794
  H  H100  1  0.818000  0.526200  0.833200  1.0  0.1059
  H  H101  1  0.804800  0.538200  0.616400  1.0  0.1126
  H  H102  1  0.017500  0.534600  0.651800  1.0  0.1291
  H  H103  1  0.698800  0.985900  0.657000  1.0  0.062
  H  H104  1  0.618800  0.011300  0.724100  1.0  0.0556
  H  H105  1  0.725500  0.110600  0.621900  1.0  0.0895
  H  H106  1  0.589100  0.087900  0.620000  1.0  0.0662
  H  H107  1  0.694800  0.170600  0.737000  1.0  0.0674
  H  H108  1  0.557900  0.148200  0.734500  1.0  0.0817
  H  H109  1  0.787600  0.654000  0.890200  1.0  0.084
  H  H110  1  0.799700  0.687600  0.759400  1.0  0.1215
  H  H111  1  0.858500  0.866000  0.881900  1.0  0.0934
  H  H112  1  0.776000  0.868500  0.722100  1.0  0.0708
  H  H113  1  0.914400  0.875600  0.738500  1.0  0.0782
  H  H114  1  0.068000  0.666800  0.026200  1.0  0.1054
  H  H115  1  0.054800  0.883600  0.038200  1.0  0.1127
  H  H116  1  0.267500  0.848200  0.034600  1.0  0.1304
  H  H117  1  0.948800  0.843000  0.485900  1.0  0.0609
  H  H118  1  0.868800  0.775900  0.511300  1.0  0.0537
  H  H119  1  0.975500  0.878100  0.610600  1.0  0.089
  H  H120  1  0.839100  0.880000  0.587900  1.0  0.0646
  H  H121  1  0.944800  0.763000  0.670600  1.0  0.066
  H  H122  1  0.807900  0.765500  0.648200  1.0  0.0811
  H  H123  1  0.287600  0.346000  0.109800  1.0  0.0845
  H  H124  1  0.299700  0.312400  0.240600  1.0  0.1213
  H  H125  1  0.358500  0.134000  0.118100  1.0  0.0924
  H  H126  1  0.276000  0.131500  0.277900  1.0  0.0707
  H  H127  1  0.414400  0.124400  0.261500  1.0  0.0778
  H  H128  1  0.568000  0.333200  0.973800  1.0  0.1057
  H  H129  1  0.554800  0.116400  0.961800  1.0  0.1127
  H  H130  1  0.767500  0.151800  0.965400  1.0  0.1306
  H  H131  1  0.448800  0.157000  0.514100  1.0  0.065
  H  H132  1  0.368800  0.224100  0.488700  1.0  0.0546
  H  H133  1  0.475500  0.121900  0.389400  1.0  0.0902
  H  H134  1  0.339100  0.120000  0.412100  1.0  0.0652
  H  H135  1  0.444800  0.237000  0.329400  1.0  0.0672
  H  H136  1  0.307900  0.234500  0.351800  1.0  0.0817
  C  C137  1  0.197100  0.872060  0.701540  1.0  0.03
  C  C138  1  0.190100  0.799620  0.719440  1.0  -0.1661
  C  C139  1  0.158300  0.868020  0.817300  1.0  0.1155
  C  C140  1  0.150400  0.730050  0.840410  1.0  -0.0201
  C  C141  1  0.909600  0.028870  0.716580  1.0  0.1241
  C  C142  1  0.916100  0.035300  0.835170  1.0  0.0363
  C  C143  1  0.798200  0.033500  0.816100  1.0  -0.1745
  C  C144  1  0.062800  0.525090  0.806630  1.0  -0.0095
  C  C145  1  0.092800  0.596700  0.847320  1.0  -0.1452
  C  C146  1  0.122900  0.661100  0.795860  1.0  -0.1461
  C  C147  1  0.697100  0.127940  0.298460  1.0  0.0294
  C  C148  1  0.690100  0.200380  0.280560  1.0  -0.1655
  C  C149  1  0.658300  0.131980  0.182700  1.0  0.1157
  C  C150  1  0.650400  0.269950  0.159590  1.0  -0.0196
  C  C151  1  0.409600  0.971130  0.283420  1.0  0.124
  C  C152  1  0.416100  0.964700  0.164830  1.0  0.0365
  C  C153  1  0.298200  0.966500  0.183900  1.0  -0.1754
  C  C154  1  0.562800  0.474910  0.193370  1.0  -0.0081
  C  C155  1  0.592800  0.403300  0.152680  1.0  -0.145
  C  C156  1  0.622900  0.338900  0.204140  1.0  -0.146
  C  C157  1  0.447100  0.798460  0.372060  1.0  0.0302
  C  C158  1  0.440100  0.780560  0.299620  1.0  -0.1652
  C  C159  1  0.408300  0.682700  0.368020  1.0  0.1177
  C  C160  1  0.400400  0.659590  0.230050  1.0  -0.0225
  C  C161  1  0.159600  0.783420  0.528870  1.0  0.1236
  C  C162  1  0.166100  0.664830  0.535300  1.0  0.0333
  C  C163  1  0.048200  0.683900  0.533500  1.0  -0.1756
  C  C164  1  0.312800  0.693370  0.025090  1.0  -0.0105
  C  C165  1  0.342800  0.652680  0.096700  1.0  -0.1461
  C  C166  1  0.372900  0.704140  0.161100  1.0  -0.1453
  C  C167  1  0.947100  0.201540  0.627940  1.0  0.029
  C  C168  1  0.940100  0.219440  0.700380  1.0  -0.1658
  C  C169  1  0.908300  0.317300  0.631980  1.0  0.1171
  C  C170  1  0.900400  0.340410  0.769950  1.0  -0.0214
  C  C171  1  0.659600  0.216580  0.471130  1.0  0.1235
  C  C172  1  0.666100  0.335170  0.464700  1.0  0.0333
  C  C173  1  0.548200  0.316100  0.466500  1.0  -0.1753
  C  C174  1  0.812800  0.306630  0.974910  1.0  -0.0091
  C  C175  1  0.842800  0.347320  0.903300  1.0  -0.1463
  C  C176  1  0.872900  0.295860  0.838900  1.0  -0.1444
  C  C177  1  0.052900  0.627940  0.201540  1.0  0.0285
  C  C178  1  0.059900  0.700380  0.219440  1.0  -0.1656
  C  C179  1  0.091700  0.631980  0.317300  1.0  0.1168
  C  C180  1  0.099600  0.769950  0.340410  1.0  -0.0199
  C  C181  1  0.340400  0.471130  0.216580  1.0  0.1232
  C  C182  1  0.333900  0.464700  0.335170  1.0  0.0366
  C  C183  1  0.451800  0.466500  0.316100  1.0  -0.1737
  C  C184  1  0.187200  0.974910  0.306630  1.0  -0.0085
  C  C185  1  0.157200  0.903300  0.347320  1.0  -0.1454
  C  C186  1  0.127100  0.838900  0.295860  1.0  -0.1475
  C  C187  1  0.552900  0.372060  0.798460  1.0  0.0286
  C  C188  1  0.559900  0.299620  0.780560  1.0  -0.1651
  C  C189  1  0.591700  0.368020  0.682700  1.0  0.1181
  C  C190  1  0.599600  0.230050  0.659590  1.0  -0.0185
  C  C191  1  0.840400  0.528870  0.783420  1.0  0.1234
  C  C192  1  0.833900  0.535300  0.664830  1.0  0.037
  C  C193  1  0.951800  0.533500  0.683900  1.0  -0.1746
  C  C194  1  0.687200  0.025090  0.693370  1.0  -0.0091
  C  C195  1  0.657200  0.096700  0.652680  1.0  -0.1447
  C  C196  1  0.627100  0.161100  0.704140  1.0  -0.1469
  C  C197  1  0.802900  0.701540  0.872060  1.0  0.0287
  C  C198  1  0.809900  0.719440  0.799620  1.0  -0.1653
  C  C199  1  0.841700  0.817300  0.868020  1.0  0.1182
  C  C200  1  0.849600  0.840410  0.730050  1.0  -0.0212
  C  C201  1  0.090400  0.716580  0.028870  1.0  0.1228
  C  C202  1  0.083900  0.835170  0.035300  1.0  0.0336
  C  C203  1  0.201800  0.816100  0.033500  1.0  -0.1746
  C  C204  1  0.937200  0.806630  0.525090  1.0  -0.0103
  C  C205  1  0.907200  0.847320  0.596700  1.0  -0.1446
  C  C206  1  0.877100  0.795860  0.661100  1.0  -0.1456
  C  C207  1  0.302900  0.298460  0.127940  1.0  0.0289
  C  C208  1  0.309900  0.280560  0.200380  1.0  -0.1654
  C  C209  1  0.341700  0.182700  0.131980  1.0  0.1188
  C  C210  1  0.349600  0.159590  0.269950  1.0  -0.0226
  C  C211  1  0.590400  0.283420  0.971130  1.0  0.1231
  C  C212  1  0.583900  0.164830  0.964700  1.0  0.0335
  C  C213  1  0.701800  0.183900  0.966500  1.0  -0.1752
  C  C214  1  0.437200  0.193370  0.474910  1.0  -0.0104
  C  C215  1  0.407200  0.152680  0.403300  1.0  -0.146
  C  C216  1  0.377100  0.204140  0.338900  1.0  -0.1449
  N  N217  1  0.165000  0.796990  0.793440  1.0  0.0286
  N  N218  1  0.178700  0.915160  0.762680  1.0  -0.3511
  N  N219  1  0.986700  0.032430  0.772450  1.0  -0.3428
  N  N220  1  0.955100  0.529570  0.759510  1.0  0.0364
  N  N221  1  0.665000  0.203010  0.206560  1.0  0.028
  N  N222  1  0.678700  0.084840  0.237320  1.0  -0.3491
  N  N223  1  0.486700  0.967570  0.227550  1.0  -0.3416
  N  N224  1  0.455100  0.470430  0.240490  1.0  0.0357
  N  N225  1  0.415000  0.706560  0.296990  1.0  0.0271
  N  N226  1  0.428700  0.737320  0.415160  1.0  -0.354
  N  N227  1  0.236700  0.727550  0.532430  1.0  -0.3425
  N  N228  1  0.205100  0.740490  0.029570  1.0  0.0366
  N  N229  1  0.915000  0.293440  0.703010  1.0  0.0275
  N  N230  1  0.928700  0.262680  0.584840  1.0  -0.3509
  N  N231  1  0.736700  0.272450  0.467570  1.0  -0.3419
  N  N232  1  0.705100  0.259510  0.970430  1.0  0.0364
  N  N233  1  0.085000  0.703010  0.293440  1.0  0.0283
  N  N234  1  0.071300  0.584840  0.262680  1.0  -0.3494
  N  N235  1  0.263300  0.467570  0.272450  1.0  -0.3434
  N  N236  1  0.294900  0.970430  0.259510  1.0  0.0359
  N  N237  1  0.585000  0.296990  0.706560  1.0  0.0287
  N  N238  1  0.571300  0.415160  0.737320  1.0  -0.3509
  N  N239  1  0.763300  0.532430  0.727550  1.0  -0.3432
  N  N240  1  0.794900  0.029570  0.740490  1.0  0.0358
  N  N241  1  0.835000  0.793440  0.796990  1.0  0.0274
  N  N242  1  0.821300  0.762680  0.915160  1.0  -0.353
  N  N243  1  0.013300  0.772450  0.032430  1.0  -0.3438
  N  N244  1  0.044900  0.759510  0.529570  1.0  0.0359
  N  N245  1  0.335000  0.206560  0.203010  1.0  0.0272
  N  N246  1  0.321300  0.237320  0.084840  1.0  -0.3497
  N  N247  1  0.513300  0.227550  0.967570  1.0  -0.3434
  N  N248  1  0.544900  0.240490  0.470430  1.0  0.0366
  O  O249  1  0.132770  0.025920  0.027450  1.0  -0.9242
  O  O250  1  0.194470  0.029360  0.877010  1.0  -0.9666
  O  O251  1  0.251660  0.966960  0.520730  1.0  -0.8008
  O  O252  1  0.160790  0.033750  0.650690  1.0  -0.7973
  O  O253  1  0.632770  0.974080  0.972550  1.0  -0.9228
  O  O254  1  0.694470  0.970640  0.122990  1.0  -0.9657
  O  O255  1  0.751660  0.033040  0.479270  1.0  -0.8012
  O  O256  1  0.660790  0.966250  0.349310  1.0  -0.7965
  O  O257  1  0.382770  0.472550  0.525920  1.0  -0.9252
  O  O258  1  0.444470  0.622990  0.529360  1.0  -0.9665
  O  O259  1  0.501660  0.979270  0.466960  1.0  -0.8004
  O  O260  1  0.410790  0.849310  0.533750  1.0  -0.7992
  O  O261  1  0.882770  0.527450  0.474080  1.0  -0.9245
  O  O262  1  0.944470  0.377010  0.470640  1.0  -0.9676
  O  O263  1  0.001660  0.020730  0.533040  1.0  -0.8007
  O  O264  1  0.910790  0.150690  0.466250  1.0  -0.7997
  O  O265  1  0.117230  0.474080  0.527450  1.0  -0.9231
  O  O266  1  0.055530  0.470640  0.377010  1.0  -0.9652
  O  O267  1  0.998340  0.533040  0.020730  1.0  -0.8
  O  O268  1  0.089210  0.466250  0.150690  1.0  -0.7962
  O  O269  1  0.617230  0.525920  0.472550  1.0  -0.9239
  O  O270  1  0.555530  0.529360  0.622990  1.0  -0.9669
  O  O271  1  0.498340  0.466960  0.979270  1.0  -0.8006
  O  O272  1  0.589210  0.533750  0.849310  1.0  -0.7965
  O  O273  1  0.867230  0.027450  0.025920  1.0  -0.9249
  O  O274  1  0.805530  0.877010  0.029360  1.0  -0.9667
  O  O275  1  0.748340  0.520730  0.966960  1.0  -0.8001
  O  O276  1  0.839210  0.650690  0.033750  1.0  -0.7995
  O  O277  1  0.367230  0.972550  0.974080  1.0  -0.9258
  O  O278  1  0.305530  0.122990  0.970640  1.0  -0.967
  O  O279  1  0.248340  0.479270  0.033040  1.0  -0.7992
  O  O280  1  0.339210  0.349310  0.966250  1.0  -0.7991
