# generated using pymatgen
data_CoH16C25(NO2)2
_symmetry_space_group_name_H-M   'P 1'
_cell_length_a   16.23870000
_cell_length_b   18.67010000
_cell_length_c   21.65650000
_cell_angle_alpha   90.00000000
_cell_angle_beta   106.13800000
_cell_angle_gamma   90.00000000
_symmetry_Int_Tables_number   1
_chemical_formula_structural   CoH16C25(NO2)2
_chemical_formula_sum   'Co8 H128 C200 N16 O32'
_cell_volume   6307.05333534
_cell_formula_units_Z   8
loop_
 _symmetry_equiv_pos_site_id
 _symmetry_equiv_pos_as_xyz
  1  'x, y, z'
loop_
 _atom_site_type_symbol
 _atom_site_label
 _atom_site_symmetry_multiplicity
 _atom_site_fract_x
 _atom_site_fract_y
 _atom_site_fract_z
 _atom_site_occupancy
 _atom_site_charge
  Co  Co1  1  0.023150  0.537230  0.658820  1.0  0.9389
  Co  Co2  1  0.926950  0.455540  0.720330  1.0  0.905
  Co  Co3  1  0.523150  0.962770  0.158820  1.0  0.939
  Co  Co4  1  0.426950  0.044460  0.220330  1.0  0.9042
  Co  Co5  1  0.476850  0.037230  0.841180  1.0  0.939
  Co  Co6  1  0.573050  0.955540  0.779670  1.0  0.9037
  Co  Co7  1  0.976850  0.462770  0.341180  1.0  0.9391
  Co  Co8  1  0.073050  0.544460  0.279670  1.0  0.9033
  H  H9  1  0.754900  0.021000  0.287600  1.0  0.107
  H  H10  1  0.884800  0.065900  0.344100  1.0  0.1117
  H  H11  1  0.766700  0.219900  0.415100  1.0  0.0957
  H  H12  1  0.636500  0.174200  0.358100  1.0  0.1005
  H  H13  1  0.931900  0.202700  0.298300  1.0  0.1169
  H  H14  1  0.043900  0.181800  0.255200  1.0  0.0998
  H  H15  1  0.187900  0.120400  0.425800  1.0  0.1207
  H  H16  1  0.075400  0.136300  0.467600  1.0  0.122
  H  H17  1  0.128400  0.109200  0.217400  1.0  0.1095
  H  H18  1  0.237300  0.072200  0.178500  1.0  0.0699
  H  H19  1  0.403100  0.112800  0.338500  1.0  0.09
  H  H20  1  0.297500  0.149200  0.383100  1.0  0.1186
  H  H21  1  0.009400  0.296400  0.432000  1.0  0.1044
  H  H22  1  0.028600  0.380400  0.512500  1.0  0.1044
  H  H23  1  0.881700  0.264800  0.595400  1.0  0.1109
  H  H24  1  0.864300  0.180100  0.516600  1.0  0.1264
  H  H25  1  0.819100  0.688900  0.550100  1.0  0.0902
  H  H26  1  0.693200  0.747100  0.499900  1.0  0.1166
  H  H27  1  0.561200  0.573600  0.525700  1.0  0.1055
  H  H28  1  0.686400  0.519300  0.581300  1.0  0.1015
  H  H29  1  0.519100  0.707700  0.593200  1.0  0.1312
  H  H30  1  0.409200  0.669200  0.632700  1.0  0.1166
  H  H31  1  0.268300  0.623000  0.454500  1.0  0.1106
  H  H32  1  0.380200  0.657700  0.414900  1.0  0.1187
  H  H33  1  0.288100  0.669200  0.657700  1.0  0.1194
  H  H34  1  0.177600  0.630500  0.694700  1.0  0.0891
  H  H35  1  0.201300  0.546000  0.503700  1.0  0.1088
  H  H36  1  0.094400  0.509100  0.545100  1.0  0.0795
  H  H37  1  0.610500  0.704700  0.385400  1.0  0.1189
  H  H38  1  0.594000  0.784500  0.302600  1.0  0.1034
  H  H39  1  0.415500  0.887800  0.362000  1.0  0.112
  H  H40  1  0.433300  0.809700  0.445400  1.0  0.1159
  H  H41  1  0.254900  0.479000  0.787600  1.0  0.1076
  H  H42  1  0.384800  0.434100  0.844100  1.0  0.1113
  H  H43  1  0.266700  0.280100  0.915100  1.0  0.0958
  H  H44  1  0.136500  0.325800  0.858100  1.0  0.1009
  H  H45  1  0.431900  0.297300  0.798300  1.0  0.1172
  H  H46  1  0.543900  0.318200  0.755200  1.0  0.0998
  H  H47  1  0.687900  0.379600  0.925800  1.0  0.1209
  H  H48  1  0.575400  0.363700  0.967600  1.0  0.1222
  H  H49  1  0.628400  0.390800  0.717400  1.0  0.1098
  H  H50  1  0.737300  0.427800  0.678500  1.0  0.0701
  H  H51  1  0.903100  0.387200  0.838500  1.0  0.0899
  H  H52  1  0.797500  0.350800  0.883100  1.0  0.1186
  H  H53  1  0.509400  0.203600  0.932000  1.0  0.1049
  H  H54  1  0.528600  0.119600  0.012500  1.0  0.105
  H  H55  1  0.381700  0.235200  0.095400  1.0  0.1108
  H  H56  1  0.364300  0.319900  0.016600  1.0  0.1262
  H  H57  1  0.319100  0.811100  0.050100  1.0  0.0903
  H  H58  1  0.193200  0.752900  0.999900  1.0  0.1171
  H  H59  1  0.061200  0.926400  0.025700  1.0  0.105
  H  H60  1  0.186400  0.980700  0.081300  1.0  0.1013
  H  H61  1  0.019100  0.792300  0.093200  1.0  0.1311
  H  H62  1  0.909200  0.830800  0.132700  1.0  0.1166
  H  H63  1  0.768300  0.877000  0.954500  1.0  0.1105
  H  H64  1  0.880200  0.842300  0.914900  1.0  0.1186
  H  H65  1  0.788100  0.830800  0.157700  1.0  0.1192
  H  H66  1  0.677600  0.869500  0.194700  1.0  0.0891
  H  H67  1  0.701300  0.954000  0.003700  1.0  0.1091
  H  H68  1  0.594400  0.990900  0.045100  1.0  0.0801
  H  H69  1  0.110500  0.795300  0.885400  1.0  0.1182
  H  H70  1  0.094000  0.715500  0.802600  1.0  0.1031
  H  H71  1  0.915500  0.612200  0.862000  1.0  0.1116
  H  H72  1  0.933300  0.690300  0.945400  1.0  0.1164
  H  H73  1  0.745100  0.521000  0.212400  1.0  0.1073
  H  H74  1  0.615200  0.565900  0.155900  1.0  0.1117
  H  H75  1  0.733300  0.719900  0.084900  1.0  0.0951
  H  H76  1  0.863500  0.674200  0.141900  1.0  0.1012
  H  H77  1  0.568100  0.702700  0.201700  1.0  0.1178
  H  H78  1  0.456100  0.681800  0.244800  1.0  0.0998
  H  H79  1  0.312100  0.620400  0.074200  1.0  0.1203
  H  H80  1  0.424600  0.636300  0.032400  1.0  0.1232
  H  H81  1  0.371600  0.609200  0.282600  1.0  0.109
  H  H82  1  0.262700  0.572200  0.321500  1.0  0.0691
  H  H83  1  0.096900  0.612800  0.161500  1.0  0.0908
  H  H84  1  0.202500  0.649200  0.116900  1.0  0.1186
  H  H85  1  0.490600  0.796400  0.068000  1.0  0.1045
  H  H86  1  0.471400  0.880400  0.987500  1.0  0.1041
  H  H87  1  0.618300  0.764800  0.904600  1.0  0.1114
  H  H88  1  0.635700  0.680100  0.983400  1.0  0.1256
  H  H89  1  0.680900  0.188900  0.949900  1.0  0.0909
  H  H90  1  0.806800  0.247100  0.000100  1.0  0.1168
  H  H91  1  0.938800  0.073600  0.974300  1.0  0.1049
  H  H92  1  0.813600  0.019300  0.918700  1.0  0.1009
  H  H93  1  0.980900  0.207700  0.906800  1.0  0.131
  H  H94  1  0.090800  0.169200  0.867300  1.0  0.1178
  H  H95  1  0.231700  0.123000  0.045500  1.0  0.1108
  H  H96  1  0.119800  0.157700  0.085100  1.0  0.1181
  H  H97  1  0.211900  0.169200  0.842300  1.0  0.1185
  H  H98  1  0.322400  0.130500  0.805300  1.0  0.0907
  H  H99  1  0.298700  0.046000  0.996300  1.0  0.1081
  H  H100  1  0.405600  0.009100  0.954900  1.0  0.0799
  H  H101  1  0.889500  0.204700  0.114600  1.0  0.1187
  H  H102  1  0.906000  0.284500  0.197400  1.0  0.1026
  H  H103  1  0.084500  0.387800  0.138000  1.0  0.112
  H  H104  1  0.066700  0.309700  0.054600  1.0  0.1159
  H  H105  1  0.245100  0.979000  0.712400  1.0  0.1073
  H  H106  1  0.115200  0.934100  0.655900  1.0  0.1112
  H  H107  1  0.233300  0.780100  0.584900  1.0  0.0954
  H  H108  1  0.363500  0.825800  0.641900  1.0  0.1016
  H  H109  1  0.068100  0.797300  0.701700  1.0  0.1179
  H  H110  1  0.956100  0.818200  0.744800  1.0  0.0995
  H  H111  1  0.812100  0.879600  0.574200  1.0  0.1201
  H  H112  1  0.924600  0.863700  0.532400  1.0  0.1233
  H  H113  1  0.871600  0.890800  0.782600  1.0  0.109
  H  H114  1  0.762700  0.927800  0.821500  1.0  0.0692
  H  H115  1  0.596900  0.887200  0.661500  1.0  0.0907
  H  H116  1  0.702500  0.850800  0.616900  1.0  0.1188
  H  H117  1  0.990600  0.703600  0.568000  1.0  0.1046
  H  H118  1  0.971400  0.619600  0.487500  1.0  0.104
  H  H119  1  0.118300  0.735200  0.404600  1.0  0.1114
  H  H120  1  0.135700  0.819900  0.483400  1.0  0.1259
  H  H121  1  0.180900  0.311100  0.449900  1.0  0.0912
  H  H122  1  0.306800  0.252900  0.500100  1.0  0.1171
  H  H123  1  0.438800  0.426400  0.474300  1.0  0.1047
  H  H124  1  0.313600  0.480700  0.418700  1.0  0.1013
  H  H125  1  0.480900  0.292300  0.406800  1.0  0.1309
  H  H126  1  0.590800  0.330800  0.367300  1.0  0.1178
  H  H127  1  0.731700  0.377000  0.545500  1.0  0.1108
  H  H128  1  0.619800  0.342300  0.585100  1.0  0.118
  H  H129  1  0.711900  0.330800  0.342300  1.0  0.118
  H  H130  1  0.822400  0.369500  0.305300  1.0  0.0905
  H  H131  1  0.798700  0.454000  0.496300  1.0  0.108
  H  H132  1  0.905600  0.490900  0.454900  1.0  0.0803
  H  H133  1  0.389500  0.295300  0.614600  1.0  0.1187
  H  H134  1  0.406000  0.215500  0.697400  1.0  0.1023
  H  H135  1  0.584500  0.112200  0.638000  1.0  0.1117
  H  H136  1  0.566700  0.190300  0.554600  1.0  0.1164
  C  C137  1  0.597800  0.066700  0.273810  1.0  0.7082
  C  C138  1  0.681000  0.093900  0.314880  1.0  -0.1536
  C  C139  1  0.756900  0.061800  0.312520  1.0  -0.0425
  C  C140  1  0.834800  0.088900  0.346210  1.0  -0.2068
  C  C141  1  0.840400  0.150310  0.383440  1.0  0.2082
  C  C142  1  0.764800  0.180520  0.388500  1.0  -0.1978
  C  C143  1  0.686600  0.152700  0.354360  1.0  -0.027
  C  C144  1  0.991100  0.169100  0.386920  1.0  0.1711
  C  C145  1  0.983100  0.184100  0.324030  1.0  -0.1948
  C  C146  1  0.050700  0.172000  0.298400  1.0  -0.1338
  C  C147  1  0.127500  0.145900  0.335110  1.0  0.0429
  C  C148  1  0.135400  0.135200  0.398980  1.0  -0.1503
  C  C149  1  0.068400  0.145500  0.424240  1.0  -0.1596
  C  C150  1  0.198000  0.127700  0.306970  1.0  0.0601
  C  C151  1  0.183800  0.108000  0.244730  1.0  -0.1931
  C  C152  1  0.250200  0.086100  0.221340  1.0  0.1872
  C  C153  1  0.346300  0.109400  0.314010  1.0  0.1884
  C  C154  1  0.282600  0.131600  0.341280  1.0  -0.1895
  C  C155  1  0.933800  0.229870  0.465730  1.0  0.1938
  C  C156  1  0.983500  0.290120  0.464950  1.0  -0.1879
  C  C157  1  0.994500  0.340550  0.512870  1.0  -0.0265
  C  C158  1  0.955170  0.332670  0.561880  1.0  -0.1482
  C  C159  1  0.907300  0.271510  0.562340  1.0  -0.0043
  C  C160  1  0.896600  0.220820  0.515280  1.0  -0.2232
  C  C161  1  0.961600  0.390480  0.610060  1.0  0.6861
  C  C162  1  0.847000  0.562440  0.609460  1.0  0.6928
  C  C163  1  0.766710  0.598620  0.571900  1.0  -0.1582
  C  C164  1  0.767000  0.666100  0.546400  1.0  -0.0192
  C  C165  1  0.691600  0.700800  0.515350  1.0  -0.2151
  C  C166  1  0.613200  0.666260  0.507250  1.0  0.1778
  C  C167  1  0.613000  0.597700  0.531540  1.0  -0.1904
  C  C168  1  0.688100  0.564800  0.564170  1.0  -0.039
  C  C169  1  0.462200  0.683600  0.500660  1.0  0.1737
  C  C170  1  0.469500  0.689000  0.565370  1.0  -0.2319
  C  C171  1  0.402900  0.666667  0.588720  1.0  -0.0989
  C  C172  1  0.327100  0.640410  0.548650  1.0  0.005
  C  C173  1  0.319400  0.638600  0.482770  1.0  -0.1241
  C  C174  1  0.386200  0.659600  0.458890  1.0  -0.2096
  C  C175  1  0.257300  0.614480  0.574520  1.0  0.1063
  C  C176  1  0.248400  0.637300  0.633060  1.0  -0.1792
  C  C177  1  0.181900  0.613480  0.655360  1.0  0.172
  C  C178  1  0.197700  0.564800  0.542660  1.0  -0.1864
  C  C179  1  0.133300  0.542830  0.567890  1.0  0.1856
  C  C180  1  0.524400  0.748500  0.425070  1.0  0.2077
  C  C181  1  0.571400  0.741900  0.381210  1.0  -0.1812
  C  C182  1  0.561000  0.789810  0.331260  1.0  -0.0448
  C  C183  1  0.502900  0.845480  0.322640  1.0  -0.1395
  C  C184  1  0.455500  0.851100  0.366620  1.0  -0.0305
  C  C185  1  0.466000  0.804200  0.416620  1.0  -0.1699
  C  C186  1  0.493100  0.897970  0.269640  1.0  0.692
  C  C187  1  0.097800  0.433300  0.773810  1.0  0.7087
  C  C188  1  0.181000  0.406100  0.814880  1.0  -0.153
  C  C189  1  0.256900  0.438200  0.812520  1.0  -0.0435
  C  C190  1  0.334800  0.411100  0.846210  1.0  -0.2058
  C  C191  1  0.340400  0.349690  0.883440  1.0  0.2066
  C  C192  1  0.264800  0.319480  0.888500  1.0  -0.1981
  C  C193  1  0.186600  0.347300  0.854360  1.0  -0.0274
  C  C194  1  0.491100  0.330900  0.886920  1.0  0.1721
  C  C195  1  0.483100  0.315900  0.824030  1.0  -0.1952
  C  C196  1  0.550700  0.328000  0.798400  1.0  -0.1339
  C  C197  1  0.627500  0.354100  0.835110  1.0  0.043
  C  C198  1  0.635400  0.364800  0.898980  1.0  -0.15
  C  C199  1  0.568400  0.354500  0.924240  1.0  -0.1614
  C  C200  1  0.698000  0.372300  0.806970  1.0  0.0604
  C  C201  1  0.683800  0.392000  0.744730  1.0  -0.1939
  C  C202  1  0.750200  0.413900  0.721340  1.0  0.1875
  C  C203  1  0.846300  0.390600  0.814010  1.0  0.1884
  C  C204  1  0.782600  0.368400  0.841280  1.0  -0.1906
  C  C205  1  0.433800  0.270130  0.965730  1.0  0.1929
  C  C206  1  0.483500  0.209880  0.964950  1.0  -0.1882
  C  C207  1  0.494500  0.159450  0.012870  1.0  -0.0266
  C  C208  1  0.455170  0.167330  0.061880  1.0  -0.1466
  C  C209  1  0.407300  0.228490  0.062340  1.0  -0.0021
  C  C210  1  0.396600  0.279180  0.015280  1.0  -0.2219
  C  C211  1  0.461600  0.109520  0.110060  1.0  0.6865
  C  C212  1  0.347000  0.937560  0.109460  1.0  0.6927
  C  C213  1  0.266710  0.901380  0.071900  1.0  -0.1575
  C  C214  1  0.267000  0.833900  0.046400  1.0  -0.0198
  C  C215  1  0.191600  0.799200  0.015350  1.0  -0.2145
  C  C216  1  0.113200  0.833740  0.007250  1.0  0.1776
  C  C217  1  0.113000  0.902300  0.031540  1.0  -0.1903
  C  C218  1  0.188100  0.935200  0.064170  1.0  -0.0392
  C  C219  1  0.962200  0.816400  0.000660  1.0  0.1736
  C  C220  1  0.969500  0.811000  0.065370  1.0  -0.2276
  C  C221  1  0.902900  0.833400  0.088720  1.0  -0.0985
  C  C222  1  0.827100  0.859590  0.048650  1.0  0.0047
  C  C223  1  0.819400  0.861400  0.982770  1.0  -0.1242
  C  C224  1  0.886200  0.840400  0.958890  1.0  -0.2098
  C  C225  1  0.757300  0.885520  0.074520  1.0  0.1061
  C  C226  1  0.748400  0.862700  0.133060  1.0  -0.1794
  C  C227  1  0.681900  0.886520  0.155360  1.0  0.1719
  C  C228  1  0.697700  0.935200  0.042660  1.0  -0.1867
  C  C229  1  0.633300  0.957170  0.067890  1.0  0.1861
  C  C230  1  0.024400  0.751500  0.925070  1.0  0.2081
  C  C231  1  0.071400  0.758100  0.881210  1.0  -0.1817
  C  C232  1  0.061000  0.710190  0.831260  1.0  -0.0452
  C  C233  1  0.002900  0.654520  0.822640  1.0  -0.1406
  C  C234  1  0.955500  0.648900  0.866620  1.0  -0.0298
  C  C235  1  0.966000  0.695800  0.916620  1.0  -0.1706
  C  C236  1  0.993100  0.602030  0.769640  1.0  0.6916
  C  C237  1  0.902200  0.566700  0.226190  1.0  0.7093
  C  C238  1  0.819000  0.593900  0.185120  1.0  -0.1548
  C  C239  1  0.743100  0.561800  0.187480  1.0  -0.0419
  C  C240  1  0.665200  0.588900  0.153790  1.0  -0.2065
  C  C241  1  0.659600  0.650310  0.116560  1.0  0.2077
  C  C242  1  0.735200  0.680520  0.111500  1.0  -0.1988
  C  C243  1  0.813400  0.652700  0.145640  1.0  -0.0282
  C  C244  1  0.508900  0.669100  0.113080  1.0  0.1714
  C  C245  1  0.516900  0.684100  0.175970  1.0  -0.1956
  C  C246  1  0.449300  0.672000  0.201600  1.0  -0.1344
  C  C247  1  0.372500  0.645900  0.164890  1.0  0.0429
  C  C248  1  0.364600  0.635200  0.101020  1.0  -0.1479
  C  C249  1  0.431600  0.645500  0.075760  1.0  -0.1589
  C  C250  1  0.302000  0.627700  0.193030  1.0  0.0588
  C  C251  1  0.316200  0.608000  0.255270  1.0  -0.194
  C  C252  1  0.249800  0.586100  0.278660  1.0  0.1876
  C  C253  1  0.153700  0.609400  0.185990  1.0  0.1866
  C  C254  1  0.217400  0.631600  0.158720  1.0  -0.1908
  C  C255  1  0.566200  0.729870  0.034270  1.0  0.1917
  C  C256  1  0.516500  0.790120  0.035050  1.0  -0.1909
  C  C257  1  0.505500  0.840550  0.987130  1.0  -0.0275
  C  C258  1  0.544830  0.832670  0.938120  1.0  -0.1457
  C  C259  1  0.592700  0.771510  0.937660  1.0  -0.0042
  C  C260  1  0.603400  0.720820  0.984720  1.0  -0.2229
  C  C261  1  0.538400  0.890480  0.889940  1.0  0.6865
  C  C262  1  0.653000  0.062440  0.890540  1.0  0.6934
  C  C263  1  0.733290  0.098620  0.928100  1.0  -0.159
  C  C264  1  0.733000  0.166100  0.953600  1.0  -0.0219
  C  C265  1  0.808400  0.200800  0.984650  1.0  -0.2154
  C  C266  1  0.886800  0.166260  0.992750  1.0  0.1778
  C  C267  1  0.887000  0.097700  0.968460  1.0  -0.191
  C  C268  1  0.811900  0.064800  0.935830  1.0  -0.0381
  C  C269  1  0.037800  0.183600  0.999340  1.0  0.1732
  C  C270  1  0.030500  0.189000  0.934630  1.0  -0.2265
  C  C271  1  0.097100  0.166600  0.911280  1.0  -0.0972
  C  C272  1  0.172900  0.140410  0.951350  1.0  0.0052
  C  C273  1  0.180600  0.138600  0.017230  1.0  -0.1243
  C  C274  1  0.113800  0.159600  0.041110  1.0  -0.2113
  C  C275  1  0.242700  0.114480  0.925480  1.0  0.1075
  C  C276  1  0.251600  0.137300  0.866940  1.0  -0.1795
  C  C277  1  0.318100  0.113480  0.844640  1.0  0.1715
  C  C278  1  0.302300  0.064800  0.957340  1.0  -0.1869
  C  C279  1  0.366700  0.042830  0.932110  1.0  0.1845
  C  C280  1  0.975600  0.248500  0.074930  1.0  0.208
  C  C281  1  0.928600  0.241900  0.118790  1.0  -0.1824
  C  C282  1  0.939000  0.289810  0.168740  1.0  -0.0433
  C  C283  1  0.997100  0.345480  0.177360  1.0  -0.1377
  C  C284  1  0.044500  0.351100  0.133380  1.0  -0.0295
  C  C285  1  0.034000  0.304200  0.083380  1.0  -0.1687
  C  C286  1  0.006900  0.397970  0.230360  1.0  0.6921
  C  C287  1  0.402200  0.933300  0.726190  1.0  0.7096
  C  C288  1  0.319000  0.906100  0.685120  1.0  -0.1546
  C  C289  1  0.243100  0.938200  0.687480  1.0  -0.0429
  C  C290  1  0.165200  0.911100  0.653790  1.0  -0.2068
  C  C291  1  0.159600  0.849690  0.616560  1.0  0.2061
  C  C292  1  0.235200  0.819480  0.611500  1.0  -0.1993
  C  C293  1  0.313400  0.847300  0.645640  1.0  -0.0284
  C  C294  1  0.008900  0.830900  0.613080  1.0  0.1722
  C  C295  1  0.016900  0.815900  0.675970  1.0  -0.1956
  C  C296  1  0.949300  0.828000  0.701600  1.0  -0.1345
  C  C297  1  0.872500  0.854100  0.664890  1.0  0.043
  C  C298  1  0.864600  0.864800  0.601020  1.0  -0.1488
  C  C299  1  0.931600  0.854500  0.575760  1.0  -0.1618
  C  C300  1  0.802000  0.872300  0.693030  1.0  0.0589
  C  C301  1  0.816200  0.892000  0.755270  1.0  -0.1939
  C  C302  1  0.749800  0.913900  0.778660  1.0  0.1879
  C  C303  1  0.653700  0.890600  0.685990  1.0  0.1865
  C  C304  1  0.717400  0.868400  0.658720  1.0  -0.1914
  C  C305  1  0.066200  0.770130  0.534270  1.0  0.1919
  C  C306  1  0.016500  0.709880  0.535050  1.0  -0.1909
  C  C307  1  0.005500  0.659450  0.487130  1.0  -0.0269
  C  C308  1  0.044830  0.667330  0.438120  1.0  -0.1481
  C  C309  1  0.092700  0.728490  0.437660  1.0  -0.0027
  C  C310  1  0.103400  0.779180  0.484720  1.0  -0.2185
  C  C311  1  0.038400  0.609520  0.389940  1.0  0.6871
  C  C312  1  0.153000  0.437560  0.390540  1.0  0.6929
  C  C313  1  0.233290  0.401380  0.428100  1.0  -0.1583
  C  C314  1  0.233000  0.333900  0.453600  1.0  -0.0219
  C  C315  1  0.308400  0.299200  0.484650  1.0  -0.2152
  C  C316  1  0.386800  0.333740  0.492750  1.0  0.1776
  C  C317  1  0.387000  0.402300  0.468460  1.0  -0.189
  C  C318  1  0.311900  0.435200  0.435830  1.0  -0.0389
  C  C319  1  0.537800  0.316400  0.499340  1.0  0.1733
  C  C320  1  0.530500  0.311000  0.434630  1.0  -0.2264
  C  C321  1  0.597100  0.333400  0.411280  1.0  -0.0981
  C  C322  1  0.672900  0.359590  0.451350  1.0  0.0051
  C  C323  1  0.680600  0.361400  0.517230  1.0  -0.1244
  C  C324  1  0.613800  0.340400  0.541110  1.0  -0.211
  C  C325  1  0.742700  0.385520  0.425480  1.0  0.1076
  C  C326  1  0.751600  0.362700  0.366940  1.0  -0.1793
  C  C327  1  0.818100  0.386520  0.344640  1.0  0.1715
  C  C328  1  0.802300  0.435200  0.457340  1.0  -0.1868
  C  C329  1  0.866700  0.457170  0.432110  1.0  0.1859
  C  C330  1  0.475600  0.251500  0.574930  1.0  0.2084
  C  C331  1  0.428600  0.258100  0.618790  1.0  -0.1829
  C  C332  1  0.439000  0.210190  0.668740  1.0  -0.043
  C  C333  1  0.497100  0.154520  0.677360  1.0  -0.1388
  C  C334  1  0.544500  0.148900  0.633380  1.0  -0.0303
  C  C335  1  0.534000  0.195800  0.583380  1.0  -0.1699
  C  C336  1  0.506900  0.102030  0.730360  1.0  0.692
  N  N337  1  0.330300  0.083770  0.255410  1.0  -0.3084
  N  N338  1  0.123140  0.566980  0.623090  1.0  -0.3272
  N  N339  1  0.921140  0.180150  0.414450  1.0  -0.1711
  N  N340  1  0.534350  0.700520  0.477270  1.0  -0.1457
  N  N341  1  0.830300  0.416230  0.755410  1.0  -0.3079
  N  N342  1  0.623140  0.933020  0.123090  1.0  -0.3277
  N  N343  1  0.421140  0.319850  0.914450  1.0  -0.1715
  N  N344  1  0.034350  0.799480  0.977270  1.0  -0.146
  N  N345  1  0.169700  0.583770  0.244590  1.0  -0.3076
  N  N346  1  0.376860  0.066980  0.876910  1.0  -0.328
  N  N347  1  0.578860  0.680150  0.085550  1.0  -0.1727
  N  N348  1  0.965650  0.200520  0.022730  1.0  -0.146
  N  N349  1  0.669700  0.916230  0.744590  1.0  -0.307
  N  N350  1  0.876860  0.433020  0.376910  1.0  -0.3277
  N  N351  1  0.078860  0.819850  0.585550  1.0  -0.1728
  N  N352  1  0.465650  0.299480  0.522730  1.0  -0.1462
  O  O353  1  0.926210  0.379840  0.654360  1.0  -0.5782
  O  O354  1  0.999810  0.447120  0.602940  1.0  -0.5873
  O  O355  1  0.529650  0.088080  0.284880  1.0  -0.5736
  O  O356  1  0.600950  0.024720  0.229460  1.0  -0.6218
  O  O357  1  0.840160  0.511230  0.645250  1.0  -0.6009
  O  O358  1  0.917730  0.585610  0.603320  1.0  -0.585
  O  O359  1  0.444840  0.950860  0.269590  1.0  -0.6096
  O  O360  1  0.533890  0.887340  0.228780  1.0  -0.5827
  O  O361  1  0.426210  0.120160  0.154360  1.0  -0.5784
  O  O362  1  0.499810  0.052880  0.102940  1.0  -0.5874
  O  O363  1  0.029650  0.411920  0.784880  1.0  -0.5738
  O  O364  1  0.100950  0.475280  0.729460  1.0  -0.6213
  O  O365  1  0.340160  0.988770  0.145250  1.0  -0.6004
  O  O366  1  0.417730  0.914390  0.103320  1.0  -0.5844
  O  O367  1  0.944840  0.549140  0.769590  1.0  -0.6086
  O  O368  1  0.033890  0.612660  0.728780  1.0  -0.5824
  O  O369  1  0.573790  0.879840  0.845640  1.0  -0.5779
  O  O370  1  0.500190  0.947120  0.897060  1.0  -0.5881
  O  O371  1  0.970350  0.588080  0.215120  1.0  -0.5741
  O  O372  1  0.899050  0.524720  0.270540  1.0  -0.6216
  O  O373  1  0.659840  0.011230  0.854750  1.0  -0.5999
  O  O374  1  0.582270  0.085610  0.896680  1.0  -0.5842
  O  O375  1  0.055160  0.450860  0.230410  1.0  -0.6112
  O  O376  1  0.966110  0.387340  0.271220  1.0  -0.5833
  O  O377  1  0.073790  0.620160  0.345640  1.0  -0.5776
  O  O378  1  0.000190  0.552880  0.397060  1.0  -0.5878
  O  O379  1  0.470350  0.911920  0.715120  1.0  -0.5738
  O  O380  1  0.399050  0.975280  0.770540  1.0  -0.6209
  O  O381  1  0.159840  0.488770  0.354750  1.0  -0.5996
  O  O382  1  0.082270  0.414390  0.396680  1.0  -0.5839
  O  O383  1  0.555160  0.049140  0.730410  1.0  -0.6105
  O  O384  1  0.466110  0.112660  0.771220  1.0  -0.5829
