# generated using pymatgen
data_CdH8C8(NO3)2
_symmetry_space_group_name_H-M   'P 1'
_cell_length_a   13.38000000
_cell_length_b   17.64000000
_cell_length_c   21.46000000
_cell_angle_alpha   90.00000000
_cell_angle_beta   90.00000000
_cell_angle_gamma   90.00000000
_symmetry_Int_Tables_number   1
_chemical_formula_structural   CdH8C8(NO3)2
_chemical_formula_sum   'Cd12 H96 C96 N24 O72'
_cell_volume   5065.05787200
_cell_formula_units_Z   12
loop_
 _symmetry_equiv_pos_site_id
 _symmetry_equiv_pos_as_xyz
  1  'x, y, z'
loop_
 _atom_site_type_symbol
 _atom_site_label
 _atom_site_symmetry_multiplicity
 _atom_site_fract_x
 _atom_site_fract_y
 _atom_site_fract_z
 _atom_site_occupancy
 _atom_site_charge
  Cd  Cd1  1  0.702940  0.872220  0.143130  1.0  1.2409
  Cd  Cd2  1  0.670520  0.056590  0.234250  1.0  1.1362
  Cd  Cd3  1  0.852880  0.199280  0.219880  1.0  1.1949
  Cd  Cd4  1  0.297060  0.127780  0.643130  1.0  1.2415
  Cd  Cd5  1  0.329480  0.943410  0.734250  1.0  1.1358
  Cd  Cd6  1  0.147120  0.800720  0.719880  1.0  1.1951
  Cd  Cd7  1  0.797060  0.372220  0.143130  1.0  1.2413
  Cd  Cd8  1  0.829480  0.556590  0.234250  1.0  1.1357
  Cd  Cd9  1  0.647120  0.699280  0.219880  1.0  1.1951
  Cd  Cd10  1  0.202940  0.627780  0.643130  1.0  1.2411
  Cd  Cd11  1  0.170520  0.443410  0.734250  1.0  1.1362
  Cd  Cd12  1  0.352880  0.300720  0.719880  1.0  1.1949
  H  H13  1  0.006600  0.907900  0.162100  1.0  0.0936
  H  H14  1  0.950200  0.914600  0.098200  1.0  0.0841
  H  H15  1  0.012400  0.042800  0.167800  1.0  0.1213
  H  H16  1  0.949300  0.046900  0.106000  1.0  0.1381
  H  H17  1  0.326100  0.035000  0.168700  1.0  0.0911
  H  H18  1  0.378400  0.055600  0.105500  1.0  0.068
  H  H19  1  0.448500  0.933100  0.103000  1.0  0.1091
  H  H20  1  0.400900  0.917000  0.168700  1.0  0.1328
  H  H21  1  0.240000  0.970400  0.918000  1.0  0.0862
  H  H22  1  0.139600  0.924700  0.917200  1.0  0.095
  H  H23  1  0.329500  0.853900  0.936600  1.0  0.1277
  H  H24  1  0.227600  0.809300  0.930700  1.0  0.1068
  H  H25  1  0.396300  0.637000  0.080000  1.0  0.0857
  H  H26  1  0.349200  0.687300  0.132800  1.0  0.0974
  H  H27  1  0.443700  0.745200  0.024700  1.0  0.1477
  H  H28  1  0.390400  0.797300  0.073600  1.0  0.1357
  H  H29  1  0.960600  0.767000  0.045300  1.0  0.0884
  H  H30  1  0.022500  0.788600  0.104700  1.0  0.0806
  H  H31  1  0.989600  0.670300  0.148600  1.0  0.1375
  H  H32  1  0.932200  0.645300  0.088300  1.0  0.1385
  H  H33  1  0.097000  0.588600  0.904300  1.0  0.0951
  H  H34  1  0.213100  0.576800  0.901900  1.0  0.0837
  H  H35  1  0.110300  0.702000  0.851500  1.0  0.1371
  H  H36  1  0.227200  0.698800  0.854800  1.0  0.1338
  H  H37  1  0.993400  0.092100  0.662100  1.0  0.0935
  H  H38  1  0.049800  0.085400  0.598200  1.0  0.0833
  H  H39  1  0.987600  0.957200  0.667800  1.0  0.1215
  H  H40  1  0.050700  0.953100  0.606000  1.0  0.1368
  H  H41  1  0.673900  0.965000  0.668700  1.0  0.0915
  H  H42  1  0.621600  0.944400  0.605500  1.0  0.0696
  H  H43  1  0.551500  0.066900  0.603000  1.0  0.1117
  H  H44  1  0.599100  0.083000  0.668700  1.0  0.1325
  H  H45  1  0.760000  0.029600  0.418000  1.0  0.086
  H  H46  1  0.860400  0.075300  0.417200  1.0  0.0941
  H  H47  1  0.670500  0.146100  0.436600  1.0  0.1291
  H  H48  1  0.772400  0.190700  0.430700  1.0  0.1041
  H  H49  1  0.603700  0.363000  0.580000  1.0  0.086
  H  H50  1  0.650800  0.312700  0.632800  1.0  0.0976
  H  H51  1  0.556300  0.254800  0.524700  1.0  0.1463
  H  H52  1  0.609600  0.202700  0.573600  1.0  0.1346
  H  H53  1  0.039400  0.233000  0.545300  1.0  0.0876
  H  H54  1  0.977500  0.211400  0.604700  1.0  0.081
  H  H55  1  0.010400  0.329700  0.648600  1.0  0.1363
  H  H56  1  0.067800  0.354700  0.588300  1.0  0.1379
  H  H57  1  0.903000  0.411400  0.404300  1.0  0.095
  H  H58  1  0.786900  0.423200  0.401900  1.0  0.0843
  H  H59  1  0.889700  0.298000  0.351500  1.0  0.1353
  H  H60  1  0.772800  0.301200  0.354800  1.0  0.1293
  H  H61  1  0.493400  0.407900  0.162100  1.0  0.0936
  H  H62  1  0.549800  0.414600  0.098200  1.0  0.0835
  H  H63  1  0.487600  0.542800  0.167800  1.0  0.1199
  H  H64  1  0.550700  0.546900  0.106000  1.0  0.1359
  H  H65  1  0.173900  0.535000  0.168700  1.0  0.0911
  H  H66  1  0.121600  0.555600  0.105500  1.0  0.0689
  H  H67  1  0.051500  0.433100  0.103000  1.0  0.1117
  H  H68  1  0.099100  0.417000  0.168700  1.0  0.1329
  H  H69  1  0.260000  0.470400  0.918000  1.0  0.0866
  H  H70  1  0.360400  0.424700  0.917200  1.0  0.0939
  H  H71  1  0.170500  0.353900  0.936600  1.0  0.1296
  H  H72  1  0.272400  0.309300  0.930700  1.0  0.106
  H  H73  1  0.103700  0.137000  0.080000  1.0  0.0858
  H  H74  1  0.150800  0.187300  0.132800  1.0  0.0976
  H  H75  1  0.056300  0.245200  0.024700  1.0  0.1463
  H  H76  1  0.109600  0.297300  0.073600  1.0  0.1352
  H  H77  1  0.539400  0.267000  0.045300  1.0  0.0879
  H  H78  1  0.477500  0.288600  0.104700  1.0  0.0806
  H  H79  1  0.510400  0.170300  0.148600  1.0  0.1361
  H  H80  1  0.567800  0.145300  0.088300  1.0  0.1392
  H  H81  1  0.403000  0.088600  0.904300  1.0  0.0942
  H  H82  1  0.286900  0.076800  0.901900  1.0  0.0831
  H  H83  1  0.389700  0.202000  0.851500  1.0  0.1366
  H  H84  1  0.272800  0.198800  0.854800  1.0  0.1297
  H  H85  1  0.506600  0.592100  0.662100  1.0  0.0935
  H  H86  1  0.450200  0.585400  0.598200  1.0  0.0843
  H  H87  1  0.512400  0.457200  0.667800  1.0  0.1231
  H  H88  1  0.449300  0.453100  0.606000  1.0  0.139
  H  H89  1  0.826100  0.465000  0.668700  1.0  0.0913
  H  H90  1  0.878400  0.444400  0.605500  1.0  0.0693
  H  H91  1  0.948500  0.566900  0.603000  1.0  0.1098
  H  H92  1  0.900900  0.583000  0.668700  1.0  0.1324
  H  H93  1  0.740000  0.529600  0.418000  1.0  0.0861
  H  H94  1  0.639600  0.575300  0.417200  1.0  0.0947
  H  H95  1  0.829500  0.646100  0.436600  1.0  0.1274
  H  H96  1  0.727600  0.690700  0.430700  1.0  0.1049
  H  H97  1  0.896300  0.863000  0.580000  1.0  0.0851
  H  H98  1  0.849200  0.812700  0.632800  1.0  0.0973
  H  H99  1  0.943700  0.754800  0.524700  1.0  0.1476
  H  H100  1  0.890400  0.702700  0.573600  1.0  0.1357
  H  H101  1  0.460600  0.733000  0.545300  1.0  0.0886
  H  H102  1  0.522500  0.711400  0.604700  1.0  0.0809
  H  H103  1  0.489600  0.829700  0.648600  1.0  0.1366
  H  H104  1  0.432200  0.854700  0.588300  1.0  0.1381
  H  H105  1  0.597000  0.911400  0.404300  1.0  0.0952
  H  H106  1  0.713100  0.923200  0.401900  1.0  0.0842
  H  H107  1  0.610300  0.798000  0.351500  1.0  0.1366
  H  H108  1  0.727200  0.801200  0.354800  1.0  0.134
  C  C109  1  0.178900  0.966100  0.128600  1.0  0.6123
  C  C110  1  0.275500  0.967200  0.032800  1.0  0.6049
  C  C111  1  0.100800  0.930200  0.029800  1.0  0.614
  C  C112  1  0.999000  0.938800  0.125000  1.0  0.0687
  C  C113  1  0.962300  0.016900  0.143100  1.0  -0.4098
  C  C114  1  0.867200  0.007300  0.180300  1.0  0.7961
  C  C115  1  0.349400  0.014400  0.129400  1.0  0.0842
  C  C116  1  0.427400  0.956300  0.141800  1.0  -0.3637
  C  C117  1  0.517900  0.995900  0.173800  1.0  0.7318
  C  C118  1  0.205800  0.926800  0.935500  1.0  0.0735
  C  C119  1  0.263700  0.854300  0.917600  1.0  -0.3495
  C  C120  1  0.271200  0.858200  0.847200  1.0  0.7556
  C  C121  1  0.260400  0.647800  0.997300  1.0  0.6092
  C  C122  1  0.082600  0.684100  0.991900  1.0  0.631
  C  C123  1  0.186100  0.722700  0.079800  1.0  0.6037
  C  C124  1  0.362100  0.684400  0.088400  1.0  0.0703
  C  C125  1  0.428100  0.750700  0.068600  1.0  -0.377
  C  C126  1  0.524700  0.757800  0.104500  1.0  0.7847
  C  C127  1  0.004100  0.747000  0.077500  1.0  0.083
  C  C128  1  0.947500  0.688200  0.114900  1.0  -0.3842
  C  C129  1  0.849900  0.720000  0.142100  1.0  0.7924
  C  C130  1  0.160900  0.614700  0.905500  1.0  0.0909
  C  C131  1  0.167400  0.668200  0.850600  1.0  -0.4042
  C  C132  1  0.170100  0.628300  0.788800  1.0  0.8211
  C  C133  1  0.821100  0.033900  0.628600  1.0  0.6087
  C  C134  1  0.724500  0.032800  0.532800  1.0  0.6043
  C  C135  1  0.899200  0.069800  0.529800  1.0  0.6163
  C  C136  1  0.001000  0.061200  0.625000  1.0  0.0684
  C  C137  1  0.037700  0.983100  0.643100  1.0  -0.4118
  C  C138  1  0.132800  0.992700  0.680300  1.0  0.7943
  C  C139  1  0.650600  0.985600  0.629400  1.0  0.0838
  C  C140  1  0.572600  0.043700  0.641800  1.0  -0.3629
  C  C141  1  0.482100  0.004100  0.673800  1.0  0.7313
  C  C142  1  0.794200  0.073200  0.435500  1.0  0.0714
  C  C143  1  0.736300  0.145700  0.417600  1.0  -0.3481
  C  C144  1  0.728800  0.141800  0.347200  1.0  0.7565
  C  C145  1  0.739600  0.352200  0.497300  1.0  0.6081
  C  C146  1  0.917400  0.315900  0.491900  1.0  0.6319
  C  C147  1  0.813900  0.277300  0.579800  1.0  0.6034
  C  C148  1  0.637900  0.315600  0.588400  1.0  0.0694
  C  C149  1  0.571900  0.249300  0.568600  1.0  -0.3765
  C  C150  1  0.475300  0.242200  0.604500  1.0  0.7854
  C  C151  1  0.995900  0.253000  0.577500  1.0  0.0822
  C  C152  1  0.052500  0.311800  0.614900  1.0  -0.3794
  C  C153  1  0.150100  0.280000  0.642100  1.0  0.7909
  C  C154  1  0.839100  0.385300  0.405500  1.0  0.089
  C  C155  1  0.832600  0.331800  0.350600  1.0  -0.4043
  C  C156  1  0.829900  0.371700  0.288800  1.0  0.8208
  C  C157  1  0.321100  0.466100  0.128600  1.0  0.6117
  C  C158  1  0.224500  0.467200  0.032800  1.0  0.6044
  C  C159  1  0.399200  0.430200  0.029800  1.0  0.6153
  C  C160  1  0.501000  0.438800  0.125000  1.0  0.0681
  C  C161  1  0.537700  0.516900  0.143100  1.0  -0.4126
  C  C162  1  0.632800  0.507300  0.180300  1.0  0.7945
  C  C163  1  0.150600  0.514400  0.129400  1.0  0.0836
  C  C164  1  0.072600  0.456300  0.141800  1.0  -0.3641
  C  C165  1  0.982100  0.495900  0.173800  1.0  0.7311
  C  C166  1  0.294200  0.426800  0.935500  1.0  0.0713
  C  C167  1  0.236300  0.354300  0.917600  1.0  -0.351
  C  C168  1  0.228800  0.358200  0.847200  1.0  0.756
  C  C169  1  0.239600  0.147800  0.997300  1.0  0.6078
  C  C170  1  0.417400  0.184100  0.991900  1.0  0.6317
  C  C171  1  0.313900  0.222700  0.079800  1.0  0.6032
  C  C172  1  0.137900  0.184400  0.088400  1.0  0.0682
  C  C173  1  0.071900  0.250700  0.068600  1.0  -0.3757
  C  C174  1  0.975300  0.257800  0.104500  1.0  0.7856
  C  C175  1  0.495900  0.247000  0.077500  1.0  0.0824
  C  C176  1  0.552500  0.188200  0.114900  1.0  -0.3822
  C  C177  1  0.650100  0.220000  0.142100  1.0  0.7905
  C  C178  1  0.339100  0.114700  0.905500  1.0  0.09
  C  C179  1  0.332600  0.168200  0.850600  1.0  -0.4041
  C  C180  1  0.329900  0.128300  0.788800  1.0  0.8207
  C  C181  1  0.678900  0.533900  0.628600  1.0  0.609
  C  C182  1  0.775500  0.532800  0.532800  1.0  0.6045
  C  C183  1  0.600800  0.569800  0.529800  1.0  0.6157
  C  C184  1  0.499000  0.561200  0.625000  1.0  0.069
  C  C185  1  0.462300  0.483100  0.643100  1.0  -0.4087
  C  C186  1  0.367200  0.492700  0.680300  1.0  0.7959
  C  C187  1  0.849400  0.485600  0.629400  1.0  0.0844
  C  C188  1  0.927400  0.543700  0.641800  1.0  -0.3629
  C  C189  1  0.017900  0.504100  0.673800  1.0  0.7319
  C  C190  1  0.705800  0.573200  0.435500  1.0  0.073
  C  C191  1  0.763700  0.645700  0.417600  1.0  -0.3459
  C  C192  1  0.771200  0.641800  0.347200  1.0  0.7559
  C  C193  1  0.760400  0.852200  0.497300  1.0  0.6093
  C  C194  1  0.582600  0.815900  0.491900  1.0  0.6311
  C  C195  1  0.686100  0.777300  0.579800  1.0  0.6039
  C  C196  1  0.862100  0.815600  0.588400  1.0  0.0712
  C  C197  1  0.928100  0.749300  0.568600  1.0  -0.3777
  C  C198  1  0.024700  0.742200  0.604500  1.0  0.7845
  C  C199  1  0.504100  0.753000  0.577500  1.0  0.0822
  C  C200  1  0.447500  0.811800  0.614900  1.0  -0.3815
  C  C201  1  0.349900  0.780000  0.642100  1.0  0.7926
  C  C202  1  0.660900  0.885300  0.405500  1.0  0.09
  C  C203  1  0.667400  0.831800  0.350600  1.0  -0.4037
  C  C204  1  0.670100  0.871700  0.288800  1.0  0.8212
  N  N205  1  0.095200  0.944200  0.092400  1.0  -0.3319
  N  N206  1  0.265000  0.983300  0.095400  1.0  -0.3246
  N  N207  1  0.196200  0.937200  0.003000  1.0  -0.3048
  N  N208  1  0.264200  0.686400  0.053100  1.0  -0.3105
  N  N209  1  0.093000  0.716900  0.048900  1.0  -0.3086
  N  N210  1  0.170900  0.653100  0.965100  1.0  -0.3337
  N  N211  1  0.904800  0.055800  0.592400  1.0  -0.3321
  N  N212  1  0.735000  0.016700  0.595400  1.0  -0.3246
  N  N213  1  0.803800  0.062800  0.503000  1.0  -0.3047
  N  N214  1  0.735800  0.313600  0.553100  1.0  -0.3104
  N  N215  1  0.907000  0.283100  0.548900  1.0  -0.31
  N  N216  1  0.829100  0.346900  0.465100  1.0  -0.3354
  N  N217  1  0.404800  0.444200  0.092400  1.0  -0.3319
  N  N218  1  0.235000  0.483300  0.095400  1.0  -0.3247
  N  N219  1  0.303800  0.437200  0.003000  1.0  -0.305
  N  N220  1  0.235800  0.186400  0.053100  1.0  -0.3104
  N  N221  1  0.407000  0.216900  0.048900  1.0  -0.3099
  N  N222  1  0.329100  0.153100  0.965100  1.0  -0.3352
  N  N223  1  0.595200  0.555800  0.592400  1.0  -0.332
  N  N224  1  0.765000  0.516700  0.595400  1.0  -0.3246
  N  N225  1  0.696200  0.562800  0.503000  1.0  -0.3046
  N  N226  1  0.764200  0.813600  0.553100  1.0  -0.3104
  N  N227  1  0.593000  0.783100  0.548900  1.0  -0.3088
  N  N228  1  0.670900  0.846900  0.465100  1.0  -0.3339
  O  O229  1  0.174600  0.974200  0.183600  1.0  -0.4835
  O  O230  1  0.353000  0.983900  0.006000  1.0  -0.5113
  O  O231  1  0.028900  0.911400  0.000200  1.0  -0.5
  O  O232  1  0.826600  0.945100  0.185100  1.0  -0.6377
  O  O233  1  0.830500  0.066900  0.205600  1.0  -0.6758
  O  O234  1  0.502000  0.042600  0.215100  1.0  -0.5531
  O  O235  1  0.605700  0.981900  0.153800  1.0  -0.6951
  O  O236  1  0.344100  0.889500  0.825300  1.0  -0.5827
  O  O237  1  0.196100  0.835400  0.816100  1.0  -0.6945
  O  O238  1  0.329800  0.609000  0.978600  1.0  -0.5096
  O  O239  1  0.006200  0.681900  0.964200  1.0  -0.4797
  O  O240  1  0.193200  0.758300  0.128700  1.0  -0.5126
  O  O241  1  0.552700  0.702200  0.135300  1.0  -0.6264
  O  O242  1  0.568500  0.819800  0.099400  1.0  -0.6517
  O  O243  1  0.165200  0.559900  0.787100  1.0  -0.5948
  O  O244  1  0.170800  0.671800  0.739800  1.0  -0.7479
  O  O245  1  0.805000  0.680200  0.184500  1.0  -0.7081
  O  O246  1  0.820300  0.783000  0.125100  1.0  -0.6387
  O  O247  1  0.825400  0.025800  0.683600  1.0  -0.4835
  O  O248  1  0.647000  0.016100  0.506000  1.0  -0.5101
  O  O249  1  0.971100  0.088600  0.500200  1.0  -0.5004
  O  O250  1  0.173400  0.054900  0.685100  1.0  -0.6386
  O  O251  1  0.169500  0.933100  0.705600  1.0  -0.6756
  O  O252  1  0.498000  0.957400  0.715100  1.0  -0.5524
  O  O253  1  0.394300  0.018100  0.653800  1.0  -0.6949
  O  O254  1  0.655900  0.110500  0.325300  1.0  -0.5849
  O  O255  1  0.803900  0.164600  0.316100  1.0  -0.6939
  O  O256  1  0.670200  0.391000  0.478600  1.0  -0.5102
  O  O257  1  0.993800  0.318100  0.464200  1.0  -0.4766
  O  O258  1  0.806800  0.241700  0.628700  1.0  -0.5127
  O  O259  1  0.447300  0.297800  0.635300  1.0  -0.6274
  O  O260  1  0.431500  0.180200  0.599400  1.0  -0.6516
  O  O261  1  0.834800  0.440100  0.287100  1.0  -0.595
  O  O262  1  0.829200  0.328200  0.239800  1.0  -0.749
  O  O263  1  0.195000  0.319800  0.684500  1.0  -0.7074
  O  O264  1  0.179700  0.217000  0.625100  1.0  -0.6379
  O  O265  1  0.325400  0.474200  0.183600  1.0  -0.4834
  O  O266  1  0.147000  0.483900  0.006000  1.0  -0.5107
  O  O267  1  0.471100  0.411400  0.000200  1.0  -0.4999
  O  O268  1  0.673400  0.445100  0.185100  1.0  -0.6378
  O  O269  1  0.669500  0.566900  0.205600  1.0  -0.6763
  O  O270  1  0.998000  0.542600  0.215100  1.0  -0.5518
  O  O271  1  0.894300  0.481900  0.153800  1.0  -0.6952
  O  O272  1  0.155900  0.389500  0.825300  1.0  -0.5849
  O  O273  1  0.303900  0.335400  0.816100  1.0  -0.6937
  O  O274  1  0.170200  0.109000  0.978600  1.0  -0.5111
  O  O275  1  0.493800  0.181900  0.964200  1.0  -0.4768
  O  O276  1  0.306800  0.258300  0.128700  1.0  -0.5129
  O  O277  1  0.947300  0.202200  0.135300  1.0  -0.6275
  O  O278  1  0.931500  0.319800  0.099400  1.0  -0.6518
  O  O279  1  0.334800  0.059900  0.787100  1.0  -0.5936
  O  O280  1  0.329200  0.171800  0.739800  1.0  -0.7486
  O  O281  1  0.695000  0.180200  0.184500  1.0  -0.7077
  O  O282  1  0.679700  0.283000  0.125100  1.0  -0.6382
  O  O283  1  0.674600  0.525800  0.683600  1.0  -0.4835
  O  O284  1  0.853000  0.516100  0.506000  1.0  -0.5106
  O  O285  1  0.528900  0.588600  0.500200  1.0  -0.4999
  O  O286  1  0.326600  0.554900  0.685100  1.0  -0.6384
  O  O287  1  0.330500  0.433100  0.705600  1.0  -0.6754
  O  O288  1  0.002000  0.457400  0.715100  1.0  -0.5535
  O  O289  1  0.105700  0.518100  0.653800  1.0  -0.695
  O  O290  1  0.844100  0.610500  0.325300  1.0  -0.5825
  O  O291  1  0.696100  0.664600  0.316100  1.0  -0.6947
  O  O292  1  0.829800  0.891000  0.478600  1.0  -0.5092
  O  O293  1  0.506200  0.818100  0.464200  1.0  -0.4797
  O  O294  1  0.693200  0.741700  0.628700  1.0  -0.5126
  O  O295  1  0.052700  0.797800  0.635300  1.0  -0.6268
  O  O296  1  0.068500  0.680200  0.599400  1.0  -0.6511
  O  O297  1  0.665200  0.940100  0.287100  1.0  -0.5961
  O  O298  1  0.670800  0.828200  0.239800  1.0  -0.7488
  O  O299  1  0.305000  0.819800  0.684500  1.0  -0.7082
  O  O300  1  0.320300  0.717000  0.625100  1.0  -0.6382
