# generated using pymatgen
data_CdH12C12(NO3)3
_symmetry_space_group_name_H-M   'P 1'
_cell_length_a   12.37500000
_cell_length_b   23.37600000
_cell_length_c   8.58930000
_cell_angle_alpha   90.00000000
_cell_angle_beta   104.46000000
_cell_angle_gamma   90.00000000
_symmetry_Int_Tables_number   1
_chemical_formula_structural   CdH12C12(NO3)3
_chemical_formula_sum   'Cd4 H48 C48 N12 O36'
_cell_volume   2405.98584407
_cell_formula_units_Z   4
loop_
 _symmetry_equiv_pos_site_id
 _symmetry_equiv_pos_as_xyz
  1  'x, y, z'
loop_
 _atom_site_type_symbol
 _atom_site_label
 _atom_site_symmetry_multiplicity
 _atom_site_fract_x
 _atom_site_fract_y
 _atom_site_fract_z
 _atom_site_occupancy
 _atom_site_charge
  Cd  Cd1  1  0.239290  0.218770  0.452460  1.0  1.0739
  Cd  Cd2  1  0.760710  0.718770  0.047540  1.0  1.0741
  Cd  Cd3  1  0.760710  0.781230  0.547540  1.0  1.074
  Cd  Cd4  1  0.239290  0.281230  0.952460  1.0  1.0738
  H  H5  1  0.999900  0.852700  0.390700  1.0  0.1178
  H  H6  1  0.049100  0.802200  0.507800  1.0  0.1079
  H  H7  1  0.133500  0.763400  0.317800  1.0  0.1299
  H  H8  1  0.093100  0.815500  0.202300  1.0  0.1355
  H  H9  1  0.407400  0.805900  0.824100  1.0  0.1185
  H  H10  1  0.470900  0.864500  0.856200  1.0  0.1293
  H  H11  1  0.559000  0.846500  0.655500  1.0  0.1314
  H  H12  1  0.489000  0.790400  0.606900  1.0  0.1399
  H  H13  1  0.242600  0.011500  0.352800  1.0  0.1192
  H  H14  1  0.357800  0.014900  0.480500  1.0  0.1026
  H  H15  1  0.268100  0.038100  0.679800  1.0  0.1451
  H  H16  1  0.151600  0.032200  0.556300  1.0  0.1389
  H  H17  1  0.000100  0.352700  0.109300  1.0  0.1193
  H  H18  1  0.950900  0.302200  0.992200  1.0  0.1075
  H  H19  1  0.866500  0.263400  0.182200  1.0  0.1312
  H  H20  1  0.906900  0.315500  0.297700  1.0  0.1353
  H  H21  1  0.592600  0.305900  0.675900  1.0  0.1162
  H  H22  1  0.529100  0.364500  0.643800  1.0  0.1287
  H  H23  1  0.441000  0.346500  0.844500  1.0  0.1306
  H  H24  1  0.511000  0.290400  0.893100  1.0  0.1403
  H  H25  1  0.757400  0.511500  0.147200  1.0  0.1203
  H  H26  1  0.642200  0.514900  0.019500  1.0  0.1049
  H  H27  1  0.731900  0.538100  0.820200  1.0  0.1424
  H  H28  1  0.848400  0.532200  0.943700  1.0  0.1355
  H  H29  1  0.000100  0.147300  0.609300  1.0  0.1194
  H  H30  1  0.950900  0.197800  0.492200  1.0  0.1077
  H  H31  1  0.866500  0.236600  0.682200  1.0  0.1308
  H  H32  1  0.906900  0.184500  0.797700  1.0  0.1361
  H  H33  1  0.592600  0.194100  0.175900  1.0  0.1161
  H  H34  1  0.529100  0.135500  0.143800  1.0  0.1277
  H  H35  1  0.441000  0.153500  0.344500  1.0  0.1317
  H  H36  1  0.511000  0.209600  0.393100  1.0  0.1404
  H  H37  1  0.757400  0.988500  0.647200  1.0  0.1201
  H  H38  1  0.642200  0.985100  0.519500  1.0  0.1052
  H  H39  1  0.731900  0.961900  0.320200  1.0  0.1422
  H  H40  1  0.848400  0.967800  0.443700  1.0  0.1355
  H  H41  1  0.999900  0.647300  0.890700  1.0  0.1177
  H  H42  1  0.049100  0.697800  0.007800  1.0  0.1076
  H  H43  1  0.133500  0.736600  0.817800  1.0  0.1288
  H  H44  1  0.093100  0.684500  0.702300  1.0  0.1361
  H  H45  1  0.407400  0.694100  0.324100  1.0  0.1169
  H  H46  1  0.470900  0.635500  0.356200  1.0  0.1291
  H  H47  1  0.559000  0.653500  0.155500  1.0  0.1319
  H  H48  1  0.489000  0.709600  0.106900  1.0  0.1403
  H  H49  1  0.242600  0.488500  0.852800  1.0  0.1199
  H  H50  1  0.357800  0.485100  0.980500  1.0  0.1025
  H  H51  1  0.268100  0.461900  0.179800  1.0  0.1448
  H  H52  1  0.151600  0.467800  0.056300  1.0  0.1389
  C  C53  1  0.170700  0.916400  0.438400  1.0  0.4518
  C  C54  1  0.253400  0.832500  0.592900  1.0  0.5401
  C  C55  1  0.356900  0.921400  0.611400  1.0  0.5086
  C  C56  1  0.062700  0.826800  0.423800  1.0  0.066
  C  C57  1  0.073900  0.791100  0.282700  1.0  -0.2689
  C  C58  1  0.966100  0.760100  0.209900  1.0  0.7887
  C  C59  1  0.437200  0.837100  0.773300  1.0  0.0892
  C  C60  1  0.524200  0.814600  0.697000  1.0  -0.3503
  C  C61  1  0.613400  0.780600  0.812800  1.0  0.7595
  C  C62  1  0.279700  0.005100  0.465000  1.0  0.0787
  C  C63  1  0.228700  0.043200  0.567900  1.0  -0.3497
  C  C64  1  0.233300  0.105400  0.523400  1.0  0.7861
  C  C65  1  0.829300  0.416400  0.061600  1.0  0.4514
  C  C66  1  0.746600  0.332500  0.907100  1.0  0.5419
  C  C67  1  0.643100  0.421400  0.888600  1.0  0.5072
  C  C68  1  0.937300  0.326800  0.076200  1.0  0.0644
  C  C69  1  0.926100  0.291100  0.217300  1.0  -0.2683
  C  C70  1  0.033900  0.260100  0.290100  1.0  0.7899
  C  C71  1  0.562800  0.337100  0.726700  1.0  0.0932
  C  C72  1  0.475800  0.314600  0.803000  1.0  -0.3487
  C  C73  1  0.386600  0.280600  0.687200  1.0  0.7596
  C  C74  1  0.720300  0.505100  0.035000  1.0  0.0785
  C  C75  1  0.771300  0.543200  0.932100  1.0  -0.3507
  C  C76  1  0.766700  0.605400  0.976600  1.0  0.7856
  C  C77  1  0.829300  0.083600  0.561600  1.0  0.4521
  C  C78  1  0.746600  0.167500  0.407100  1.0  0.5425
  C  C79  1  0.643100  0.078600  0.388600  1.0  0.5067
  C  C80  1  0.937300  0.173200  0.576200  1.0  0.0639
  C  C81  1  0.926100  0.208900  0.717300  1.0  -0.2685
  C  C82  1  0.033900  0.239900  0.790100  1.0  0.7897
  C  C83  1  0.562800  0.162900  0.226700  1.0  0.0929
  C  C84  1  0.475800  0.185400  0.303000  1.0  -0.3485
  C  C85  1  0.386600  0.219400  0.187200  1.0  0.7603
  C  C86  1  0.720300  0.994900  0.535000  1.0  0.0786
  C  C87  1  0.771300  0.956800  0.432100  1.0  -0.3468
  C  C88  1  0.766700  0.894600  0.476600  1.0  0.7859
  C  C89  1  0.170700  0.583600  0.938400  1.0  0.452
  C  C90  1  0.253400  0.667500  0.092900  1.0  0.5395
  C  C91  1  0.356900  0.578600  0.111400  1.0  0.5074
  C  C92  1  0.062700  0.673200  0.923800  1.0  0.0665
  C  C93  1  0.073900  0.708900  0.782700  1.0  -0.2685
  C  C94  1  0.966100  0.739900  0.709900  1.0  0.7886
  C  C95  1  0.437200  0.662900  0.273300  1.0  0.09
  C  C96  1  0.524200  0.685400  0.197000  1.0  -0.3496
  C  C97  1  0.613400  0.719400  0.312800  1.0  0.7604
  C  C98  1  0.279700  0.494900  0.965000  1.0  0.0798
  C  C99  1  0.228700  0.456800  0.067900  1.0  -0.3475
  C  C100  1  0.233300  0.394600  0.023400  1.0  0.7863
  N  N101  1  0.166900  0.860100  0.486400  1.0  -0.2985
  N  N102  1  0.345400  0.865100  0.654800  1.0  -0.2869
  N  N103  1  0.270400  0.943800  0.503900  1.0  -0.1464
  N  N104  1  0.833100  0.360100  0.013600  1.0  -0.2973
  N  N105  1  0.654600  0.365100  0.845200  1.0  -0.2855
  N  N106  1  0.729600  0.443800  0.996100  1.0  -0.146
  N  N107  1  0.833100  0.139900  0.513600  1.0  -0.2977
  N  N108  1  0.654600  0.134900  0.345200  1.0  -0.2863
  N  N109  1  0.729600  0.056200  0.496100  1.0  -0.1452
  N  N110  1  0.166900  0.639900  0.986400  1.0  -0.2987
  N  N111  1  0.345400  0.634900  0.154800  1.0  -0.2872
  N  N112  1  0.270400  0.556200  0.003900  1.0  -0.1455
  O  O113  1  0.094100  0.938500  0.346200  1.0  -0.4379
  O  O114  1  0.248400  0.782800  0.628900  1.0  -0.4917
  O  O115  1  0.443200  0.948100  0.673200  1.0  -0.5005
  O  O116  1  0.216400  0.141900  0.616700  1.0  -0.5629
  O  O117  1  0.255600  0.118500  0.393900  1.0  -0.579
  O  O118  1  0.895700  0.784500  0.108800  1.0  -0.5427
  O  O119  1  0.951400  0.709100  0.243800  1.0  -0.6258
  O  O120  1  0.706900  0.773500  0.785400  1.0  -0.6484
  O  O121  1  0.594400  0.762400  0.937400  1.0  -0.5698
  O  O122  1  0.905900  0.438500  0.153800  1.0  -0.4384
  O  O123  1  0.751600  0.282800  0.871100  1.0  -0.4928
  O  O124  1  0.556800  0.448100  0.826800  1.0  -0.5006
  O  O125  1  0.783600  0.641900  0.883300  1.0  -0.5618
  O  O126  1  0.744400  0.618500  0.106100  1.0  -0.5817
  O  O127  1  0.104300  0.284500  0.391200  1.0  -0.542
  O  O128  1  0.048600  0.209100  0.256200  1.0  -0.627
  O  O129  1  0.293100  0.273500  0.714600  1.0  -0.6507
  O  O130  1  0.405600  0.262400  0.562600  1.0  -0.569
  O  O131  1  0.905900  0.061500  0.653800  1.0  -0.4386
  O  O132  1  0.751600  0.217200  0.371100  1.0  -0.4933
  O  O133  1  0.556800  0.051900  0.326800  1.0  -0.5014
  O  O134  1  0.783600  0.858100  0.383300  1.0  -0.5614
  O  O135  1  0.744400  0.881500  0.606100  1.0  -0.5802
  O  O136  1  0.104300  0.215500  0.891200  1.0  -0.5403
  O  O137  1  0.048600  0.290900  0.756200  1.0  -0.6276
  O  O138  1  0.293100  0.226500  0.214600  1.0  -0.6507
  O  O139  1  0.405600  0.237600  0.062600  1.0  -0.5693
  O  O140  1  0.094100  0.561500  0.846200  1.0  -0.4384
  O  O141  1  0.248400  0.717200  0.128900  1.0  -0.4933
  O  O142  1  0.443200  0.551900  0.173200  1.0  -0.5007
  O  O143  1  0.216400  0.358100  0.116700  1.0  -0.5613
  O  O144  1  0.255600  0.381500  0.893900  1.0  -0.5796
  O  O145  1  0.895700  0.715500  0.608800  1.0  -0.5415
  O  O146  1  0.951400  0.790900  0.743800  1.0  -0.6285
  O  O147  1  0.706900  0.726500  0.285400  1.0  -0.6483
  O  O148  1  0.594400  0.737600  0.437400  1.0  -0.5706
