# generated using pymatgen
data_Zn4H12C24O13
_symmetry_space_group_name_H-M   'P 1'
_cell_length_a   20.05530000
_cell_length_b   11.14620000
_cell_length_c   19.53540000
_cell_angle_alpha   90.00000000
_cell_angle_beta   108.35200000
_cell_angle_gamma   90.00000000
_symmetry_Int_Tables_number   1
_chemical_formula_structural   Zn4H12C24O13
_chemical_formula_sum   'Zn16 H48 C96 O52'
_cell_volume   4144.84822219
_cell_formula_units_Z   4
loop_
 _symmetry_equiv_pos_site_id
 _symmetry_equiv_pos_as_xyz
  1  'x, y, z'
loop_
 _atom_site_type_symbol
 _atom_site_label
 _atom_site_symmetry_multiplicity
 _atom_site_fract_x
 _atom_site_fract_y
 _atom_site_fract_z
 _atom_site_occupancy
 _atom_site_charge
  Zn  Zn1  1  0.411620  0.708460  0.232280  1.0  0.9981
  Zn  Zn2  1  0.275670  0.712590  0.098050  1.0  1.0661
  Zn  Zn3  1  0.278520  0.566530  0.238450  1.0  1.0851
  Zn  Zn4  1  0.275470  0.852680  0.239690  1.0  1.0655
  Zn  Zn5  1  0.911620  0.208460  0.232280  1.0  0.9986
  Zn  Zn6  1  0.775670  0.212590  0.098050  1.0  1.0661
  Zn  Zn7  1  0.778520  0.066530  0.238450  1.0  1.0851
  Zn  Zn8  1  0.775470  0.352680  0.239690  1.0  1.0655
  Zn  Zn9  1  0.411620  0.291540  0.732280  1.0  0.9987
  Zn  Zn10  1  0.275670  0.287410  0.598050  1.0  1.0662
  Zn  Zn11  1  0.278520  0.433470  0.738450  1.0  1.0844
  Zn  Zn12  1  0.275470  0.147320  0.739690  1.0  1.0645
  Zn  Zn13  1  0.911620  0.791540  0.732280  1.0  0.9989
  Zn  Zn14  1  0.775670  0.787410  0.598050  1.0  1.0662
  Zn  Zn15  1  0.778520  0.933470  0.738450  1.0  1.0844
  Zn  Zn16  1  0.775470  0.647320  0.739690  1.0  1.0645
  H  H17  1  0.368200  0.434900  0.452300  1.0  0.1132
  H  H18  1  0.536700  0.469800  0.628000  1.0  0.112
  H  H19  1  0.595700  0.570700  0.561900  1.0  0.1186
  H  H20  1  0.539200  0.605900  0.438000  1.0  0.1201
  H  H21  1  0.263400  0.208700  0.156800  1.0  0.1186
  H  H22  1  0.209100  0.027000  0.970000  1.0  0.1232
  H  H23  1  0.193800  0.208300  0.907700  1.0  0.1066
  H  H24  1  0.218200  0.388100  0.970300  1.0  0.1157
  H  H25  1  0.070000  0.496600  0.240200  1.0  0.1212
  H  H26  1  0.888700  0.665500  0.224500  1.0  0.1094
  H  H27  1  0.939300  0.847100  0.210900  1.0  0.1279
  H  H28  1  0.055200  0.853500  0.217700  1.0  0.1081
  H  H29  1  0.868200  0.934900  0.452300  1.0  0.1132
  H  H30  1  0.036700  0.969800  0.628000  1.0  0.112
  H  H31  1  0.095700  0.070700  0.561900  1.0  0.1186
  H  H32  1  0.039200  0.105900  0.438000  1.0  0.1201
  H  H33  1  0.763400  0.708700  0.156800  1.0  0.1186
  H  H34  1  0.709100  0.527000  0.970000  1.0  0.1232
  H  H35  1  0.693800  0.708300  0.907700  1.0  0.1066
  H  H36  1  0.718200  0.888100  0.970300  1.0  0.1157
  H  H37  1  0.570000  0.996600  0.240200  1.0  0.1212
  H  H38  1  0.388700  0.165500  0.224500  1.0  0.1102
  H  H39  1  0.439300  0.347100  0.210900  1.0  0.1279
  H  H40  1  0.555200  0.353500  0.217700  1.0  0.1081
  H  H41  1  0.368200  0.565100  0.952300  1.0  0.1133
  H  H42  1  0.536700  0.530200  0.128000  1.0  0.1121
  H  H43  1  0.595700  0.429300  0.061900  1.0  0.1185
  H  H44  1  0.539200  0.394100  0.938000  1.0  0.1199
  H  H45  1  0.263400  0.791300  0.656800  1.0  0.1185
  H  H46  1  0.209100  0.973000  0.470000  1.0  0.1236
  H  H47  1  0.193800  0.791700  0.407700  1.0  0.1069
  H  H48  1  0.218200  0.611900  0.470300  1.0  0.1154
  H  H49  1  0.070000  0.503400  0.740200  1.0  0.1211
  H  H50  1  0.888700  0.334500  0.724500  1.0  0.1095
  H  H51  1  0.939300  0.152900  0.710900  1.0  0.1275
  H  H52  1  0.055200  0.146500  0.717700  1.0  0.1081
  H  H53  1  0.868200  0.065100  0.952300  1.0  0.1133
  H  H54  1  0.036700  0.030200  0.128000  1.0  0.1121
  H  H55  1  0.095700  0.929300  0.061900  1.0  0.1185
  H  H56  1  0.039200  0.894100  0.938000  1.0  0.1199
  H  H57  1  0.763400  0.291300  0.656800  1.0  0.1185
  H  H58  1  0.709100  0.473000  0.470000  1.0  0.1236
  H  H59  1  0.693800  0.291700  0.407700  1.0  0.1069
  H  H60  1  0.718200  0.111900  0.470300  1.0  0.1154
  H  H61  1  0.570000  0.003400  0.740200  1.0  0.1211
  H  H62  1  0.388700  0.834500  0.724500  1.0  0.1103
  H  H63  1  0.439300  0.652900  0.710900  1.0  0.1275
  H  H64  1  0.555200  0.646500  0.717700  1.0  0.1081
  C  C65  1  0.410800  0.557400  0.356800  1.0  0.7414
  C  C66  1  0.408800  0.376400  0.591500  1.0  0.7109
  C  C67  1  0.448400  0.525300  0.433800  1.0  -0.1089
  C  C68  1  0.413600  0.462800  0.474400  1.0  0.0281
  C  C69  1  0.446300  0.441600  0.547500  1.0  -0.2036
  C  C70  1  0.514500  0.483300  0.579100  1.0  -0.0265
  C  C71  1  0.550000  0.543900  0.539900  1.0  -0.0791
  C  C72  1  0.515900  0.565200  0.465300  1.0  -0.0256
  C  C73  1  0.258000  0.432600  0.110300  1.0  0.7381
  C  C74  1  0.251500  0.984600  0.111200  1.0  0.7167
  C  C75  1  0.242900  0.316300  0.069700  1.0  -0.1651
  C  C76  1  0.250200  0.208500  0.106700  1.0  -0.0033
  C  C77  1  0.237800  0.100100  0.069500  1.0  -0.1116
  C  C78  1  0.217200  0.099300  0.995100  1.0  -0.0871
  C  C79  1  0.208800  0.208100  0.957800  1.0  -0.1208
  C  C80  1  0.222600  0.316100  0.995400  1.0  -0.0315
  C  C81  1  0.151800  0.685800  0.239800  1.0  0.7367
  C  C82  1  0.938800  0.445100  0.240100  1.0  0.7193
  C  C83  1  0.075200  0.677800  0.232700  1.0  -0.153
  C  C84  1  0.043900  0.566800  0.235700  1.0  0.0305
  C  C85  1  0.973000  0.561900  0.231800  1.0  -0.1765
  C  C86  1  0.935200  0.667800  0.224800  1.0  -0.0534
  C  C87  1  0.965700  0.776900  0.218100  1.0  -0.1427
  C  C88  1  0.034800  0.780200  0.222200  1.0  -0.0354
  C  C89  1  0.910800  0.057400  0.356800  1.0  0.7414
  C  C90  1  0.908800  0.876400  0.591500  1.0  0.7109
  C  C91  1  0.948400  0.025300  0.433800  1.0  -0.1089
  C  C92  1  0.913600  0.962800  0.474400  1.0  0.0281
  C  C93  1  0.946300  0.941600  0.547500  1.0  -0.2036
  C  C94  1  0.014500  0.983300  0.579100  1.0  -0.0265
  C  C95  1  0.050000  0.043900  0.539900  1.0  -0.0791
  C  C96  1  0.015900  0.065200  0.465300  1.0  -0.0256
  C  C97  1  0.758000  0.932600  0.110300  1.0  0.7381
  C  C98  1  0.751500  0.484600  0.111200  1.0  0.7167
  C  C99  1  0.742900  0.816300  0.069700  1.0  -0.1651
  C  C100  1  0.750200  0.708500  0.106700  1.0  -0.0033
  C  C101  1  0.737800  0.600100  0.069500  1.0  -0.1116
  C  C102  1  0.717200  0.599300  0.995100  1.0  -0.0871
  C  C103  1  0.708800  0.708100  0.957800  1.0  -0.1208
  C  C104  1  0.722600  0.816100  0.995400  1.0  -0.0315
  C  C105  1  0.651800  0.185800  0.239800  1.0  0.7367
  C  C106  1  0.438800  0.945100  0.240100  1.0  0.7193
  C  C107  1  0.575200  0.177800  0.232700  1.0  -0.153
  C  C108  1  0.543900  0.066800  0.235700  1.0  0.0305
  C  C109  1  0.473000  0.061900  0.231800  1.0  -0.1765
  C  C110  1  0.435200  0.167800  0.224800  1.0  -0.0534
  C  C111  1  0.465700  0.276900  0.218100  1.0  -0.1427
  C  C112  1  0.534800  0.280200  0.222200  1.0  -0.0354
  C  C113  1  0.410800  0.442600  0.856800  1.0  0.7413
  C  C114  1  0.408800  0.623600  0.091500  1.0  0.7114
  C  C115  1  0.448400  0.474700  0.933800  1.0  -0.1089
  C  C116  1  0.413600  0.537200  0.974400  1.0  0.0279
  C  C117  1  0.446300  0.558400  0.047500  1.0  -0.2034
  C  C118  1  0.514500  0.516700  0.079100  1.0  -0.0266
  C  C119  1  0.550000  0.456100  0.039900  1.0  -0.0784
  C  C120  1  0.515900  0.434800  0.965300  1.0  -0.0256
  C  C121  1  0.258000  0.567400  0.610300  1.0  0.7367
  C  C122  1  0.251500  0.015400  0.611200  1.0  0.7166
  C  C123  1  0.242900  0.683700  0.569700  1.0  -0.1653
  C  C124  1  0.250200  0.791500  0.606700  1.0  -0.0035
  C  C125  1  0.237800  0.899900  0.569500  1.0  -0.1116
  C  C126  1  0.217200  0.900700  0.495100  1.0  -0.0879
  C  C127  1  0.208800  0.791900  0.457800  1.0  -0.1207
  C  C128  1  0.222600  0.683900  0.495400  1.0  -0.0313
  C  C129  1  0.151800  0.314200  0.739800  1.0  0.7362
  C  C130  1  0.938800  0.554900  0.740100  1.0  0.7184
  C  C131  1  0.075200  0.322200  0.732700  1.0  -0.1528
  C  C132  1  0.043900  0.433200  0.735700  1.0  0.031
  C  C133  1  0.973000  0.438100  0.731800  1.0  -0.1764
  C  C134  1  0.935200  0.332200  0.724800  1.0  -0.0534
  C  C135  1  0.965700  0.223100  0.718100  1.0  -0.1428
  C  C136  1  0.034800  0.219800  0.722200  1.0  -0.0352
  C  C137  1  0.910800  0.942600  0.856800  1.0  0.7413
  C  C138  1  0.908800  0.123600  0.091500  1.0  0.7114
  C  C139  1  0.948400  0.974700  0.933800  1.0  -0.1089
  C  C140  1  0.913600  0.037200  0.974400  1.0  0.0279
  C  C141  1  0.946300  0.058400  0.047500  1.0  -0.2034
  C  C142  1  0.014500  0.016700  0.079100  1.0  -0.0266
  C  C143  1  0.050000  0.956100  0.039900  1.0  -0.0784
  C  C144  1  0.015900  0.934800  0.965300  1.0  -0.0256
  C  C145  1  0.758000  0.067400  0.610300  1.0  0.7367
  C  C146  1  0.751500  0.515400  0.611200  1.0  0.7166
  C  C147  1  0.742900  0.183700  0.569700  1.0  -0.1653
  C  C148  1  0.750200  0.291500  0.606700  1.0  -0.0035
  C  C149  1  0.737800  0.399900  0.569500  1.0  -0.1116
  C  C150  1  0.717200  0.400700  0.495100  1.0  -0.0879
  C  C151  1  0.708800  0.291900  0.457800  1.0  -0.1207
  C  C152  1  0.722600  0.183900  0.495400  1.0  -0.0313
  C  C153  1  0.651800  0.814200  0.739800  1.0  0.7362
  C  C154  1  0.438800  0.054900  0.740100  1.0  0.7184
  C  C155  1  0.575200  0.822200  0.732700  1.0  -0.1528
  C  C156  1  0.543900  0.933200  0.735700  1.0  0.031
  C  C157  1  0.473000  0.938100  0.731800  1.0  -0.1764
  C  C158  1  0.435200  0.832200  0.724800  1.0  -0.0534
  C  C159  1  0.465700  0.723100  0.718100  1.0  -0.1428
  C  C160  1  0.534800  0.719800  0.722200  1.0  -0.0352
  O  O161  1  0.443300  0.617300  0.324000  1.0  -0.5939
  O  O162  1  0.348700  0.522000  0.331000  1.0  -0.5933
  O  O163  1  0.357800  0.313300  0.560800  1.0  -0.5812
  O  O164  1  0.435800  0.390600  0.659600  1.0  -0.5858
  O  O165  1  0.256600  0.526800  0.077200  1.0  -0.6101
  O  O166  1  0.270100  0.425000  0.178700  1.0  -0.5918
  O  O167  1  0.276100  0.898800  0.085300  1.0  -0.6363
  O  O168  1  0.238700  0.983100  0.171000  1.0  -0.5797
  O  O169  1  0.185600  0.588500  0.248600  1.0  -0.5802
  O  O170  1  0.177100  0.787500  0.237500  1.0  -0.6235
  O  O171  1  0.309400  0.711000  0.203500  1.0  -1.1908
  O  O172  1  0.881800  0.450300  0.252800  1.0  -0.763
  O  O173  1  0.969700  0.350900  0.232900  1.0  -0.5779
  O  O174  1  0.943300  0.117300  0.324000  1.0  -0.5939
  O  O175  1  0.848700  0.022000  0.331000  1.0  -0.5933
  O  O176  1  0.857800  0.813300  0.560800  1.0  -0.5812
  O  O177  1  0.935800  0.890600  0.659600  1.0  -0.5858
  O  O178  1  0.756600  0.026800  0.077200  1.0  -0.6101
  O  O179  1  0.770100  0.925000  0.178700  1.0  -0.5918
  O  O180  1  0.776100  0.398800  0.085300  1.0  -0.6363
  O  O181  1  0.738700  0.483100  0.171000  1.0  -0.5802
  O  O182  1  0.685600  0.088500  0.248600  1.0  -0.5802
  O  O183  1  0.677100  0.287500  0.237500  1.0  -0.6235
  O  O184  1  0.809400  0.211000  0.203500  1.0  -1.1908
  O  O185  1  0.381800  0.950300  0.252800  1.0  -0.763
  O  O186  1  0.469700  0.850900  0.232900  1.0  -0.5779
  O  O187  1  0.443300  0.382700  0.824000  1.0  -0.5934
  O  O188  1  0.348700  0.478000  0.831000  1.0  -0.5935
  O  O189  1  0.357800  0.686700  0.060800  1.0  -0.5809
  O  O190  1  0.435800  0.609400  0.159600  1.0  -0.5865
  O  O191  1  0.256600  0.473200  0.577200  1.0  -0.609
  O  O192  1  0.270100  0.575000  0.678700  1.0  -0.5921
  O  O193  1  0.276100  0.101200  0.585300  1.0  -0.6359
  O  O194  1  0.238700  0.016900  0.671000  1.0  -0.5794
  O  O195  1  0.185600  0.411500  0.748600  1.0  -0.5783
  O  O196  1  0.177100  0.212500  0.737500  1.0  -0.6228
  O  O197  1  0.309400  0.289000  0.703500  1.0  -1.1909
  O  O198  1  0.881800  0.549700  0.752800  1.0  -0.7631
  O  O199  1  0.969700  0.649100  0.732900  1.0  -0.5782
  O  O200  1  0.943300  0.882700  0.824000  1.0  -0.5934
  O  O201  1  0.848700  0.978000  0.831000  1.0  -0.5935
  O  O202  1  0.857800  0.186700  0.060800  1.0  -0.5809
  O  O203  1  0.935800  0.109400  0.159600  1.0  -0.5865
  O  O204  1  0.756600  0.973200  0.577200  1.0  -0.609
  O  O205  1  0.770100  0.075000  0.678700  1.0  -0.5921
  O  O206  1  0.776100  0.601200  0.585300  1.0  -0.6359
  O  O207  1  0.738700  0.516900  0.671000  1.0  -0.5799
  O  O208  1  0.685600  0.911500  0.748600  1.0  -0.5783
  O  O209  1  0.677100  0.712500  0.737500  1.0  -0.6228
  O  O210  1  0.809400  0.789000  0.703500  1.0  -1.1909
  O  O211  1  0.381800  0.049700  0.752800  1.0  -0.7631
  O  O212  1  0.469700  0.149100  0.732900  1.0  -0.5782
