# generated using pymatgen
data_CuH16(C3N)8
_symmetry_space_group_name_H-M   'P 1'
_cell_length_a   18.24100000
_cell_length_b   18.24100000
_cell_length_c   18.24100000
_cell_angle_alpha   90.00000000
_cell_angle_beta   90.00000000
_cell_angle_gamma   90.00000000
_symmetry_Int_Tables_number   1
_chemical_formula_structural   CuH16(C3N)8
_chemical_formula_sum   'Cu6 H96 C144 N48'
_cell_volume   6069.40237152
_cell_formula_units_Z   6
loop_
 _symmetry_equiv_pos_site_id
 _symmetry_equiv_pos_as_xyz
  1  'x, y, z'
loop_
 _atom_site_type_symbol
 _atom_site_label
 _atom_site_symmetry_multiplicity
 _atom_site_fract_x
 _atom_site_fract_y
 _atom_site_fract_z
 _atom_site_occupancy
 _atom_site_charge
  Cu  Cu1  1  0.250000  0.750000  0.250000  1.0  0.5564
  Cu  Cu2  1  0.250000  0.250000  0.750000  1.0  0.5564
  Cu  Cu3  1  0.750000  0.250000  0.250000  1.0  0.5564
  Cu  Cu4  1  0.250000  0.750000  0.750000  1.0  0.5564
  Cu  Cu5  1  0.750000  0.750000  0.250000  1.0  0.5564
  Cu  Cu6  1  0.750000  0.250000  0.750000  1.0  0.5564
  H  H7  1  0.244500  0.677100  0.104000  1.0  0.0819
  H  H8  1  0.298200  0.581700  0.045100  1.0  0.1139
  H  H9  1  0.255500  0.822900  0.104000  1.0  0.082
  H  H10  1  0.201800  0.918300  0.045100  1.0  0.1144
  H  H11  1  0.255500  0.677100  0.396000  1.0  0.0822
  H  H12  1  0.201800  0.581700  0.454900  1.0  0.1138
  H  H13  1  0.244500  0.822900  0.396000  1.0  0.0819
  H  H14  1  0.298200  0.918300  0.454900  1.0  0.114
  H  H15  1  0.104000  0.244500  0.677100  1.0  0.0815
  H  H16  1  0.045100  0.298200  0.581700  1.0  0.1141
  H  H17  1  0.104000  0.255500  0.822900  1.0  0.0823
  H  H18  1  0.045100  0.201800  0.918300  1.0  0.1141
  H  H19  1  0.396000  0.255500  0.677100  1.0  0.0818
  H  H20  1  0.454900  0.201800  0.581700  1.0  0.1134
  H  H21  1  0.396000  0.244500  0.822900  1.0  0.0816
  H  H22  1  0.454900  0.298200  0.918300  1.0  0.1139
  H  H23  1  0.677100  0.104000  0.244500  1.0  0.0823
  H  H24  1  0.581700  0.045100  0.298200  1.0  0.113
  H  H25  1  0.822900  0.104000  0.255500  1.0  0.082
  H  H26  1  0.918300  0.045100  0.201800  1.0  0.1128
  H  H27  1  0.677100  0.396000  0.255500  1.0  0.0826
  H  H28  1  0.581700  0.454900  0.201800  1.0  0.1133
  H  H29  1  0.822900  0.396000  0.244500  1.0  0.0818
  H  H30  1  0.918300  0.454900  0.298200  1.0  0.113
  H  H31  1  0.822900  0.255500  0.104000  1.0  0.0823
  H  H32  1  0.918300  0.201800  0.045100  1.0  0.1145
  H  H33  1  0.677100  0.244500  0.104000  1.0  0.0824
  H  H34  1  0.581700  0.298200  0.045100  1.0  0.1148
  H  H35  1  0.822900  0.244500  0.396000  1.0  0.0821
  H  H36  1  0.918300  0.298200  0.454900  1.0  0.1146
  H  H37  1  0.677100  0.255500  0.396000  1.0  0.0828
  H  H38  1  0.581700  0.201800  0.454900  1.0  0.1145
  H  H39  1  0.255500  0.396000  0.677100  1.0  0.0816
  H  H40  1  0.201800  0.454900  0.581700  1.0  0.1134
  H  H41  1  0.244500  0.396000  0.822900  1.0  0.0819
  H  H42  1  0.298200  0.454900  0.918300  1.0  0.1134
  H  H43  1  0.244500  0.104000  0.677100  1.0  0.0815
  H  H44  1  0.298200  0.045100  0.581700  1.0  0.1126
  H  H45  1  0.255500  0.104000  0.822900  1.0  0.0815
  H  H46  1  0.201800  0.045100  0.918300  1.0  0.1129
  H  H47  1  0.396000  0.822900  0.244500  1.0  0.0817
  H  H48  1  0.454900  0.918300  0.298200  1.0  0.113
  H  H49  1  0.396000  0.677100  0.255500  1.0  0.0822
  H  H50  1  0.454900  0.581700  0.201800  1.0  0.1132
  H  H51  1  0.104000  0.822900  0.255500  1.0  0.0823
  H  H52  1  0.045100  0.918300  0.201800  1.0  0.1134
  H  H53  1  0.104000  0.677100  0.244500  1.0  0.082
  H  H54  1  0.045100  0.581700  0.298200  1.0  0.1133
  H  H55  1  0.177100  0.744500  0.896000  1.0  0.0828
  H  H56  1  0.081700  0.798200  0.954900  1.0  0.1147
  H  H57  1  0.322900  0.755500  0.896000  1.0  0.0822
  H  H58  1  0.418300  0.701800  0.954900  1.0  0.1144
  H  H59  1  0.177100  0.755500  0.604000  1.0  0.0826
  H  H60  1  0.081700  0.701800  0.545100  1.0  0.1146
  H  H61  1  0.322900  0.744500  0.604000  1.0  0.0819
  H  H62  1  0.418300  0.798200  0.545100  1.0  0.1147
  H  H63  1  0.744500  0.604000  0.322900  1.0  0.0819
  H  H64  1  0.798200  0.545100  0.418300  1.0  0.1125
  H  H65  1  0.755500  0.604000  0.177100  1.0  0.0815
  H  H66  1  0.701800  0.545100  0.081700  1.0  0.113
  H  H67  1  0.755500  0.896000  0.322900  1.0  0.0818
  H  H68  1  0.701800  0.954900  0.418300  1.0  0.1132
  H  H69  1  0.744500  0.896000  0.177100  1.0  0.0815
  H  H70  1  0.798200  0.954900  0.081700  1.0  0.1135
  H  H71  1  0.604000  0.177100  0.755500  1.0  0.0826
  H  H72  1  0.545100  0.081700  0.701800  1.0  0.1135
  H  H73  1  0.604000  0.322900  0.744500  1.0  0.0817
  H  H74  1  0.545100  0.418300  0.798200  1.0  0.1136
  H  H75  1  0.896000  0.177100  0.744500  1.0  0.0819
  H  H76  1  0.954900  0.081700  0.798200  1.0  0.1127
  H  H77  1  0.896000  0.322900  0.755500  1.0  0.0818
  H  H78  1  0.954900  0.418300  0.701800  1.0  0.1132
  H  H79  1  0.755500  0.322900  0.896000  1.0  0.0818
  H  H80  1  0.701800  0.418300  0.954900  1.0  0.1138
  H  H81  1  0.744500  0.177100  0.896000  1.0  0.0822
  H  H82  1  0.798200  0.081700  0.954900  1.0  0.1142
  H  H83  1  0.744500  0.322900  0.604000  1.0  0.0818
  H  H84  1  0.798200  0.418300  0.545100  1.0  0.1141
  H  H85  1  0.755500  0.177100  0.604000  1.0  0.0821
  H  H86  1  0.701800  0.081700  0.545100  1.0  0.1143
  H  H87  1  0.896000  0.755500  0.322900  1.0  0.0818
  H  H88  1  0.954900  0.701800  0.418300  1.0  0.1135
  H  H89  1  0.896000  0.744500  0.177100  1.0  0.0815
  H  H90  1  0.954900  0.798200  0.081700  1.0  0.1136
  H  H91  1  0.604000  0.744500  0.322900  1.0  0.0817
  H  H92  1  0.545100  0.798200  0.418300  1.0  0.1141
  H  H93  1  0.604000  0.755500  0.177100  1.0  0.0822
  H  H94  1  0.545100  0.701800  0.081700  1.0  0.1144
  H  H95  1  0.322900  0.896000  0.755500  1.0  0.0819
  H  H96  1  0.418300  0.954900  0.701800  1.0  0.1131
  H  H97  1  0.177100  0.896000  0.744500  1.0  0.0821
  H  H98  1  0.081700  0.954900  0.798200  1.0  0.1132
  H  H99  1  0.322900  0.604000  0.744500  1.0  0.0818
  H  H100  1  0.418300  0.545100  0.798200  1.0  0.113
  H  H101  1  0.177100  0.604000  0.755500  1.0  0.0828
  H  H102  1  0.081700  0.545100  0.701800  1.0  0.113
  C  C103  1  0.287400  0.656100  0.124700  1.0  0.1675
  C  C104  1  0.319500  0.600100  0.088900  1.0  -0.163
  C  C105  1  0.212600  0.843900  0.124700  1.0  0.1667
  C  C106  1  0.180500  0.899900  0.088900  1.0  -0.1623
  C  C107  1  0.212600  0.656100  0.375300  1.0  0.1666
  C  C108  1  0.180500  0.600100  0.411100  1.0  -0.1598
  C  C109  1  0.287400  0.843900  0.375300  1.0  0.1672
  C  C110  1  0.319500  0.899900  0.411100  1.0  -0.1609
  C  C111  1  0.124700  0.287400  0.656100  1.0  0.167
  C  C112  1  0.088900  0.319500  0.600100  1.0  -0.1654
  C  C113  1  0.124700  0.212600  0.843900  1.0  0.1658
  C  C114  1  0.088900  0.180500  0.899900  1.0  -0.1658
  C  C115  1  0.375300  0.212600  0.656100  1.0  0.1653
  C  C116  1  0.411100  0.180500  0.600100  1.0  -0.1628
  C  C117  1  0.375300  0.287400  0.843900  1.0  0.1657
  C  C118  1  0.411100  0.319500  0.899900  1.0  -0.1649
  C  C119  1  0.656100  0.124700  0.287400  1.0  0.1667
  C  C120  1  0.600100  0.088900  0.319500  1.0  -0.1641
  C  C121  1  0.843900  0.124700  0.212600  1.0  0.1661
  C  C122  1  0.899900  0.088900  0.180500  1.0  -0.165
  C  C123  1  0.656100  0.375300  0.212600  1.0  0.1664
  C  C124  1  0.600100  0.411100  0.180500  1.0  -0.1664
  C  C125  1  0.843900  0.375300  0.287400  1.0  0.166
  C  C126  1  0.899900  0.411100  0.319500  1.0  -0.1657
  C  C127  1  0.843900  0.212600  0.124700  1.0  0.1648
  C  C128  1  0.899900  0.180500  0.088900  1.0  -0.1654
  C  C129  1  0.656100  0.287400  0.124700  1.0  0.1653
  C  C130  1  0.600100  0.319500  0.088900  1.0  -0.1664
  C  C131  1  0.843900  0.287400  0.375300  1.0  0.1652
  C  C132  1  0.899900  0.319500  0.411100  1.0  -0.1648
  C  C133  1  0.656100  0.212600  0.375300  1.0  0.1648
  C  C134  1  0.600100  0.180500  0.411100  1.0  -0.165
  C  C135  1  0.212600  0.375300  0.656100  1.0  0.1693
  C  C136  1  0.180500  0.411100  0.600100  1.0  -0.1609
  C  C137  1  0.287400  0.375300  0.843900  1.0  0.1693
  C  C138  1  0.319500  0.411100  0.899900  1.0  -0.1618
  C  C139  1  0.287400  0.124700  0.656100  1.0  0.17
  C  C140  1  0.319500  0.088900  0.600100  1.0  -0.1602
  C  C141  1  0.212600  0.124700  0.843900  1.0  0.1686
  C  C142  1  0.180500  0.088900  0.899900  1.0  -0.1612
  C  C143  1  0.375300  0.843900  0.287400  1.0  0.1666
  C  C144  1  0.411100  0.899900  0.319500  1.0  -0.1635
  C  C145  1  0.375300  0.656100  0.212600  1.0  0.1672
  C  C146  1  0.411100  0.600100  0.180500  1.0  -0.1638
  C  C147  1  0.124700  0.843900  0.212600  1.0  0.1673
  C  C148  1  0.088900  0.899900  0.180500  1.0  -0.1658
  C  C149  1  0.124700  0.656100  0.287400  1.0  0.1677
  C  C150  1  0.088900  0.600100  0.319500  1.0  -0.165
  C  C151  1  0.384000  0.568900  0.116000  1.0  -0.0953
  C  C152  1  0.418800  0.505300  0.081200  1.0  0.4073
  C  C153  1  0.116000  0.931100  0.116000  1.0  -0.0939
  C  C154  1  0.081200  0.994700  0.081200  1.0  0.4047
  C  C155  1  0.116000  0.568900  0.384000  1.0  -0.0961
  C  C156  1  0.081200  0.505300  0.418800  1.0  0.4048
  C  C157  1  0.384000  0.931100  0.384000  1.0  -0.093
  C  C158  1  0.418800  0.994700  0.418800  1.0  0.4062
  C  C159  1  0.116000  0.384000  0.568900  1.0  -0.0982
  C  C160  1  0.081200  0.418800  0.505300  1.0  0.4053
  C  C161  1  0.116000  0.116000  0.931100  1.0  -0.0984
  C  C162  1  0.081200  0.081200  0.994700  1.0  0.4071
  C  C163  1  0.384000  0.116000  0.568900  1.0  -0.0982
  C  C164  1  0.418800  0.081200  0.505300  1.0  0.4092
  C  C165  1  0.384000  0.384000  0.931100  1.0  -0.0965
  C  C166  1  0.418800  0.418800  0.994700  1.0  0.4073
  C  C167  1  0.568900  0.116000  0.384000  1.0  -0.0944
  C  C168  1  0.505300  0.081200  0.418800  1.0  0.4054
  C  C169  1  0.931100  0.116000  0.116000  1.0  -0.0935
  C  C170  1  0.994700  0.081200  0.081200  1.0  0.405
  C  C171  1  0.568900  0.384000  0.116000  1.0  -0.0952
  C  C172  1  0.505300  0.418800  0.081200  1.0  0.4044
  C  C173  1  0.931100  0.384000  0.384000  1.0  -0.0932
  C  C174  1  0.994700  0.418800  0.418800  1.0  0.4027
  C  C175  1  0.156100  0.787400  0.875300  1.0  0.1653
  C  C176  1  0.100100  0.819500  0.911100  1.0  -0.1642
  C  C177  1  0.343900  0.712600  0.875300  1.0  0.1625
  C  C178  1  0.399900  0.680500  0.911100  1.0  -0.1651
  C  C179  1  0.156100  0.712600  0.624700  1.0  0.1652
  C  C180  1  0.100100  0.680500  0.588900  1.0  -0.1659
  C  C181  1  0.343900  0.787400  0.624700  1.0  0.1636
  C  C182  1  0.399900  0.819500  0.588900  1.0  -0.1678
  C  C183  1  0.787400  0.624700  0.343900  1.0  0.1681
  C  C184  1  0.819500  0.588900  0.399900  1.0  -0.1616
  C  C185  1  0.712600  0.624700  0.156100  1.0  0.1687
  C  C186  1  0.680500  0.588900  0.100100  1.0  -0.1609
  C  C187  1  0.712600  0.875300  0.343900  1.0  0.1678
  C  C188  1  0.680500  0.911100  0.399900  1.0  -0.1619
  C  C189  1  0.787400  0.875300  0.156100  1.0  0.1691
  C  C190  1  0.819500  0.911100  0.100100  1.0  -0.1613
  C  C191  1  0.624700  0.156100  0.712600  1.0  0.1661
  C  C192  1  0.588900  0.100100  0.680500  1.0  -0.165
  C  C193  1  0.624700  0.343900  0.787400  1.0  0.1668
  C  C194  1  0.588900  0.399900  0.819500  1.0  -0.1651
  C  C195  1  0.875300  0.156100  0.787400  1.0  0.1657
  C  C196  1  0.911100  0.100100  0.819500  1.0  -0.1639
  C  C197  1  0.875300  0.343900  0.712600  1.0  0.1664
  C  C198  1  0.911100  0.399900  0.680500  1.0  -0.1643
  C  C199  1  0.712600  0.343900  0.875300  1.0  0.1669
  C  C200  1  0.680500  0.399900  0.911100  1.0  -0.1602
  C  C201  1  0.787400  0.156100  0.875300  1.0  0.1683
  C  C202  1  0.819500  0.100100  0.911100  1.0  -0.1602
  C  C203  1  0.787400  0.343900  0.624700  1.0  0.1686
  C  C204  1  0.819500  0.399900  0.588900  1.0  -0.1618
  C  C205  1  0.712600  0.156100  0.624700  1.0  0.1678
  C  C206  1  0.680500  0.100100  0.588900  1.0  -0.1629
  C  C207  1  0.875300  0.712600  0.343900  1.0  0.1662
  C  C208  1  0.911100  0.680500  0.399900  1.0  -0.1638
  C  C209  1  0.875300  0.787400  0.156100  1.0  0.1673
  C  C210  1  0.911100  0.819500  0.100100  1.0  -0.1642
  C  C211  1  0.624700  0.787400  0.343900  1.0  0.1669
  C  C212  1  0.588900  0.819500  0.399900  1.0  -0.1651
  C  C213  1  0.624700  0.712600  0.156100  1.0  0.1667
  C  C214  1  0.588900  0.680500  0.100100  1.0  -0.1645
  C  C215  1  0.343900  0.875300  0.712600  1.0  0.1665
  C  C216  1  0.399900  0.911100  0.680500  1.0  -0.1657
  C  C217  1  0.156100  0.875300  0.787400  1.0  0.1677
  C  C218  1  0.100100  0.911100  0.819500  1.0  -0.165
  C  C219  1  0.343900  0.624700  0.787400  1.0  0.1668
  C  C220  1  0.399900  0.588900  0.819500  1.0  -0.1647
  C  C221  1  0.156100  0.624700  0.712600  1.0  0.168
  C  C222  1  0.100100  0.588900  0.680500  1.0  -0.1649
  C  C223  1  0.068900  0.884000  0.884000  1.0  -0.0946
  C  C224  1  0.005300  0.918800  0.918800  1.0  0.4034
  C  C225  1  0.431100  0.616000  0.884000  1.0  -0.0938
  C  C226  1  0.494700  0.581200  0.918800  1.0  0.4048
  C  C227  1  0.068900  0.616000  0.616000  1.0  -0.0945
  C  C228  1  0.005300  0.581200  0.581200  1.0  0.4045
  C  C229  1  0.431100  0.884000  0.616000  1.0  -0.0933
  C  C230  1  0.494700  0.918800  0.581200  1.0  0.405
  C  C231  1  0.884000  0.616000  0.431100  1.0  -0.097
  C  C232  1  0.918800  0.581200  0.494700  1.0  0.4084
  C  C233  1  0.616000  0.616000  0.068900  1.0  -0.0983
  C  C234  1  0.581200  0.581200  0.005300  1.0  0.4067
  C  C235  1  0.616000  0.884000  0.431100  1.0  -0.098
  C  C236  1  0.581200  0.918800  0.494700  1.0  0.4063
  C  C237  1  0.884000  0.884000  0.068900  1.0  -0.0972
  C  C238  1  0.918800  0.918800  0.005300  1.0  0.4076
  C  C239  1  0.616000  0.068900  0.616000  1.0  -0.0957
  C  C240  1  0.581200  0.005300  0.581200  1.0  0.406
  C  C241  1  0.616000  0.431100  0.884000  1.0  -0.094
  C  C242  1  0.581200  0.494700  0.918800  1.0  0.404
  C  C243  1  0.884000  0.068900  0.884000  1.0  -0.0948
  C  C244  1  0.918800  0.005300  0.918800  1.0  0.4067
  C  C245  1  0.884000  0.431100  0.616000  1.0  -0.0932
  C  C246  1  0.918800  0.494700  0.581200  1.0  0.4065
  N  N247  1  0.312500  0.683900  0.187500  1.0  -0.3213
  N  N248  1  0.187500  0.816100  0.187500  1.0  -0.3205
  N  N249  1  0.187500  0.683900  0.312500  1.0  -0.3204
  N  N250  1  0.312500  0.816100  0.312500  1.0  -0.3224
  N  N251  1  0.187500  0.312500  0.683900  1.0  -0.3225
  N  N252  1  0.187500  0.187500  0.816100  1.0  -0.3226
  N  N253  1  0.312500  0.187500  0.683900  1.0  -0.3238
  N  N254  1  0.312500  0.312500  0.816100  1.0  -0.3248
  N  N255  1  0.683900  0.187500  0.312500  1.0  -0.3224
  N  N256  1  0.816100  0.187500  0.187500  1.0  -0.3212
  N  N257  1  0.683900  0.312500  0.187500  1.0  -0.3221
  N  N258  1  0.816100  0.312500  0.312500  1.0  -0.3228
  N  N259  1  0.387400  0.478900  0.021100  1.0  -0.5256
  N  N260  1  0.112600  0.021100  0.021100  1.0  -0.5244
  N  N261  1  0.112600  0.478900  0.478900  1.0  -0.5246
  N  N262  1  0.387400  0.021100  0.478900  1.0  -0.5242
  N  N263  1  0.021100  0.387400  0.478900  1.0  -0.5258
  N  N264  1  0.021100  0.112600  0.021100  1.0  -0.5272
  N  N265  1  0.478900  0.112600  0.478900  1.0  -0.5271
  N  N266  1  0.478900  0.387400  0.021100  1.0  -0.5262
  N  N267  1  0.478900  0.021100  0.387400  1.0  -0.5227
  N  N268  1  0.021100  0.021100  0.112600  1.0  -0.5227
  N  N269  1  0.478900  0.478900  0.112600  1.0  -0.524
  N  N270  1  0.021100  0.478900  0.387400  1.0  -0.5225
  N  N271  1  0.183900  0.812500  0.812500  1.0  -0.3227
  N  N272  1  0.316100  0.687500  0.812500  1.0  -0.3219
  N  N273  1  0.183900  0.687500  0.687500  1.0  -0.3218
  N  N274  1  0.316100  0.812500  0.687500  1.0  -0.3221
  N  N275  1  0.812500  0.687500  0.316100  1.0  -0.3238
  N  N276  1  0.687500  0.687500  0.183900  1.0  -0.3222
  N  N277  1  0.687500  0.812500  0.316100  1.0  -0.3236
  N  N278  1  0.812500  0.812500  0.183900  1.0  -0.324
  N  N279  1  0.687500  0.183900  0.687500  1.0  -0.3198
  N  N280  1  0.687500  0.316100  0.812500  1.0  -0.3211
  N  N281  1  0.812500  0.183900  0.812500  1.0  -0.322
  N  N282  1  0.812500  0.316100  0.687500  1.0  -0.3216
  N  N283  1  0.978900  0.887400  0.978900  1.0  -0.5252
  N  N284  1  0.521100  0.612600  0.978900  1.0  -0.5273
  N  N285  1  0.978900  0.612600  0.521100  1.0  -0.5269
  N  N286  1  0.521100  0.887400  0.521100  1.0  -0.5262
  N  N287  1  0.887400  0.521100  0.521100  1.0  -0.525
  N  N288  1  0.612600  0.521100  0.978900  1.0  -0.5245
  N  N289  1  0.612600  0.978900  0.521100  1.0  -0.5247
  N  N290  1  0.887400  0.978900  0.978900  1.0  -0.5243
  N  N291  1  0.521100  0.978900  0.612600  1.0  -0.5234
  N  N292  1  0.521100  0.521100  0.887400  1.0  -0.5236
  N  N293  1  0.978900  0.978900  0.887400  1.0  -0.521
  N  N294  1  0.978900  0.521100  0.612600  1.0  -0.5238
