# generated using pymatgen
data_Co2H22C34N2O11
_symmetry_space_group_name_H-M   'P 1'
_cell_length_a   17.28000000
_cell_length_b   14.80200000
_cell_length_c   14.36500000
_cell_angle_alpha   90.00000000
_cell_angle_beta   116.30800000
_cell_angle_gamma   90.00000000
_symmetry_Int_Tables_number   1
_chemical_formula_structural   Co2H22C34N2O11
_chemical_formula_sum   'Co8 H88 C136 N8 O44'
_cell_volume   3293.69601015
_cell_formula_units_Z   4
loop_
 _symmetry_equiv_pos_site_id
 _symmetry_equiv_pos_as_xyz
  1  'x, y, z'
loop_
 _atom_site_type_symbol
 _atom_site_label
 _atom_site_symmetry_multiplicity
 _atom_site_fract_x
 _atom_site_fract_y
 _atom_site_fract_z
 _atom_site_occupancy
 _atom_site_charge
  Co  Co1  1  0.191390  0.483070  0.157610  1.0  1.1193
  Co  Co2  1  0.200850  0.498480  0.414580  1.0  1.1097
  Co  Co3  1  0.691390  0.983070  0.157610  1.0  1.1186
  Co  Co4  1  0.700850  0.998480  0.414580  1.0  1.1109
  Co  Co5  1  0.191390  0.516930  0.657610  1.0  1.1211
  Co  Co6  1  0.200850  0.501520  0.914580  1.0  1.1094
  Co  Co7  1  0.691390  0.016930  0.657610  1.0  1.1207
  Co  Co8  1  0.700850  0.001520  0.914580  1.0  1.1094
  H  H9  1  0.621800  0.295400  0.623900  1.0  0.1317
  H  H10  1  0.769600  0.308400  0.723300  1.0  0.1173
  H  H11  1  0.739800  0.574500  0.741200  1.0  0.1296
  H  H12  1  0.595500  0.558700  0.642200  1.0  0.1341
  H  H13  1  0.043900  0.341200  0.938600  1.0  0.1044
  H  H14  1  0.898700  0.320000  0.839200  1.0  0.1336
  H  H15  1  0.871200  0.591400  0.815900  1.0  0.1329
  H  H16  1  0.015400  0.604800  0.925600  1.0  0.1288
  H  H17  1  0.928200  0.956500  0.254600  1.0  0.1065
  H  H18  1  0.053900  0.992700  0.394700  1.0  0.1225
  H  H19  1  0.172000  0.896600  0.448400  1.0  0.0988
  H  H20  1  0.162700  0.760300  0.367500  1.0  0.1193
  H  H21  1  0.832700  0.719700  0.019400  1.0  0.126
  H  H22  1  0.950300  0.625900  0.070400  1.0  0.1002
  H  H23  1  0.451600  0.028300  0.609200  1.0  0.1011
  H  H24  1  0.315000  0.981400  0.498200  1.0  0.1167
  H  H25  1  0.201000  0.084200  0.439800  1.0  0.108
  H  H26  1  0.221000  0.226900  0.503800  1.0  0.1231
  H  H27  1  0.568900  0.280600  0.807600  1.0  0.127
  H  H28  1  0.452800  0.383000  0.754200  1.0  0.1036
  H  H29  1  0.319700  0.523300  0.343800  1.0  0.2118
  H  H30  1  0.303700  0.418800  0.342700  1.0  0.2235
  H  H31  1  0.121800  0.795400  0.623900  1.0  0.1317
  H  H32  1  0.269600  0.808400  0.723300  1.0  0.1173
  H  H33  1  0.239800  0.074500  0.741200  1.0  0.1296
  H  H34  1  0.095500  0.058700  0.642200  1.0  0.1341
  H  H35  1  0.543900  0.841200  0.938600  1.0  0.1044
  H  H36  1  0.398700  0.820000  0.839200  1.0  0.1336
  H  H37  1  0.371200  0.091400  0.815900  1.0  0.1329
  H  H38  1  0.515400  0.104800  0.925600  1.0  0.1293
  H  H39  1  0.428200  0.456500  0.254600  1.0  0.1065
  H  H40  1  0.553900  0.492700  0.394700  1.0  0.1225
  H  H41  1  0.672000  0.396600  0.448400  1.0  0.0988
  H  H42  1  0.662700  0.260300  0.367500  1.0  0.1193
  H  H43  1  0.332700  0.219700  0.019400  1.0  0.126
  H  H44  1  0.450300  0.125900  0.070400  1.0  0.1002
  H  H45  1  0.951600  0.528300  0.609200  1.0  0.1011
  H  H46  1  0.815000  0.481400  0.498200  1.0  0.1167
  H  H47  1  0.701000  0.584200  0.439800  1.0  0.108
  H  H48  1  0.721000  0.726900  0.503800  1.0  0.1231
  H  H49  1  0.068900  0.780600  0.807600  1.0  0.127
  H  H50  1  0.952800  0.883000  0.754200  1.0  0.1036
  H  H51  1  0.819700  0.023300  0.343800  1.0  0.2118
  H  H52  1  0.803700  0.918800  0.342700  1.0  0.2235
  H  H53  1  0.621800  0.704600  0.123900  1.0  0.1316
  H  H54  1  0.769600  0.691600  0.223300  1.0  0.1176
  H  H55  1  0.739800  0.425500  0.241200  1.0  0.129
  H  H56  1  0.595500  0.441300  0.142200  1.0  0.1339
  H  H57  1  0.043900  0.658800  0.438600  1.0  0.1048
  H  H58  1  0.898700  0.680000  0.339200  1.0  0.1335
  H  H59  1  0.871200  0.408600  0.315900  1.0  0.1322
  H  H60  1  0.015400  0.395200  0.425600  1.0  0.1292
  H  H61  1  0.928200  0.043500  0.754600  1.0  0.1058
  H  H62  1  0.053900  0.007300  0.894700  1.0  0.1222
  H  H63  1  0.172000  0.103400  0.948400  1.0  0.0993
  H  H64  1  0.162700  0.239700  0.867500  1.0  0.1192
  H  H65  1  0.832700  0.280300  0.519400  1.0  0.1256
  H  H66  1  0.950300  0.374100  0.570400  1.0  0.1
  H  H67  1  0.451600  0.971700  0.109200  1.0  0.1012
  H  H68  1  0.315000  0.018600  0.998200  1.0  0.1164
  H  H69  1  0.201000  0.915800  0.939800  1.0  0.108
  H  H70  1  0.221000  0.773100  0.003800  1.0  0.1228
  H  H71  1  0.568900  0.719400  0.307600  1.0  0.1271
  H  H72  1  0.452800  0.617000  0.254200  1.0  0.1033
  H  H73  1  0.319700  0.476700  0.843800  1.0  0.2139
  H  H74  1  0.303700  0.581200  0.842700  1.0  0.2221
  H  H75  1  0.121800  0.204600  0.123900  1.0  0.1316
  H  H76  1  0.269600  0.191600  0.223300  1.0  0.1176
  H  H77  1  0.239800  0.925500  0.241200  1.0  0.129
  H  H78  1  0.095500  0.941300  0.142200  1.0  0.1339
  H  H79  1  0.543900  0.158800  0.438600  1.0  0.1048
  H  H80  1  0.398700  0.180000  0.339200  1.0  0.1335
  H  H81  1  0.371200  0.908600  0.315900  1.0  0.1322
  H  H82  1  0.515400  0.895200  0.425600  1.0  0.1297
  H  H83  1  0.428200  0.543500  0.754600  1.0  0.1058
  H  H84  1  0.553900  0.507300  0.894700  1.0  0.1222
  H  H85  1  0.672000  0.603400  0.948400  1.0  0.0993
  H  H86  1  0.662700  0.739700  0.867500  1.0  0.1192
  H  H87  1  0.332700  0.780300  0.519400  1.0  0.1256
  H  H88  1  0.450300  0.874100  0.570400  1.0  0.1
  H  H89  1  0.951600  0.471700  0.109200  1.0  0.1012
  H  H90  1  0.815000  0.518600  0.998200  1.0  0.1164
  H  H91  1  0.701000  0.415800  0.939800  1.0  0.108
  H  H92  1  0.721000  0.273100  0.003800  1.0  0.1228
  H  H93  1  0.068900  0.219400  0.307600  1.0  0.1271
  H  H94  1  0.952800  0.117000  0.254200  1.0  0.1033
  H  H95  1  0.819700  0.976700  0.843800  1.0  0.2139
  H  H96  1  0.803700  0.081200  0.842700  1.0  0.2221
  C  C97  1  0.646700  0.351900  0.646600  1.0  0.0128
  C  C98  1  0.735000  0.359700  0.707700  1.0  -0.0993
  C  C99  1  0.773100  0.444100  0.746200  1.0  0.0449
  C  C100  1  0.717400  0.517300  0.718100  1.0  -0.1179
  C  C101  1  0.631000  0.508200  0.657600  1.0  0.0188
  C  C102  1  0.007800  0.391200  0.914500  1.0  -0.0259
  C  C103  1  0.921400  0.378100  0.853900  1.0  -0.1204
  C  C104  1  0.866900  0.454900  0.813700  1.0  0.0568
  C  C105  1  0.904700  0.539800  0.841200  1.0  -0.1021
  C  C106  1  0.991200  0.547800  0.905400  1.0  -0.0434
  C  C107  1  0.974600  0.916800  0.276300  1.0  -0.1282
  C  C108  1  0.049600  0.938800  0.359500  1.0  -0.0905
  C  C109  1  0.120400  0.880300  0.392300  1.0  -0.0723
  C  C110  1  0.115300  0.798900  0.343300  1.0  -0.1383
  C  C111  1  0.036400  0.773100  0.254200  1.0  0.0458
  C  C112  1  0.965200  0.833100  0.220600  1.0  0.0424
  C  C113  1  0.887300  0.810800  0.132800  1.0  -0.1067
  C  C114  1  0.883200  0.733900  0.078100  1.0  -0.0989
  C  C115  1  0.954100  0.677200  0.109800  1.0  -0.0455
  C  C116  1  0.029100  0.693600  0.196700  1.0  -0.1264
  C  C117  1  0.098900  0.620900  0.228900  1.0  0.7161
  C  C118  1  0.811600  0.875000  0.095100  1.0  0.7292
  C  C119  1  0.405700  0.068600  0.589300  1.0  -0.0882
  C  C120  1  0.324500  0.040800  0.521800  1.0  -0.1067
  C  C121  1  0.255500  0.102300  0.488300  1.0  -0.0908
  C  C122  1  0.267600  0.187500  0.525900  1.0  -0.0274
  C  C123  1  0.348500  0.217100  0.596400  1.0  -0.0965
  C  C124  1  0.420700  0.155800  0.628500  1.0  -0.0197
  C  C125  1  0.504200  0.184100  0.703600  1.0  -0.0742
  C  C126  1  0.515690  0.265690  0.753490  1.0  -0.0767
  C  C127  1  0.444790  0.327360  0.721160  1.0  -0.0544
  C  C128  1  0.365700  0.306610  0.643090  1.0  -0.0815
  C  C129  1  0.298870  0.377100  0.603170  1.0  0.7317
  C  C130  1  0.581470  0.123850  0.731450  1.0  0.7026
  C  C131  1  0.146700  0.851900  0.646600  1.0  0.0128
  C  C132  1  0.235000  0.859700  0.707700  1.0  -0.0993
  C  C133  1  0.273100  0.944100  0.746200  1.0  0.0449
  C  C134  1  0.217400  0.017300  0.718100  1.0  -0.1179
  C  C135  1  0.131000  0.008200  0.657600  1.0  0.0188
  C  C136  1  0.507800  0.891200  0.914500  1.0  -0.0259
  C  C137  1  0.421400  0.878100  0.853900  1.0  -0.1204
  C  C138  1  0.366900  0.954900  0.813700  1.0  0.0568
  C  C139  1  0.404700  0.039800  0.841200  1.0  -0.1021
  C  C140  1  0.491200  0.047800  0.905400  1.0  -0.0434
  C  C141  1  0.474600  0.416800  0.276300  1.0  -0.1282
  C  C142  1  0.549600  0.438800  0.359500  1.0  -0.0905
  C  C143  1  0.620400  0.380300  0.392300  1.0  -0.0723
  C  C144  1  0.615300  0.298900  0.343300  1.0  -0.1383
  C  C145  1  0.536400  0.273100  0.254200  1.0  0.0458
  C  C146  1  0.465200  0.333100  0.220600  1.0  0.0424
  C  C147  1  0.387300  0.310800  0.132800  1.0  -0.1067
  C  C148  1  0.383200  0.233900  0.078100  1.0  -0.0989
  C  C149  1  0.454100  0.177200  0.109800  1.0  -0.0455
  C  C150  1  0.529100  0.193600  0.196700  1.0  -0.1264
  C  C151  1  0.598900  0.120900  0.228900  1.0  0.7161
  C  C152  1  0.311600  0.375000  0.095100  1.0  0.7292
  C  C153  1  0.905700  0.568600  0.589300  1.0  -0.0882
  C  C154  1  0.824500  0.540800  0.521800  1.0  -0.1067
  C  C155  1  0.755500  0.602300  0.488300  1.0  -0.0908
  C  C156  1  0.767600  0.687500  0.525900  1.0  -0.0274
  C  C157  1  0.848500  0.717100  0.596400  1.0  -0.0965
  C  C158  1  0.920700  0.655800  0.628500  1.0  -0.0197
  C  C159  1  0.004200  0.684100  0.703600  1.0  -0.0742
  C  C160  1  0.015690  0.765690  0.753490  1.0  -0.0767
  C  C161  1  0.944790  0.827360  0.721160  1.0  -0.0544
  C  C162  1  0.865700  0.806610  0.643090  1.0  -0.0815
  C  C163  1  0.798870  0.877100  0.603170  1.0  0.7317
  C  C164  1  0.081470  0.623850  0.731450  1.0  0.7026
  C  C165  1  0.646700  0.648100  0.146600  1.0  0.0121
  C  C166  1  0.735000  0.640300  0.207700  1.0  -0.0997
  C  C167  1  0.773100  0.555900  0.246200  1.0  0.0448
  C  C168  1  0.717400  0.482700  0.218100  1.0  -0.1177
  C  C169  1  0.631000  0.491800  0.157600  1.0  0.0203
  C  C170  1  0.007800  0.608800  0.414500  1.0  -0.0249
  C  C171  1  0.921400  0.621900  0.353900  1.0  -0.1221
  C  C172  1  0.866900  0.545100  0.313700  1.0  0.057
  C  C173  1  0.904700  0.460200  0.341200  1.0  -0.1007
  C  C174  1  0.991200  0.452200  0.405400  1.0  -0.044
  C  C175  1  0.974600  0.083200  0.776300  1.0  -0.1274
  C  C176  1  0.049600  0.061200  0.859500  1.0  -0.0916
  C  C177  1  0.120400  0.119700  0.892300  1.0  -0.0721
  C  C178  1  0.115300  0.201100  0.843300  1.0  -0.1387
  C  C179  1  0.036400  0.226900  0.754200  1.0  0.0458
  C  C180  1  0.965200  0.166900  0.720600  1.0  0.042
  C  C181  1  0.887300  0.189200  0.632800  1.0  -0.1066
  C  C182  1  0.883200  0.266100  0.578100  1.0  -0.0991
  C  C183  1  0.954100  0.322800  0.609800  1.0  -0.0472
  C  C184  1  0.029100  0.306400  0.696700  1.0  -0.1257
  C  C185  1  0.098900  0.379100  0.728900  1.0  0.7156
  C  C186  1  0.811600  0.125000  0.595100  1.0  0.7291
  C  C187  1  0.405700  0.931400  0.089300  1.0  -0.0887
  C  C188  1  0.324500  0.959200  0.021800  1.0  -0.1063
  C  C189  1  0.255500  0.897700  0.988300  1.0  -0.0916
  C  C190  1  0.267600  0.812500  0.025900  1.0  -0.0278
  C  C191  1  0.348500  0.782900  0.096400  1.0  -0.0973
  C  C192  1  0.420700  0.844200  0.128500  1.0  -0.0205
  C  C193  1  0.504200  0.815900  0.203600  1.0  -0.0735
  C  C194  1  0.515690  0.734310  0.253490  1.0  -0.0758
  C  C195  1  0.444790  0.672640  0.221160  1.0  -0.0551
  C  C196  1  0.365700  0.693390  0.143090  1.0  -0.0819
  C  C197  1  0.298870  0.622900  0.103170  1.0  0.7312
  C  C198  1  0.581470  0.876150  0.231450  1.0  0.7031
  C  C199  1  0.146700  0.148100  0.146600  1.0  0.0121
  C  C200  1  0.235000  0.140300  0.207700  1.0  -0.0997
  C  C201  1  0.273100  0.055900  0.246200  1.0  0.0448
  C  C202  1  0.217400  0.982700  0.218100  1.0  -0.1177
  C  C203  1  0.131000  0.991800  0.157600  1.0  0.0203
  C  C204  1  0.507800  0.108800  0.414500  1.0  -0.0249
  C  C205  1  0.421400  0.121900  0.353900  1.0  -0.1221
  C  C206  1  0.366900  0.045100  0.313700  1.0  0.057
  C  C207  1  0.404700  0.960200  0.341200  1.0  -0.1007
  C  C208  1  0.491200  0.952200  0.405400  1.0  -0.044
  C  C209  1  0.474600  0.583200  0.776300  1.0  -0.1274
  C  C210  1  0.549600  0.561200  0.859500  1.0  -0.0916
  C  C211  1  0.620400  0.619700  0.892300  1.0  -0.0721
  C  C212  1  0.615300  0.701100  0.843300  1.0  -0.1387
  C  C213  1  0.536400  0.726900  0.754200  1.0  0.0458
  C  C214  1  0.465200  0.666900  0.720600  1.0  0.042
  C  C215  1  0.387300  0.689200  0.632800  1.0  -0.1066
  C  C216  1  0.383200  0.766100  0.578100  1.0  -0.0991
  C  C217  1  0.454100  0.822800  0.609800  1.0  -0.0472
  C  C218  1  0.529100  0.806400  0.696700  1.0  -0.1257
  C  C219  1  0.598900  0.879100  0.728900  1.0  0.7156
  C  C220  1  0.311600  0.625000  0.595100  1.0  0.7291
  C  C221  1  0.905700  0.431400  0.089300  1.0  -0.0887
  C  C222  1  0.824500  0.459200  0.021800  1.0  -0.1063
  C  C223  1  0.755500  0.397700  0.988300  1.0  -0.0916
  C  C224  1  0.767600  0.312500  0.025900  1.0  -0.0278
  C  C225  1  0.848500  0.282900  0.096400  1.0  -0.0973
  C  C226  1  0.920700  0.344200  0.128500  1.0  -0.0205
  C  C227  1  0.004200  0.315900  0.203600  1.0  -0.0735
  C  C228  1  0.015690  0.234310  0.253490  1.0  -0.0758
  C  C229  1  0.944790  0.172640  0.221160  1.0  -0.0551
  C  C230  1  0.865700  0.193390  0.143090  1.0  -0.0819
  C  C231  1  0.798870  0.122900  0.103170  1.0  0.7312
  C  C232  1  0.081470  0.376150  0.231450  1.0  0.7031
  N  N233  1  0.597000  0.427800  0.620300  1.0  0.3121
  N  N234  1  0.041700  0.473700  0.939800  1.0  0.309
  N  N235  1  0.097000  0.927800  0.620300  1.0  0.3121
  N  N236  1  0.541700  0.973700  0.939800  1.0  0.309
  N  N237  1  0.597000  0.572200  0.120300  1.0  0.3117
  N  N238  1  0.041700  0.526300  0.439800  1.0  0.3091
  N  N239  1  0.097000  0.072200  0.120300  1.0  0.3117
  N  N240  1  0.541700  0.026300  0.439800  1.0  0.3091
  O  O241  1  0.513600  0.418500  0.560600  1.0  -0.5193
  O  O242  1  0.126500  0.483200  0.994700  1.0  -0.653
  O  O243  1  0.139800  0.607100  0.323600  1.0  -0.5724
  O  O244  1  0.107600  0.581900  0.157400  1.0  -0.5863
  O  O245  1  0.794700  0.913500  0.011000  1.0  -0.5991
  O  O246  1  0.772400  0.883000  0.150000  1.0  -0.5835
  O  O247  1  0.266400  0.392200  0.506600  1.0  -0.598
  O  O248  1  0.281200  0.419700  0.666900  1.0  -0.5893
  O  O249  1  0.610500  0.089400  0.818400  1.0  -0.6057
  O  O250  1  0.608700  0.112800  0.665400  1.0  -0.5792
  O  O251  1  0.275410  0.477250  0.325160  1.0  -0.8335
  O  O252  1  0.013600  0.918500  0.560600  1.0  -0.5195
  O  O253  1  0.626500  0.983200  0.994700  1.0  -0.653
  O  O254  1  0.639800  0.107100  0.323600  1.0  -0.5724
  O  O255  1  0.607600  0.081900  0.157400  1.0  -0.5863
  O  O256  1  0.294700  0.413500  0.011000  1.0  -0.5991
  O  O257  1  0.272400  0.383000  0.150000  1.0  -0.5835
  O  O258  1  0.766400  0.892200  0.506600  1.0  -0.598
  O  O259  1  0.781200  0.919700  0.666900  1.0  -0.5893
  O  O260  1  0.110500  0.589400  0.818400  1.0  -0.6057
  O  O261  1  0.108700  0.612800  0.665400  1.0  -0.5782
  O  O262  1  0.775410  0.977250  0.325160  1.0  -0.8335
  O  O263  1  0.513600  0.581500  0.060600  1.0  -0.5192
  O  O264  1  0.126500  0.516800  0.494700  1.0  -0.6528
  O  O265  1  0.139800  0.392900  0.823600  1.0  -0.5718
  O  O266  1  0.107600  0.418100  0.657400  1.0  -0.5867
  O  O267  1  0.794700  0.086500  0.511000  1.0  -0.5988
  O  O268  1  0.772400  0.117000  0.650000  1.0  -0.5832
  O  O269  1  0.266400  0.607800  0.006600  1.0  -0.5982
  O  O270  1  0.281200  0.580300  0.166900  1.0  -0.5892
  O  O271  1  0.610500  0.910600  0.318400  1.0  -0.6053
  O  O272  1  0.608700  0.887200  0.165400  1.0  -0.578
  O  O273  1  0.275410  0.522750  0.825160  1.0  -0.8335
  O  O274  1  0.013600  0.081500  0.060600  1.0  -0.5194
  O  O275  1  0.626500  0.016800  0.494700  1.0  -0.6528
  O  O276  1  0.639800  0.892900  0.823600  1.0  -0.5718
  O  O277  1  0.607600  0.918100  0.657400  1.0  -0.5867
  O  O278  1  0.294700  0.586500  0.511000  1.0  -0.5988
  O  O279  1  0.272400  0.617000  0.650000  1.0  -0.5832
  O  O280  1  0.766400  0.107800  0.006600  1.0  -0.5982
  O  O281  1  0.781200  0.080300  0.166900  1.0  -0.5892
  O  O282  1  0.110500  0.410600  0.318400  1.0  -0.6053
  O  O283  1  0.108700  0.387200  0.165400  1.0  -0.5782
  O  O284  1  0.775410  0.022750  0.825160  1.0  -0.8335
