# generated using pymatgen
data_NiHgC4(SN)4
_symmetry_space_group_name_H-M   'P 1'
_cell_length_a   10.17460000
_cell_length_b   10.17460000
_cell_length_c   29.51070000
_cell_angle_alpha   90.00000000
_cell_angle_beta   90.00000000
_cell_angle_gamma   90.00000000
_symmetry_Int_Tables_number   1
_chemical_formula_structural   NiHgC4(SN)4
_chemical_formula_sum   'Ni8 Hg8 C32 S32 N32'
_cell_volume   3055.02100281
_cell_formula_units_Z   8
loop_
 _symmetry_equiv_pos_site_id
 _symmetry_equiv_pos_as_xyz
  1  'x, y, z'
loop_
 _atom_site_type_symbol
 _atom_site_label
 _atom_site_symmetry_multiplicity
 _atom_site_fract_x
 _atom_site_fract_y
 _atom_site_fract_z
 _atom_site_occupancy
 _atom_site_charge
  Ni  Ni1  1  0.000000  0.500000  0.050600  1.0  0.6707
  Ni  Ni2  1  0.500000  0.000000  0.550600  1.0  0.6707
  Ni  Ni3  1  0.500000  0.000000  0.949400  1.0  0.6706
  Ni  Ni4  1  0.000000  0.500000  0.449400  1.0  0.6706
  Ni  Ni5  1  0.500000  0.500000  0.699400  1.0  0.6706
  Ni  Ni6  1  0.000000  0.000000  0.199400  1.0  0.6706
  Ni  Ni7  1  0.000000  0.000000  0.800600  1.0  0.6707
  Ni  Ni8  1  0.500000  0.500000  0.300600  1.0  0.6707
  Hg  Hg9  1  0.250000  0.529530  0.875000  1.0  0.5575
  Hg  Hg10  1  0.750000  0.029530  0.375000  1.0  0.5575
  Hg  Hg11  1  0.750000  0.470470  0.875000  1.0  0.5578
  Hg  Hg12  1  0.250000  0.970470  0.375000  1.0  0.5578
  Hg  Hg13  1  0.529530  0.750000  0.125000  1.0  0.5578
  Hg  Hg14  1  0.470470  0.250000  0.125000  1.0  0.5581
  Hg  Hg15  1  0.970470  0.750000  0.625000  1.0  0.5581
  Hg  Hg16  1  0.029530  0.250000  0.625000  1.0  0.5578
  C  C17  1  0.062800  0.783800  0.875300  1.0  0.368
  C  C18  1  0.219600  0.428900  0.977390  1.0  0.3522
  C  C19  1  0.562800  0.283800  0.375300  1.0  0.368
  C  C20  1  0.719600  0.928900  0.477390  1.0  0.3522
  C  C21  1  0.937200  0.216200  0.875300  1.0  0.3676
  C  C22  1  0.780400  0.571100  0.977390  1.0  0.3534
  C  C23  1  0.437200  0.716200  0.375300  1.0  0.3676
  C  C24  1  0.280400  0.071100  0.477390  1.0  0.3534
  C  C25  1  0.783800  0.937200  0.124700  1.0  0.3699
  C  C26  1  0.428900  0.780400  0.022610  1.0  0.3533
  C  C27  1  0.283800  0.437200  0.624700  1.0  0.3699
  C  C28  1  0.928900  0.280400  0.522610  1.0  0.3533
  C  C29  1  0.216200  0.062800  0.124700  1.0  0.3699
  C  C30  1  0.571100  0.219600  0.022610  1.0  0.3526
  C  C31  1  0.716200  0.562800  0.624700  1.0  0.3699
  C  C32  1  0.071100  0.719600  0.522610  1.0  0.3526
  C  C33  1  0.437200  0.783800  0.874700  1.0  0.3694
  C  C34  1  0.280400  0.428900  0.772610  1.0  0.3539
  C  C35  1  0.937200  0.283800  0.374700  1.0  0.3694
  C  C36  1  0.780400  0.928900  0.272610  1.0  0.3539
  C  C37  1  0.562800  0.216200  0.874700  1.0  0.3669
  C  C38  1  0.719600  0.571100  0.772610  1.0  0.3534
  C  C39  1  0.062800  0.716200  0.374700  1.0  0.3669
  C  C40  1  0.219600  0.071100  0.272610  1.0  0.3534
  C  C41  1  0.716200  0.937200  0.625300  1.0  0.368
  C  C42  1  0.071100  0.780400  0.727390  1.0  0.3535
  C  C43  1  0.216200  0.437200  0.125300  1.0  0.368
  C  C44  1  0.571100  0.280400  0.227390  1.0  0.3535
  C  C45  1  0.283800  0.062800  0.625300  1.0  0.3646
  C  C46  1  0.928900  0.219600  0.727390  1.0  0.3539
  C  C47  1  0.783800  0.562800  0.125300  1.0  0.3646
  C  C48  1  0.428900  0.719600  0.227390  1.0  0.3539
  S  S49  1  0.342840  0.399740  0.941630  1.0  -0.2352
  S  S50  1  0.074600  0.667580  0.914640  1.0  -0.2033
  S  S51  1  0.842840  0.899740  0.441630  1.0  -0.2352
  S  S52  1  0.574600  0.167580  0.414640  1.0  -0.2033
  S  S53  1  0.657160  0.600260  0.941630  1.0  -0.2353
  S  S54  1  0.925400  0.332420  0.914640  1.0  -0.2025
  S  S55  1  0.157160  0.100260  0.441630  1.0  -0.2353
  S  S56  1  0.425400  0.832420  0.414640  1.0  -0.2025
  S  S57  1  0.399740  0.657160  0.058370  1.0  -0.2394
  S  S58  1  0.667580  0.925400  0.085360  1.0  -0.2009
  S  S59  1  0.899740  0.157160  0.558370  1.0  -0.2394
  S  S60  1  0.167580  0.425400  0.585360  1.0  -0.2009
  S  S61  1  0.600260  0.342840  0.058370  1.0  -0.2384
  S  S62  1  0.332420  0.074600  0.085360  1.0  -0.2007
  S  S63  1  0.100260  0.842840  0.558370  1.0  -0.2384
  S  S64  1  0.832420  0.574600  0.585360  1.0  -0.2007
  S  S65  1  0.157160  0.399740  0.808370  1.0  -0.236
  S  S66  1  0.425400  0.667580  0.835360  1.0  -0.2007
  S  S67  1  0.657160  0.899740  0.308370  1.0  -0.236
  S  S68  1  0.925400  0.167580  0.335360  1.0  -0.2007
  S  S69  1  0.842840  0.600260  0.808370  1.0  -0.2351
  S  S70  1  0.574600  0.332420  0.835360  1.0  -0.2012
  S  S71  1  0.342840  0.100260  0.308370  1.0  -0.2351
  S  S72  1  0.074600  0.832420  0.335360  1.0  -0.2012
  S  S73  1  0.100260  0.657160  0.691630  1.0  -0.2389
  S  S74  1  0.832420  0.925400  0.664640  1.0  -0.2018
  S  S75  1  0.600260  0.157160  0.191630  1.0  -0.2389
  S  S76  1  0.332420  0.425400  0.164640  1.0  -0.2018
  S  S77  1  0.899740  0.342840  0.691630  1.0  -0.2391
  S  S78  1  0.167580  0.074600  0.664640  1.0  -0.2034
  S  S79  1  0.399740  0.842840  0.191630  1.0  -0.2391
  S  S80  1  0.667580  0.574600  0.164640  1.0  -0.2034
  N  N81  1  0.135600  0.448400  0.002630  1.0  -0.4891
  N  N82  1  0.051400  0.866800  0.849170  1.0  -0.4075
  N  N83  1  0.635600  0.948400  0.502630  1.0  -0.4891
  N  N84  1  0.551400  0.366800  0.349170  1.0  -0.4075
  N  N85  1  0.864400  0.551600  0.002630  1.0  -0.4902
  N  N86  1  0.948600  0.133200  0.849170  1.0  -0.4057
  N  N87  1  0.364400  0.051600  0.502630  1.0  -0.4902
  N  N88  1  0.448600  0.633200  0.349170  1.0  -0.4057
  N  N89  1  0.448400  0.864400  0.997370  1.0  -0.492
  N  N90  1  0.866800  0.948600  0.150830  1.0  -0.4039
  N  N91  1  0.948400  0.364400  0.497370  1.0  -0.492
  N  N92  1  0.366800  0.448600  0.650830  1.0  -0.4039
  N  N93  1  0.551600  0.135600  0.997370  1.0  -0.4922
  N  N94  1  0.133200  0.051400  0.150830  1.0  -0.4061
  N  N95  1  0.051600  0.635600  0.497370  1.0  -0.4922
  N  N96  1  0.633200  0.551400  0.650830  1.0  -0.4061
  N  N97  1  0.364400  0.448400  0.747370  1.0  -0.4892
  N  N98  1  0.448600  0.866800  0.900830  1.0  -0.4075
  N  N99  1  0.864400  0.948400  0.247370  1.0  -0.4892
  N  N100  1  0.948600  0.366800  0.400830  1.0  -0.4075
  N  N101  1  0.635600  0.551600  0.747370  1.0  -0.4899
  N  N102  1  0.551400  0.133200  0.900830  1.0  -0.4068
  N  N103  1  0.135600  0.051600  0.247370  1.0  -0.4899
  N  N104  1  0.051400  0.633200  0.400830  1.0  -0.4068
  N  N105  1  0.051600  0.864400  0.752630  1.0  -0.492
  N  N106  1  0.633200  0.948600  0.599170  1.0  -0.405
  N  N107  1  0.551600  0.364400  0.252630  1.0  -0.492
  N  N108  1  0.133200  0.448600  0.099170  1.0  -0.405
  N  N109  1  0.948400  0.135600  0.752630  1.0  -0.4915
  N  N110  1  0.366800  0.051400  0.599170  1.0  -0.4038
  N  N111  1  0.448400  0.635600  0.252630  1.0  -0.4915
  N  N112  1  0.866800  0.551400  0.099170  1.0  -0.4038
