# generated using pymatgen
data_CdH4(C3O2)3
_symmetry_space_group_name_H-M   'P 1'
_cell_length_a   10.15610000
_cell_length_b   12.28430000
_cell_length_c   14.68670000
_cell_angle_alpha   90.00000000
_cell_angle_beta   102.99900000
_cell_angle_gamma   90.00000000
_symmetry_Int_Tables_number   1
_chemical_formula_structural   CdH4(C3O2)3
_chemical_formula_sum   'Cd4 H16 C36 O24'
_cell_volume   1785.36611903
_cell_formula_units_Z   4
loop_
 _symmetry_equiv_pos_site_id
 _symmetry_equiv_pos_as_xyz
  1  'x, y, z'
loop_
 _atom_site_type_symbol
 _atom_site_label
 _atom_site_symmetry_multiplicity
 _atom_site_fract_x
 _atom_site_fract_y
 _atom_site_fract_z
 _atom_site_occupancy
 _atom_site_charge
  Cd  Cd1  1  0.810480  0.924300  0.938900  1.0  1.0482
  Cd  Cd2  1  0.189520  0.424300  0.561100  1.0  1.0479
  Cd  Cd3  1  0.189520  0.075700  0.061100  1.0  1.0492
  Cd  Cd4  1  0.810480  0.575700  0.438900  1.0  1.0486
  H  H5  1  0.540900  0.163200  0.703200  1.0  0.1193
  H  H6  1  0.655100  0.386800  0.538400  1.0  0.1075
  H  H7  1  0.928500  0.181700  0.685900  1.0  0.1067
  H  H8  1  0.953000  0.072400  0.829100  1.0  0.4476
  H  H9  1  0.459100  0.663200  0.796800  1.0  0.1189
  H  H10  1  0.344900  0.886800  0.961600  1.0  0.1065
  H  H11  1  0.071500  0.681700  0.814100  1.0  0.1068
  H  H12  1  0.047000  0.572400  0.670900  1.0  0.4482
  H  H13  1  0.459100  0.836800  0.296800  1.0  0.1188
  H  H14  1  0.344900  0.613200  0.461600  1.0  0.1067
  H  H15  1  0.071500  0.818300  0.314100  1.0  0.1067
  H  H16  1  0.047000  0.927600  0.170900  1.0  0.4477
  H  H17  1  0.540900  0.336800  0.203200  1.0  0.1185
  H  H18  1  0.655100  0.113200  0.038400  1.0  0.1072
  H  H19  1  0.928500  0.318300  0.185900  1.0  0.1072
  H  H20  1  0.953000  0.427600  0.329100  1.0  0.4464
  C  C21  1  0.779800  0.068700  0.776300  1.0  0.678
  C  C22  1  0.740500  0.157400  0.705600  1.0  -0.1867
  C  C23  1  0.608300  0.195600  0.678900  1.0  0.052
  C  C24  1  0.575900  0.281300  0.616500  1.0  -0.1391
  C  C25  1  0.433400  0.324000  0.592500  1.0  0.6585
  C  C26  1  0.676400  0.329400  0.580500  1.0  0.0336
  C  C27  1  0.809000  0.292700  0.606800  1.0  -0.1595
  C  C28  1  0.919600  0.346200  0.570300  1.0  0.7241
  C  C29  1  0.839900  0.206800  0.668700  1.0  0.0091
  C  C30  1  0.220200  0.568700  0.723700  1.0  0.679
  C  C31  1  0.259500  0.657400  0.794400  1.0  -0.186
  C  C32  1  0.391700  0.695600  0.821100  1.0  0.0515
  C  C33  1  0.424100  0.781300  0.883500  1.0  -0.139
  C  C34  1  0.566600  0.824000  0.907500  1.0  0.6577
  C  C35  1  0.323600  0.829400  0.919500  1.0  0.0342
  C  C36  1  0.191000  0.792700  0.893200  1.0  -0.1591
  C  C37  1  0.080400  0.846200  0.929700  1.0  0.7246
  C  C38  1  0.160100  0.706800  0.831300  1.0  0.0089
  C  C39  1  0.220200  0.931300  0.223700  1.0  0.6797
  C  C40  1  0.259500  0.842600  0.294400  1.0  -0.1872
  C  C41  1  0.391700  0.804400  0.321100  1.0  0.0512
  C  C42  1  0.424100  0.718700  0.383500  1.0  -0.1394
  C  C43  1  0.566600  0.676000  0.407500  1.0  0.6575
  C  C44  1  0.323600  0.670600  0.419500  1.0  0.0357
  C  C45  1  0.191000  0.707300  0.393200  1.0  -0.1591
  C  C46  1  0.080400  0.653800  0.429700  1.0  0.7239
  C  C47  1  0.160100  0.793200  0.331300  1.0  0.0085
  C  C48  1  0.779800  0.431300  0.276300  1.0  0.6788
  C  C49  1  0.740500  0.342600  0.205600  1.0  -0.1881
  C  C50  1  0.608300  0.304400  0.178900  1.0  0.0516
  C  C51  1  0.575900  0.218700  0.116500  1.0  -0.1394
  C  C52  1  0.433400  0.176000  0.092500  1.0  0.6581
  C  C53  1  0.676400  0.170600  0.080500  1.0  0.0353
  C  C54  1  0.809000  0.207300  0.106800  1.0  -0.1595
  C  C55  1  0.919600  0.153800  0.070300  1.0  0.7242
  C  C56  1  0.839900  0.293200  0.168700  1.0  0.008
  O  O57  1  0.693600  0.036400  0.819900  1.0  -0.4784
  O  O58  1  0.897500  0.031200  0.792800  1.0  -0.5505
  O  O59  1  0.038500  0.316800  0.604800  1.0  -0.571
  O  O60  1  0.890500  0.414600  0.506900  1.0  -0.7035
  O  O61  1  0.404300  0.397600  0.531900  1.0  -0.5878
  O  O62  1  0.349900  0.287400  0.635600  1.0  -0.6074
  O  O63  1  0.306400  0.536400  0.680100  1.0  -0.4789
  O  O64  1  0.102500  0.531200  0.707200  1.0  -0.5486
  O  O65  1  0.961500  0.816800  0.895200  1.0  -0.5705
  O  O66  1  0.109500  0.914600  0.993100  1.0  -0.7045
  O  O67  1  0.595700  0.897600  0.968100  1.0  -0.5877
  O  O68  1  0.650100  0.787400  0.864400  1.0  -0.609
  O  O69  1  0.306400  0.963600  0.180100  1.0  -0.4791
  O  O70  1  0.102500  0.968800  0.207200  1.0  -0.5491
  O  O71  1  0.961500  0.683200  0.395200  1.0  -0.5718
  O  O72  1  0.109500  0.585400  0.493100  1.0  -0.7051
  O  O73  1  0.595700  0.602400  0.468100  1.0  -0.5872
  O  O74  1  0.650100  0.712600  0.364400  1.0  -0.6081
  O  O75  1  0.693600  0.463600  0.319900  1.0  -0.4794
  O  O76  1  0.897500  0.468800  0.292800  1.0  -0.5482
  O  O77  1  0.038500  0.183200  0.104800  1.0  -0.5717
  O  O78  1  0.890500  0.085400  0.006900  1.0  -0.7043
  O  O79  1  0.404300  0.102400  0.031900  1.0  -0.5872
  O  O80  1  0.349900  0.212600  0.135600  1.0  -0.607
