# generated using pymatgen
data_Cd2H32C37(N2O3)3
_symmetry_space_group_name_H-M   'P 1'
_cell_length_a   16.15500000
_cell_length_b   16.89300000
_cell_length_c   20.51400000
_cell_angle_alpha   110.62800000
_cell_angle_beta   90.00000000
_cell_angle_gamma   90.00000000
_symmetry_Int_Tables_number   1
_chemical_formula_structural   Cd2H32C37(N2O3)3
_chemical_formula_sum   'Cd8 H128 C148 N24 O36'
_cell_volume   5239.47453401
_cell_formula_units_Z   4
loop_
 _symmetry_equiv_pos_site_id
 _symmetry_equiv_pos_as_xyz
  1  'x, y, z'
loop_
 _atom_site_type_symbol
 _atom_site_label
 _atom_site_symmetry_multiplicity
 _atom_site_fract_x
 _atom_site_fract_y
 _atom_site_fract_z
 _atom_site_occupancy
 _atom_site_charge
  Cd  Cd1  1  0.082080  0.746640  0.744480  1.0  1.1309
  Cd  Cd2  1  0.014910  0.822490  0.934010  1.0  1.0238
  Cd  Cd3  1  0.582080  0.253360  0.755520  1.0  1.1294
  Cd  Cd4  1  0.514910  0.177510  0.565990  1.0  1.0224
  Cd  Cd5  1  0.917920  0.253360  0.255520  1.0  1.1308
  Cd  Cd6  1  0.985090  0.177510  0.065990  1.0  1.0225
  Cd  Cd7  1  0.417920  0.746640  0.244480  1.0  1.1287
  Cd  Cd8  1  0.485090  0.822490  0.434010  1.0  1.0239
  H  H9  1  0.152700  0.854100  0.866200  1.0  0.4065
  H  H10  1  0.163400  0.762100  0.866900  1.0  0.4198
  H  H11  1  0.046000  0.830600  0.635300  1.0  0.0724
  H  H12  1  0.964100  0.822800  0.542900  1.0  0.1084
  H  H13  1  0.900000  0.594300  0.526800  1.0  0.1053
  H  H14  1  0.975300  0.605700  0.620600  1.0  0.0909
  H  H15  1  0.825400  0.895900  0.503400  1.0  0.1372
  H  H16  1  0.803000  0.853100  0.557600  1.0  0.1313
  H  H17  1  0.735200  0.863200  0.506500  1.0  0.1201
  H  H18  1  0.892300  0.523100  0.325900  1.0  0.145
  H  H19  1  0.889000  0.522400  0.402100  1.0  0.1271
  H  H20  1  0.965200  0.562300  0.377600  1.0  0.1304
  H  H21  1  0.708500  0.835300  0.399800  1.0  0.0963
  H  H22  1  0.689500  0.752500  0.336000  1.0  0.1061
  H  H23  1  0.728600  0.679900  0.204800  1.0  0.131
  H  H24  1  0.747100  0.723100  0.150100  1.0  0.1284
  H  H25  1  0.674000  0.755800  0.203100  1.0  0.1294
  H  H26  1  0.918800  0.013300  0.299300  1.0  0.1276
  H  H27  1  0.990500  0.946400  0.281100  1.0  0.1276
  H  H28  1  0.961000  0.988900  0.358500  1.0  0.1407
  H  H29  1  0.858000  0.715200  0.106600  1.0  0.139
  H  H30  1  0.919100  0.713500  0.005200  1.0  0.0976
  H  H31  1  0.933200  0.956600  0.080900  1.0  0.0677
  H  H32  1  0.903200  0.964900  0.192900  1.0  0.135
  H  H33  1  0.321400  0.013800  0.833300  1.0  0.0982
  H  H34  1  0.404800  0.098100  0.795000  1.0  0.0846
  H  H35  1  0.330000  0.977200  0.601200  1.0  0.0916
  H  H36  1  0.232100  0.908700  0.640000  1.0  0.1057
  H  H37  1  0.919900  0.531000  0.695000  1.0  0.0753
  H  H38  1  0.832100  0.415800  0.661000  1.0  0.1228
  H  H39  1  0.770200  0.473000  0.863000  1.0  0.0972
  H  H40  1  0.862600  0.583600  0.894400  1.0  0.1008
  H  H41  1  0.652700  0.145900  0.633800  1.0  0.4053
  H  H42  1  0.663400  0.237900  0.633100  1.0  0.4193
  H  H43  1  0.546000  0.169400  0.864700  1.0  0.0717
  H  H44  1  0.464100  0.177200  0.957100  1.0  0.108
  H  H45  1  0.400000  0.405700  0.973200  1.0  0.1058
  H  H46  1  0.475300  0.394300  0.879400  1.0  0.0908
  H  H47  1  0.325400  0.104100  0.996600  1.0  0.1361
  H  H48  1  0.303000  0.146900  0.942400  1.0  0.1316
  H  H49  1  0.235200  0.136800  0.993500  1.0  0.1195
  H  H50  1  0.392300  0.476900  0.174100  1.0  0.1446
  H  H51  1  0.389000  0.477600  0.097900  1.0  0.1266
  H  H52  1  0.465200  0.437700  0.122400  1.0  0.13
  H  H53  1  0.208500  0.164700  0.100200  1.0  0.097
  H  H54  1  0.189500  0.247500  0.164000  1.0  0.1064
  H  H55  1  0.228600  0.320100  0.295200  1.0  0.132
  H  H56  1  0.247100  0.276900  0.349900  1.0  0.1277
  H  H57  1  0.174000  0.244200  0.296900  1.0  0.13
  H  H58  1  0.418800  0.986700  0.200700  1.0  0.1272
  H  H59  1  0.490500  0.053600  0.218900  1.0  0.1286
  H  H60  1  0.461000  0.011100  0.141500  1.0  0.1408
  H  H61  1  0.358000  0.284800  0.393400  1.0  0.1396
  H  H62  1  0.419100  0.286500  0.494800  1.0  0.0965
  H  H63  1  0.433200  0.043400  0.419100  1.0  0.0679
  H  H64  1  0.403200  0.035100  0.307100  1.0  0.1355
  H  H65  1  0.821400  0.986200  0.666667  1.0  0.0983
  H  H66  1  0.904800  0.901900  0.705000  1.0  0.085
  H  H67  1  0.830000  0.022800  0.898800  1.0  0.0921
  H  H68  1  0.732100  0.091300  0.860000  1.0  0.1057
  H  H69  1  0.419900  0.469000  0.805000  1.0  0.0753
  H  H70  1  0.332100  0.584200  0.839000  1.0  0.1234
  H  H71  1  0.270200  0.527000  0.637000  1.0  0.0979
  H  H72  1  0.362600  0.416400  0.605600  1.0  0.1015
  H  H73  1  0.847300  0.145900  0.133800  1.0  0.4069
  H  H74  1  0.836600  0.237900  0.133100  1.0  0.4184
  H  H75  1  0.954000  0.169400  0.364700  1.0  0.0719
  H  H76  1  0.035900  0.177200  0.457100  1.0  0.1074
  H  H77  1  0.100000  0.405700  0.473200  1.0  0.1052
  H  H78  1  0.024700  0.394300  0.379400  1.0  0.0906
  H  H79  1  0.174600  0.104100  0.496600  1.0  0.1369
  H  H80  1  0.197000  0.146900  0.442400  1.0  0.1317
  H  H81  1  0.264800  0.136800  0.493500  1.0  0.1194
  H  H82  1  0.107700  0.476900  0.674100  1.0  0.1449
  H  H83  1  0.111000  0.477600  0.597900  1.0  0.1263
  H  H84  1  0.034800  0.437700  0.622400  1.0  0.1288
  H  H85  1  0.291500  0.164700  0.600200  1.0  0.0968
  H  H86  1  0.310500  0.247500  0.664000  1.0  0.1064
  H  H87  1  0.271400  0.320100  0.795200  1.0  0.1325
  H  H88  1  0.252900  0.276900  0.849900  1.0  0.1285
  H  H89  1  0.326000  0.244200  0.796900  1.0  0.1309
  H  H90  1  0.081200  0.986700  0.700700  1.0  0.1271
  H  H91  1  0.009500  0.053600  0.718900  1.0  0.1276
  H  H92  1  0.039000  0.011100  0.641500  1.0  0.1399
  H  H93  1  0.142000  0.284800  0.893400  1.0  0.1393
  H  H94  1  0.080900  0.286500  0.994800  1.0  0.0968
  H  H95  1  0.066800  0.043400  0.919100  1.0  0.0681
  H  H96  1  0.096800  0.035100  0.807100  1.0  0.1355
  H  H97  1  0.678600  0.986200  0.166700  1.0  0.0985
  H  H98  1  0.595200  0.901900  0.205000  1.0  0.0847
  H  H99  1  0.670000  0.022800  0.398800  1.0  0.0923
  H  H100  1  0.767900  0.091300  0.360000  1.0  0.1059
  H  H101  1  0.080100  0.469000  0.305000  1.0  0.0752
  H  H102  1  0.167900  0.584200  0.339000  1.0  0.1235
  H  H103  1  0.229800  0.527000  0.137000  1.0  0.0978
  H  H104  1  0.137400  0.416400  0.105600  1.0  0.1016
  H  H105  1  0.347300  0.854100  0.366200  1.0  0.4091
  H  H106  1  0.336600  0.762100  0.366900  1.0  0.4202
  H  H107  1  0.454000  0.830600  0.135300  1.0  0.0714
  H  H108  1  0.535900  0.822800  0.042900  1.0  0.1072
  H  H109  1  0.600000  0.594300  0.026800  1.0  0.1052
  H  H110  1  0.524700  0.605700  0.120600  1.0  0.0908
  H  H111  1  0.674600  0.895900  0.003400  1.0  0.1375
  H  H112  1  0.697000  0.853100  0.057600  1.0  0.1313
  H  H113  1  0.764800  0.863200  0.006500  1.0  0.1196
  H  H114  1  0.607700  0.523100  0.825900  1.0  0.1453
  H  H115  1  0.611000  0.522400  0.902100  1.0  0.127
  H  H116  1  0.534800  0.562300  0.877600  1.0  0.1284
  H  H117  1  0.791500  0.835300  0.899800  1.0  0.0962
  H  H118  1  0.810500  0.752500  0.836000  1.0  0.1061
  H  H119  1  0.771400  0.679900  0.704800  1.0  0.1306
  H  H120  1  0.752900  0.723100  0.650100  1.0  0.1287
  H  H121  1  0.826000  0.755800  0.703100  1.0  0.1303
  H  H122  1  0.581200  0.013300  0.799300  1.0  0.127
  H  H123  1  0.509500  0.946400  0.781100  1.0  0.1272
  H  H124  1  0.539000  0.988900  0.858500  1.0  0.1411
  H  H125  1  0.642000  0.715200  0.606600  1.0  0.1391
  H  H126  1  0.580900  0.713500  0.505200  1.0  0.0975
  H  H127  1  0.566800  0.956600  0.580900  1.0  0.0679
  H  H128  1  0.596800  0.964900  0.692900  1.0  0.135
  H  H129  1  0.178600  0.013800  0.333333  1.0  0.0984
  H  H130  1  0.095200  0.098100  0.295000  1.0  0.0847
  H  H131  1  0.170000  0.977200  0.101200  1.0  0.092
  H  H132  1  0.267900  0.908700  0.140000  1.0  0.1063
  H  H133  1  0.580100  0.531000  0.195000  1.0  0.0753
  H  H134  1  0.667900  0.415800  0.161000  1.0  0.123
  H  H135  1  0.729800  0.473000  0.363000  1.0  0.0978
  H  H136  1  0.637400  0.583600  0.394400  1.0  0.1015
  C  C137  1  0.015600  0.781500  0.614000  1.0  0.2153
  C  C138  1  0.965300  0.776800  0.557900  1.0  -0.2313
  C  C139  1  0.918300  0.709300  0.524300  1.0  0.2205
  C  C140  1  0.927700  0.644800  0.549300  1.0  -0.2064
  C  C141  1  0.974500  0.650600  0.604300  1.0  0.1584
  C  C142  1  0.867400  0.705100  0.466200  1.0  -0.2751
  C  C143  1  0.816000  0.768200  0.459500  1.0  0.1395
  C  C144  1  0.793000  0.852700  0.511400  1.0  -0.3724
  C  C145  1  0.861300  0.642800  0.398600  1.0  0.2587
  C  C146  1  0.906400  0.553900  0.373600  1.0  -0.3872
  C  C147  1  0.733400  0.788000  0.363000  1.0  0.0224
  C  C148  1  0.787000  0.793700  0.248000  1.0  0.1537
  C  C149  1  0.728900  0.732500  0.196800  1.0  -0.3722
  C  C150  1  0.849300  0.842000  0.229300  1.0  -0.2844
  C  C151  1  0.878400  0.895600  0.299500  1.0  0.2726
  C  C152  1  0.943000  0.968000  0.310700  1.0  -0.3823
  C  C153  1  0.876600  0.839500  0.164900  1.0  0.2153
  C  C154  1  0.879700  0.765200  0.104400  1.0  -0.2173
  C  C155  1  0.913700  0.764500  0.042000  1.0  0.1641
  C  C156  1  0.925800  0.906000  0.088600  1.0  0.1961
  C  C157  1  0.902000  0.913400  0.156100  1.0  -0.223
  C  C158  1  0.207600  0.898700  0.768700  1.0  0.6794
  C  C159  1  0.266800  0.949900  0.741200  1.0  -0.1097
  C  C160  1  0.320400  0.008100  0.786500  1.0  -0.0619
  C  C161  1  0.371900  0.057400  0.763200  1.0  -0.0482
  C  C162  1  0.375700  0.047500  0.693200  1.0  -0.1496
  C  C163  1  0.326000  0.988000  0.648700  1.0  -0.0494
  C  C164  1  0.269600  0.943800  0.671500  1.0  -0.0597
  C  C165  1  0.436300  0.099900  0.669600  1.0  0.7067
  C  C166  1  0.955900  0.650100  0.815300  1.0  0.7062
  C  C167  1  0.899700  0.570600  0.795500  1.0  -0.1627
  C  C168  1  0.889700  0.519100  0.729000  1.0  -0.0461
  C  C169  1  0.837900  0.449800  0.707500  1.0  -0.0901
  C  C170  1  0.792300  0.433900  0.764000  1.0  -0.1036
  C  C171  1  0.730100  0.360100  0.738600  1.0  0.6643
  C  C172  1  0.801200  0.483400  0.828700  1.0  -0.0343
  C  C173  1  0.855200  0.551000  0.847600  1.0  -0.0656
  C  C174  1  0.515600  0.218500  0.886000  1.0  0.2135
  C  C175  1  0.465300  0.223200  0.942100  1.0  -0.2337
  C  C176  1  0.418300  0.290700  0.975700  1.0  0.2199
  C  C177  1  0.427700  0.355200  0.950700  1.0  -0.2092
  C  C178  1  0.474500  0.349400  0.895700  1.0  0.1565
  C  C179  1  0.367400  0.294900  0.033800  1.0  -0.276
  C  C180  1  0.316000  0.231800  0.040500  1.0  0.1398
  C  C181  1  0.293000  0.147300  0.988600  1.0  -0.3726
  C  C182  1  0.361300  0.357200  0.101400  1.0  0.256
  C  C183  1  0.406400  0.446100  0.126400  1.0  -0.3871
  C  C184  1  0.233400  0.212000  0.137000  1.0  0.0223
  C  C185  1  0.287000  0.206300  0.252000  1.0  0.1536
  C  C186  1  0.228900  0.267500  0.303200  1.0  -0.3731
  C  C187  1  0.349300  0.158000  0.270700  1.0  -0.2811
  C  C188  1  0.378400  0.104400  0.200500  1.0  0.2686
  C  C189  1  0.443000  0.032000  0.189300  1.0  -0.3837
  C  C190  1  0.376600  0.160500  0.335100  1.0  0.2149
  C  C191  1  0.379700  0.234800  0.395600  1.0  -0.2186
  C  C192  1  0.413700  0.235500  0.458000  1.0  0.1647
  C  C193  1  0.425800  0.094000  0.411400  1.0  0.1957
  C  C194  1  0.402000  0.086600  0.343900  1.0  -0.2221
  C  C195  1  0.707600  0.101300  0.731300  1.0  0.6803
  C  C196  1  0.766800  0.050100  0.758800  1.0  -0.1084
  C  C197  1  0.820400  0.991900  0.713500  1.0  -0.0514
  C  C198  1  0.871900  0.942600  0.736800  1.0  -0.048
  C  C199  1  0.875700  0.952500  0.806800  1.0  -0.1493
  C  C200  1  0.826000  0.012000  0.851300  1.0  -0.0517
  C  C201  1  0.769600  0.056200  0.828500  1.0  -0.0609
  C  C202  1  0.936300  0.900100  0.830400  1.0  0.7069
  C  C203  1  0.455900  0.349900  0.684700  1.0  0.7068
  C  C204  1  0.399700  0.429400  0.704500  1.0  -0.1617
  C  C205  1  0.389700  0.480900  0.771000  1.0  -0.046
  C  C206  1  0.337900  0.550200  0.792500  1.0  -0.0926
  C  C207  1  0.292300  0.566100  0.736000  1.0  -0.1028
  C  C208  1  0.230100  0.639900  0.761400  1.0  0.6638
  C  C209  1  0.301200  0.516600  0.671300  1.0  -0.033
  C  C210  1  0.355200  0.449000  0.652400  1.0  -0.0662
  C  C211  1  0.984400  0.218500  0.386000  1.0  0.2141
  C  C212  1  0.034700  0.223200  0.442100  1.0  -0.235
  C  C213  1  0.081700  0.290700  0.475700  1.0  0.2194
  C  C214  1  0.072300  0.355200  0.450700  1.0  -0.2091
  C  C215  1  0.025500  0.349400  0.395700  1.0  0.1561
  C  C216  1  0.132600  0.294900  0.533800  1.0  -0.2751
  C  C217  1  0.184000  0.231800  0.540500  1.0  0.1398
  C  C218  1  0.207000  0.147300  0.488600  1.0  -0.3726
  C  C219  1  0.138700  0.357200  0.601400  1.0  0.2553
  C  C220  1  0.093600  0.446100  0.626400  1.0  -0.3864
  C  C221  1  0.266600  0.212000  0.637000  1.0  0.0216
  C  C222  1  0.213000  0.206300  0.752000  1.0  0.1542
  C  C223  1  0.271100  0.267500  0.803200  1.0  -0.3717
  C  C224  1  0.150700  0.158000  0.770700  1.0  -0.2877
  C  C225  1  0.121600  0.104400  0.700500  1.0  0.2657
  C  C226  1  0.057000  0.032000  0.689300  1.0  -0.382
  C  C227  1  0.123400  0.160500  0.835100  1.0  0.2145
  C  C228  1  0.120300  0.234800  0.895600  1.0  -0.2176
  C  C229  1  0.086300  0.235500  0.958000  1.0  0.1647
  C  C230  1  0.074200  0.094000  0.911400  1.0  0.1963
  C  C231  1  0.098000  0.086600  0.843900  1.0  -0.2233
  C  C232  1  0.792400  0.101300  0.231300  1.0  0.6805
  C  C233  1  0.733200  0.050100  0.258800  1.0  -0.1089
  C  C234  1  0.679600  0.991900  0.213500  1.0  -0.062
  C  C235  1  0.628100  0.942600  0.236800  1.0  -0.0473
  C  C236  1  0.624300  0.952500  0.306800  1.0  -0.1494
  C  C237  1  0.674000  0.012000  0.351300  1.0  -0.0519
  C  C238  1  0.730400  0.056200  0.328500  1.0  -0.0622
  C  C239  1  0.563700  0.900100  0.330400  1.0  0.7064
  C  C240  1  0.044100  0.349900  0.184700  1.0  0.707
  C  C241  1  0.100300  0.429400  0.204500  1.0  -0.1631
  C  C242  1  0.110300  0.480900  0.271000  1.0  -0.0463
  C  C243  1  0.162100  0.550200  0.292500  1.0  -0.0923
  C  C244  1  0.207700  0.566100  0.236000  1.0  -0.1019
  C  C245  1  0.269900  0.639900  0.261400  1.0  0.6648
  C  C246  1  0.198800  0.516600  0.171300  1.0  -0.0339
  C  C247  1  0.144800  0.449000  0.152400  1.0  -0.0654
  C  C248  1  0.484400  0.781500  0.114000  1.0  0.2148
  C  C249  1  0.534700  0.776800  0.057900  1.0  -0.2347
  C  C250  1  0.581700  0.709300  0.024300  1.0  0.22
  C  C251  1  0.572300  0.644800  0.049300  1.0  -0.2066
  C  C252  1  0.525500  0.650600  0.104300  1.0  0.1577
  C  C253  1  0.632600  0.705100  0.966200  1.0  -0.2745
  C  C254  1  0.684000  0.768200  0.959500  1.0  0.1394
  C  C255  1  0.707000  0.852700  0.011400  1.0  -0.372
  C  C256  1  0.638700  0.642800  0.898600  1.0  0.2571
  C  C257  1  0.593600  0.553900  0.873600  1.0  -0.387
  C  C258  1  0.766600  0.788000  0.863000  1.0  0.0217
  C  C259  1  0.713000  0.793700  0.748000  1.0  0.1545
  C  C260  1  0.771100  0.732500  0.696800  1.0  -0.3719
  C  C261  1  0.650700  0.842000  0.729300  1.0  -0.2889
  C  C262  1  0.621600  0.895600  0.799500  1.0  0.2718
  C  C263  1  0.557000  0.968000  0.810700  1.0  -0.3811
  C  C264  1  0.623400  0.839500  0.664900  1.0  0.2151
  C  C265  1  0.620300  0.765200  0.604400  1.0  -0.218
  C  C266  1  0.586300  0.764500  0.542000  1.0  0.1642
  C  C267  1  0.574200  0.906000  0.588600  1.0  0.1962
  C  C268  1  0.598000  0.913400  0.656100  1.0  -0.2235
  C  C269  1  0.292400  0.898700  0.268700  1.0  0.6788
  C  C270  1  0.233200  0.949900  0.241200  1.0  -0.1086
  C  C271  1  0.179600  0.008100  0.286500  1.0  -0.0511
  C  C272  1  0.128100  0.057400  0.263200  1.0  -0.0473
  C  C273  1  0.124300  0.047500  0.193200  1.0  -0.1514
  C  C274  1  0.174000  0.988000  0.148700  1.0  -0.0495
  C  C275  1  0.230400  0.943800  0.171500  1.0  -0.0603
  C  C276  1  0.063700  0.099900  0.169600  1.0  0.7069
  C  C277  1  0.544100  0.650100  0.315300  1.0  0.7071
  C  C278  1  0.600300  0.570600  0.295500  1.0  -0.1639
  C  C279  1  0.610300  0.519100  0.229000  1.0  -0.0462
  C  C280  1  0.662100  0.449800  0.207500  1.0  -0.0901
  C  C281  1  0.707700  0.433900  0.264000  1.0  -0.1025
  C  C282  1  0.769900  0.360100  0.238600  1.0  0.664
  C  C283  1  0.698800  0.483400  0.328700  1.0  -0.0348
  C  C284  1  0.644800  0.551000  0.347600  1.0  -0.0648
  N  N285  1  0.021800  0.721100  0.637600  1.0  -0.3748
  N  N286  1  0.787000  0.740300  0.392700  1.0  0.1121
  N  N287  1  0.814000  0.661100  0.353900  1.0  -0.3873
  N  N288  1  0.838600  0.881600  0.349400  1.0  -0.4091
  N  N289  1  0.784600  0.819800  0.318100  1.0  0.1336
  N  N290  1  0.938900  0.836700  0.034600  1.0  -0.4025
  N  N291  1  0.521800  0.278900  0.862400  1.0  -0.3759
  N  N292  1  0.287000  0.259700  0.107300  1.0  0.1121
  N  N293  1  0.314000  0.338900  0.146100  1.0  -0.3871
  N  N294  1  0.338600  0.118400  0.150600  1.0  -0.4019
  N  N295  1  0.284600  0.180200  0.181900  1.0  0.1329
  N  N296  1  0.438900  0.163300  0.465400  1.0  -0.4034
  N  N297  1  0.978200  0.278900  0.362400  1.0  -0.3757
  N  N298  1  0.213000  0.259700  0.607300  1.0  0.1118
  N  N299  1  0.186000  0.338900  0.646100  1.0  -0.3867
  N  N300  1  0.161400  0.118400  0.650600  1.0  -0.4048
  N  N301  1  0.215400  0.180200  0.681900  1.0  0.1341
  N  N302  1  0.061100  0.163300  0.965400  1.0  -0.4048
  N  N303  1  0.478200  0.721100  0.137600  1.0  -0.3756
  N  N304  1  0.713000  0.740300  0.892700  1.0  0.1118
  N  N305  1  0.686000  0.661100  0.853900  1.0  -0.3868
  N  N306  1  0.661400  0.881600  0.849400  1.0  -0.4094
  N  N307  1  0.715400  0.819800  0.818100  1.0  0.1345
  N  N308  1  0.561100  0.836700  0.534600  1.0  -0.4029
  O  O309  1  0.208800  0.913300  0.832300  1.0  -0.6096
  O  O310  1  0.163700  0.845600  0.724600  1.0  -0.614
  O  O311  1  0.476400  0.154800  0.715900  1.0  -0.6521
  O  O312  1  0.436800  0.092200  0.606900  1.0  -0.6388
  O  O313  1  0.950900  0.700500  0.877200  1.0  -0.6506
  O  O314  1  0.002200  0.652400  0.769300  1.0  -0.61
  O  O315  1  0.723600  0.323100  0.670300  1.0  -0.6623
  O  O316  1  0.688100  0.347300  0.783200  1.0  -0.6007
  O  O317  1  0.124400  0.800900  0.858100  1.0  -0.8186
  O  O318  1  0.708800  0.086700  0.667700  1.0  -0.6095
  O  O319  1  0.663700  0.154400  0.775400  1.0  -0.6143
  O  O320  1  0.976400  0.845200  0.784100  1.0  -0.6522
  O  O321  1  0.936800  0.907800  0.893100  1.0  -0.6401
  O  O322  1  0.450900  0.299500  0.622800  1.0  -0.6518
  O  O323  1  0.502200  0.347600  0.730700  1.0  -0.6085
  O  O324  1  0.223600  0.676900  0.829700  1.0  -0.6604
  O  O325  1  0.188100  0.652700  0.716800  1.0  -0.6011
  O  O326  1  0.624400  0.199100  0.641900  1.0  -0.8181
  O  O327  1  0.791200  0.086700  0.167700  1.0  -0.6102
  O  O328  1  0.836300  0.154400  0.275400  1.0  -0.6179
  O  O329  1  0.523600  0.845200  0.284100  1.0  -0.6524
  O  O330  1  0.563200  0.907800  0.393100  1.0  -0.6414
  O  O331  1  0.049100  0.299500  0.122800  1.0  -0.6521
  O  O332  1  0.997800  0.347600  0.230700  1.0  -0.6092
  O  O333  1  0.276400  0.676900  0.329700  1.0  -0.6623
  O  O334  1  0.311900  0.652700  0.216800  1.0  -0.6006
  O  O335  1  0.875600  0.199100  0.141900  1.0  -0.8144
  O  O336  1  0.291200  0.913300  0.332300  1.0  -0.6104
  O  O337  1  0.336300  0.845600  0.224600  1.0  -0.6186
  O  O338  1  0.023600  0.154800  0.215900  1.0  -0.6517
  O  O339  1  0.063200  0.092200  0.106900  1.0  -0.6393
  O  O340  1  0.549100  0.700500  0.377200  1.0  -0.6497
  O  O341  1  0.497800  0.652400  0.269300  1.0  -0.6101
  O  O342  1  0.776400  0.323100  0.170300  1.0  -0.6617
  O  O343  1  0.811900  0.347300  0.283200  1.0  -0.5997
  O  O344  1  0.375600  0.800900  0.358100  1.0  -0.8145
