# generated using pymatgen
data_NaH8C12(NO3)2
_symmetry_space_group_name_H-M   'P 1'
_cell_length_a   9.58200000
_cell_length_b   10.46700000
_cell_length_c   17.92000000
_cell_angle_alpha   74.75300000
_cell_angle_beta   77.64300000
_cell_angle_gamma   73.09300000
_symmetry_Int_Tables_number   1
_chemical_formula_structural   NaH8C12(NO3)2
_chemical_formula_sum   'Na3 H24 C36 N6 O18'
_cell_volume   1640.55798262
_cell_formula_units_Z   3
loop_
 _symmetry_equiv_pos_site_id
 _symmetry_equiv_pos_as_xyz
  1  'x, y, z'
loop_
 _atom_site_type_symbol
 _atom_site_label
 _atom_site_symmetry_multiplicity
 _atom_site_fract_x
 _atom_site_fract_y
 _atom_site_fract_z
 _atom_site_occupancy
 _atom_site_charge
  Na  Na1  1  0.000000  0.000000  0.000000  1.0  0.9692
  Na  Na2  1  0.500000  0.000000  0.500000  1.0  1.0054
  Na  Na3  1  0.500000  0.500000  0.000000  1.0  1.0123
  H  H4  1  0.304400  0.849700  0.848400  1.0  0.127
  H  H5  1  0.386600  0.845900  0.718900  1.0  0.1013
  H  H6  1  0.990500  0.836600  0.693100  1.0  0.1014
  H  H7  1  0.904100  0.858800  0.820700  1.0  0.1331
  H  H8  1  0.627400  0.884900  0.189100  1.0  0.1393
  H  H9  1  0.401300  0.866300  0.173500  1.0  0.1251
  H  H10  1  0.576500  0.787000  0.962200  1.0  0.1192
  H  H11  1  0.798200  0.809000  0.979300  1.0  0.1211
  H  H12  1  0.210500  0.261500  0.425200  1.0  0.1466
  H  H13  1  0.173500  0.433700  0.316800  1.0  0.1275
  H  H14  1  0.397800  0.991200  0.288900  1.0  0.1537
  H  H15  1  0.370600  0.167000  0.179800  1.0  0.1089
  H  H16  1  0.695600  0.150300  0.151600  1.0  0.127
  H  H17  1  0.613400  0.154100  0.281100  1.0  0.1011
  H  H18  1  0.009500  0.163400  0.306900  1.0  0.1013
  H  H19  1  0.095900  0.141200  0.179300  1.0  0.1333
  H  H20  1  0.372600  0.115100  0.810900  1.0  0.1386
  H  H21  1  0.598700  0.133700  0.826500  1.0  0.1247
  H  H22  1  0.423500  0.213000  0.037800  1.0  0.1189
  H  H23  1  0.201800  0.191000  0.020700  1.0  0.1211
  H  H24  1  0.789500  0.738500  0.574800  1.0  0.1462
  H  H25  1  0.826500  0.566300  0.683200  1.0  0.1271
  H  H26  1  0.602200  0.008800  0.711100  1.0  0.1533
  H  H27  1  0.629400  0.833000  0.820200  1.0  0.1082
  C  C28  1  0.239600  0.848500  0.816800  1.0  0.0316
  C  C29  1  0.288900  0.845500  0.739300  1.0  -0.0399
  C  C30  1  0.195800  0.842000  0.691200  1.0  -0.1079
  C  C31  1  0.054800  0.842500  0.723500  1.0  -0.0055
  C  C32  1  0.003400  0.851500  0.800800  1.0  0.0118
  C  C33  1  0.254400  0.822900  0.607600  1.0  0.7336
  C  C34  1  0.616400  0.865500  0.143200  1.0  0.0157
  C  C35  1  0.481200  0.853500  0.133900  1.0  -0.0531
  C  C36  1  0.463700  0.822400  0.066300  1.0  -0.0684
  C  C37  1  0.584900  0.806700  0.008400  1.0  -0.0853
  C  C38  1  0.717600  0.820000  0.018700  1.0  -0.024
  C  C39  1  0.324100  0.797900  0.053500  1.0  0.6968
  C  C40  1  0.239400  0.242300  0.375500  1.0  0.0418
  C  C41  1  0.220600  0.345000  0.310900  1.0  -0.0355
  C  C42  1  0.270500  0.320000  0.236100  1.0  -0.1401
  C  C43  1  0.353000  0.080900  0.293800  1.0  0.0006
  C  C44  1  0.336600  0.186000  0.229300  1.0  -0.0678
  C  C45  1  0.244400  0.438100  0.167200  1.0  0.6293
  C  C46  1  0.760400  0.151500  0.183200  1.0  0.0316
  C  C47  1  0.711100  0.154500  0.260700  1.0  -0.0409
  C  C48  1  0.804200  0.158000  0.308800  1.0  -0.1095
  C  C49  1  0.945200  0.157500  0.276500  1.0  -0.0063
  C  C50  1  0.996600  0.148500  0.199200  1.0  0.012
  C  C51  1  0.745600  0.177100  0.392400  1.0  0.7346
  C  C52  1  0.383600  0.134500  0.856800  1.0  0.0196
  C  C53  1  0.518800  0.146500  0.866100  1.0  -0.0535
  C  C54  1  0.536300  0.177600  0.933700  1.0  -0.067
  C  C55  1  0.415100  0.193300  0.991600  1.0  -0.0851
  C  C56  1  0.282400  0.180000  0.981300  1.0  -0.0248
  C  C57  1  0.675900  0.202100  0.946500  1.0  0.6963
  C  C58  1  0.760600  0.757700  0.624500  1.0  0.0439
  C  C59  1  0.779400  0.655000  0.689100  1.0  -0.0373
  C  C60  1  0.729500  0.680000  0.763900  1.0  -0.1432
  C  C61  1  0.647000  0.919100  0.706200  1.0  -0.0003
  C  C62  1  0.663400  0.814000  0.770700  1.0  -0.0682
  C  C63  1  0.755600  0.561900  0.832800  1.0  0.6284
  N  N64  1  0.098900  0.849700  0.847200  1.0  0.3428
  N  N65  1  0.732300  0.849000  0.085300  1.0  0.3425
  N  N66  1  0.299600  0.113700  0.367100  1.0  0.2339
  N  N67  1  0.901100  0.150300  0.152800  1.0  0.3433
  N  N68  1  0.267700  0.151000  0.914700  1.0  0.3406
  N  N69  1  0.700400  0.886300  0.632900  1.0  0.2354
  O  O70  1  0.053300  0.839900  0.922700  1.0  -0.6387
  O  O71  1  0.166700  0.808800  0.570300  1.0  -0.4803
  O  O72  1  0.385800  0.827600  0.581600  1.0  -0.692
  O  O73  1  0.861500  0.858900  0.094900  1.0  -0.5785
  O  O74  1  0.200100  0.874900  0.079700  1.0  -0.6435
  O  O75  1  0.337100  0.708300  0.018600  1.0  -0.643
  O  O76  1  0.318000  0.008800  0.428900  1.0  -0.5937
  O  O77  1  0.168000  0.553900  0.178900  1.0  -0.5127
  O  O78  1  0.299000  0.411200  0.099800  1.0  -0.664
  O  O79  1  0.946700  0.160100  0.077300  1.0  -0.6376
  O  O80  1  0.833300  0.191200  0.429700  1.0  -0.4844
  O  O81  1  0.614200  0.172400  0.418400  1.0  -0.6891
  O  O82  1  0.138500  0.141100  0.905100  1.0  -0.5797
  O  O83  1  0.799900  0.125100  0.920300  1.0  -0.6425
  O  O84  1  0.662900  0.291700  0.981400  1.0  -0.6422
  O  O85  1  0.682000  0.991200  0.571100  1.0  -0.596
  O  O86  1  0.832000  0.446100  0.821100  1.0  -0.513
  O  O87  1  0.701000  0.588800  0.900200  1.0  -0.6633
