# generated using pymatgen
data_Ni3H28C34N2O19
_symmetry_space_group_name_H-M   'P 1'
_cell_length_a   14.11570000
_cell_length_b   17.86690000
_cell_length_c   19.83940000
_cell_angle_alpha   91.25600000
_cell_angle_beta   90.00000000
_cell_angle_gamma   90.00000000
_symmetry_Int_Tables_number   1
_chemical_formula_structural   Ni3H28C34N2O19
_chemical_formula_sum   'Ni12 H112 C136 N8 O76'
_cell_volume   5002.36990377
_cell_formula_units_Z   4
loop_
 _symmetry_equiv_pos_site_id
 _symmetry_equiv_pos_as_xyz
  1  'x, y, z'
loop_
 _atom_site_type_symbol
 _atom_site_label
 _atom_site_symmetry_multiplicity
 _atom_site_fract_x
 _atom_site_fract_y
 _atom_site_fract_z
 _atom_site_occupancy
 _atom_site_charge
  Ni  Ni1  1  0.948100  0.751940  0.570930  1.0  0.9552
  Ni  Ni2  1  0.184030  0.797430  0.584080  1.0  1.0277
  Ni  Ni3  1  0.205920  0.302630  0.556380  1.0  0.9526
  Ni  Ni4  1  0.448100  0.748060  0.929070  1.0  0.9564
  Ni  Ni5  1  0.684030  0.702570  0.915920  1.0  1.0263
  Ni  Ni6  1  0.705920  0.197370  0.943620  1.0  0.953
  Ni  Ni7  1  0.051900  0.248060  0.429070  1.0  0.9538
  Ni  Ni8  1  0.815970  0.202570  0.415920  1.0  1.0277
  Ni  Ni9  1  0.794080  0.697370  0.443620  1.0  0.9541
  Ni  Ni10  1  0.551900  0.251940  0.070930  1.0  0.9521
  Ni  Ni11  1  0.315970  0.297430  0.084080  1.0  1.0292
  Ni  Ni12  1  0.294080  0.802630  0.056380  1.0  0.9537
  H  H13  1  0.010100  0.681900  0.427500  1.0  0.1165
  H  H14  1  0.998300  0.461600  0.376400  1.0  0.1299
  H  H15  1  0.192000  0.536600  0.514900  1.0  0.1295
  H  H16  1  0.862900  0.962100  0.399400  1.0  0.1455
  H  H17  1  0.135100  0.031900  0.427200  1.0  0.1283
  H  H18  1  0.071000  0.812700  0.443700  1.0  0.1209
  H  H19  1  0.060300  0.703000  0.958800  1.0  0.1406
  H  H20  1  0.925500  0.704000  0.779300  1.0  0.132
  H  H21  1  0.206200  0.745200  0.789200  1.0  0.1245
  H  H22  1  0.600800  0.363900  0.498800  1.0  0.1378
  H  H23  1  0.566500  0.447100  0.518000  1.0  0.1379
  H  H24  1  0.510500  0.398900  0.461300  1.0  0.1296
  H  H25  1  0.590700  0.360300  0.623700  1.0  0.1408
  H  H26  1  0.490300  0.344000  0.654900  1.0  0.1455
  H  H27  1  0.541500  0.282800  0.609600  1.0  0.1531
  H  H28  1  0.365300  0.380000  0.509300  1.0  0.0714
  H  H29  1  0.510100  0.818100  0.072500  1.0  0.116
  H  H30  1  0.498300  0.038400  0.123600  1.0  0.1293
  H  H31  1  0.692000  0.963400  0.985100  1.0  0.13
  H  H32  1  0.362900  0.537900  0.100600  1.0  0.1458
  H  H33  1  0.635100  0.468100  0.072800  1.0  0.1287
  H  H34  1  0.571000  0.687300  0.056300  1.0  0.1214
  H  H35  1  0.560300  0.797000  0.541200  1.0  0.1411
  H  H36  1  0.425500  0.796000  0.720700  1.0  0.1316
  H  H37  1  0.706200  0.754800  0.710800  1.0  0.1252
  H  H38  1  0.100800  0.136100  0.001200  1.0  0.1375
  H  H39  1  0.066500  0.052900  0.982000  1.0  0.137
  H  H40  1  0.010500  0.101100  0.038700  1.0  0.1294
  H  H41  1  0.090700  0.139700  0.876300  1.0  0.1423
  H  H42  1  0.990300  0.156000  0.845100  1.0  0.145
  H  H43  1  0.041500  0.217200  0.890400  1.0  0.1542
  H  H44  1  0.865300  0.120000  0.990700  1.0  0.0723
  H  H45  1  0.989900  0.318100  0.572500  1.0  0.1167
  H  H46  1  0.001700  0.538400  0.623600  1.0  0.1294
  H  H47  1  0.808000  0.463400  0.485100  1.0  0.1303
  H  H48  1  0.137100  0.037900  0.600600  1.0  0.1444
  H  H49  1  0.864900  0.968100  0.572800  1.0  0.1291
  H  H50  1  0.929000  0.187300  0.556300  1.0  0.1215
  H  H51  1  0.939700  0.297000  0.041200  1.0  0.1408
  H  H52  1  0.074500  0.296000  0.220700  1.0  0.132
  H  H53  1  0.793800  0.254800  0.210800  1.0  0.125
  H  H54  1  0.399200  0.636100  0.501200  1.0  0.1373
  H  H55  1  0.433500  0.552900  0.482000  1.0  0.1366
  H  H56  1  0.489500  0.601100  0.538700  1.0  0.1303
  H  H57  1  0.409300  0.639700  0.376300  1.0  0.1406
  H  H58  1  0.509700  0.656000  0.345100  1.0  0.143
  H  H59  1  0.458500  0.717200  0.390400  1.0  0.1544
  H  H60  1  0.634700  0.620000  0.490700  1.0  0.0721
  H  H61  1  0.489900  0.181900  0.927500  1.0  0.1164
  H  H62  1  0.501700  0.961600  0.876400  1.0  0.1293
  H  H63  1  0.308000  0.036600  0.014900  1.0  0.1297
  H  H64  1  0.637100  0.462100  0.899400  1.0  0.1455
  H  H65  1  0.364900  0.531900  0.927200  1.0  0.1294
  H  H66  1  0.429000  0.312700  0.943700  1.0  0.1211
  H  H67  1  0.439700  0.203000  0.458800  1.0  0.1406
  H  H68  1  0.574500  0.204000  0.279300  1.0  0.1324
  H  H69  1  0.293800  0.245200  0.289200  1.0  0.1242
  H  H70  1  0.899200  0.863900  0.998800  1.0  0.1376
  H  H71  1  0.933500  0.947100  0.018000  1.0  0.1385
  H  H72  1  0.989500  0.898900  0.961300  1.0  0.1299
  H  H73  1  0.909300  0.860300  0.123700  1.0  0.1415
  H  H74  1  0.009700  0.844000  0.154900  1.0  0.1451
  H  H75  1  0.958500  0.782800  0.109600  1.0  0.1525
  H  H76  1  0.134700  0.880000  0.009300  1.0  0.0709
  H  H77  1  0.766800  0.846500  0.810600  1.0  0.1033
  H  H78  1  0.720300  0.922400  0.836400  1.0  0.1233
  H  H79  1  0.818700  0.896200  0.866200  1.0  0.1218
  H  H80  1  0.889800  0.040600  0.763100  1.0  0.1119
  H  H81  1  0.818700  0.036800  0.824400  1.0  0.1154
  H  H82  1  0.920700  0.001500  0.830400  1.0  0.1143
  H  H83  1  0.945700  0.921100  0.718500  1.0  0.1165
  H  H84  1  0.880400  0.849300  0.719700  1.0  0.1163
  H  H85  1  0.942600  0.871200  0.783300  1.0  0.1121
  H  H86  1  0.789200  0.978600  0.682100  1.0  0.1386
  H  H87  1  0.734100  0.905100  0.700500  1.0  0.12
  H  H88  1  0.706300  0.982100  0.735300  1.0  0.1189
  H  H89  1  0.266800  0.653500  0.689400  1.0  0.1017
  H  H90  1  0.220300  0.577600  0.663600  1.0  0.1227
  H  H91  1  0.318700  0.603800  0.633800  1.0  0.1216
  H  H92  1  0.389800  0.459400  0.736900  1.0  0.1109
  H  H93  1  0.318700  0.463200  0.675600  1.0  0.1165
  H  H94  1  0.420700  0.498500  0.669600  1.0  0.1139
  H  H95  1  0.445700  0.578900  0.781500  1.0  0.1168
  H  H96  1  0.380400  0.650700  0.780300  1.0  0.1155
  H  H97  1  0.442600  0.628800  0.716700  1.0  0.1126
  H  H98  1  0.289200  0.521400  0.817900  1.0  0.1379
  H  H99  1  0.234100  0.594900  0.799500  1.0  0.1217
  H  H100  1  0.206300  0.517900  0.764700  1.0  0.1187
  H  H101  1  0.233200  0.153500  0.189400  1.0  0.1013
  H  H102  1  0.279700  0.077600  0.163600  1.0  0.1264
  H  H103  1  0.181300  0.103800  0.133800  1.0  0.1216
  H  H104  1  0.110200  0.959400  0.236900  1.0  0.111
  H  H105  1  0.181300  0.963200  0.175600  1.0  0.1159
  H  H106  1  0.079300  0.998500  0.169600  1.0  0.1135
  H  H107  1  0.054300  0.078900  0.281500  1.0  0.116
  H  H108  1  0.119600  0.150700  0.280300  1.0  0.1153
  H  H109  1  0.057400  0.128800  0.216700  1.0  0.1117
  H  H110  1  0.210800  0.021400  0.317900  1.0  0.1381
  H  H111  1  0.265900  0.094900  0.299500  1.0  0.121
  H  H112  1  0.293700  0.017900  0.264700  1.0  0.1209
  H  H113  1  0.733200  0.346500  0.310600  1.0  0.1022
  H  H114  1  0.779700  0.422400  0.336400  1.0  0.1263
  H  H115  1  0.681300  0.396200  0.366200  1.0  0.1217
  H  H116  1  0.610200  0.540600  0.263100  1.0  0.1123
  H  H117  1  0.681300  0.536800  0.324400  1.0  0.1155
  H  H118  1  0.579300  0.501500  0.330400  1.0  0.1136
  H  H119  1  0.554300  0.421100  0.218500  1.0  0.1166
  H  H120  1  0.619600  0.349300  0.219700  1.0  0.1164
  H  H121  1  0.557400  0.371200  0.283300  1.0  0.1111
  H  H122  1  0.710800  0.478600  0.182100  1.0  0.1387
  H  H123  1  0.765900  0.405100  0.200500  1.0  0.1199
  H  H124  1  0.793700  0.482100  0.235300  1.0  0.1211
  C  C125  1  0.066700  0.741900  0.697400  1.0  0.6608
  C  C126  1  0.142500  0.681600  0.519400  1.0  0.6482
  C  C127  1  0.108400  0.618000  0.476700  1.0  -0.0619
  C  C128  1  0.033300  0.632400  0.431500  1.0  -0.0577
  C  C129  1  0.992200  0.575200  0.393300  1.0  -0.1179
  C  C130  1  0.025900  0.502300  0.401600  1.0  0.0242
  C  C131  1  0.099000  0.488100  0.446600  1.0  -0.1225
  C  C132  1  0.141000  0.546100  0.484100  1.0  -0.0253
  C  C133  1  0.122800  0.406500  0.462000  1.0  0.6899
  C  C134  1  0.885800  0.815900  0.429500  1.0  0.6902
  C  C135  1  0.956000  0.878400  0.424000  1.0  -0.0913
  C  C136  1  0.926500  0.951700  0.410300  1.0  -0.0067
  C  C137  1  0.993900  0.009500  0.413100  1.0  -0.1131
  C  C138  1  0.089300  0.992800  0.426100  1.0  -0.053
  C  C139  1  0.117600  0.920100  0.436500  1.0  -0.1101
  C  C140  1  0.050800  0.862400  0.436000  1.0  -0.083
  C  C141  1  0.219800  0.904900  0.454400  1.0  0.7078
  C  C142  1  0.964800  0.091100  0.410700  1.0  0.6852
  C  C143  1  0.236400  0.734900  0.921500  1.0  0.6886
  C  C144  1  0.147400  0.723200  0.878400  1.0  -0.1191
  C  C145  1  0.062300  0.707200  0.911300  1.0  -0.0127
  C  C146  1  0.980400  0.700000  0.873300  1.0  -0.1077
  C  C147  1  0.981700  0.709300  0.804800  1.0  -0.0059
  C  C148  1  0.066400  0.726200  0.772700  1.0  -0.1253
  C  C149  1  0.149000  0.732800  0.810900  1.0  -0.0667
  C  C150  1  0.888900  0.684400  0.910300  1.0  0.7323
  C  C151  1  0.909100  0.591500  0.347900  1.0  0.7609
  C  C152  1  0.391400  0.362900  0.550300  1.0  0.2794
  C  C153  1  0.544600  0.396000  0.504700  1.0  -0.1204
  C  C154  1  0.529900  0.336400  0.615100  1.0  -0.109
  C  C155  1  0.566700  0.758100  0.802600  1.0  0.661
  C  C156  1  0.642500  0.818400  0.980600  1.0  0.6477
  C  C157  1  0.608400  0.882000  0.023300  1.0  -0.0604
  C  C158  1  0.533300  0.867600  0.068500  1.0  -0.0554
  C  C159  1  0.492200  0.924800  0.106700  1.0  -0.1127
  C  C160  1  0.525900  0.997700  0.098400  1.0  0.025
  C  C161  1  0.599000  0.011900  0.053400  1.0  -0.1207
  C  C162  1  0.641000  0.953900  0.015900  1.0  -0.0266
  C  C163  1  0.622800  0.093500  0.038000  1.0  0.6921
  C  C164  1  0.385800  0.684100  0.070500  1.0  0.6913
  C  C165  1  0.456000  0.621600  0.076000  1.0  -0.0857
  C  C166  1  0.426500  0.548300  0.089700  1.0  -0.0069
  C  C167  1  0.493900  0.490500  0.086900  1.0  -0.1124
  C  C168  1  0.589300  0.507200  0.073900  1.0  -0.0531
  C  C169  1  0.617600  0.579900  0.063500  1.0  -0.1112
  C  C170  1  0.550800  0.637600  0.064000  1.0  -0.0821
  C  C171  1  0.719800  0.595100  0.045600  1.0  0.7074
  C  C172  1  0.464800  0.408900  0.089300  1.0  0.6858
  C  C173  1  0.736400  0.765100  0.578500  1.0  0.6882
  C  C174  1  0.647400  0.776800  0.621600  1.0  -0.1193
  C  C175  1  0.562300  0.792800  0.588700  1.0  -0.0117
  C  C176  1  0.480400  0.800000  0.626700  1.0  -0.11
  C  C177  1  0.481700  0.790700  0.695200  1.0  -0.0056
  C  C178  1  0.566400  0.773800  0.727300  1.0  -0.1249
  C  C179  1  0.649000  0.767200  0.689100  1.0  -0.0672
  C  C180  1  0.388900  0.815600  0.589700  1.0  0.7325
  C  C181  1  0.409100  0.908500  0.152100  1.0  0.7634
  C  C182  1  0.891400  0.137100  0.949700  1.0  0.2797
  C  C183  1  0.044600  0.104000  0.995300  1.0  -0.1193
  C  C184  1  0.029900  0.163600  0.884900  1.0  -0.1105
  C  C185  1  0.933300  0.258100  0.302600  1.0  0.6607
  C  C186  1  0.857500  0.318400  0.480600  1.0  0.6465
  C  C187  1  0.891600  0.382000  0.523300  1.0  -0.0606
  C  C188  1  0.966700  0.367600  0.568500  1.0  -0.0544
  C  C189  1  0.007800  0.424800  0.606700  1.0  -0.1132
  C  C190  1  0.974100  0.497700  0.598400  1.0  0.0229
  C  C191  1  0.901000  0.511900  0.553400  1.0  -0.1209
  C  C192  1  0.859000  0.453900  0.515900  1.0  -0.0262
  C  C193  1  0.877200  0.593500  0.538000  1.0  0.6915
  C  C194  1  0.114200  0.184100  0.570500  1.0  0.6916
  C  C195  1  0.044000  0.121600  0.576000  1.0  -0.0862
  C  C196  1  0.073500  0.048300  0.589700  1.0  -0.0064
  C  C197  1  0.006100  0.990500  0.586900  1.0  -0.1138
  C  C198  1  0.910700  0.007200  0.573900  1.0  -0.0534
  C  C199  1  0.882400  0.079900  0.563500  1.0  -0.1098
  C  C200  1  0.949200  0.137600  0.564000  1.0  -0.0818
  C  C201  1  0.780200  0.095100  0.545600  1.0  0.7071
  C  C202  1  0.035200  0.908900  0.589300  1.0  0.6866
  C  C203  1  0.763600  0.265100  0.078500  1.0  0.6889
  C  C204  1  0.852600  0.276800  0.121600  1.0  -0.1202
  C  C205  1  0.937700  0.292800  0.088700  1.0  -0.0113
  C  C206  1  0.019600  0.300000  0.126700  1.0  -0.11
  C  C207  1  0.018300  0.290700  0.195200  1.0  -0.0038
  C  C208  1  0.933600  0.273800  0.227300  1.0  -0.1255
  C  C209  1  0.851000  0.267200  0.189100  1.0  -0.0677
  C  C210  1  0.111100  0.315600  0.089700  1.0  0.7316
  C  C211  1  0.090900  0.408500  0.652100  1.0  0.7663
  C  C212  1  0.608600  0.637100  0.449700  1.0  0.2776
  C  C213  1  0.455400  0.604000  0.495300  1.0  -0.1174
  C  C214  1  0.470100  0.663600  0.384900  1.0  -0.1093
  C  C215  1  0.433300  0.241900  0.197400  1.0  0.6603
  C  C216  1  0.357500  0.181600  0.019400  1.0  0.6473
  C  C217  1  0.391600  0.118000  0.976700  1.0  -0.0614
  C  C218  1  0.466700  0.132400  0.931500  1.0  -0.0558
  C  C219  1  0.507800  0.075200  0.893300  1.0  -0.1168
  C  C220  1  0.474100  0.002300  0.901600  1.0  0.0235
  C  C221  1  0.401000  0.988100  0.946600  1.0  -0.1224
  C  C222  1  0.359000  0.046100  0.984100  1.0  -0.0235
  C  C223  1  0.377200  0.906500  0.962000  1.0  0.6915
  C  C224  1  0.614200  0.315900  0.929500  1.0  0.6892
  C  C225  1  0.544000  0.378400  0.924000  1.0  -0.0927
  C  C226  1  0.573500  0.451700  0.910300  1.0  -0.0078
  C  C227  1  0.506100  0.509500  0.913100  1.0  -0.1136
  C  C228  1  0.410700  0.492800  0.926100  1.0  -0.0533
  C  C229  1  0.382400  0.420100  0.936500  1.0  -0.1106
  C  C230  1  0.449200  0.362400  0.936000  1.0  -0.0821
  C  C231  1  0.280200  0.404900  0.954400  1.0  0.7075
  C  C232  1  0.535200  0.591100  0.910700  1.0  0.6862
  C  C233  1  0.263600  0.234900  0.421500  1.0  0.6894
  C  C234  1  0.352600  0.223200  0.378400  1.0  -0.12
  C  C235  1  0.437700  0.207200  0.411300  1.0  -0.0123
  C  C236  1  0.519600  0.200000  0.373300  1.0  -0.1084
  C  C237  1  0.518300  0.209300  0.304800  1.0  -0.0053
  C  C238  1  0.433600  0.226200  0.272700  1.0  -0.1257
  C  C239  1  0.351000  0.232800  0.310900  1.0  -0.0684
  C  C240  1  0.611100  0.184400  0.410300  1.0  0.7329
  C  C241  1  0.590900  0.091500  0.847900  1.0  0.762
  C  C242  1  0.108600  0.862900  0.050300  1.0  0.2779
  C  C243  1  0.955400  0.896000  0.004700  1.0  -0.118
  C  C244  1  0.970100  0.836400  0.115100  1.0  -0.1086
  C  C245  1  0.779200  0.897400  0.826300  1.0  -0.1826
  C  C246  1  0.866900  0.010600  0.799900  1.0  -0.1558
  C  C247  1  0.906800  0.890800  0.747300  1.0  -0.1603
  C  C248  1  0.759300  0.951900  0.717600  1.0  -0.185
  C  C249  1  0.279200  0.602600  0.673700  1.0  -0.1816
  C  C250  1  0.366900  0.489400  0.700100  1.0  -0.1548
  C  C251  1  0.406800  0.609200  0.752700  1.0  -0.1603
  C  C252  1  0.259300  0.548100  0.782400  1.0  -0.185
  C  C253  1  0.220800  0.102600  0.173700  1.0  -0.1825
  C  C254  1  0.133100  0.989400  0.200100  1.0  -0.1539
  C  C255  1  0.093200  0.109200  0.252700  1.0  -0.16
  C  C256  1  0.240700  0.048100  0.282400  1.0  -0.1852
  C  C257  1  0.720800  0.397400  0.326300  1.0  -0.1827
  C  C258  1  0.633100  0.510600  0.299900  1.0  -0.1556
  C  C259  1  0.593200  0.390800  0.247300  1.0  -0.1603
  C  C260  1  0.740700  0.451900  0.217600  1.0  -0.1852
  N  N261  1  0.483800  0.366600  0.556100  1.0  0.0075
  N  N262  1  0.983800  0.133400  0.943900  1.0  0.0072
  N  N263  1  0.516200  0.633400  0.443900  1.0  0.0071
  N  N264  1  0.016200  0.866600  0.056100  1.0  0.0079
  N  N265  1  0.828600  0.937400  0.775300  1.0  0.1124
  N  N266  1  0.328600  0.562600  0.724700  1.0  0.1147
  N  N267  1  0.171400  0.062600  0.224700  1.0  0.1126
  N  N268  1  0.671400  0.437400  0.275300  1.0  0.1103
  O  O269  1  0.989800  0.738400  0.668100  1.0  -0.566
  O  O270  1  0.148400  0.757000  0.673100  1.0  -0.5724
  O  O271  1  0.085400  0.736700  0.533400  1.0  -0.6636
  O  O272  1  0.225500  0.684600  0.543100  1.0  -0.5509
  O  O273  1  0.073400  0.358100  0.432400  1.0  -0.5665
  O  O274  1  0.188200  0.396000  0.504500  1.0  -0.5589
  O  O275  1  0.906200  0.763100  0.469500  1.0  -0.6388
  O  O276  1  0.812700  0.811700  0.394300  1.0  -0.5593
  O  O277  1  0.234800  0.840400  0.484100  1.0  -0.6225
  O  O278  1  0.281400  0.949400  0.442200  1.0  -0.485
  O  O279  1  0.877100  0.103200  0.400700  1.0  -0.5721
  O  O280  1  0.029100  0.137400  0.418500  1.0  -0.5657
  O  O281  1  0.220100  0.748800  0.983900  1.0  -0.5935
  O  O282  1  0.314500  0.730600  0.892000  1.0  -0.5651
  O  O283  1  0.813600  0.678800  0.877300  1.0  -0.5481
  O  O284  1  0.895100  0.679700  0.974800  1.0  -0.4945
  O  O285  1  0.860400  0.651100  0.360300  1.0  -0.6212
  O  O286  1  0.891200  0.546200  0.301700  1.0  -0.5775
  O  O287  1  0.335500  0.338100  0.592600  1.0  -0.6171
  O  O288  1  0.489800  0.761600  0.831900  1.0  -0.5659
  O  O289  1  0.648400  0.743000  0.826900  1.0  -0.5722
  O  O290  1  0.585400  0.763300  0.966600  1.0  -0.6641
  O  O291  1  0.725500  0.815400  0.956900  1.0  -0.5507
  O  O292  1  0.573400  0.141900  0.067600  1.0  -0.5679
  O  O293  1  0.688200  0.104000  0.995500  1.0  -0.5586
  O  O294  1  0.406200  0.736900  0.030500  1.0  -0.638
  O  O295  1  0.312700  0.688300  0.105700  1.0  -0.5599
  O  O296  1  0.734800  0.659600  0.015900  1.0  -0.6224
  O  O297  1  0.781400  0.550600  0.057800  1.0  -0.4867
  O  O298  1  0.377100  0.396800  0.099300  1.0  -0.5708
  O  O299  1  0.529100  0.362600  0.081500  1.0  -0.5656
  O  O300  1  0.720100  0.751200  0.516100  1.0  -0.594
  O  O301  1  0.814500  0.769400  0.608000  1.0  -0.5651
  O  O302  1  0.313600  0.821200  0.622700  1.0  -0.5473
  O  O303  1  0.395100  0.820300  0.525200  1.0  -0.4951
  O  O304  1  0.360400  0.848900  0.139700  1.0  -0.6222
  O  O305  1  0.391200  0.953800  0.198300  1.0  -0.5765
  O  O306  1  0.835500  0.161900  0.907400  1.0  -0.6147
  O  O307  1  0.010200  0.261600  0.331900  1.0  -0.5661
  O  O308  1  0.851600  0.243000  0.326900  1.0  -0.5722
  O  O309  1  0.914600  0.263300  0.466600  1.0  -0.665
  O  O310  1  0.774500  0.315400  0.456900  1.0  -0.5499
  O  O311  1  0.926600  0.641900  0.567600  1.0  -0.5679
  O  O312  1  0.811800  0.604000  0.495500  1.0  -0.5596
  O  O313  1  0.093800  0.236900  0.530500  1.0  -0.6376
  O  O314  1  0.187300  0.188300  0.605700  1.0  -0.5605
  O  O315  1  0.765200  0.159600  0.515900  1.0  -0.6247
  O  O316  1  0.718600  0.050600  0.557800  1.0  -0.4844
  O  O317  1  0.122900  0.896800  0.599300  1.0  -0.5724
  O  O318  1  0.970900  0.862600  0.581500  1.0  -0.5663
  O  O319  1  0.779900  0.251200  0.016100  1.0  -0.5938
  O  O320  1  0.685500  0.269400  0.108000  1.0  -0.5638
  O  O321  1  0.186400  0.321200  0.122700  1.0  -0.5485
  O  O322  1  0.104900  0.320300  0.025200  1.0  -0.4955
  O  O323  1  0.139600  0.348900  0.639700  1.0  -0.6226
  O  O324  1  0.108800  0.453800  0.698300  1.0  -0.5743
  O  O325  1  0.664500  0.661900  0.407400  1.0  -0.616
  O  O326  1  0.510200  0.238400  0.168100  1.0  -0.5661
  O  O327  1  0.351600  0.257000  0.173100  1.0  -0.5719
  O  O328  1  0.414600  0.236700  0.033400  1.0  -0.6643
  O  O329  1  0.274500  0.184600  0.043100  1.0  -0.5504
  O  O330  1  0.426600  0.858100  0.932400  1.0  -0.5656
  O  O331  1  0.311800  0.896000  0.004500  1.0  -0.5593
  O  O332  1  0.593800  0.263100  0.969500  1.0  -0.6381
  O  O333  1  0.687300  0.311700  0.894300  1.0  -0.5601
  O  O334  1  0.265200  0.340400  0.984100  1.0  -0.6256
  O  O335  1  0.218600  0.449400  0.942200  1.0  -0.4831
  O  O336  1  0.622900  0.603200  0.900700  1.0  -0.5726
  O  O337  1  0.470900  0.637400  0.918500  1.0  -0.5666
  O  O338  1  0.279900  0.248800  0.483900  1.0  -0.593
  O  O339  1  0.185500  0.230600  0.392000  1.0  -0.5635
  O  O340  1  0.686400  0.178800  0.377300  1.0  -0.5486
  O  O341  1  0.604900  0.179700  0.474800  1.0  -0.4948
  O  O342  1  0.639600  0.151100  0.860300  1.0  -0.6219
  O  O343  1  0.608800  0.046200  0.801700  1.0  -0.5779
  O  O344  1  0.164500  0.838100  0.092600  1.0  -0.6165
