# generated using pymatgen
data_Co3H32C40(NO6)2
_symmetry_space_group_name_H-M   'P 1'
_cell_length_a   11.39720000
_cell_length_b   11.82550000
_cell_length_c   18.99140000
_cell_angle_alpha   90.00000000
_cell_angle_beta   90.00000000
_cell_angle_gamma   118.03800000
_symmetry_Int_Tables_number   1
_chemical_formula_structural   Co3H32C40(NO6)2
_chemical_formula_sum   'Co6 H64 C80 N4 O24'
_cell_volume   2259.20851538
_cell_formula_units_Z   2
loop_
 _symmetry_equiv_pos_site_id
 _symmetry_equiv_pos_as_xyz
  1  'x, y, z'
loop_
 _atom_site_type_symbol
 _atom_site_label
 _atom_site_symmetry_multiplicity
 _atom_site_fract_x
 _atom_site_fract_y
 _atom_site_fract_z
 _atom_site_occupancy
 _atom_site_charge
  Co  Co1  1  0.316290  0.167960  0.505680  1.0  0.8862
  Co  Co2  1  0.183710  0.332040  0.005680  1.0  0.8865
  Co  Co3  1  0.683710  0.832040  0.494320  1.0  0.8863
  Co  Co4  1  0.816290  0.667960  0.994320  1.0  0.8869
  Co  Co5  1  0.500000  0.500000  0.500000  1.0  1.1859
  Co  Co6  1  0.000000  0.000000  0.000000  1.0  1.1859
  H  H7  1  0.538300  0.111500  0.335400  1.0  0.0998
  H  H8  1  0.839000  0.494800  0.233500  1.0  0.1063
  H  H9  1  0.704600  0.492600  0.321200  1.0  0.1085
  H  H10  1  0.918300  0.373100  0.153000  1.0  0.0969
  H  H11  1  0.741400  0.991800  0.163100  1.0  0.0991
  H  H12  1  0.612700  0.990700  0.252500  1.0  0.1069
  H  H13  1  0.207700  0.491300  0.552800  1.0  0.1026
  H  H14  1  0.144500  0.649100  0.604200  1.0  0.0967
  H  H15  1  0.992100  0.257900  0.396400  1.0  0.1118
  H  H16  1  0.161300  0.935500  0.530700  1.0  0.2502
  H  H17  1  0.353800  0.938300  0.549100  1.0  0.0996
  H  H18  1  0.272300  0.822800  0.495900  1.0  0.0794
  H  H19  1  0.384200  0.956000  0.465200  1.0  0.0987
  H  H20  1  0.072100  0.945900  0.428000  1.0  0.1058
  H  H21  1  0.108600  0.830500  0.424900  1.0  0.083
  H  H22  1  0.208900  0.964400  0.388600  1.0  0.1019
  H  H23  1  0.961700  0.388500  0.835400  1.0  0.0994
  H  H24  1  0.661000  0.005200  0.733500  1.0  0.1057
  H  H25  1  0.795400  0.007400  0.821200  1.0  0.1085
  H  H26  1  0.581700  0.126900  0.653000  1.0  0.0973
  H  H27  1  0.758600  0.508200  0.663100  1.0  0.0994
  H  H28  1  0.887300  0.509300  0.752500  1.0  0.1076
  H  H29  1  0.292300  0.008700  0.052800  1.0  0.1028
  H  H30  1  0.355500  0.850900  0.104200  1.0  0.0968
  H  H31  1  0.507900  0.242100  0.896400  1.0  0.1121
  H  H32  1  0.338700  0.564500  0.030700  1.0  0.2492
  H  H33  1  0.146200  0.561700  0.049100  1.0  0.0995
  H  H34  1  0.227700  0.677200  0.995900  1.0  0.0814
  H  H35  1  0.115800  0.544000  0.965200  1.0  0.0993
  H  H36  1  0.427900  0.554100  0.928000  1.0  0.1076
  H  H37  1  0.391400  0.669500  0.924900  1.0  0.0855
  H  H38  1  0.291100  0.535600  0.888600  1.0  0.1022
  H  H39  1  0.461700  0.888500  0.664600  1.0  0.0993
  H  H40  1  0.161000  0.505200  0.766500  1.0  0.1055
  H  H41  1  0.295400  0.507400  0.678800  1.0  0.1087
  H  H42  1  0.081700  0.626900  0.847000  1.0  0.0971
  H  H43  1  0.258600  0.008200  0.836900  1.0  0.1001
  H  H44  1  0.387300  0.009300  0.747500  1.0  0.1079
  H  H45  1  0.792300  0.508700  0.447200  1.0  0.1029
  H  H46  1  0.855500  0.350900  0.395800  1.0  0.0969
  H  H47  1  0.007900  0.742100  0.603600  1.0  0.1118
  H  H48  1  0.838700  0.064500  0.469300  1.0  0.2492
  H  H49  1  0.646200  0.061700  0.450900  1.0  0.0996
  H  H50  1  0.727700  0.177200  0.504100  1.0  0.0815
  H  H51  1  0.615800  0.044000  0.534800  1.0  0.0992
  H  H52  1  0.927900  0.054100  0.572000  1.0  0.106
  H  H53  1  0.891400  0.169500  0.575100  1.0  0.0849
  H  H54  1  0.791100  0.035600  0.611400  1.0  0.1022
  H  H55  1  0.038300  0.611500  0.164600  1.0  0.1002
  H  H56  1  0.339000  0.994800  0.266500  1.0  0.1063
  H  H57  1  0.204600  0.992600  0.178800  1.0  0.1084
  H  H58  1  0.418300  0.873100  0.347000  1.0  0.0969
  H  H59  1  0.241400  0.491800  0.336900  1.0  0.0996
  H  H60  1  0.112700  0.490700  0.247500  1.0  0.1072
  H  H61  1  0.707700  0.991300  0.947200  1.0  0.1025
  H  H62  1  0.644500  0.149100  0.895800  1.0  0.0969
  H  H63  1  0.492100  0.757900  0.103600  1.0  0.1121
  H  H64  1  0.661300  0.435500  0.969300  1.0  0.2514
  H  H65  1  0.853800  0.438300  0.950900  1.0  0.0989
  H  H66  1  0.772300  0.322800  0.004100  1.0  0.0795
  H  H67  1  0.884200  0.456000  0.034800  1.0  0.0987
  H  H68  1  0.572100  0.445900  0.072000  1.0  0.1064
  H  H69  1  0.608600  0.330500  0.075100  1.0  0.0835
  H  H70  1  0.708900  0.464400  0.111400  1.0  0.1021
  C  C71  1  0.517600  0.301200  0.395700  1.0  0.6817
  C  C72  1  0.606000  0.299800  0.337220  1.0  -0.1221
  C  C73  1  0.598600  0.186900  0.314420  1.0  -0.0714
  C  C74  1  0.680400  0.183700  0.259110  1.0  0.0417
  C  C75  1  0.773800  0.300600  0.228270  1.0  0.038
  C  C76  1  0.780400  0.416500  0.253270  1.0  -0.1296
  C  C77  1  0.699400  0.416100  0.305650  1.0  -0.0623
  C  C78  1  0.856400  0.297300  0.173710  1.0  -0.0874
  C  C79  1  0.846900  0.184000  0.149340  1.0  -0.1366
  C  C80  1  0.938400  0.181700  0.092800  1.0  0.6914
  C  C81  1  0.751300  0.068000  0.179710  1.0  -0.0422
  C  C82  1  0.671600  0.067200  0.232950  1.0  -0.136
  C  C83  1  0.195700  0.296300  0.479570  1.0  0.6655
  C  C84  1  0.114900  0.365900  0.476430  1.0  -0.1334
  C  C85  1  0.138100  0.462800  0.521970  1.0  -0.0477
  C  C86  1  0.054000  0.521900  0.523890  1.0  0.0289
  C  C87  1  0.074300  0.621200  0.572050  1.0  -0.107
  C  C88  1  0.006600  0.323200  0.428390  1.0  -0.0665
  C  C89  1  0.317100  0.917100  0.501420  1.0  -0.1213
  C  C90  1  0.144600  0.922600  0.426890  1.0  -0.1217
  C  C91  1  0.982400  0.198800  0.895700  1.0  0.6805
  C  C92  1  0.894000  0.200200  0.837220  1.0  -0.1215
  C  C93  1  0.901400  0.313100  0.814420  1.0  -0.0737
  C  C94  1  0.819600  0.316300  0.759110  1.0  0.042
  C  C95  1  0.726200  0.199400  0.728270  1.0  0.0381
  C  C96  1  0.719600  0.083500  0.753270  1.0  -0.1284
  C  C97  1  0.800600  0.083900  0.805650  1.0  -0.0584
  C  C98  1  0.643600  0.202700  0.673710  1.0  -0.0875
  C  C99  1  0.653100  0.316000  0.649340  1.0  -0.1364
  C  C100  1  0.561600  0.318300  0.592800  1.0  0.6911
  C  C101  1  0.748700  0.432000  0.679710  1.0  -0.0437
  C  C102  1  0.828400  0.432800  0.732950  1.0  -0.1359
  C  C103  1  0.304300  0.203700  0.979570  1.0  0.665
  C  C104  1  0.385100  0.134100  0.976430  1.0  -0.1332
  C  C105  1  0.361900  0.037200  0.021970  1.0  -0.0471
  C  C106  1  0.446000  0.978100  0.023890  1.0  0.0291
  C  C107  1  0.425700  0.878800  0.072050  1.0  -0.1049
  C  C108  1  0.493400  0.176800  0.928390  1.0  -0.0648
  C  C109  1  0.182900  0.582900  0.001420  1.0  -0.1208
  C  C110  1  0.355400  0.577400  0.926890  1.0  -0.1208
  C  C111  1  0.482400  0.698800  0.604300  1.0  0.6803
  C  C112  1  0.394000  0.700200  0.662780  1.0  -0.1216
  C  C113  1  0.401400  0.813100  0.685580  1.0  -0.0752
  C  C114  1  0.319600  0.816300  0.740890  1.0  0.0418
  C  C115  1  0.226200  0.699400  0.771730  1.0  0.038
  C  C116  1  0.219600  0.583500  0.746730  1.0  -0.1282
  C  C117  1  0.300600  0.583900  0.694350  1.0  -0.0585
  C  C118  1  0.143600  0.702700  0.826290  1.0  -0.0865
  C  C119  1  0.153100  0.816000  0.850660  1.0  -0.1365
  C  C120  1  0.061600  0.818300  0.907200  1.0  0.6911
  C  C121  1  0.248700  0.932000  0.820290  1.0  -0.0416
  C  C122  1  0.328400  0.932800  0.767050  1.0  -0.1357
  C  C123  1  0.804300  0.703700  0.520430  1.0  0.6649
  C  C124  1  0.885100  0.634100  0.523570  1.0  -0.1333
  C  C125  1  0.861900  0.537200  0.478030  1.0  -0.044
  C  C126  1  0.946000  0.478100  0.476110  1.0  0.0293
  C  C127  1  0.925700  0.378800  0.427950  1.0  -0.1114
  C  C128  1  0.993400  0.676800  0.571610  1.0  -0.0639
  C  C129  1  0.682900  0.082900  0.498580  1.0  -0.1209
  C  C130  1  0.855400  0.077400  0.573110  1.0  -0.1203
  C  C131  1  0.017600  0.801200  0.104300  1.0  0.6819
  C  C132  1  0.106000  0.799800  0.162780  1.0  -0.1224
  C  C133  1  0.098600  0.686900  0.185580  1.0  -0.0724
  C  C134  1  0.180400  0.683700  0.240890  1.0  0.0416
  C  C135  1  0.273800  0.800600  0.271730  1.0  0.0379
  C  C136  1  0.280400  0.916500  0.246730  1.0  -0.1298
  C  C137  1  0.199400  0.916100  0.194350  1.0  -0.0614
  C  C138  1  0.356400  0.797300  0.326290  1.0  -0.087
  C  C139  1  0.346900  0.684000  0.350660  1.0  -0.137
  C  C140  1  0.438400  0.681700  0.407200  1.0  0.6915
  C  C141  1  0.251300  0.568000  0.320290  1.0  -0.0402
  C  C142  1  0.171600  0.567200  0.267050  1.0  -0.1359
  C  C143  1  0.695700  0.796300  0.020430  1.0  0.6653
  C  C144  1  0.614900  0.865900  0.023570  1.0  -0.1337
  C  C145  1  0.638100  0.962800  0.978030  1.0  -0.0452
  C  C146  1  0.554000  0.021900  0.976110  1.0  0.0291
  C  C147  1  0.574300  0.121200  0.927950  1.0  -0.1129
  C  C148  1  0.506600  0.823200  0.071610  1.0  -0.0654
  C  C149  1  0.817100  0.417100  0.998580  1.0  -0.1212
  C  C150  1  0.644600  0.422600  0.073110  1.0  -0.1214
  N  N151  1  0.220400  0.967300  0.493390  1.0  -0.3832
  N  N152  1  0.279600  0.532700  0.993390  1.0  -0.3826
  N  N153  1  0.779600  0.032700  0.506610  1.0  -0.3821
  N  N154  1  0.720400  0.467300  0.006610  1.0  -0.3816
  O  O155  1  0.304980  0.343410  0.514370  1.0  -0.6524
  O  O156  1  0.425430  0.195000  0.416120  1.0  -0.5774
  O  O157  1  0.543060  0.409850  0.419250  1.0  -0.6048
  O  O158  1  0.021880  0.289120  0.067740  1.0  -0.61
  O  O159  1  0.926900  0.074520  0.076730  1.0  -0.6016
  O  O160  1  0.153050  0.188850  0.451130  1.0  -0.5674
  O  O161  1  0.195020  0.156590  0.014370  1.0  -0.6529
  O  O162  1  0.074570  0.305000  0.916120  1.0  -0.5769
  O  O163  1  0.956940  0.090150  0.919250  1.0  -0.6055
  O  O164  1  0.478120  0.210880  0.567740  1.0  -0.6099
  O  O165  1  0.573100  0.425480  0.576730  1.0  -0.6023
  O  O166  1  0.346950  0.311150  0.951130  1.0  -0.5668
  O  O167  1  0.695020  0.656590  0.485630  1.0  -0.6526
  O  O168  1  0.574570  0.805000  0.583880  1.0  -0.5769
  O  O169  1  0.456940  0.590150  0.580750  1.0  -0.6054
  O  O170  1  0.978120  0.710880  0.932260  1.0  -0.6096
  O  O171  1  0.073100  0.925480  0.923270  1.0  -0.6013
  O  O172  1  0.846950  0.811150  0.548870  1.0  -0.5669
  O  O173  1  0.804980  0.843410  0.985630  1.0  -0.6525
  O  O174  1  0.925430  0.695000  0.083880  1.0  -0.5778
  O  O175  1  0.043060  0.909850  0.080750  1.0  -0.6045
  O  O176  1  0.521880  0.789120  0.432260  1.0  -0.6101
  O  O177  1  0.426900  0.574520  0.423270  1.0  -0.6009
  O  O178  1  0.653050  0.688850  0.048870  1.0  -0.5672
